data_PCOD8150969
_publ_section_title
;
Structure prediction by ZEFSAII (Michael W. Deem and Ramdas Pophale) SiO2 
 PCOD8150969
Probable space group: C 2/C
;
_chemical_formula_sum "Si O2"
_cell_formula_units_Z 52
_cell_length_a 15.837326
_cell_length_b 21.697053
_cell_length_c 12.803517
_cell_angle_alpha 90.000000
_cell_angle_beta 138.170121
_cell_angle_gamma 90.000000
_cell_volume 2934.177414
_symmetry_space_group_name_H-M "C 2/C"
_symmetry_group_IT_number 15
_symmetry_cell_setting 'monoclinic'
loop_
_space_group_symop_operation_xyz
x,y,z
-x,y,1/2-z
-x,-y,-z
x,-y,1/2+z
1/2+x,1/2+y,z
1/2-x,1/2+y,1/2-z
1/2-x,1/2-y,-z
1/2+x,1/2-y,1/2+z
loop_
_atom_site_type_symbol
_atom_site_label
_atom_site_fract_x
_atom_site_fract_y
_atom_site_fract_z
Si Si1 0.779823 0.497076 0.644231
Si Si2 0.894648 0.798902 0.563731
Si Si3 0.406208 0.408834 0.427540
Si Si4 0.363964 0.537658 0.674208
Si Si5 0.316080 0.425770 0.765983
Si Si6 0.000000 0.569742 0.750000
Si Si7 0.179554 0.333369 0.513092
O O1 0.670832 0.548951 0.561669
O O2 0.740874 0.451994 0.512222
O O3 0.791381 0.454850 0.758066
O O4 0.914735 0.527780 0.746658
O O5 0.912689 0.839375 0.476570
O O6 0.897160 0.728166 0.525601
O O7 0.757166 0.816301 0.481096
O O8 0.000000 0.811112 0.750000
O O9 0.345103 0.415667 0.255282
O O10 0.551986 0.429178 0.549653
O O11 0.500000 0.547303 0.750000
O O12 0.338399 0.466958 0.684022
O O13 0.273294 0.357203 0.691388
O O14 0.082838 0.611630 0.902759
#
# Coordination Sequence:
#
# PCOD8150969 Si02
#       7
#     8   8   8   8   8   4   8
#     4  11  22  35  53  82 116 146 178 216 285 327
#     4  11  21  36  58  80 107 143 185 234 271 308
#     4  11  20  33  58  84 108 137 189 234 268 319
#     4  11  18  32  55  84 110 134 176 233 274 316
#     4  11  20  34  58  83 108 143 179 231 272 326
#     4  12  22  36  52  76 120 150 174 212 274 354
#     4  11  23  35  54  81 112 146 183 219 274 332
#
# _framework density 17.722173000000002
#
# number of rings (size 3 to 8) (size 9 to 14) (size 15 to 20)
#    0.000    0.923    8.462    0.923    0.000    0.615 
#    0.000    0.000    0.000    0.923    2.000    0.000 
#    0.000    0.000    0.000    0.000    0.000    0.000 
#
# Total GULP energy -322312.766878 kJ/mol
# GULP energy per Si atom -12396.644880 kJ/mol
# Density = 1.768184 g / cm^3
# Si number density = 17.722173 Si / 1000 Ang^3
#
#
#
# Elastic Constant Matrix: (Units=GPa)
#
#
# Indices 1 2 3 4 5 6 
#
# 1 94.7869 44.4272 31.8885 0.0000 -1.0711 0.0000
# 2 44.4272 86.9419 26.2310 0.0000 -8.5893 0.0000
# 3 31.8885 26.2310 64.3865 0.0000 -3.5729 0.0000
# 4 0.0000 0.0000 0.0000 32.3491 0.0000 -0.2149
# 5 -1.0711 -8.5893 -3.5729 0.0000 26.7543 0.0000
# 6 0.0000 0.0000 0.0000 -0.2149 0.0000 19.3514
#
#
#
# Elastic Compliance Matrix: (Units=1/GPa)
#
#
# Indices 1 2 3 4 5 6 
#
# 1 0.015262 -0.006492 -0.005033 0.000000 -0.002145 0.000000
# 2 -0.006492 0.016214 -0.003139 0.000000 0.004526 0.000000
# 3 -0.005033 -0.003139 0.019379 0.000000 0.001379 0.000000
# 4 0.000000 0.000000 0.000000 0.030915 0.000000 0.000343
# 5 -0.002145 0.004526 0.001379 0.000000 0.038928 0.000000
# 6 0.000000 0.000000 0.000000 0.000343 0.000000 0.051680
#
#
# Mechanical properties :
#
#
# Convention : Reuss Voigt Hill
#
# Bulk Modulus (GPa) = 46.45392 50.13430 48.29411
# Shear Modulus (GPa) = 23.93703 25.26220 24.59962
#
# Velocity S-wave (km/s) = 3.67915 3.77962 3.72972
# Velocity P-wave (km/s) = 6.65713 6.88461 6.77182
#
# Compressibility (1/GPa) = 0.02152671
#
# Stress axis : x y z
#
# Youngs Moduli (GPa) = 65.52275 61.67634 51.60210
#
# Poissons Ratio (x) = 0.40042 0.25970
# Poissons Ratio (y) = 0.42540 0.16197
# Poissons Ratio (z) = 0.32976 0.19359
#
# Static dielectric constant tensor:
#      x y z
#    x 3.268620 0.000000 0.078830 
#    y 0.000000 3.246710 0.000000 
#    z 0.078830 0.000000 3.264930 
# 
# 
# High freq. dielectric constant tensor:
#      x y z
#    x 1.678810 0.000000 0.005890 
#    y 0.000000 1.662810 0.000000 
#    z 0.005890 0.000000 1.678570 
# 
# From -- ./inp_files/99844.got.cif
#   From: 2010.06.25/outbox.cif.g09.slc.cpg/sg15_50_cif.got.tgz:99844.got - 2010.06.28 07:06:18.
