data_PCOD8150661
_publ_section_title
;
Structure prediction by ZEFSAII (Michael W. Deem and Ramdas Pophale) SiO2 
 PCOD8150661
Probable space group: C 2/C
;
_chemical_formula_sum "Si O2"
_cell_formula_units_Z 40
_cell_length_a 11.454162
_cell_length_b 14.466769
_cell_length_c 11.021800
_cell_angle_alpha 90.000000
_cell_angle_beta 76.050764
_cell_angle_gamma 90.000000
_cell_volume 1772.504185
_symmetry_space_group_name_H-M "C 2/C"
_symmetry_group_IT_number 15
_symmetry_cell_setting 'monoclinic'
loop_
_space_group_symop_operation_xyz
x,y,z
-x,y,1/2-z
-x,-y,-z
x,-y,1/2+z
1/2+x,1/2+y,z
1/2-x,1/2+y,1/2-z
1/2-x,1/2-y,-z
1/2+x,1/2-y,1/2+z
loop_
_atom_site_type_symbol
_atom_site_label
_atom_site_fract_x
_atom_site_fract_y
_atom_site_fract_z
Si Si1 0.301650 0.349343 0.493281
Si Si2 0.551341 0.398044 0.498870
Si Si3 0.362699 0.072270 0.260943
Si Si4 0.710538 0.698155 0.131457
Si Si5 0.737599 0.879786 0.245809
O O1 0.250000 0.250000 0.500000
O O2 0.438420 0.333086 0.500083
O O3 0.223994 0.412143 0.602930
O O4 0.296701 0.393795 0.362013
O O5 0.500000 0.500000 0.500000
O O6 0.599951 0.369533 0.621277
O O7 0.655422 0.386799 0.375969
O O8 0.500000 0.102459 0.250000
O O9 0.315925 0.133066 0.159078
O O10 0.359684 0.961882 0.240153
O O11 0.675897 0.778151 0.239235
O O12 0.750000 0.750000 0.000000
#
# Coordination Sequence:
#
# PCOD8150661 Si02
#       5
#     8   8   8   8   8
#     4  12  26  44  72 107 140 189 238 294 366 423
#     4  11  23  47  76 103 141 183 243 300 349 429
#     4  12  28  48  70 103 147 190 239 297 363 438
#     4  10  25  45  71 104 140 186 234 295 360 416
#     4  11  25  48  70 107 142 186 239 296 361 425
#
# _framework density 22.566942999999998
#
# number of rings (size 3 to 8) (size 9 to 14) (size 15 to 20)
#    0.000    0.800    4.000    1.800    8.400    3.200 
#    0.000    0.000    0.000    0.000    0.000    0.000 
#    0.000    0.000    0.000    0.000    0.000    0.000 
#
# Total GULP energy -247894.141507 kJ/mol
# GULP energy per Si atom -12394.707075 kJ/mol
# Density = 2.251558 g / cm^3
# Si number density = 22.566943 Si / 1000 Ang^3
#
#
#
# Elastic Constant Matrix: (Units=GPa)
#
#
# Indices 1 2 3 4 5 6 
#
# 1 160.8104 69.5826 60.6495 0.0000 42.7300 0.0000
# 2 69.5826 152.5619 16.6822 0.0000 25.7323 0.0000
# 3 60.6495 16.6822 98.2343 0.0000 20.9087 0.0000
# 4 0.0000 0.0000 0.0000 22.7020 0.0000 5.0036
# 5 42.7300 25.7323 20.9087 0.0000 38.0712 0.0000
# 6 0.0000 0.0000 0.0000 5.0036 0.0000 43.4721
#
#
#
# Elastic Compliance Matrix: (Units=1/GPa)
#
#
# Indices 1 2 3 4 5 6 
#
# 1 0.011723 -0.003437 -0.004924 0.000000 -0.008130 0.000000
# 2 -0.003437 0.008410 0.001226 0.000000 -0.002500 0.000000
# 3 -0.004924 0.001226 0.013601 0.000000 -0.002773 0.000000
# 4 0.000000 0.000000 0.000000 0.045195 0.000000 -0.005202
# 5 -0.008130 -0.002500 -0.002773 0.000000 0.038604 0.000000
# 6 0.000000 0.000000 0.000000 -0.005202 0.000000 0.023602
#
#
# Mechanical properties :
#
#
# Convention : Reuss Voigt Hill
#
# Bulk Modulus (GPa) = 51.37407 78.38170 64.87788
# Shear Modulus (GPa) = 30.88443 38.49522 34.68982
#
# Velocity S-wave (km/s) = 3.70343 4.13464 3.92496
# Velocity P-wave (km/s) = 6.41107 7.58960 7.02509
#
# Compressibility (1/GPa) = 0.01946507
#
# Stress axis : x y z
#
# Youngs Moduli (GPa) = 85.30218 118.90689 73.52163
#
# Poissons Ratio (x) = 0.40869 0.36199
# Poissons Ratio (y) = 0.29319 -0.09013
# Poissons Ratio (z) = 0.41999 -0.14577
#
# Static dielectric constant tensor:
#      x y z
#    x 3.451530 0.000000 -0.151040 
#    y 0.000000 5.499350 0.000000 
#    z -0.151040 0.000000 3.662410 
# 
# 
# High freq. dielectric constant tensor:
#      x y z
#    x 1.886280 0.000000 0.020560 
#    y 0.000000 1.910760 0.000000 
#    z 0.020560 0.000000 1.893130 
# 
# From -- ./inp_files/76838.got.cif
#   From: 2010.06.25/outbox.cif.g09.slc.cpg/sg15_39_cif.got.tgz:76838.got - 2010.06.28 07:06:18.
