data_PCOD8150237
_publ_section_title
;
Structure prediction by ZEFSAII (Michael W. Deem and Ramdas Pophale) SiO2 
 PCOD8150237
Probable space group: C 2/C
;
_chemical_formula_sum "Si O2"
_cell_formula_units_Z 64
_cell_length_a 9.404478
_cell_length_b 27.901473
_cell_length_c 15.525645
_cell_angle_alpha 90.000000
_cell_angle_beta 43.074817
_cell_angle_gamma 90.000000
_cell_volume 2782.288474
_symmetry_space_group_name_H-M "C 2/C"
_symmetry_group_IT_number 15
_symmetry_cell_setting 'monoclinic'
loop_
_space_group_symop_operation_xyz
x,y,z
-x,y,1/2-z
-x,-y,-z
x,-y,1/2+z
1/2+x,1/2+y,z
1/2-x,1/2+y,1/2-z
1/2-x,1/2-y,-z
1/2+x,1/2-y,1/2+z
loop_
_atom_site_type_symbol
_atom_site_label
_atom_site_fract_x
_atom_site_fract_y
_atom_site_fract_z
Si Si1 0.419306 0.170262 0.596110
Si Si2 0.910648 0.927713 0.699973
Si Si3 0.037761 0.965434 0.132357
Si Si4 0.552205 0.927513 0.634718
Si Si5 0.204508 0.602353 0.705163
Si Si6 0.907040 0.679045 0.403729
Si Si7 0.199670 0.225481 0.341308
Si Si8 0.651057 0.656223 0.014987
O O1 0.326136 0.124355 0.686094
O O2 0.347052 0.171368 0.529145
O O3 0.319451 0.219115 0.677170
O O4 0.667969 0.164432 0.494877
O O5 0.662132 0.927930 0.823549
O O6 0.000000 0.910833 0.750000
O O7 0.995261 0.888620 0.596285
O O8 0.996578 0.979016 0.632785
O O9 0.000000 0.953142 0.250000
O O10 0.883009 0.937005 0.137567
O O11 0.274656 0.954994 0.998162
O O12 0.500000 0.952630 0.750000
O O13 0.624284 0.873309 0.624277
O O14 0.258823 0.647245 0.619969
O O15 0.000000 0.578306 0.750000
O O16 0.763984 0.716517 0.413454
O O17 0.142050 0.698607 0.292610
O O18 0.970647 0.205553 0.428884
#
# Coordination Sequence:
#
# PCOD8150237 Si02
#       8
#     8   8   8   8   8   8   8   8
#     4  11  25  41  68  97 137 186 225 286 349 417
#     4  11  25  44  71 103 137 182 237 295 351 421
#     4  11  26  45  72 107 139 184 236 297 358 425
#     4  12  23  44  70 101 139 184 233 288 353 422
#     4  10  24  45  66  98 145 185 229 286 356 417
#     4  11  22  43  66  96 137 178 232 285 342 413
#     4  11  23  41  64  99 130 178 229 287 336 411
#     4  11  23  44  66  95 135 179 237 284 340 413
#
# _framework density 23.002645999999999
#
# number of rings (size 3 to 8) (size 9 to 14) (size 15 to 20)
#    0.000    1.000    2.500    3.750    1.750    7.500 
#    9.000    0.000    0.000    0.000    0.000    0.000 
#    0.000    0.000    0.000    0.000    0.000    0.000 
#
# Total GULP energy -396695.127258 kJ/mol
# GULP energy per Si atom -12396.722727 kJ/mol
# Density = 2.295029 g / cm^3
# Si number density = 23.002646 Si / 1000 Ang^3
#
#
#
# Elastic Constant Matrix: (Units=GPa)
#
#
# Indices 1 2 3 4 5 6 
#
# 1 107.3836 21.7197 37.4726 0.0000 -5.9431 0.0000
# 2 21.7197 53.5841 19.0905 0.0000 -4.8879 0.0000
# 3 37.4726 19.0905 112.3054 0.0000 -0.8297 0.0000
# 4 0.0000 0.0000 0.0000 22.1280 0.0000 -0.8177
# 5 -5.9431 -4.8879 -0.8297 0.0000 47.5263 0.0000
# 6 0.0000 0.0000 0.0000 -0.8177 0.0000 21.1141
#
#
#
# Elastic Compliance Matrix: (Units=1/GPa)
#
#
# Indices 1 2 3 4 5 6 
#
# 1 0.011133 -0.003301 -0.003146 0.000000 0.000998 0.000000
# 2 -0.003301 0.021033 -0.002461 0.000000 0.001707 0.000000
# 3 -0.003146 -0.002461 0.010369 0.000000 -0.000466 0.000000
# 4 0.000000 0.000000 0.000000 0.045256 0.000000 0.001753
# 5 0.000998 0.001707 -0.000466 0.000000 0.021333 0.000000
# 6 0.000000 0.000000 0.000000 0.001753 0.000000 0.047430
#
#
# Mechanical properties :
#
#
# Convention : Reuss Voigt Hill
#
# Bulk Modulus (GPa) = 40.45593 47.75987 44.10790
# Shear Modulus (GPa) = 27.38065 31.15301 29.26683
#
# Velocity S-wave (km/s) = 3.45385 3.68411 3.57084
# Velocity P-wave (km/s) = 5.79061 6.23736 6.01813
#
# Compressibility (1/GPa) = 0.02471825
#
# Stress axis : x y z
#
# Youngs Moduli (GPa) = 89.82146 47.54470 96.44061
#
# Poissons Ratio (x) = 0.15693 0.30343
# Poissons Ratio (y) = 0.29648 0.23737
# Poissons Ratio (z) = 0.28261 0.11702
#
# Static dielectric constant tensor:
#      x y z
#    x 4.129600 0.000000 -0.101650 
#    y 0.000000 4.029200 0.000000 
#    z -0.101650 0.000000 4.171240 
# 
# 
# High freq. dielectric constant tensor:
#      x y z
#    x 1.916430 0.000000 -0.002510 
#    y 0.000000 1.903710 0.000000 
#    z -0.002510 0.000000 1.909520 
# 
# From -- ./inp_files/139818.got.cif
#   From: 2010.06.25/outbox.cif.g09.slc.cpg/sg15_70_cif.got.tgz:139818.got - 2010.06.28 07:06:18.
