data_PCOD8150049
_publ_section_title
;
Structure prediction by ZEFSAII (Michael W. Deem and Ramdas Pophale) SiO2 
 PCOD8150049
Probable space group: C 2/C
;
_chemical_formula_sum "Si O2"
_cell_formula_units_Z 44
_cell_length_a 9.135586
_cell_length_b 11.164387
_cell_length_c 32.307690
_cell_angle_alpha 90.000000
_cell_angle_beta 40.814313
_cell_angle_gamma 90.000000
_cell_volume 2153.751934
_symmetry_space_group_name_H-M "C 2/C"
_symmetry_group_IT_number 15
_symmetry_cell_setting 'monoclinic'
loop_
_space_group_symop_operation_xyz
x,y,z
-x,y,1/2-z
-x,-y,-z
x,-y,1/2+z
1/2+x,1/2+y,z
1/2-x,1/2+y,1/2-z
1/2-x,1/2-y,-z
1/2+x,1/2-y,1/2+z
loop_
_atom_site_type_symbol
_atom_site_label
_atom_site_fract_x
_atom_site_fract_y
_atom_site_fract_z
Si Si1 0.976234 0.516119 0.155259
Si Si2 0.688689 0.805956 0.149453
Si Si3 0.428180 0.180637 0.031119
Si Si4 0.364056 0.271177 0.398034
Si Si5 0.037325 0.562220 0.930149
Si Si6 0.000000 0.120956 0.250000
O O1 0.044429 0.442189 0.099279
O O2 0.710084 0.535066 0.213393
O O3 0.056643 0.432442 0.176051
O O4 0.100884 0.643298 0.131398
O O5 0.751694 0.772926 0.088275
O O6 0.530768 0.704740 0.203107
O O7 0.909214 0.820631 0.130219
O O8 0.435292 0.074962 0.062950
O O9 0.673736 0.241731 0.974401
O O10 0.359948 0.127925 0.999857
O O11 0.276565 0.367927 0.382868
#
# Coordination Sequence:
#
# PCOD8150049 Si02
#       6
#     8   8   8   8   8   4
#     4  11  23  41  64  87 116 164 202 255 295 358
#     4  11  22  40  65  87 118 162 205 247 300 353
#     4   9  18  37  65  92 127 158 183 246 314 364
#     4   9  20  39  60  93 123 151 190 243 305 368
#     4   9  19  37  62  89 128 157 182 240 314 351
#     4  10  24  44  56  80 124 164 208 248 298 344
#
# _framework density 20.429463999999999
#
# number of rings (size 3 to 8) (size 9 to 14) (size 15 to 20)
#    1.091    1.091    3.636    0.545    0.000    4.364 
#    3.273    0.000    0.000    0.000    0.000    0.000 
#    0.000    0.000    0.000    0.000    0.000    0.000 
#
# Total GULP energy -272539.008809 kJ/mol
# GULP energy per Si atom -12388.136764 kJ/mol
# Density = 2.038297 g / cm^3
# Si number density = 20.429464 Si / 1000 Ang^3
#
#
#
# Elastic Constant Matrix: (Units=GPa)
#
#
# Indices 1 2 3 4 5 6 
#
# 1 38.0894 42.8392 18.0733 -0.0003 -4.7542 0.0000
# 2 42.8392 97.0667 20.7966 -0.0006 -20.6634 0.0000
# 3 18.0733 20.7966 60.2793 0.0009 -10.3495 -0.0001
# 4 -0.0003 -0.0006 0.0009 12.8905 -0.0005 -6.4106
# 5 -4.7542 -20.6634 -10.3495 -0.0005 16.1761 -0.0002
# 6 0.0000 0.0000 -0.0001 -6.4106 -0.0002 37.7001
#
#
#
# Elastic Compliance Matrix: (Units=1/GPa)
#
#
# Indices 1 2 3 4 5 6 
#
# 1 0.065628 -0.032666 -0.013773 0.000000 -0.031251 0.000000
# 2 -0.032666 0.030627 0.004827 0.000002 0.032610 0.000000
# 3 -0.013773 0.004827 0.021813 -0.000001 0.016074 0.000000
# 4 0.000000 0.000002 -0.000001 0.084743 0.000005 0.014410
# 5 -0.031251 0.032610 0.016074 0.000005 0.104575 0.000001
# 6 0.000000 0.000000 0.000000 0.014410 0.000001 0.028975
#
#
# Mechanical properties :
#
#
# Convention : Reuss Voigt Hill
#
# Bulk Modulus (GPa) = 28.69913 39.87262 34.28587
# Shear Modulus (GPa) = 11.59558 20.93511 16.26534
#
# Velocity S-wave (km/s) = 2.38500 3.20465 2.82471
# Velocity P-wave (km/s) = 4.65432 5.76651 5.24000
#
# Compressibility (1/GPa) = 0.03484426
#
# Stress axis : x y z
#
# Youngs Moduli (GPa) = 15.23749 32.65125 45.84341
#
# Poissons Ratio (x) = 1.06658 0.63138
# Poissons Ratio (y) = 0.49774 -0.22127
# Poissons Ratio (z) = 0.20986 -0.15759
#
# Static dielectric constant tensor:
#      x y z
#    x 3.300110 0.000000 -0.027130 
#    y 0.000000 3.680500 0.000000 
#    z -0.027130 0.000000 3.703460 
# 
# 
# High freq. dielectric constant tensor:
#      x y z
#    x 1.767690 0.000000 0.001860 
#    y 0.000000 1.804020 0.000000 
#    z 0.001860 0.000000 1.790560 
# 
# From -- ./inp_files/307032.got.cif
#   From: 2010.06.25/outbox.cif.g09.slc.cpg/sg15_154_cif.got.tgz:307032.got - 2010.06.28 07:06:18.
