data_PCOD8150101
_publ_section_title
;
Structure prediction by ZEFSAII (Michael W. Deem and Ramdas Pophale) SiO2 
 PCOD8150101
Probable space group: C 2/C
;
_chemical_formula_sum "Si O2"
_cell_formula_units_Z 36
_cell_length_a 16.115498
_cell_length_b 8.862372
_cell_length_c 26.608878
_cell_angle_alpha 90.000000
_cell_angle_beta 26.277748
_cell_angle_gamma 90.000000
_cell_volume 1682.489420
_symmetry_space_group_name_H-M "C 2/C"
_symmetry_group_IT_number 15
_symmetry_cell_setting 'monoclinic'
loop_
_space_group_symop_operation_xyz
x,y,z
-x,y,1/2-z
-x,-y,-z
x,-y,1/2+z
1/2+x,1/2+y,z
1/2-x,1/2+y,1/2-z
1/2-x,1/2-y,-z
1/2+x,1/2-y,1/2+z
loop_
_atom_site_type_symbol
_atom_site_label
_atom_site_fract_x
_atom_site_fract_y
_atom_site_fract_z
Si Si1 0.277496 0.984799 0.615320
Si Si2 0.399983 0.555196 0.183513
Si Si3 0.741791 0.911325 0.479074
Si Si4 0.500000 0.777949 0.250000
Si Si5 0.410382 0.100768 0.695770
O O1 0.192056 0.821335 0.644676
O O2 0.500000 0.000000 0.500000
O O3 0.186963 0.019305 0.718413
O O4 0.212568 0.098500 0.605669
O O5 0.617618 0.515802 0.065703
O O6 0.383494 0.733963 0.187038
O O7 0.294360 0.478293 0.193800
O O8 0.750000 0.750000 0.500000
O O9 0.540779 0.992488 0.591544
O O10 0.505455 0.888788 0.294404
#
# Coordination Sequence:
#
# PCOD8150101 Si02
#       5
#     8   8   8   4   8
#     4  11  21  41  68  93 129 178 218 262 340 394
#     4  11  23  41  70  92 131 174 219 274 331 395
#     4  12  24  41  65 100 133 173 222 269 323 398
#     4  10  24  44  66  96 138 172 218 282 332 384
#     4  11  23  45  66  97 131 172 222 271 334 386
#
# _framework density 21.396867
#
# number of rings (size 3 to 8) (size 9 to 14) (size 15 to 20)
#    0.000    0.889    6.667    2.000    3.111    0.000 
#    8.000    1.111    0.000    0.000    0.000    0.000 
#    0.000    0.000    0.000    0.000    0.000    0.000 
#
# Total GULP energy -223069.698147 kJ/mol
# GULP energy per Si atom -12392.761008 kJ/mol
# Density = 2.134817 g / cm^3
# Si number density = 21.396867 Si / 1000 Ang^3
#
#
#
# Elastic Constant Matrix: (Units=GPa)
#
#
# Indices 1 2 3 4 5 6 
#
# 1 109.7032 41.9503 15.1326 0.0012 -12.3222 -0.0031
# 2 41.9503 122.0514 19.1029 0.0012 -2.7193 -0.0036
# 3 15.1326 19.1029 58.8617 0.0030 -19.3839 0.0003
# 4 0.0012 0.0012 0.0030 33.2424 0.0007 -8.8424
# 5 -12.3222 -2.7193 -19.3839 0.0007 47.9780 0.0005
# 6 -0.0031 -0.0036 0.0003 -8.8424 0.0005 47.5124
#
#
#
# Elastic Compliance Matrix: (Units=1/GPa)
#
#
# Indices 1 2 3 4 5 6 
#
# 1 0.010842 -0.003535 -0.000910 0.000000 0.002216 0.000000
# 2 -0.003535 0.009807 -0.002757 0.000000 -0.001466 0.000001
# 3 -0.000910 -0.002757 0.020750 -0.000002 0.007993 -0.000001
# 4 0.000000 0.000000 -0.000002 0.031649 -0.000001 0.005890
# 5 0.002216 -0.001466 0.007993 -0.000001 0.024558 -0.000001
# 6 0.000000 0.000001 -0.000001 0.005890 -0.000001 0.022143
#
#
# Mechanical properties :
#
#
# Convention : Reuss Voigt Hill
#
# Bulk Modulus (GPa) = 37.04327 49.22087 43.13207
# Shear Modulus (GPa) = 34.92824 40.04192 37.48508
#
# Velocity S-wave (km/s) = 4.04468 4.33065 4.19011
# Velocity P-wave (km/s) = 6.25801 6.93252 6.60388
#
# Compressibility (1/GPa) = 0.02699545
#
# Stress axis : x y z
#
# Youngs Moduli (GPa) = 92.23722 101.96867 48.19288
#
# Poissons Ratio (x) = 0.36041 0.04387
# Poissons Ratio (y) = 0.32601 0.13285
# Poissons Ratio (z) = 0.08396 0.28110
#
# Static dielectric constant tensor:
#      x y z
#    x 4.372190 0.000000 -0.429050 
#    y 0.000000 3.627350 0.000000 
#    z -0.429050 0.000000 4.295830 
# 
# 
# High freq. dielectric constant tensor:
#      x y z
#    x 1.861240 0.000000 -0.024500 
#    y 0.000000 1.815750 0.000000 
#    z -0.024500 0.000000 1.832470 
# 
# From -- ./inp_files/158646.got.cif
#   From: 2010.06.25/outbox.cif.g09.slc.cpg/sg15_80_cif.got.tgz:158646.got - 2010.06.28 07:06:18.
