data_PCOD8150731
_publ_section_title
;
Structure prediction by ZEFSAII (Michael W. Deem and Ramdas Pophale) SiO2 
 PCOD8150731
Probable space group: C 2/C
;
_chemical_formula_sum "Si O2"
_cell_formula_units_Z 40
_cell_length_a 9.195612
_cell_length_b 17.822414
_cell_length_c 10.909650
_cell_angle_alpha 90.000000
_cell_angle_beta 98.513226
_cell_angle_gamma 90.000000
_cell_volume 1768.260506
_symmetry_space_group_name_H-M "C 2/C"
_symmetry_group_IT_number 15
_symmetry_cell_setting 'monoclinic'
loop_
_space_group_symop_operation_xyz
x,y,z
-x,y,1/2-z
-x,-y,-z
x,-y,1/2+z
1/2+x,1/2+y,z
1/2-x,1/2+y,1/2-z
1/2-x,1/2-y,-z
1/2+x,1/2-y,1/2+z
loop_
_atom_site_type_symbol
_atom_site_label
_atom_site_fract_x
_atom_site_fract_y
_atom_site_fract_z
Si Si1 0.363825 0.547680 0.438604
Si Si2 0.703012 0.781664 0.260206
Si Si3 0.620644 0.858525 0.007088
Si Si4 0.394788 0.932893 0.133732
Si Si5 0.500000 0.651651 0.250000
Si Si6 0.000000 0.718170 0.250000
O O1 0.500000 0.500000 0.500000
O O2 0.282146 0.601893 0.525639
O O3 0.239001 0.489185 0.386490
O O4 0.427497 0.598463 0.340063
O O5 0.665160 0.851565 0.338556
O O6 0.630091 0.707264 0.311193
O O7 0.877171 0.771994 0.291055
O O8 0.639317 0.794044 0.113164
O O9 0.578680 0.829521 0.866906
O O10 0.493255 0.919574 0.023860
O O11 0.500000 0.966913 0.250000
#
# Coordination Sequence:
#
# PCOD8150731 Si02
#       6
#     8   8   8   8   4   4
#     4  12  30  43  74 110 153 189 246 312 367 447
#     4  11  25  48  74 107 146 194 250 309 359 445
#     4  11  25  48  72 106 144 197 250 293 380 435
#     4  10  25  48  76 101 150 199 243 299 377 451
#     4  12  26  49  71 110 146 184 248 304 366 427
#     4  12  26  39  79 102 146 190 246 314 356 437
#
# _framework density 22.621102
#
# number of rings (size 3 to 8) (size 9 to 14) (size 15 to 20)
#    0.000    0.800    5.000    1.200   12.600    0.800 
#    0.000    0.000    0.000    0.000    0.000    0.000 
#    0.000    0.000    0.000    0.000    0.000    0.000 
#
# Total GULP energy -247831.154285 kJ/mol
# GULP energy per Si atom -12391.557714 kJ/mol
# Density = 2.256962 g / cm^3
# Si number density = 22.621102 Si / 1000 Ang^3
#
#
#
# Elastic Constant Matrix: (Units=GPa)
#
#
# Indices 1 2 3 4 5 6 
#
# 1 208.5254 70.6218 31.0249 0.0000 -7.0003 0.0000
# 2 70.6218 108.8868 22.1592 0.0000 -8.1829 0.0000
# 3 31.0249 22.1592 42.7473 0.0000 -14.4717 0.0000
# 4 0.0000 0.0000 0.0000 20.8254 0.0000 -1.7927
# 5 -7.0003 -8.1829 -14.4717 0.0000 40.7779 0.0000
# 6 0.0000 0.0000 0.0000 -1.7927 0.0000 59.1840
#
#
#
# Elastic Compliance Matrix: (Units=1/GPa)
#
#
# Indices 1 2 3 4 5 6 
#
# 1 0.006450 -0.003616 -0.003043 0.000000 -0.000698 0.000000
# 2 -0.003616 0.012296 -0.003551 0.000000 0.000587 0.000000
# 3 -0.003043 -0.003551 0.030714 0.000000 0.009665 0.000000
# 4 0.000000 0.000000 0.000000 0.048144 0.000000 0.001458
# 5 -0.000698 0.000587 0.009665 0.000000 0.027951 0.000000
# 6 0.000000 0.000000 0.000000 0.001458 0.000000 0.016941
#
#
# Mechanical properties :
#
#
# Convention : Reuss Voigt Hill
#
# Bulk Modulus (GPa) = 34.43491 67.53014 50.98253
# Shear Modulus (GPa) = 28.96949 39.91436 34.44192
#
# Velocity S-wave (km/s) = 3.58249 4.20512 3.90623
# Velocity P-wave (km/s) = 5.68927 7.31402 6.55220
#
# Compressibility (1/GPa) = 0.02904030
#
# Stress axis : x y z
#
# Youngs Moduli (GPa) = 155.04845 81.32712 32.55802
#
# Poissons Ratio (x) = 0.29411 0.09907
# Poissons Ratio (y) = 0.56071 0.11561
# Poissons Ratio (z) = 0.47177 0.28878
#
# Static dielectric constant tensor:
#      x y z
#    x 5.041080 0.000000 0.015630 
#    y 0.000000 5.123380 0.000000 
#    z 0.015630 0.000000 4.065480 
# 
# 
# High freq. dielectric constant tensor:
#      x y z
#    x 1.929070 0.000000 -0.019830 
#    y 0.000000 1.906770 0.000000 
#    z -0.019830 0.000000 1.863210 
# 
# From -- ./inp_files/76945.got.cif
#   From: 2010.06.25/outbox.cif.g09.slc.cpg/sg15_39_cif.got.tgz:76945.got - 2010.06.28 07:06:18.
