data_PCOD8150563
_publ_section_title
;
Structure prediction by ZEFSAII (Michael W. Deem and Ramdas Pophale) SiO2 
 PCOD8150563
Probable space group: C 2/C
;
_chemical_formula_sum "Si O2"
_cell_formula_units_Z 48
_cell_length_a 9.383370
_cell_length_b 28.264871
_cell_length_c 17.780124
_cell_angle_alpha 90.000000
_cell_angle_beta 28.875736
_cell_angle_gamma 90.000000
_cell_volume 2277.237178
_symmetry_space_group_name_H-M "C 2/C"
_symmetry_group_IT_number 15
_symmetry_cell_setting 'monoclinic'
loop_
_space_group_symop_operation_xyz
x,y,z
-x,y,1/2-z
-x,-y,-z
x,-y,1/2+z
1/2+x,1/2+y,z
1/2-x,1/2+y,1/2-z
1/2-x,1/2-y,-z
1/2+x,1/2-y,1/2+z
loop_
_atom_site_type_symbol
_atom_site_label
_atom_site_fract_x
_atom_site_fract_y
_atom_site_fract_z
Si Si1 0.654853 0.641952 0.923447
Si Si2 0.496132 0.027791 0.666776
Si Si3 0.444279 0.874462 0.592174
Si Si4 0.167837 0.707168 0.092665
Si Si5 0.328176 0.391023 0.929280
Si Si6 0.117970 0.940791 0.042486
O O1 0.000000 0.644725 0.750000
O O2 0.486495 0.685340 0.963436
O O3 0.620556 0.646448 0.028372
O O4 0.503696 0.592719 0.967500
O O5 0.500000 0.047881 0.750000
O O6 0.678818 0.060965 0.526907
O O7 0.632524 0.975510 0.605540
O O8 0.154136 0.028979 0.797285
O O9 0.473244 0.828661 0.632032
O O10 0.387002 0.863536 0.530529
O O11 0.731160 0.907966 0.464202
O O12 0.152328 0.904193 0.749235
O O13 0.000000 0.719681 0.250000
O O14 0.250000 0.750000 0.000000
#
# Coordination Sequence:
#
# PCOD8150563 Si02
#       6
#     8   8   8   8   8   8
#     4  11  22  44  70  99 132 176 222 274 336 402
#     4  12  23  36  62  97 130 172 235 279 324 384
#     4  10  25  42  69  90 130 181 215 274 335 402
#     4  11  25  48  73 106 135 172 220 273 340 415
#     4  11  21  43  64  93 131 170 224 269 334 384
#     4  11  23  38  62  95 130 179 230 275 332 385
#
# _framework density 21.078173
#
# number of rings (size 3 to 8) (size 9 to 14) (size 15 to 20)
#    0.000    1.000    5.000    1.500    2.333    2.667 
#    3.000    1.667    0.000    0.000    0.000    0.000 
#    0.000    0.000    0.000    0.000    0.000    0.000 
#
# Total GULP energy -297346.252368 kJ/mol
# GULP energy per Si atom -12389.427182 kJ/mol
# Density = 2.103020 g / cm^3
# Si number density = 21.078173 Si / 1000 Ang^3
#
#
#
# Elastic Constant Matrix: (Units=GPa)
#
#
# Indices 1 2 3 4 5 6 
#
# 1 161.6875 67.3444 60.9664 -0.0009 -10.9675 -0.0004
# 2 67.3444 107.3877 70.7035 0.0002 -3.5273 0.0002
# 3 60.9664 70.7035 115.1424 0.0021 -23.3711 0.0011
# 4 -0.0009 0.0002 0.0021 11.1519 -0.0002 7.1362
# 5 -10.9675 -3.5273 -23.3711 -0.0002 34.9322 -0.0001
# 6 -0.0004 0.0002 0.0011 7.1362 -0.0001 23.0327
#
#
#
# Elastic Compliance Matrix: (Units=1/GPa)
#
#
# Indices 1 2 3 4 5 6 
#
# 1 0.008699 -0.004257 -0.001765 0.000001 0.001121 0.000000
# 2 -0.004257 0.018724 -0.010566 0.000001 -0.006515 0.000000
# 3 -0.001765 -0.010566 0.018258 -0.000003 0.010594 0.000000
# 4 0.000001 0.000001 -0.000003 0.111846 -0.000001 -0.034653
# 5 0.001121 -0.006515 0.010594 -0.000001 0.035409 0.000000
# 6 0.000000 0.000000 0.000000 -0.034653 0.000000 0.054153
#
#
# Mechanical properties :
#
#
# Convention : Reuss Voigt Hill
#
# Bulk Modulus (GPa) = 79.96163 86.91625 83.43894
# Shear Modulus (GPa) = 17.57881 26.17023 21.87452
#
# Velocity S-wave (km/s) = 2.89101 3.52743 3.22496
# Velocity P-wave (km/s) = 7.01156 7.61019 7.31700
#
# Compressibility (1/GPa) = 0.01250600
#
# Stress axis : x y z
#
# Youngs Moduli (GPa) = 114.95361 53.40694 54.77065
#
# Poissons Ratio (x) = 0.22733 0.09666
# Poissons Ratio (y) = 0.48931 0.57872
# Poissons Ratio (z) = 0.20288 0.56431
#
# Static dielectric constant tensor:
#      x y z
#    x 6.182230 0.000010 0.982300 
#    y 0.000010 3.506800 0.000010 
#    z 0.982300 0.000010 4.789770 
# 
# 
# High freq. dielectric constant tensor:
#      x y z
#    x 1.840230 0.000000 -0.017050 
#    y 0.000000 1.793720 0.000000 
#    z -0.017050 0.000000 1.837020 
# 
# From -- ./inp_files/194166.got.cif
#   From: 2010.06.25/outbox.cif.g09.slc.cpg/sg15_98_cif.got.tgz:194166.got - 2010.06.28 07:06:18.
