data_PCOD8150825
_publ_section_title
;
Structure prediction by ZEFSAII (Michael W. Deem and Ramdas Pophale) SiO2 
 PCOD8150825
Probable space group: C 2/C
;
_chemical_formula_sum "Si O2"
_cell_formula_units_Z 40
_cell_length_a 11.221028
_cell_length_b 27.550139
_cell_length_c 5.468591
_cell_angle_alpha 90.000000
_cell_angle_beta 99.532013
_cell_angle_gamma 90.000000
_cell_volume 1667.223798
_symmetry_space_group_name_H-M "C 2/C"
_symmetry_group_IT_number 15
_symmetry_cell_setting 'monoclinic'
loop_
_space_group_symop_operation_xyz
x,y,z
-x,y,1/2-z
-x,-y,-z
x,-y,1/2+z
1/2+x,1/2+y,z
1/2-x,1/2+y,1/2-z
1/2-x,1/2-y,-z
1/2+x,1/2-y,1/2+z
loop_
_atom_site_type_symbol
_atom_site_label
_atom_site_fract_x
_atom_site_fract_y
_atom_site_fract_z
Si Si1 0.500000 0.647534 0.750000
Si Si2 0.276439 0.694876 0.445272
Si Si3 0.825299 0.877762 0.567907
Si Si4 0.757500 0.024356 0.237956
Si Si5 0.108467 0.372397 0.134702
Si Si6 0.000000 0.549351 0.250000
O O1 0.384297 0.680712 0.662129
O O2 0.543203 0.617142 0.524133
O O3 0.250000 0.750000 0.500000
O O4 0.313341 0.676603 0.184408
O O5 0.151472 0.667474 0.456534
O O6 0.806945 0.919861 0.765506
O O7 0.719008 0.888765 0.341270
O O8 0.610628 0.018896 0.171227
O O9 0.808076 0.000318 0.505555
O O10 0.939927 0.419577 0.515466
O O11 0.000000 0.348107 0.250000
#
# Coordination Sequence:
#
# PCOD8150825 Si02
#       6
#     4   8   8   8   8   4
#     4  10  26  45  76  96 142 198 240 299 378 432
#     4  11  25  45  73 105 141 185 244 304 370 456
#     4  11  24  46  69 101 149 194 247 304 369 440
#     4  12  26  42  72 110 153 200 258 311 376 451
#     4  11  21  38  68 101 148 193 231 295 376 436
#     4  12  22  41  66 108 154 198 236 307 376 454
#
# _framework density 23.991976999999999
#
# number of rings (size 3 to 8) (size 9 to 14) (size 15 to 20)
#    0.000    0.800    4.000    2.400    2.800    7.200 
#    0.000    1.000    0.000    0.000    0.000    0.000 
#    0.000    0.000    0.000    0.000    0.000    0.000 
#
# Total GULP energy -247905.291239 kJ/mol
# GULP energy per Si atom -12395.264562 kJ/mol
# Density = 2.393737 g / cm^3
# Si number density = 23.991977 Si / 1000 Ang^3
#
#
#
# Elastic Constant Matrix: (Units=GPa)
#
#
# Indices 1 2 3 4 5 6 
#
# 1 92.8155 21.4090 23.5949 0.0000 -35.3085 0.0000
# 2 21.4090 110.9133 48.5424 0.0000 -14.4642 0.0000
# 3 23.5949 48.5424 145.0303 0.0000 -23.1761 0.0000
# 4 0.0000 0.0000 0.0000 32.3054 0.0000 2.5012
# 5 -35.3085 -14.4642 -23.1761 0.0000 49.7340 0.0000
# 6 0.0000 0.0000 0.0000 2.5012 0.0000 25.4388
#
#
#
# Elastic Compliance Matrix: (Units=1/GPa)
#
#
# Indices 1 2 3 4 5 6 
#
# 1 0.015033 -0.001431 -0.000354 0.000000 0.010092 0.000000
# 2 -0.001431 0.010810 -0.003290 0.000000 0.000595 0.000000
# 3 -0.000354 -0.003290 0.008493 0.000000 0.002750 0.000000
# 4 0.000000 0.000000 0.000000 0.031192 0.000000 -0.003067
# 5 0.010092 0.000595 0.002750 0.000000 0.028726 0.000000
# 6 0.000000 0.000000 0.000000 -0.003067 0.000000 0.039612
#
#
# Mechanical properties :
#
#
# Convention : Reuss Voigt Hill
#
# Bulk Modulus (GPa) = 41.34638 59.53910 50.44274
# Shear Modulus (GPa) = 32.87786 38.50983 35.69385
#
# Velocity S-wave (km/s) = 3.70587 4.01073 3.86131
# Velocity P-wave (km/s) = 5.96507 6.80574 6.39923
#
# Compressibility (1/GPa) = 0.02418591
#
# Stress axis : x y z
#
# Youngs Moduli (GPa) = 66.51984 92.50856 117.73859
#
# Poissons Ratio (x) = 0.13235 0.04171
# Poissons Ratio (y) = 0.09517 0.38739
# Poissons Ratio (z) = 0.02356 0.30438
#
# Static dielectric constant tensor:
#      x y z
#    x 4.563350 0.000000 -0.452670 
#    y 0.000000 4.031100 0.000000 
#    z -0.452670 0.000000 4.680190 
# 
# 
# High freq. dielectric constant tensor:
#      x y z
#    x 1.954790 0.000000 -0.012390 
#    y 0.000000 1.921350 0.000000 
#    z -0.012390 0.000000 1.972250 
# 
# From -- ./inp_files/4972.got.cif
#   From: 2010.06.25/outbox.cif.g09.slc.cpg/sg15_3_cif.got.tgz:4972.got - 2010.06.28 07:06:18.
