data_PCOD8150572
_publ_section_title
;
Structure prediction by ZEFSAII (Michael W. Deem and Ramdas Pophale) SiO2 
 PCOD8150572
Probable space group: C 2/C
;
_chemical_formula_sum "Si O2"
_cell_formula_units_Z 56
_cell_length_a 9.469053
_cell_length_b 21.970287
_cell_length_c 13.268632
_cell_angle_alpha 90.000000
_cell_angle_beta 89.407568
_cell_angle_gamma 90.000000
_cell_volume 2760.229611
_symmetry_space_group_name_H-M "C 2/C"
_symmetry_group_IT_number 15
_symmetry_cell_setting 'monoclinic'
loop_
_space_group_symop_operation_xyz
x,y,z
-x,y,1/2-z
-x,-y,-z
x,-y,1/2+z
1/2+x,1/2+y,z
1/2-x,1/2+y,1/2-z
1/2-x,1/2-y,-z
1/2+x,1/2-y,1/2+z
loop_
_atom_site_type_symbol
_atom_site_label
_atom_site_fract_x
_atom_site_fract_y
_atom_site_fract_z
Si Si1 0.245497 0.149897 0.899978
Si Si2 0.653902 0.528327 0.991016
Si Si3 0.682556 0.006167 0.333319
Si Si4 0.470043 0.836430 0.992486
Si Si5 0.770526 0.366370 0.173945
Si Si6 0.112630 0.455578 0.617217
Si Si7 0.479915 0.277896 0.363321
O O1 0.165659 0.085262 0.916450
O O2 0.363622 0.161051 0.983643
O O3 0.312117 0.152121 0.787504
O O4 0.128017 0.201657 0.910294
O O5 0.764959 0.476184 0.958527
O O6 0.500000 0.500000 0.000000
O O7 0.707880 0.546531 0.102189
O O8 0.746510 0.938868 0.324890
O O9 0.526164 0.000947 0.385681
O O10 0.674364 0.042551 0.229256
O O11 0.390849 0.842992 0.098650
O O12 0.432191 0.888030 0.912251
O O13 0.423409 0.774150 0.938335
O O14 0.624072 0.335794 0.140341
O O15 0.500000 0.251759 0.250000
#
# Coordination Sequence:
#
# PCOD8150572 Si02
#       7
#     8   8   8   8   8   8   8
#     4  11  23  41  63  94 126 168 218 262 312 380
#     4  12  23  38  62  95 132 169 208 265 329 380
#     4  11  22  40  64  94 132 162 215 264 313 383
#     4  12  23  41  67  93 130 165 213 264 322 377
#     4  11  22  40  66  93 123 166 219 265 306 379
#     4  11  24  38  64  98 127 165 208 262 325 375
#     4  10  25  43  63  91 126 170 211 259 319 380
#
# _framework density 20.288167000000001
#
# number of rings (size 3 to 8) (size 9 to 14) (size 15 to 20)
#    0.000    0.857    4.286    3.429    4.000    0.571 
#    0.000    0.000    0.000    0.000    0.000    0.000 
#    0.000    0.000    0.000    0.000    0.000    0.000 
#
# Total GULP energy -347203.172834 kJ/mol
# GULP energy per Si atom -12400.113316 kJ/mol
# Density = 2.024199 g / cm^3
# Si number density = 20.288167 Si / 1000 Ang^3
#
#
#
# Elastic Constant Matrix: (Units=GPa)
#
#
# Indices 1 2 3 4 5 6 
#
# 1 104.4792 34.4729 62.6919 0.0000 11.3115 0.0000
# 2 34.4729 111.1680 60.9051 0.0000 3.6598 0.0000
# 3 62.6919 60.9051 108.7274 0.0000 16.2973 0.0000
# 4 0.0000 0.0000 0.0000 30.6387 0.0000 -0.4390
# 5 11.3115 3.6598 16.2973 0.0000 29.3376 0.0000
# 6 0.0000 0.0000 0.0000 -0.4390 0.0000 27.1374
#
#
#
# Elastic Compliance Matrix: (Units=1/GPa)
#
#
# Indices 1 2 3 4 5 6 
#
# 1 0.014664 0.000049 -0.008328 0.000000 -0.001034 0.000000
# 2 0.000049 0.013169 -0.007806 0.000000 0.002674 0.000000
# 3 -0.008328 -0.007806 0.019356 0.000000 -0.006568 0.000000
# 4 0.000000 0.000000 0.000000 0.032646 0.000000 0.000528
# 5 -0.001034 0.002674 -0.006568 0.000000 0.037799 0.000000
# 6 0.000000 0.000000 0.000000 0.000528 0.000000 0.036858
#
#
# Mechanical properties :
#
#
# Convention : Reuss Voigt Hill
#
# Bulk Modulus (GPa) = 66.57832 71.16824 68.87328
# Shear Modulus (GPa) = 26.08679 28.50973 27.29826
#
# Velocity S-wave (km/s) = 3.58971 3.75272 3.67212
# Velocity P-wave (km/s) = 7.07594 7.34384 7.21114
#
# Compressibility (1/GPa) = 0.01501990
#
# Stress axis : x y z
#
# Youngs Moduli (GPa) = 68.19411 75.93805 51.66302
#
# Poissons Ratio (x) = -0.00375 0.43024
# Poissons Ratio (y) = -0.00336 0.40328
# Poissons Ratio (z) = 0.56791 0.59277
#
# Static dielectric constant tensor:
#      x y z
#    x 3.671980 0.000000 0.038950 
#    y 0.000000 3.443710 0.000000 
#    z 0.038950 0.000000 3.958870 
# 
# 
# High freq. dielectric constant tensor:
#      x y z
#    x 1.793440 0.000000 0.006980 
#    y 0.000000 1.774540 0.000000 
#    z 0.006980 0.000000 1.809760 
# 
# From -- ./inp_files/136453.got.cif
#   From: 2010.06.25/outbox.cif.g09.slc.cpg/sg15_69_cif.got.tgz:136453.got - 2010.06.28 07:06:18.
