data_PCOD8150479
_publ_section_title
;
Structure prediction by ZEFSAII (Michael W. Deem and Ramdas Pophale) SiO2 
 PCOD8150479
Probable space group: C 2/C
;
_chemical_formula_sum "Si O2"
_cell_formula_units_Z 40
_cell_length_a 6.420094
_cell_length_b 15.206796
_cell_length_c 17.031534
_cell_angle_alpha 90.000000
_cell_angle_beta 99.279542
_cell_angle_gamma 90.000000
_cell_volume 1641.012536
_symmetry_space_group_name_H-M "C 2/C"
_symmetry_group_IT_number 15
_symmetry_cell_setting 'monoclinic'
loop_
_space_group_symop_operation_xyz
x,y,z
-x,y,1/2-z
-x,-y,-z
x,-y,1/2+z
1/2+x,1/2+y,z
1/2-x,1/2+y,1/2-z
1/2-x,1/2-y,-z
1/2+x,1/2-y,1/2+z
loop_
_atom_site_type_symbol
_atom_site_label
_atom_site_fract_x
_atom_site_fract_y
_atom_site_fract_z
Si Si1 0.500000 0.795725 0.250000
Si Si2 0.543544 0.403719 0.970660
Si Si3 0.000000 0.454991 0.750000
Si Si4 0.729387 0.189723 0.354178
Si Si5 0.351600 0.502652 0.171119
Si Si6 0.601941 0.663301 0.632801
O O1 0.407100 0.741017 0.316514
O O2 0.695035 0.851135 0.299190
O O3 0.332197 0.346216 0.941237
O O4 0.666489 0.419409 0.895649
O O5 0.500000 0.500000 0.000000
O O6 0.669895 0.348419 0.045213
O O7 0.824315 0.396167 0.698405
O O8 0.883297 0.514583 0.808487
O O9 0.514531 0.244203 0.357889
O O10 0.500000 0.536617 0.250000
O O11 0.430452 0.411218 0.140849
#
# Coordination Sequence:
#
# PCOD8150479 Si02
#       6
#     4   8   4   8   8   8
#     4  12  24  45  78 107 146 188 248 296 361 420
#     4  10  24  48  70 106 151 188 240 299 360 433
#     4  12  24  43  78 107 140 194 244 296 361 434
#     4  12  23  46  74 105 144 192 242 299 357 430
#     4  11  23  45  71 101 146 191 243 296 360 432
#     4  11  26  46  72 108 145 189 246 300 362 428
#
# _framework density 24.375195999999999
#
# number of rings (size 3 to 8) (size 9 to 14) (size 15 to 20)
#    0.000    0.800    4.000    3.000    0.000    4.000 
#    3.600    2.000    0.000    0.000    0.000    0.000 
#    0.000    0.000    0.000    0.000    0.000    0.000 
#
# Total GULP energy -247878.677088 kJ/mol
# GULP energy per Si atom -12393.933854 kJ/mol
# Density = 2.431972 g / cm^3
# Si number density = 24.375196 Si / 1000 Ang^3
#
#
#
# Elastic Constant Matrix: (Units=GPa)
#
#
# Indices 1 2 3 4 5 6 
#
# 1 109.6539 38.3498 40.9368 0.0000 -8.0314 0.0000
# 2 38.3498 73.7222 40.4615 0.0000 4.9408 0.0000
# 3 40.9368 40.4615 158.9563 0.0000 4.8663 0.0000
# 4 0.0000 0.0000 0.0000 42.9014 0.0000 -8.3483
# 5 -8.0314 4.9408 4.8663 0.0000 39.1356 0.0000
# 6 0.0000 0.0000 0.0000 -8.3483 0.0000 -13.2066
#
#
#
# Elastic Compliance Matrix: (Units=1/GPa)
#
#
# Indices 1 2 3 4 5 6 
#
# 1 0.011942 -0.005455 -0.001790 0.000000 0.003362 0.000000
# 2 -0.005455 0.018347 -0.003172 0.000000 -0.003041 0.000000
# 3 -0.001790 -0.003172 0.007587 0.000000 -0.000910 0.000000
# 4 0.000000 0.000000 0.000000 0.020756 0.000000 -0.013121
# 5 0.003362 -0.003041 -0.000910 0.000000 0.026739 0.000000
# 6 0.000000 0.000000 0.000000 -0.013121 0.000000 -0.067426
#
#
# Mechanical properties :
#
#
# Convention : Reuss Voigt Hill
#
# Bulk Modulus (GPa) = 58.67838 64.64763 61.66300
# Shear Modulus (GPa) = 112.45967 28.60504 70.53236
#
# Velocity S-wave (km/s) = 6.79979 3.42940 5.38507
# Velocity P-wave (km/s) = 9.26146 6.50081 8.00110
#
# Compressibility (1/GPa) = 0.01704205
#
# Stress axis : x y z
#
# Youngs Moduli (GPa) = 83.73909 54.50495 131.79934
#
# Poissons Ratio (x) = 0.29733 0.23590
# Poissons Ratio (y) = 0.45680 0.41809
# Poissons Ratio (z) = 0.14988 0.17290
#
# Static dielectric constant tensor:
#      x y z
#    x 4.338580 0.000000 -0.257940 
#    y 0.000000 4.332020 0.000000 
#    z -0.257940 0.000000 5.266110 
# 
# 
# High freq. dielectric constant tensor:
#      x y z
#    x 1.951870 0.000000 -0.006550 
#    y 0.000000 1.973530 0.000000 
#    z -0.006550 0.000000 1.983140 
# 
# From -- ./inp_files/184294.got.cif
#   From: 2010.06.25/outbox.cif.g09.slc.cpg/sg15_93_cif.got.tgz:184294.got - 2010.06.28 07:06:18.
