data_PCOD8150636
_publ_section_title
;
Structure prediction by ZEFSAII (Michael W. Deem and Ramdas Pophale) SiO2 
 PCOD8150636
Probable space group: C 2/C
;
_chemical_formula_sum "Si O2"
_cell_formula_units_Z 24
_cell_length_a 7.740873
_cell_length_b 12.309552
_cell_length_c 9.372211
_cell_angle_alpha 90.000000
_cell_angle_beta 109.127111
_cell_angle_gamma 90.000000
_cell_volume 843.745291
_symmetry_space_group_name_H-M "C 2/C"
_symmetry_group_IT_number 15
_symmetry_cell_setting 'monoclinic'
loop_
_space_group_symop_operation_xyz
x,y,z
-x,y,1/2-z
-x,-y,-z
x,-y,1/2+z
1/2+x,1/2+y,z
1/2-x,1/2+y,1/2-z
1/2-x,1/2-y,-z
1/2+x,1/2-y,1/2+z
loop_
_atom_site_type_symbol
_atom_site_label
_atom_site_fract_x
_atom_site_fract_y
_atom_site_fract_z
Si Si1 0.000000 0.763632 0.750000
Si Si2 0.000000 0.501536 0.250000
Si Si3 0.257211 0.936070 0.930615
Si Si4 0.691530 0.322866 0.356661
O O1 0.896305 0.841830 0.607439
O O2 0.853421 0.683875 0.784699
O O3 0.873735 0.578820 0.314845
O O4 0.118447 0.426581 0.393930
O O5 0.163287 0.053885 0.901663
O O6 0.500000 0.278037 0.250000
O O7 0.750000 0.250000 0.500000
#
# Coordination Sequence:
#
# PCOD8150636 Si02
#       4
#     4   4   8   8
#     4  12  29  50  83 116 154 210 263 318 399 464
#     4  10  25  44  83 110 152 212 257 318 399 456
#     4  11  25  51  77 114 159 205 260 326 388 466
#     4  12  30  50  76 120 158 204 264 322 391 471
#
# _framework density 28.444602
#
# number of rings (size 3 to 8) (size 9 to 14) (size 15 to 20)
#    0.000    0.667    1.667    3.000   18.667    4.000 
#    0.000    0.000    0.000    0.000    0.000    0.000 
#    0.000    0.000    0.000    0.000    0.000    0.000 
#
# Total GULP energy -148834.200009 kJ/mol
# GULP energy per Si atom -12402.850001 kJ/mol
# Density = 2.837986 g / cm^3
# Si number density = 28.444602 Si / 1000 Ang^3
#
#
#
# Elastic Constant Matrix: (Units=GPa)
#
#
# Indices 1 2 3 4 5 6 
#
# 1 163.8605 25.2811 79.1557 0.0000 27.6798 0.0000
# 2 25.2811 122.2064 29.1358 0.0000 14.5153 0.0000
# 3 79.1557 29.1358 205.0420 0.0000 22.3142 0.0000
# 4 0.0000 0.0000 0.0000 49.8997 0.0000 3.9514
# 5 27.6798 14.5153 22.3142 0.0000 63.9345 0.0000
# 6 0.0000 0.0000 0.0000 3.9514 0.0000 38.7686
#
#
#
# Elastic Compliance Matrix: (Units=1/GPa)
#
#
# Indices 1 2 3 4 5 6 
#
# 1 0.007909 -0.000717 -0.002699 0.000000 -0.002319 0.000000
# 2 -0.000717 0.008688 -0.000807 0.000000 -0.001380 0.000000
# 3 -0.002699 -0.000807 0.006119 0.000000 -0.000784 0.000000
# 4 0.000000 0.000000 0.000000 0.020203 0.000000 -0.002059
# 5 -0.002319 -0.001380 -0.000784 0.000000 0.017232 0.000000
# 6 0.000000 0.000000 0.000000 -0.002059 0.000000 0.026004
#
#
# Mechanical properties :
#
#
# Convention : Reuss Voigt Hill
#
# Bulk Modulus (GPa) = 70.08425 84.25045 77.16735
# Shear Modulus (GPa) = 50.32306 54.35634 52.33970
#
# Velocity S-wave (km/s) = 4.21070 4.37619 4.29424
# Velocity P-wave (km/s) = 6.95215 7.43089 7.19550
#
# Compressibility (1/GPa) = 0.01426854
#
# Stress axis : x y z
#
# Youngs Moduli (GPa) = 126.43922 115.10570 163.42576
#
# Poissons Ratio (x) = 0.08255 0.44107
# Poissons Ratio (y) = 0.09068 0.13195
# Poissons Ratio (z) = 0.34125 0.09294
#
# Static dielectric constant tensor:
#      x y z
#    x -8.054060 0.000000 5.417200 
#    y 0.000000 5.230260 0.000000 
#    z 5.417200 0.000000 3.271740 
# 
# 
# High freq. dielectric constant tensor:
#      x y z
#    x 2.155380 0.000000 0.009580 
#    y 0.000000 2.178780 0.000000 
#    z 0.009580 0.000000 2.168870 
# 
# From -- ./inp_files/21167.got.cif
#   From: 2010.06.25/outbox.cif.g09.slc.cpg/sg15_11_cif.got.tgz:21167.got - 2010.06.28 07:06:18.
