data_PCOD8150539
_publ_section_title
;
Structure prediction by ZEFSAII (Michael W. Deem and Ramdas Pophale) SiO2 
 PCOD8150539
Probable space group: C 2/C
;
_chemical_formula_sum "Si O2"
_cell_formula_units_Z 56
_cell_length_a 8.626738
_cell_length_b 14.811426
_cell_length_c 22.473299
_cell_angle_alpha 90.000000
_cell_angle_beta 120.226750
_cell_angle_gamma 90.000000
_cell_volume 2481.098975
_symmetry_space_group_name_H-M "C 2/C"
_symmetry_group_IT_number 15
_symmetry_cell_setting 'monoclinic'
loop_
_space_group_symop_operation_xyz
x,y,z
-x,y,1/2-z
-x,-y,-z
x,-y,1/2+z
1/2+x,1/2+y,z
1/2-x,1/2+y,1/2-z
1/2-x,1/2-y,-z
1/2+x,1/2-y,1/2+z
loop_
_atom_site_type_symbol
_atom_site_label
_atom_site_fract_x
_atom_site_fract_y
_atom_site_fract_z
Si Si1 0.700691 0.774985 0.101368
Si Si2 0.719145 0.486741 0.981166
Si Si3 0.702640 0.165650 0.269056
Si Si4 0.113279 0.192325 0.659238
Si Si5 0.596318 0.030480 0.597972
Si Si6 0.822028 0.979771 0.253599
Si Si7 0.020698 0.145461 0.519249
O O1 0.692165 0.725205 0.162760
O O2 0.577895 0.863645 0.079158
O O3 0.901164 0.807556 0.128492
O O4 0.629566 0.712523 0.034600
O O5 0.760801 0.481790 0.918714
O O6 0.572841 0.562830 0.964816
O O7 0.644826 0.390238 0.989491
O O8 0.900870 0.513474 0.051583
O O9 0.500000 0.144207 0.250000
O O10 0.702489 0.219297 0.206211
O O11 0.818501 0.074351 0.287542
O O12 0.199011 0.102398 0.704600
O O13 0.144877 0.193372 0.593881
O O14 0.652448 0.016975 0.676715
O O15 0.000000 0.964625 0.250000
#
# Coordination Sequence:
#
# PCOD8150539 Si02
#       7
#     8   8   8   8   8   8   8
#     4  11  22  40  67  95 130 178 215 275 328 405
#     4  10  25  41  64 100 127 174 221 270 329 402
#     4  10  25  42  66  97 131 171 231 266 332 401
#     4  11  22  45  66 100 129 181 218 275 337 405
#     4  11  23  43  65  92 137 176 218 267 340 401
#     4  12  23  42  69  93 131 179 216 276 331 398
#     4  11  24  41  70  96 134 168 228 280 325 391
#
# _framework density 22.570644999999999
#
# number of rings (size 3 to 8) (size 9 to 14) (size 15 to 20)
#    0.000    1.143    4.286    0.857   10.000    1.714 
#    2.571    0.714    0.000    0.000    0.000    0.000 
#    0.000    0.000    0.000    0.000    0.000    0.000 
#
# Total GULP energy -347286.898100 kJ/mol
# GULP energy per Si atom -12403.103504 kJ/mol
# Density = 2.251927 g / cm^3
# Si number density = 22.570645 Si / 1000 Ang^3
#
#
#
# Elastic Constant Matrix: (Units=GPa)
#
#
# Indices 1 2 3 4 5 6 
#
# 1 42.0434 12.6347 7.5418 0.0000 -3.9976 0.0000
# 2 12.6347 89.1646 21.3606 0.0000 -11.7774 0.0000
# 3 7.5418 21.3606 130.7522 0.0000 -15.2675 0.0000
# 4 0.0000 0.0000 0.0000 39.7277 0.0000 -1.2486
# 5 -3.9976 -11.7774 -15.2675 0.0000 21.2273 0.0000
# 6 0.0000 0.0000 0.0000 -1.2486 0.0000 30.5687
#
#
#
# Elastic Compliance Matrix: (Units=1/GPa)
#
#
# Indices 1 2 3 4 5 6 
#
# 1 0.025063 -0.003059 -0.000647 0.000000 0.002557 0.000000
# 2 -0.003059 0.012682 -0.001246 0.000000 0.005564 0.000000
# 3 -0.000647 -0.001246 0.008509 0.000000 0.005307 0.000000
# 4 0.000000 0.000000 0.000000 0.025204 0.000000 0.001029
# 5 0.002557 0.005564 0.005307 0.000000 0.054495 0.000000
# 6 0.000000 0.000000 0.000000 0.001029 0.000000 0.032755
#
#
# Mechanical properties :
#
#
# Convention : Reuss Voigt Hill
#
# Bulk Modulus (GPa) = 27.50981 38.33713 32.92347
# Shear Modulus (GPa) = 27.66591 32.99963 30.33277
#
# Velocity S-wave (km/s) = 3.50487 3.82784 3.66991
# Velocity P-wave (km/s) = 5.34729 6.04638 5.70755
#
# Compressibility (1/GPa) = 0.03635067
#
# Stress axis : x y z
#
# Youngs Moduli (GPa) = 39.89884 78.85187 117.52896
#
# Poissons Ratio (x) = 0.24118 0.07608
# Poissons Ratio (y) = 0.12204 0.14640
# Poissons Ratio (z) = 0.02583 0.09822
#
# Static dielectric constant tensor:
#      x y z
#    x 3.837940 0.000000 -0.181570 
#    y 0.000000 4.087560 0.000000 
#    z -0.181570 0.000000 4.353480 
# 
# 
# High freq. dielectric constant tensor:
#      x y z
#    x 1.860800 0.000000 -0.003680 
#    y 0.000000 1.890770 0.000000 
#    z -0.003680 0.000000 1.906720 
# 
# From -- ./inp_files/264810.got.cif
#   From: 2010.06.25/outbox.cif.g09.slc.cpg/sg15_133_cif.got.tgz:264810.got - 2010.06.28 07:06:18.
