data_PCOD8150667
_publ_section_title
;
Structure prediction by ZEFSAII (Michael W. Deem and Ramdas Pophale) SiO2 
 PCOD8150667
Probable space group: C 2/C
;
_chemical_formula_sum "Si O2"
_cell_formula_units_Z 40
_cell_length_a 11.046368
_cell_length_b 11.031103
_cell_length_c 25.218957
_cell_angle_alpha 90.000000
_cell_angle_beta 146.622740
_cell_angle_gamma 90.000000
_cell_volume 1690.620679
_symmetry_space_group_name_H-M "C 2/C"
_symmetry_group_IT_number 15
_symmetry_cell_setting 'monoclinic'
loop_
_space_group_symop_operation_xyz
x,y,z
-x,y,1/2-z
-x,-y,-z
x,-y,1/2+z
1/2+x,1/2+y,z
1/2-x,1/2+y,1/2-z
1/2-x,1/2-y,-z
1/2+x,1/2-y,1/2+z
loop_
_atom_site_type_symbol
_atom_site_label
_atom_site_fract_x
_atom_site_fract_y
_atom_site_fract_z
Si Si1 0.122669 0.292534 0.350089
Si Si2 0.556807 0.584248 0.152453
Si Si3 0.396067 0.324694 0.947759
Si Si4 0.252604 0.867839 0.463240
Si Si5 0.981722 0.525415 0.135761
O O1 0.376903 0.329720 0.435824
O O2 0.002504 0.382823 0.347483
O O3 0.000000 0.305125 0.250000
O O4 0.103503 0.157750 0.366899
O O5 0.554223 0.649789 0.094963
O O6 0.472367 0.445416 0.119586
O O7 0.801058 0.592766 0.265085
O O8 0.301518 0.186908 0.922569
O O9 0.229694 0.425317 0.909029
O O10 0.250000 0.750000 0.500000
O O11 0.444883 0.952589 0.559157
#
# Coordination Sequence:
#
# PCOD8150667 Si02
#       5
#     8   8   8   8   8
#     4  12  26  44  73 106 147 192 241 301 367 435
#     4  12  26  47  68 112 145 191 245 306 365 442
#     4  11  24  47  73 101 143 193 243 298 364 434
#     4  10  25  45  74 104 141 189 243 298 362 436
#     4  11  25  44  75 102 143 188 251 294 367 440
#
# _framework density 23.659949999999998
#
# number of rings (size 3 to 8) (size 9 to 14) (size 15 to 20)
#    0.000    0.800    2.000    4.200   14.000    0.800 
#    3.600    0.000    0.000    0.000    0.000    0.000 
#    0.000    0.000    0.000    0.000    0.000    0.000 
#
# Total GULP energy -247923.125476 kJ/mol
# GULP energy per Si atom -12396.156274 kJ/mol
# Density = 2.360610 g / cm^3
# Si number density = 23.659950 Si / 1000 Ang^3
#
#
#
# Elastic Constant Matrix: (Units=GPa)
#
#
# Indices 1 2 3 4 5 6 
#
# 1 54.1043 44.3216 23.0474 0.0000 16.0807 0.0000
# 2 44.3216 123.7310 23.8845 0.0000 5.1096 0.0000
# 3 23.0474 23.8845 141.8183 0.0000 29.8487 0.0000
# 4 0.0000 0.0000 0.0000 30.9400 0.0000 0.1191
# 5 16.0807 5.1096 29.8487 0.0000 20.2103 0.0000
# 6 0.0000 0.0000 0.0000 0.1191 0.0000 53.3487
#
#
#
# Elastic Compliance Matrix: (Units=1/GPa)
#
#
# Indices 1 2 3 4 5 6 
#
# 1 0.036117 -0.012181 0.002296 0.000000 -0.029048 0.000000
# 2 -0.012181 0.012462 -0.002171 0.000000 0.009747 0.000000
# 3 0.002296 -0.002171 0.010611 0.000000 -0.016950 0.000000
# 4 0.000000 0.000000 0.000000 0.032321 0.000000 -0.000072
# 5 -0.029048 0.009747 -0.016950 0.000000 0.095161 0.000000
# 6 0.000000 0.000000 0.000000 -0.000072 0.000000 0.018745
#
#
# Mechanical properties :
#
#
# Convention : Reuss Voigt Hill
#
# Bulk Modulus (GPa) = 28.50782 55.79562 42.15172
# Shear Modulus (GPa) = 20.72783 36.12648 28.42715
#
# Velocity S-wave (km/s) = 2.96306 3.91180 3.47001
# Velocity P-wave (km/s) = 4.87662 6.63599 5.82314
#
# Compressibility (1/GPa) = 0.03507810
#
# Stress axis : x y z
#
# Youngs Moduli (GPa) = 27.68775 80.24444 94.24026
#
# Poissons Ratio (x) = 0.97746 -0.21636
# Poissons Ratio (y) = 0.33727 0.20457
# Poissons Ratio (z) = -0.06357 0.17419
#
# Static dielectric constant tensor:
#      x y z
#    x 4.359920 0.000000 -0.142890 
#    y 0.000000 4.646480 0.000000 
#    z -0.142890 0.000000 4.436910 
# 
# 
# High freq. dielectric constant tensor:
#      x y z
#    x 1.918490 0.000000 -0.000300 
#    y 0.000000 1.949010 0.000000 
#    z -0.000300 0.000000 1.946090 
# 
# From -- ./inp_files/122833.got.cif
#   From: 2010.06.25/outbox.cif.g09.slc.cpg/sg15_62_cif.got.tgz:122833.got - 2010.06.28 07:06:18.
