data_PCOD8150947
_publ_section_title
;
Structure prediction by ZEFSAII (Michael W. Deem and Ramdas Pophale) SiO2 
 PCOD8150947
Probable space group: C 2/C
;
_chemical_formula_sum "Si O2"
_cell_formula_units_Z 48
_cell_length_a 9.159589
_cell_length_b 15.313702
_cell_length_c 32.429811
_cell_angle_alpha 90.000000
_cell_angle_beta 143.385775
_cell_angle_gamma 90.000000
_cell_volume 2713.037735
_symmetry_space_group_name_H-M "C 2/C"
_symmetry_group_IT_number 15
_symmetry_cell_setting 'monoclinic'
loop_
_space_group_symop_operation_xyz
x,y,z
-x,y,1/2-z
-x,-y,-z
x,-y,1/2+z
1/2+x,1/2+y,z
1/2-x,1/2+y,1/2-z
1/2-x,1/2-y,-z
1/2+x,1/2-y,1/2+z
loop_
_atom_site_type_symbol
_atom_site_label
_atom_site_fract_x
_atom_site_fract_y
_atom_site_fract_z
Si Si1 0.707092 0.377125 0.830275
Si Si2 0.415386 0.722829 0.575864
Si Si3 0.400812 0.979266 0.081480
Si Si4 0.544699 0.458882 0.073671
Si Si5 0.344457 0.438561 0.594863
Si Si6 0.923043 0.379604 0.448307
O O1 0.500000 0.362322 0.750000
O O2 0.573041 0.390980 0.844285
O O3 0.886092 0.294928 0.868777
O O4 0.863834 0.462544 0.855533
O O5 0.250000 0.750000 0.500000
O O6 0.558267 0.634812 0.597716
O O7 0.248581 0.703324 0.579175
O O8 0.276118 0.961447 0.096563
O O9 0.486491 0.887602 0.079044
O O10 0.214148 0.030603 0.008924
O O11 0.564444 0.536070 0.112926
O O12 0.211755 0.529624 0.573699
O O13 0.158179 0.371155 0.531178
#
# Coordination Sequence:
#
# PCOD8150947 Si02
#       6
#     8   8   8   8   8   8
#     4  11  21  33  50  74 106 139 173 212 269 322
#     4  11  17  31  51  76 104 136 171 215 258 312
#     4   9  17  33  52  80 100 127 173 224 258 303
#     4   9  17  31  57  79 100 124 177 225 253 299
#     4   8  14  29  49  74  95 130 170 207 248 307
#     4   8  14  27  52  73  97 127 170 210 251 295
#
# _framework density 17.692346000000001
#
# number of rings (size 3 to 8) (size 9 to 14) (size 15 to 20)
#    0.000    2.667    3.333    2.000    0.000    0.000 
#    0.000    8.333    0.000    0.000    0.000    0.000 
#    0.000    0.000    0.000    0.000    0.000    0.000 
#
# Total GULP energy -297324.342172 kJ/mol
# GULP energy per Si atom -12388.514257 kJ/mol
# Density = 1.765208 g / cm^3
# Si number density = 17.692346 Si / 1000 Ang^3
#
#
#
# Elastic Constant Matrix: (Units=GPa)
#
#
# Indices 1 2 3 4 5 6 
#
# 1 166.4055 47.8980 47.2019 0.0000 -16.5632 0.0000
# 2 47.8980 66.3793 41.0551 0.0000 -6.0095 0.0000
# 3 47.2019 41.0551 102.9966 0.0001 -6.8519 -0.0001
# 4 0.0000 0.0000 0.0001 17.8101 0.0000 2.8715
# 5 -16.5632 -6.0095 -6.8519 0.0000 16.6712 0.0000
# 6 0.0000 0.0000 -0.0001 2.8715 0.0000 30.1919
#
#
#
# Elastic Compliance Matrix: (Units=1/GPa)
#
#
# Indices 1 2 3 4 5 6 
#
# 1 0.008363 -0.004469 -0.001651 0.000000 0.006020 0.000000
# 2 -0.004469 0.022650 -0.006922 0.000000 0.000880 0.000000
# 3 -0.001651 -0.006922 0.013314 0.000000 0.001336 0.000000
# 4 0.000000 0.000000 0.000000 0.057022 0.000000 -0.005423
# 5 0.006020 0.000880 0.001336 0.000000 0.066831 0.000000
# 6 0.000000 0.000000 0.000000 -0.005423 0.000000 0.033637
#
#
# Mechanical properties :
#
#
# Convention : Reuss Voigt Hill
#
# Bulk Modulus (GPa) = 54.81309 67.56570 61.18939
# Shear Modulus (GPa) = 21.36912 26.24306 23.80609
#
# Velocity S-wave (km/s) = 3.47914 3.85554 3.67217
# Velocity P-wave (km/s) = 6.86933 7.62184 7.25535
#
# Compressibility (1/GPa) = 0.01824382
#
# Stress axis : x y z
#
# Youngs Moduli (GPa) = 119.57256 44.14954 75.10992
#
# Poissons Ratio (x) = 0.19728 0.12401
# Poissons Ratio (y) = 0.53431 0.51992
# Poissons Ratio (z) = 0.19742 0.30561
#
# Static dielectric constant tensor:
#      x y z
#    x 3.876310 0.000000 -0.167200 
#    y 0.000000 3.163900 0.000000 
#    z -0.167200 0.000000 2.941860 
# 
# 
# High freq. dielectric constant tensor:
#      x y z
#    x 1.699260 0.000000 -0.010940 
#    y 0.000000 1.663950 0.000000 
#    z -0.010940 0.000000 1.634050 
# 
# From -- ./inp_files/308105.got.cif
#   From: 2010.06.25/outbox.cif.g09.slc.cpg/sg15_155_cif.got.tgz:308105.got - 2010.06.28 07:06:18.
