data_PCOD8150086
_publ_section_title
;
Structure prediction by ZEFSAII (Michael W. Deem and Ramdas Pophale) SiO2 
 PCOD8150086
Probable space group: C 2/C
;
_chemical_formula_sum "Si O2"
_cell_formula_units_Z 56
_cell_length_a 12.213443
_cell_length_b 27.216191
_cell_length_c 8.416864
_cell_angle_alpha 90.000000
_cell_angle_beta 59.464900
_cell_angle_gamma 90.000000
_cell_volume 2409.790707
_symmetry_space_group_name_H-M "C 2/C"
_symmetry_group_IT_number 15
_symmetry_cell_setting 'monoclinic'
loop_
_space_group_symop_operation_xyz
x,y,z
-x,y,1/2-z
-x,-y,-z
x,-y,1/2+z
1/2+x,1/2+y,z
1/2-x,1/2+y,1/2-z
1/2-x,1/2-y,-z
1/2+x,1/2-y,1/2+z
loop_
_atom_site_type_symbol
_atom_site_label
_atom_site_fract_x
_atom_site_fract_y
_atom_site_fract_z
Si Si1 0.028763 0.887379 0.408058
Si Si2 0.439108 0.707291 0.128188
Si Si3 0.402575 0.002301 0.206752
Si Si4 0.429832 0.816850 0.049056
Si Si5 0.292207 0.419552 0.734301
Si Si6 0.793583 0.602085 0.855172
Si Si7 0.686598 0.829596 0.691305
O O1 0.173713 0.901617 0.328815
O O2 0.000000 0.902638 0.250000
O O3 0.004751 0.828763 0.450736
O O4 0.944455 0.920499 0.594564
O O5 0.500000 0.690045 0.250000
O O6 0.472240 0.763972 0.081610
O O7 0.285634 0.703125 0.222465
O O8 0.500000 0.031781 0.250000
O O9 0.271503 0.027900 0.249881
O O10 0.371983 0.948064 0.291981
O O11 0.500000 0.000000 0.000000
O O12 0.378271 0.851529 0.230606
O O13 0.557644 0.839149 0.882994
O O14 0.331131 0.809280 0.974963
O O15 0.245290 0.383815 0.627329
O O16 0.254947 0.392812 0.927530
#
# Coordination Sequence:
#
# PCOD8150086 Si02
#       7
#     8   8   8   8   8   8   8
#     4  11  26  47  74 100 142 184 237 288 352 421
#     4  11  25  44  67 101 141 189 232 297 346 422
#     4  12  27  45  73 106 145 183 228 287 350 416
#     4  11  26  40  72 102 141 185 238 290 355 420
#     4  11  25  47  72 101 144 180 233 290 351 419
#     4  12  26  46  72 105 140 187 232 293 351 420
#     4  10  24  44  65  99 143 182 233 290 353 412
#
# _framework density 23.238534000000001
#
# number of rings (size 3 to 8) (size 9 to 14) (size 15 to 20)
#    0.000    0.857    1.429    5.143   12.000    1.143 
#    0.000    0.000    0.000    0.000    0.000    0.000 
#    0.000    0.000    0.000    0.000    0.000    0.000 
#
# Total GULP energy -346877.101209 kJ/mol
# GULP energy per Si atom -12388.467900 kJ/mol
# Density = 2.318564 g / cm^3
# Si number density = 23.238534 Si / 1000 Ang^3
#
#
#
# Elastic Constant Matrix: (Units=GPa)
#
#
# Indices 1 2 3 4 5 6 
#
# 1 108.1038 8.0811 15.5393 0.0000 7.4449 0.0000
# 2 8.0811 83.7203 9.9322 0.0000 -4.2151 0.0000
# 3 15.5393 9.9322 110.6383 0.0000 6.0814 0.0000
# 4 0.0000 0.0000 0.0000 22.7888 0.0000 2.4563
# 5 7.4449 -4.2151 6.0814 0.0000 41.3867 0.0000
# 6 0.0000 0.0000 0.0000 2.4563 0.0000 30.7968
#
#
#
# Elastic Compliance Matrix: (Units=1/GPa)
#
#
# Indices 1 2 3 4 5 6 
#
# 1 0.009598 -0.000869 -0.001180 0.000000 -0.001642 0.000000
# 2 -0.000869 0.012233 -0.001062 0.000000 0.001558 0.000000
# 3 -0.001180 -0.001062 0.009369 0.000000 -0.001273 0.000000
# 4 0.000000 0.000000 0.000000 0.044262 0.000000 -0.003530
# 5 -0.001642 0.001558 -0.001273 0.000000 0.024803 0.000000
# 6 0.000000 0.000000 0.000000 -0.003530 0.000000 0.032753
#
#
# Mechanical properties :
#
#
# Convention : Reuss Voigt Hill
#
# Bulk Modulus (GPa) = 40.03377 41.06309 40.54843
# Shear Modulus (GPa) = 33.88326 36.92177 35.40251
#
# Velocity S-wave (km/s) = 3.82260 3.99032 3.90736
# Velocity P-wave (km/s) = 6.06199 6.24010 6.15169
#
# Compressibility (1/GPa) = 0.02497891
#
# Stress axis : x y z
#
# Youngs Moduli (GPa) = 104.18850 81.74721 106.73006
#
# Poissons Ratio (x) = 0.07105 0.12592
# Poissons Ratio (y) = 0.09055 0.11332
# Poissons Ratio (z) = 0.12292 0.08679
#
# Static dielectric constant tensor:
#      x y z
#    x 4.369680 0.000000 -0.092160 
#    y 0.000000 3.728870 0.000000 
#    z -0.092160 0.000000 4.312950 
# 
# 
# High freq. dielectric constant tensor:
#      x y z
#    x 1.941730 0.000000 -0.000040 
#    y 0.000000 1.899640 0.000000 
#    z -0.000040 0.000000 1.923210 
# 
# From -- ./inp_files/35593.got.cif
#   From: 2010.06.25/outbox.cif.g09.slc.cpg/sg15_18_cif.got.tgz:35593.got - 2010.06.28 07:06:18.
