data_PCOD8150599
_publ_section_title
;
Structure prediction by ZEFSAII (Michael W. Deem and Ramdas Pophale) SiO2 
 PCOD8150599
Probable space group: C 2/C
;
_chemical_formula_sum "Si O2"
_cell_formula_units_Z 60
_cell_length_a 22.013268
_cell_length_b 14.960063
_cell_length_c 9.544541
_cell_angle_alpha 90.000000
_cell_angle_beta 111.685340
_cell_angle_gamma 90.000000
_cell_volume 2920.753327
_symmetry_space_group_name_H-M "C 2/C"
_symmetry_group_IT_number 15
_symmetry_cell_setting 'monoclinic'
loop_
_space_group_symop_operation_xyz
x,y,z
-x,y,1/2-z
-x,-y,-z
x,-y,1/2+z
1/2+x,1/2+y,z
1/2-x,1/2+y,1/2-z
1/2-x,1/2-y,-z
1/2+x,1/2-y,1/2+z
loop_
_atom_site_type_symbol
_atom_site_label
_atom_site_fract_x
_atom_site_fract_y
_atom_site_fract_z
Si Si1 0.664026 0.898009 0.655293
Si Si2 0.563481 0.674242 0.229718
Si Si3 0.181494 0.709462 0.899371
Si Si4 0.500000 0.498615 0.750000
Si Si5 0.583402 0.350236 0.438788
Si Si6 0.734634 0.649386 0.033941
Si Si7 0.071951 0.670856 0.302494
Si Si8 0.327310 0.900669 0.388111
O O1 0.662766 0.867692 0.493312
O O2 0.730976 0.868781 0.788042
O O3 0.602504 0.854222 0.680140
O O4 0.654873 0.003870 0.659244
O O5 0.500000 0.719341 0.250000
O O6 0.628138 0.710950 0.361213
O O7 0.556047 0.565561 0.230392
O O8 0.567069 0.699796 0.069997
O O9 0.185962 0.668222 0.748545
O O10 0.250000 0.750000 0.000000
O O11 0.461504 0.561596 0.608455
O O12 0.659577 0.375515 0.492456
O O13 0.567849 0.279130 0.303260
O O14 0.750000 0.750000 0.000000
O O15 0.763428 0.588370 0.932965
O O16 0.113852 0.635832 0.468068
O O17 0.000000 0.628332 0.250000
#
# Coordination Sequence:
#
# PCOD8150599 Si02
#       8
#     8   8   8   4   8   8   8   8
#     4  11  25  42  67 102 133 177 237 286 344 411
#     4  10  25  44  62  98 147 174 219 295 352 403
#     4  12  24  41  71 100 140 186 231 285 364 412
#     4  10  26  40  68 102 130 176 232 282 346 428
#     4  12  21  43  70  94 137 178 230 269 345 425
#     4  11  21  42  69  96 132 185 226 280 346 413
#     4  11  24  42  73  95 129 188 231 280 345 419
#     4  11  24  46  65 100 141 172 232 300 339 406
#
# _framework density 20.542645
#
# number of rings (size 3 to 8) (size 9 to 14) (size 15 to 20)
#    0.400    0.533    4.667    3.600    1.867    3.733 
#    0.000    1.333    0.000    0.000    0.000    0.000 
#    0.000    0.000    0.000    0.000    0.000    0.000 
#
# Total GULP energy -371960.413059 kJ/mol
# GULP energy per Si atom -12398.680435 kJ/mol
# Density = 2.049589 g / cm^3
# Si number density = 20.542645 Si / 1000 Ang^3
#
#
#
# Elastic Constant Matrix: (Units=GPa)
#
#
# Indices 1 2 3 4 5 6 
#
# 1 159.0165 30.7671 55.4827 0.0000 9.0554 0.0000
# 2 30.7671 100.7321 16.6897 0.0000 5.1133 0.0000
# 3 55.4827 16.6897 99.6544 0.0000 -5.4850 0.0000
# 4 0.0000 0.0000 0.0000 33.7084 0.0000 -2.8086
# 5 9.0554 5.1133 -5.4850 0.0000 35.0268 0.0000
# 6 0.0000 0.0000 0.0000 -2.8086 0.0000 25.8853
#
#
#
# Elastic Compliance Matrix: (Units=1/GPa)
#
#
# Indices 1 2 3 4 5 6 
#
# 1 0.008331 -0.001666 -0.004503 0.000000 -0.002616 0.000000
# 2 -0.001666 0.010654 -0.000927 0.000000 -0.001270 0.000000
# 3 -0.004503 -0.000927 0.012880 0.000000 0.003316 0.000000
# 4 0.000000 0.000000 0.000000 0.029937 0.000000 0.003248
# 5 -0.002616 -0.001270 0.003316 0.000000 0.029931 0.000000
# 6 0.000000 0.000000 0.000000 0.003248 0.000000 0.038984
#
#
# Mechanical properties :
#
#
# Convention : Reuss Voigt Hill
#
# Bulk Modulus (GPa) = 56.58299 62.80911 59.69605
# Shear Modulus (GPa) = 33.15653 36.02164 34.58909
#
# Velocity S-wave (km/s) = 4.02186 4.19203 4.10783
# Velocity P-wave (km/s) = 7.01221 7.35338 7.18482
#
# Compressibility (1/GPa) = 0.01767315
#
# Stress axis : x y z
#
# Youngs Moduli (GPa) = 120.03058 93.86049 77.64134
#
# Poissons Ratio (x) = 0.15634 0.34965
# Poissons Ratio (y) = 0.19994 0.07196
# Poissons Ratio (z) = 0.54055 0.08699
#
# Static dielectric constant tensor:
#      x y z
#    x 3.923610 0.000000 -0.085630 
#    y 0.000000 3.776310 0.000000 
#    z -0.085630 0.000000 3.789850 
# 
# 
# High freq. dielectric constant tensor:
#      x y z
#    x 1.811020 0.000000 -0.002860 
#    y 0.000000 1.797230 0.000000 
#    z -0.002860 0.000000 1.807130 
# 
# From -- ./inp_files/61956.got.cif
#   From: 2010.06.25/outbox.cif.g09.slc.cpg/sg15_31_cif.got.tgz:61956.got - 2010.06.28 07:06:18.
