data_PCOD8150386
_publ_section_title
;
Structure prediction by ZEFSAII (Michael W. Deem and Ramdas Pophale) SiO2 
 PCOD8150386
Probable space group: C 2/C
;
_chemical_formula_sum "Si O2"
_cell_formula_units_Z 52
_cell_length_a 5.180262
_cell_length_b 15.391594
_cell_length_c 29.783041
_cell_angle_alpha 90.000000
_cell_angle_beta 72.813231
_cell_angle_gamma 90.000000
_cell_volume 2268.638701
_symmetry_space_group_name_H-M "C 2/C"
_symmetry_group_IT_number 15
_symmetry_cell_setting 'monoclinic'
loop_
_space_group_symop_operation_xyz
x,y,z
-x,y,1/2-z
-x,-y,-z
x,-y,1/2+z
1/2+x,1/2+y,z
1/2-x,1/2+y,1/2-z
1/2-x,1/2-y,-z
1/2+x,1/2-y,1/2+z
loop_
_atom_site_type_symbol
_atom_site_label
_atom_site_fract_x
_atom_site_fract_y
_atom_site_fract_z
Si Si1 0.334284 0.621636 0.422878
Si Si2 0.000000 0.149208 0.250000
Si Si3 0.272341 0.343457 0.520088
Si Si4 0.514114 0.115067 0.868646
Si Si5 0.639017 0.299962 0.832861
Si Si6 0.537730 0.047508 0.301653
Si Si7 0.073236 0.926524 0.077523
O O1 0.507836 0.670633 0.452058
O O2 0.369907 0.670158 0.373329
O O3 0.476724 0.528025 0.413712
O O4 0.015204 0.620474 0.448144
O O5 0.854484 0.210252 0.221608
O O6 0.834129 0.086523 0.291522
O O7 0.250000 0.250000 0.500000
O O8 0.376407 0.410249 0.477437
O O9 0.681884 0.200137 0.844776
O O10 0.658178 0.092330 0.907744
O O11 0.192683 0.128065 0.893543
O O12 0.532114 0.040799 0.829799
O O13 0.856620 0.375286 0.832539
O O14 0.500000 0.030695 0.250000
#
# Coordination Sequence:
#
# PCOD8150386 Si02
#       7
#     8   4   8   8   8   8   8
#     4  12  24  43  72  97 144 189 230 295 355 423
#     4  10  24  46  72  96 142 176 236 290 356 424
#     4  12  25  43  68 103 140 184 242 291 353 423
#     4  12  26  44  75 103 144 183 240 286 355 434
#     4  11  25  44  71 103 138 186 235 292 361 419
#     4  10  24  47  68 102 139 187 232 299 359 430
#     4  12  25  46  67 106 140 187 238 290 355 430
#
# _framework density 22.921236
#
# number of rings (size 3 to 8) (size 9 to 14) (size 15 to 20)
#    0.000    0.615    1.538    6.000    7.538    0.000 
#    4.154    0.000    0.000    0.000    0.000    0.000 
#    0.000    0.000    0.000    0.000    0.000    0.000 
#
# Total GULP energy -322090.104097 kJ/mol
# GULP energy per Si atom -12388.080927 kJ/mol
# Density = 2.286907 g / cm^3
# Si number density = 22.921236 Si / 1000 Ang^3
#
#
#
# Elastic Constant Matrix: (Units=GPa)
#
#
# Indices 1 2 3 4 5 6 
#
# 1 98.8836 2.6822 39.2587 0.0000 -9.0891 0.0000
# 2 2.6822 119.8314 38.9361 0.0000 -8.7456 0.0000
# 3 39.2587 38.9361 112.8188 0.0000 -6.5686 0.0000
# 4 0.0000 0.0000 0.0000 37.0842 0.0000 2.5990
# 5 -9.0891 -8.7456 -6.5686 0.0000 40.4444 0.0000
# 6 0.0000 0.0000 0.0000 2.5990 0.0000 12.2970
#
#
#
# Elastic Compliance Matrix: (Units=1/GPa)
#
#
# Indices 1 2 3 4 5 6 
#
# 1 0.012091 0.001373 -0.004549 0.000000 0.002275 0.000000
# 2 0.001373 0.009649 -0.003703 0.000000 0.001794 0.000000
# 3 -0.004549 -0.003703 0.011730 0.000000 0.000082 0.000000
# 4 0.000000 0.000000 0.000000 0.027371 0.000000 -0.005785
# 5 0.002275 0.001794 0.000082 0.000000 0.025638 0.000000
# 6 0.000000 0.000000 0.000000 -0.005785 0.000000 0.082544
#
#
# Mechanical properties :
#
#
# Convention : Reuss Voigt Hill
#
# Bulk Modulus (GPa) = 50.73245 54.80974 52.77109
# Shear Modulus (GPa) = 26.40620 34.67557 30.54088
#
# Velocity S-wave (km/s) = 3.39785 3.89371 3.65420
# Velocity P-wave (km/s) = 6.12987 6.64671 6.39352
#
# Compressibility (1/GPa) = 0.01971125
#
# Stress axis : x y z
#
# Youngs Moduli (GPa) = 82.70752 103.64258 85.25446
#
# Poissons Ratio (x) = -0.14235 0.38781
# Poissons Ratio (y) = -0.11360 0.31573
# Poissons Ratio (z) = 0.37623 0.38383
#
# Static dielectric constant tensor:
#      x y z
#    x 4.225210 0.000000 0.124190 
#    y 0.000000 4.213040 0.000000 
#    z 0.124190 0.000000 4.350100 
# 
# 
# High freq. dielectric constant tensor:
#      x y z
#    x 1.903200 0.000000 0.001170 
#    y 0.000000 1.906890 0.000000 
#    z 0.001170 0.000000 1.927300 
# 
# From -- ./inp_files/305360.got.cif
#   From: 2010.06.25/outbox.cif.g09.slc.cpg/sg15_153_cif.got.tgz:305360.got - 2010.06.28 07:06:18.
