data_PCOD8150168
_publ_section_title
;
Structure prediction by ZEFSAII (Michael W. Deem and Ramdas Pophale) SiO2 
 PCOD8150168
Probable space group: C 2/C
;
_chemical_formula_sum "Si O2"
_cell_formula_units_Z 40
_cell_length_a 8.432509
_cell_length_b 17.326706
_cell_length_c 11.873539
_cell_angle_alpha 90.000000
_cell_angle_beta 103.546050
_cell_angle_gamma 90.000000
_cell_volume 1686.555239
_symmetry_space_group_name_H-M "C 2/C"
_symmetry_group_IT_number 15
_symmetry_cell_setting 'monoclinic'
loop_
_space_group_symop_operation_xyz
x,y,z
-x,y,1/2-z
-x,-y,-z
x,-y,1/2+z
1/2+x,1/2+y,z
1/2-x,1/2+y,1/2-z
1/2-x,1/2-y,-z
1/2+x,1/2-y,1/2+z
loop_
_atom_site_type_symbol
_atom_site_label
_atom_site_fract_x
_atom_site_fract_y
_atom_site_fract_z
Si Si1 0.333342 0.184914 0.275465
Si Si2 0.160414 0.323028 0.339943
Si Si3 0.673686 0.397795 0.555484
Si Si4 0.595755 0.443039 0.154456
Si Si5 0.514506 0.910153 0.523154
O O1 0.500000 0.220765 0.250000
O O2 0.267235 0.244685 0.358577
O O3 0.191047 0.164647 0.160028
O O4 0.387391 0.104710 0.344367
O O5 0.257162 0.387618 0.283925
O O6 0.000000 0.299469 0.250000
O O7 0.116950 0.360087 0.451976
O O8 0.512284 0.391499 0.451800
O O9 0.673653 0.483747 0.606130
O O10 0.828826 0.381252 0.501608
O O11 0.500000 0.469896 0.250000
O O12 0.500000 0.000000 0.500000
#
# Coordination Sequence:
#
# PCOD8150168 Si02
#       5
#     8   8   8   8   8
#     4  10  25  45  69 100 147 192 240 298 367 432
#     4  12  26  43  69 105 144 189 243 298 367 433
#     4  10  24  44  70 104 141 189 238 305 360 426
#     4  11  24  42  70 103 145 188 244 299 359 435
#     4  11  23  43  73 103 141 189 248 302 357 430
#
# _framework density 23.716982000000002
#
# number of rings (size 3 to 8) (size 9 to 14) (size 15 to 20)
#    0.000    1.200    2.000    2.400    5.600    4.000 
#    0.000    5.000    0.000    0.000    0.000    0.000 
#    0.000    0.000    0.000    0.000    0.000    0.000 
#
# Total GULP energy -247837.335410 kJ/mol
# GULP energy per Si atom -12391.866771 kJ/mol
# Density = 2.366300 g / cm^3
# Si number density = 23.716982 Si / 1000 Ang^3
#
#
#
# Elastic Constant Matrix: (Units=GPa)
#
#
# Indices 1 2 3 4 5 6 
#
# 1 113.8533 54.7098 43.0094 0.0000 -15.9850 0.0000
# 2 54.7098 113.6822 40.3333 0.0000 -13.6406 0.0000
# 3 43.0094 40.3333 88.5547 0.0000 -14.0712 0.0000
# 4 0.0000 0.0000 0.0000 38.2159 0.0000 -4.3970
# 5 -15.9850 -13.6406 -14.0712 0.0000 35.7190 0.0000
# 6 0.0000 0.0000 0.0000 -4.3970 0.0000 31.3908
#
#
#
# Elastic Compliance Matrix: (Units=1/GPa)
#
#
# Indices 1 2 3 4 5 6 
#
# 1 0.012699 -0.004490 -0.003725 0.000000 0.002501 0.000000
# 2 -0.004490 0.012254 -0.003175 0.000000 0.001420 0.000000
# 3 -0.003725 -0.003175 0.015031 0.000000 0.003042 0.000000
# 4 0.000000 0.000000 0.000000 0.026596 0.000000 0.003725
# 5 0.002501 0.001420 0.003042 0.000000 0.030856 0.000000
# 6 0.000000 0.000000 0.000000 0.003725 0.000000 0.032378
#
#
# Mechanical properties :
#
#
# Convention : Reuss Voigt Hill
#
# Bulk Modulus (GPa) = 58.12618 65.79946 61.96282
# Shear Modulus (GPa) = 31.57975 32.93432 32.25703
#
# Velocity S-wave (km/s) = 3.65297 3.73049 3.69193
# Velocity P-wave (km/s) = 6.50797 6.80876 6.66006
#
# Compressibility (1/GPa) = 0.01720395
#
# Stress axis : x y z
#
# Youngs Moduli (GPa) = 78.74578 81.60654 66.52784
#
# Poissons Ratio (x) = 0.36638 0.24785
# Poissons Ratio (y) = 0.35354 0.21123
# Poissons Ratio (z) = 0.29336 0.25911
#
# Static dielectric constant tensor:
#      x y z
#    x 4.556060 0.000000 -0.207180 
#    y 0.000000 4.024750 0.000000 
#    z -0.207180 0.000000 4.581000 
# 
# 
# High freq. dielectric constant tensor:
#      x y z
#    x 1.955220 0.000000 -0.005870 
#    y 0.000000 1.928540 0.000000 
#    z -0.005870 0.000000 1.935690 
# 
# From -- ./inp_files/76720.got.cif
#   From: 2010.06.25/outbox.cif.g09.slc.cpg/sg15_39_cif.got.tgz:76720.got - 2010.06.28 07:06:18.
