data_PCOD8150093
_publ_section_title
;
Structure prediction by ZEFSAII (Michael W. Deem and Ramdas Pophale) SiO2 
 PCOD8150093
Probable space group: C 2/C
;
_chemical_formula_sum "Si O2"
_cell_formula_units_Z 52
_cell_length_a 7.851914
_cell_length_b 12.665355
_cell_length_c 25.735166
_cell_angle_alpha 90.000000
_cell_angle_beta 115.819374
_cell_angle_gamma 90.000000
_cell_volume 2303.802041
_symmetry_space_group_name_H-M "C 2/C"
_symmetry_group_IT_number 15
_symmetry_cell_setting 'monoclinic'
loop_
_space_group_symop_operation_xyz
x,y,z
-x,y,1/2-z
-x,-y,-z
x,-y,1/2+z
1/2+x,1/2+y,z
1/2-x,1/2+y,1/2-z
1/2-x,1/2-y,-z
1/2+x,1/2-y,1/2+z
loop_
_atom_site_type_symbol
_atom_site_label
_atom_site_fract_x
_atom_site_fract_y
_atom_site_fract_z
Si Si1 0.564132 0.118437 0.067095
Si Si2 0.420385 0.759354 0.118141
Si Si3 0.478098 0.741263 0.645151
Si Si4 0.123514 0.913995 0.715268
Si Si5 0.500000 0.822950 0.750000
Si Si6 0.349565 0.881965 0.433646
Si Si7 0.187545 0.394651 0.308882
O O1 0.734133 0.197281 0.074160
O O2 0.467941 0.154871 0.107976
O O3 0.632670 0.999586 0.086202
O O4 0.408385 0.121948 0.001318
O O5 0.528271 0.682946 0.172775
O O6 0.538311 0.791489 0.083165
O O7 0.372203 0.872787 0.139169
O O8 0.385149 0.760134 0.689777
O O9 0.371161 0.647336 0.600805
O O10 0.695923 0.712339 0.688190
O O11 0.341100 0.888380 0.760743
O O12 0.000000 0.945672 0.750000
O O13 0.159364 0.011936 0.680309
O O14 0.000000 0.406028 0.250000
#
# Coordination Sequence:
#
# PCOD8150093 Si02
#       7
#     8   8   8   8   4   8   8
#     4  10  24  44  66 103 132 173 235 287 341 413
#     4  11  23  43  66  98 134 174 231 286 340 415
#     4  11  24  43  65  97 140 179 230 282 342 416
#     4  12  25  44  66  98 141 183 232 281 337 419
#     4  12  24  42  66  98 138 186 224 284 340 402
#     4  11  23  42  74  95 132 183 222 289 356 394
#     4  11  25  41  65  96 136 186 228 276 344 407
#
# _framework density 22.571383999999998
#
# number of rings (size 3 to 8) (size 9 to 14) (size 15 to 20)
#    0.000    0.923    2.308    5.077    3.231    1.231 
#    0.000    0.000    0.000   10.154    0.000    0.000 
#    0.000    0.000    0.000    0.000    0.000    0.000 
#
# Total GULP energy -322124.921175 kJ/mol
# GULP energy per Si atom -12389.420045 kJ/mol
# Density = 2.252001 g / cm^3
# Si number density = 22.571384 Si / 1000 Ang^3
#
#
#
# Elastic Constant Matrix: (Units=GPa)
#
#
# Indices 1 2 3 4 5 6 
#
# 1 99.7259 31.7971 41.1132 0.0000 3.6058 0.0000
# 2 31.7971 115.5673 52.2578 0.0000 -6.5980 0.0000
# 3 41.1132 52.2578 99.9714 0.0000 -4.7032 0.0000
# 4 0.0000 0.0000 0.0000 23.1027 0.0000 -1.9353
# 5 3.6058 -6.5980 -4.7032 0.0000 34.7008 0.0000
# 6 0.0000 0.0000 0.0000 -1.9353 0.0000 29.0068
#
#
#
# Elastic Compliance Matrix: (Units=1/GPa)
#
#
# Indices 1 2 3 4 5 6 
#
# 1 0.012414 -0.001552 -0.004396 0.000000 -0.002181 0.000000
# 2 -0.001552 0.011590 -0.005343 0.000000 0.001641 0.000000
# 3 -0.004396 -0.005343 0.014671 0.000000 0.001429 0.000000
# 4 0.000000 0.000000 0.000000 0.043528 0.000000 0.002904
# 5 -0.002181 0.001641 0.001429 0.000000 0.029550 0.000000
# 6 0.000000 0.000000 0.000000 0.002904 0.000000 0.034668
#
#
# Mechanical properties :
#
#
# Convention : Reuss Voigt Hill
#
# Bulk Modulus (GPa) = 62.14339 62.84455 62.49397
# Shear Modulus (GPa) = 28.67511 30.03516 29.35514
#
# Velocity S-wave (km/s) = 3.56816 3.65180 3.61022
# Velocity P-wave (km/s) = 6.67588 6.75898 6.71756
#
# Compressibility (1/GPa) = 0.01609182
#
# Stress axis : x y z
#
# Youngs Moduli (GPa) = 80.55631 86.28461 68.16201
#
# Poissons Ratio (x) = 0.13391 0.29967
# Poissons Ratio (y) = 0.12502 0.36417
# Poissons Ratio (z) = 0.35416 0.46099
#
# Static dielectric constant tensor:
#      x y z
#    x 4.259220 0.000000 -0.007790 
#    y 0.000000 4.178030 0.000000 
#    z -0.007790 0.000000 3.991860 
# 
# 
# High freq. dielectric constant tensor:
#      x y z
#    x 1.898260 0.000000 0.008630 
#    y 0.000000 1.892110 0.000000 
#    z 0.008630 0.000000 1.884250 
# 
# From -- ./inp_files/288118.got.cif
#   From: 2010.06.25/outbox.cif.g09.slc.cpg/sg15_145_cif.got.tgz:288118.got - 2010.06.28 07:06:18.
