data_PCOD8150468
_publ_section_title
;
Structure prediction by ZEFSAII (Michael W. Deem and Ramdas Pophale) SiO2 
 PCOD8150468
Probable space group: C 2/C
;
_chemical_formula_sum "Si O2"
_cell_formula_units_Z 52
_cell_length_a 13.231375
_cell_length_b 13.882339
_cell_length_c 17.132476
_cell_angle_alpha 90.000000
_cell_angle_beta 134.751489
_cell_angle_gamma 90.000000
_cell_volume 2234.849552
_symmetry_space_group_name_H-M "C 2/C"
_symmetry_group_IT_number 15
_symmetry_cell_setting 'monoclinic'
loop_
_space_group_symop_operation_xyz
x,y,z
-x,y,1/2-z
-x,-y,-z
x,-y,1/2+z
1/2+x,1/2+y,z
1/2-x,1/2+y,1/2-z
1/2-x,1/2-y,-z
1/2+x,1/2-y,1/2+z
loop_
_atom_site_type_symbol
_atom_site_label
_atom_site_fract_x
_atom_site_fract_y
_atom_site_fract_z
Si Si1 0.884156 0.419256 0.580440
Si Si2 0.818586 0.284761 0.223061
Si Si3 0.592801 0.512909 0.442693
Si Si4 0.500000 0.756750 0.750000
Si Si5 0.000000 0.564734 0.750000
Si Si6 0.500000 0.379065 0.750000
Si Si7 0.305782 0.813012 0.390260
Si Si8 0.978453 0.155459 0.961853
O O1 0.742371 0.461897 0.543855
O O2 0.939328 0.318737 0.645341
O O3 0.860291 0.401764 0.474698
O O4 0.997303 0.500722 0.668826
O O5 0.863421 0.365523 0.184144
O O6 0.862471 0.323686 0.332746
O O7 0.649093 0.269611 0.125192
O O8 0.893015 0.183784 0.244353
O O9 0.592671 0.550689 0.354452
O O10 0.552563 0.604312 0.473063
O O11 0.478992 0.427141 0.395325
O O12 0.366453 0.691095 0.703271
O O13 0.372610 0.712746 0.457771
#
# Coordination Sequence:
#
# PCOD8150468 Si02
#       8
#     8   8   8   4   4   4   8   8
#     4  11  24  42  69 100 139 178 226 286 349 399
#     4  11  25  45  72  98 140 186 234 277 343 418
#     4  11  24  44  70 103 138 181 229 289 343 407
#     4  11  24  44  70  97 140 178 229 280 344 414
#     4  10  24  48  67  99 138 186 228 286 342 413
#     4  11  26  46  71 104 138 188 233 274 346 419
#     4  12  25  43  69 106 135 182 230 287 345 414
#     4  11  24  46  69 103 140 178 230 289 345 404
#
# _framework density 23.267785
#
# number of rings (size 3 to 8) (size 9 to 14) (size 15 to 20)
#    0.000    0.923    4.615    1.385    4.308    2.462 
#    2.769    0.000    0.000    0.000    0.000    0.000 
#    0.000    0.000    0.000    0.000    0.000    0.000 
#
# Total GULP energy -322230.978341 kJ/mol
# GULP energy per Si atom -12393.499167 kJ/mol
# Density = 2.321483 g / cm^3
# Si number density = 23.267785 Si / 1000 Ang^3
#
#
#
# Elastic Constant Matrix: (Units=GPa)
#
#
# Indices 1 2 3 4 5 6 
#
# 1 84.0518 26.4003 43.1142 0.0000 -4.1902 0.0000
# 2 26.4003 71.0180 42.7166 0.0000 -4.2738 0.0000
# 3 43.1142 42.7166 107.8578 0.0000 1.7995 0.0000
# 4 0.0000 0.0000 0.0000 28.9211 0.0000 -3.5530
# 5 -4.1902 -4.2738 1.7995 0.0000 43.0138 0.0000
# 6 0.0000 0.0000 0.0000 -3.5530 0.0000 26.6994
#
#
#
# Elastic Compliance Matrix: (Units=1/GPa)
#
#
# Indices 1 2 3 4 5 6 
#
# 1 0.015426 -0.002524 -0.005191 0.000000 0.001469 0.000000
# 2 -0.002524 0.019097 -0.006587 0.000000 0.001927 0.000000
# 3 -0.005191 -0.006587 0.013984 0.000000 -0.001745 0.000000
# 4 0.000000 0.000000 0.000000 0.035152 0.000000 0.004678
# 5 0.001469 0.001927 -0.001745 0.000000 0.023656 0.000000
# 6 0.000000 0.000000 0.000000 0.004678 0.000000 0.038076
#
#
# Mechanical properties :
#
#
# Convention : Reuss Voigt Hill
#
# Bulk Modulus (GPa) = 50.24063 54.15443 52.19753
# Shear Modulus (GPa) = 27.68100 29.77330 28.72715
#
# Velocity S-wave (km/s) = 3.45290 3.58102 3.51754
# Velocity P-wave (km/s) = 6.12666 6.35793 6.24336
#
# Compressibility (1/GPa) = 0.01990421
#
# Stress axis : x y z
#
# Youngs Moduli (GPa) = 64.82456 52.36474 71.50845
#
# Poissons Ratio (x) = 0.13215 0.37123
# Poissons Ratio (y) = 0.16359 0.47100
# Poissons Ratio (z) = 0.33653 0.34491
#
# Static dielectric constant tensor:
#      x y z
#    x 4.035650 0.000000 -0.008200 
#    y 0.000000 4.037090 0.000000 
#    z -0.008200 0.000000 4.157440 
# 
# 
# High freq. dielectric constant tensor:
#      x y z
#    x 1.910510 0.000000 0.000310 
#    y 0.000000 1.914720 0.000000 
#    z 0.000310 0.000000 1.921660 
# 
# From -- ./inp_files/205798.got.cif
#   From: 2010.06.25/outbox.cif.g09.slc.cpg/sg15_103_cif.got.tgz:205798.got - 2010.06.28 07:06:18.
