data_PCOD8150193
_publ_section_title
;
Structure prediction by ZEFSAII (Michael W. Deem and Ramdas Pophale) SiO2 
 PCOD8150193
Probable space group: C 2/C
;
_chemical_formula_sum "Si O2"
_cell_formula_units_Z 44
_cell_length_a 17.301130
_cell_length_b 19.686783
_cell_length_c 5.364507
_cell_angle_alpha 90.000000
_cell_angle_beta 94.114669
_cell_angle_gamma 90.000000
_cell_volume 1822.460722
_symmetry_space_group_name_H-M "C 2/C"
_symmetry_group_IT_number 15
_symmetry_cell_setting 'monoclinic'
loop_
_space_group_symop_operation_xyz
x,y,z
-x,y,1/2-z
-x,-y,-z
x,-y,1/2+z
1/2+x,1/2+y,z
1/2-x,1/2+y,1/2-z
1/2-x,1/2-y,-z
1/2+x,1/2-y,1/2+z
loop_
_atom_site_type_symbol
_atom_site_label
_atom_site_fract_x
_atom_site_fract_y
_atom_site_fract_z
Si Si1 0.653377 0.829416 0.491723
Si Si2 0.789138 0.203520 0.712187
Si Si3 0.383447 0.538830 0.244464
Si Si4 0.058607 0.843497 0.469661
Si Si5 0.000000 0.280028 0.250000
Si Si6 0.798126 0.460652 0.777639
O O1 0.722598 0.845444 0.310532
O O2 0.668757 0.752302 0.580054
O O3 0.567549 0.830079 0.357526
O O4 0.658398 0.887469 0.703945
O O5 0.750000 0.250000 0.500000
O O6 0.854676 0.154020 0.623201
O O7 0.408163 0.492523 0.486673
O O8 0.432953 0.608620 0.284200
O O9 0.292744 0.553795 0.234590
O O10 0.033770 0.767417 0.538098
O O11 0.000000 0.872893 0.250000
O O12 0.824212 0.496211 0.527040
#
# Coordination Sequence:
#
# PCOD8150193 Si02
#       6
#     8   8   8   8   4   8
#     4  11  25  42  71 101 138 180 237 289 357 417
#     4  11  23  41  68 101 131 187 230 290 352 411
#     4  10  25  44  69 101 140 191 235 285 343 416
#     4  12  26  42  67  99 148 181 235 288 350 421
#     4  12  26  46  64 106 140 182 230 300 360 414
#     4  10  24  44  72 106 136 182 239 295 344 420
#
# _framework density 24.143180999999998
#
# number of rings (size 3 to 8) (size 9 to 14) (size 15 to 20)
#    0.000    1.091    3.636    1.091   15.273    0.727 
#    0.000    0.909    0.000    0.000    0.000    0.000 
#    0.000    0.000    0.000    0.000    0.000    0.000 
#
# Total GULP energy -272855.434056 kJ/mol
# GULP energy per Si atom -12402.519730 kJ/mol
# Density = 2.408823 g / cm^3
# Si number density = 24.143181 Si / 1000 Ang^3
#
#
#
# Elastic Constant Matrix: (Units=GPa)
#
#
# Indices 1 2 3 4 5 6 
#
# 1 121.9233 26.2883 38.2488 0.0000 22.3260 0.0000
# 2 26.2883 92.7897 36.1810 0.0000 21.4037 0.0000
# 3 38.2488 36.1810 131.4457 0.0000 21.8293 0.0000
# 4 0.0000 0.0000 0.0000 51.2632 0.0000 13.3700
# 5 22.3260 21.4037 21.8293 0.0000 33.8416 0.0000
# 6 0.0000 0.0000 0.0000 13.3700 0.0000 10.1014
#
#
#
# Elastic Compliance Matrix: (Units=1/GPa)
#
#
# Indices 1 2 3 4 5 6 
#
# 1 0.009845 -0.001001 -0.001810 0.000000 -0.004695 0.000000
# 2 -0.001001 0.013437 -0.002358 0.000000 -0.006317 0.000000
# 3 -0.001810 -0.002358 0.009338 0.000000 -0.003338 0.000000
# 4 0.000000 0.000000 0.000000 0.029791 0.000000 -0.039431
# 5 -0.004695 -0.006317 -0.003338 0.000000 0.038795 0.000000
# 6 0.000000 0.000000 0.000000 -0.039431 0.000000 0.151186
#
#
# Mechanical properties :
#
#
# Convention : Reuss Voigt Hill
#
# Bulk Modulus (GPa) = 44.87778 60.84388 52.86083
# Shear Modulus (GPa) = 18.50771 35.40394 26.95582
#
# Velocity S-wave (km/s) = 2.77172 3.83353 3.34503
# Velocity P-wave (km/s) = 5.37325 6.69706 6.07134
#
# Compressibility (1/GPa) = 0.02228274
#
# Stress axis : x y z
#
# Youngs Moduli (GPa) = 101.57407 74.41944 107.09209
#
# Poissons Ratio (x) = 0.07447 0.19380
# Poissons Ratio (y) = 0.10164 0.25257
# Poissons Ratio (z) = 0.18381 0.17551
#
# Static dielectric constant tensor:
#      x y z
#    x 4.279240 0.000000 0.048110 
#    y 0.000000 4.246790 0.000000 
#    z 0.048110 0.000000 4.556530 
# 
# 
# High freq. dielectric constant tensor:
#      x y z
#    x 1.950400 0.000000 0.009490 
#    y 0.000000 1.943750 0.000000 
#    z 0.009490 0.000000 1.970150 
# 
# From -- ./inp_files/10267.got.cif
#   From: 2010.06.25/outbox.cif.g09.slc.cpg/sg15_6_cif.got.tgz:10267.got - 2010.06.28 07:06:18.
