data_PCOD8150928
_publ_section_title
;
Structure prediction by ZEFSAII (Michael W. Deem and Ramdas Pophale) SiO2 
 PCOD8150928
Probable space group: C 2/C
;
_chemical_formula_sum "Si O2"
_cell_formula_units_Z 60
_cell_length_a 30.529114
_cell_length_b 14.519471
_cell_length_c 22.941346
_cell_angle_alpha 90.000000
_cell_angle_beta 17.420074
_cell_angle_gamma 90.000000
_cell_volume 3044.384931
_symmetry_space_group_name_H-M "C 2/C"
_symmetry_group_IT_number 15
_symmetry_cell_setting 'monoclinic'
loop_
_space_group_symop_operation_xyz
x,y,z
-x,y,1/2-z
-x,-y,-z
x,-y,1/2+z
1/2+x,1/2+y,z
1/2-x,1/2+y,1/2-z
1/2-x,1/2-y,-z
1/2+x,1/2-y,1/2+z
loop_
_atom_site_type_symbol
_atom_site_label
_atom_site_fract_x
_atom_site_fract_y
_atom_site_fract_z
Si Si1 0.728913 0.247013 0.737075
Si Si2 0.470839 0.009400 0.663267
Si Si3 0.519113 0.815347 0.416028
Si Si4 0.768189 0.066134 0.751472
Si Si5 0.289827 0.348997 0.344657
Si Si6 0.825234 0.358113 0.773821
Si Si7 0.500000 0.050580 0.250000
Si Si8 0.587979 0.593817 0.493044
O O1 0.654916 0.249075 0.765959
O O2 0.904545 0.264154 0.517661
O O3 0.700273 0.142862 0.795167
O O4 0.641675 0.319332 0.886838
O O5 0.642455 0.005412 0.429727
O O6 0.390074 0.918960 0.743072
O O7 0.452017 0.014013 0.757089
O O8 0.408417 0.100950 0.712165
O O9 0.433939 0.851774 0.581031
O O10 0.834107 0.119475 0.723147
O O11 0.893111 0.004512 0.562839
O O12 0.289579 0.239380 0.347926
O O13 0.131661 0.383672 0.563748
O O14 0.416455 0.391364 0.225008
O O15 0.675523 0.406191 0.942514
#
# Coordination Sequence:
#
# PCOD8150928 Si02
#       8
#     8   8   8   8   8   8   4   8
#     4  11  19  33  54  99 126 149 193 248 333 370
#     4  11  21  40  60  83 122 170 215 234 298 387
#     4  11  20  34  61  92 127 154 198 259 321 366
#     4  11  18  32  58  86 124 157 192 255 314 363
#     4  11  22  39  54  85 127 159 207 248 299 377
#     4  11  20  34  60  89 119 155 196 260 315 363
#     4  10  28  42  60  82 116 188 208 242 290 376
#     4  11  20  33  56  92 122 156 191 259 325 357
#
# _framework density 19.708416
#
# number of rings (size 3 to 8) (size 9 to 14) (size 15 to 20)
#    0.000    1.067    8.000    1.600    1.867    0.533 
#    0.000    0.000    0.000    0.800    0.000    0.000 
#    0.000    0.000    0.000    0.000    0.000    0.000 
#
# Total GULP energy -371945.109697 kJ/mol
# GULP energy per Si atom -12398.170323 kJ/mol
# Density = 1.966356 g / cm^3
# Si number density = 19.708416 Si / 1000 Ang^3
#
#
#
# Elastic Constant Matrix: (Units=GPa)
#
#
# Indices 1 2 3 4 5 6 
#
# 1 98.9278 28.6172 38.7115 0.0021 -19.4236 -0.0010
# 2 28.6172 70.5134 21.2707 0.0020 1.1354 -0.0006
# 3 38.7115 21.2707 70.7624 0.0047 -21.0116 -0.0021
# 4 0.0021 0.0020 0.0047 18.4309 -0.0037 -9.1046
# 5 -19.4236 1.1354 -21.0116 -0.0037 32.0917 0.0018
# 6 -0.0010 -0.0006 -0.0021 -9.1046 0.0018 29.5064
#
#
#
# Elastic Compliance Matrix: (Units=1/GPa)
#
#
# Indices 1 2 3 4 5 6 
#
# 1 0.014424 -0.004484 -0.004846 0.000001 0.005716 0.000000
# 2 -0.004484 0.017530 -0.004725 -0.000002 -0.006428 0.000000
# 3 -0.004846 -0.004725 0.021576 -0.000002 0.011361 0.000000
# 4 0.000001 -0.000002 -0.000002 0.064014 0.000006 0.019752
# 5 0.005716 -0.006428 0.011361 0.000006 0.042287 0.000000
# 6 0.000000 0.000000 0.000000 0.019752 0.000000 0.039986
#
#
# Mechanical properties :
#
#
# Convention : Reuss Voigt Hill
#
# Bulk Modulus (GPa) = 39.33720 46.37805 42.85762
# Shear Modulus (GPa) = 21.15056 26.11275 23.63165
#
# Velocity S-wave (km/s) = 3.27949 3.64394 3.46651
# Velocity P-wave (km/s) = 5.86029 6.42554 6.14941
#
# Compressibility (1/GPa) = 0.02542123
#
# Stress axis : x y z
#
# Youngs Moduli (GPa) = 69.32887 57.04380 46.34678
#
# Poissons Ratio (x) = 0.25580 0.22458
# Poissons Ratio (y) = 0.31088 0.21899
# Poissons Ratio (z) = 0.33594 0.26953
#
# Static dielectric constant tensor:
#      x y z
#    x 3.784830 0.000000 -0.533630 
#    y 0.000000 3.519320 0.000000 
#    z -0.533630 0.000000 3.467850 
# 
# 
# High freq. dielectric constant tensor:
#      x y z
#    x 1.757130 0.000000 -0.049170 
#    y 0.000000 1.765860 0.000000 
#    z -0.049170 0.000000 1.736400 
# 
# From -- ./inp_files/259420.got.cif
#   From: 2010.06.25/outbox.cif.g09.slc.cpg/sg15_130_cif.got.tgz:259420.got - 2010.06.28 07:06:18.
