data_PCOD8150987
_publ_section_title
;
Structure prediction by ZEFSAII (Michael W. Deem and Ramdas Pophale) SiO2 
 PCOD8150987
Probable space group: C 2/C
;
_chemical_formula_sum "Si O2"
_cell_formula_units_Z 64
_cell_length_a 13.188708
_cell_length_b 18.975327
_cell_length_c 14.044729
_cell_angle_alpha 90.000000
_cell_angle_beta 118.354004
_cell_angle_gamma 90.000000
_cell_volume 3093.160233
_symmetry_space_group_name_H-M "C 2/C"
_symmetry_group_IT_number 15
_symmetry_cell_setting 'monoclinic'
loop_
_space_group_symop_operation_xyz
x,y,z
-x,y,1/2-z
-x,-y,-z
x,-y,1/2+z
1/2+x,1/2+y,z
1/2-x,1/2+y,1/2-z
1/2-x,1/2-y,-z
1/2+x,1/2-y,1/2+z
loop_
_atom_site_type_symbol
_atom_site_label
_atom_site_fract_x
_atom_site_fract_y
_atom_site_fract_z
Si Si1 0.936362 0.794303 0.475574
Si Si2 0.752774 0.103973 0.878080
Si Si3 0.648641 0.788805 0.051306
Si Si4 0.641141 0.957369 0.502874
Si Si5 0.687828 0.833107 0.665919
Si Si6 0.614203 0.927711 0.135796
Si Si7 0.371844 0.209640 0.169753
Si Si8 0.376041 0.250377 0.656241
O O1 0.888243 0.872639 0.424234
O O2 0.893664 0.734495 0.384392
O O3 0.878725 0.778945 0.551215
O O4 0.075368 0.784518 0.534375
O O5 0.700571 0.063376 0.763689
O O6 0.688786 0.176753 0.870784
O O7 0.736172 0.053817 0.962954
O O8 0.603444 0.845052 0.107344
O O9 0.782874 0.775323 0.132751
O O10 0.633355 0.821941 0.939015
O O11 0.644712 0.898581 0.586422
O O12 0.513861 0.956554 0.397908
O O13 0.666071 0.030858 0.567728
O O14 0.671906 0.848734 0.772182
O O15 0.817553 0.810453 0.696175
O O16 0.500000 0.237160 0.250000
O O17 0.500000 0.234060 0.750000
#
# Coordination Sequence:
#
# PCOD8150987 Si02
#       8
#     8   8   8   8   8   8   8   8
#     4  11  18  34  59  88 121 146 191 275 311 358
#     4  11  20  35  57  87 121 158 201 255 320 360
#     4  11  22  38  56  92 117 154 209 245 314 371
#     4  11  21  37  54  83 124 163 205 244 297 374
#     4  11  19  35  53  83 118 151 198 245 311 356
#     4  11  23  35  57  82 123 164 201 248 293 378
#     4  11  22  36  59  82 121 160 190 256 299 376
#     4  11  19  30  58  90 118 148 185 265 324 355
#
# _framework density 20.690812000000001
#
# number of rings (size 3 to 8) (size 9 to 14) (size 15 to 20)
#    0.000    1.000    5.000    4.875    0.000    1.000 
#    0.000    1.250    0.000    0.750    0.000    3.500 
#    0.000    0.000    0.000    0.000    0.000    0.000 
#
# Total GULP energy -396607.163595 kJ/mol
# GULP energy per Si atom -12393.973862 kJ/mol
# Density = 2.064372 g / cm^3
# Si number density = 20.690812 Si / 1000 Ang^3
#
#
#
# Elastic Constant Matrix: (Units=GPa)
#
#
# Indices 1 2 3 4 5 6 
#
# 1 90.8464 16.3769 38.9443 0.0000 -4.8282 0.0000
# 2 16.3769 39.9398 29.9587 0.0000 -1.5928 0.0000
# 3 38.9443 29.9587 108.6879 0.0000 -6.4299 0.0000
# 4 0.0000 0.0000 0.0000 19.6535 0.0000 4.6565
# 5 -4.8282 -1.5928 -6.4299 0.0000 31.9139 0.0000
# 6 0.0000 0.0000 0.0000 4.6565 0.0000 19.2635
#
#
#
# Elastic Compliance Matrix: (Units=1/GPa)
#
#
# Indices 1 2 3 4 5 6 
#
# 1 0.013214 -0.002359 -0.004021 0.000000 0.001071 0.000000
# 2 -0.002359 0.031986 -0.007993 0.000000 -0.000371 0.000000
# 3 -0.004021 -0.007993 0.012939 0.000000 0.001600 0.000000
# 4 0.000000 0.000000 0.000000 0.053973 0.000000 -0.013047
# 5 0.001071 -0.000371 0.001600 0.000000 0.031800 0.000000
# 6 0.000000 0.000000 0.000000 -0.013047 0.000000 0.055065
#
#
# Mechanical properties :
#
#
# Convention : Reuss Voigt Hill
#
# Bulk Modulus (GPa) = 34.02284 45.55932 39.79108
# Shear Modulus (GPa) = 21.05077 24.44580 22.74828
#
# Velocity S-wave (km/s) = 3.19313 3.44100 3.31938
# Velocity P-wave (km/s) = 5.48397 6.15258 5.82787
#
# Compressibility (1/GPa) = 0.02939202
#
# Stress axis : x y z
#
# Youngs Moduli (GPa) = 75.68009 31.26375 77.28408
#
# Poissons Ratio (x) = 0.07376 0.31075
# Poissons Ratio (y) = 0.17855 0.61775
# Poissons Ratio (z) = 0.30430 0.24990
#
# Static dielectric constant tensor:
#      x y z
#    x 4.060350 0.000000 -0.048800 
#    y 0.000000 3.374210 0.000000 
#    z -0.048800 0.000000 4.221100 
# 
# 
# High freq. dielectric constant tensor:
#      x y z
#    x 1.806800 0.000000 -0.009950 
#    y 0.000000 1.750050 0.000000 
#    z -0.009950 0.000000 1.829780 
# 
# From -- ./inp_files/155202.got.cif
#   From: 2010.06.25/outbox.cif.g09.slc.cpg/sg15_78_cif.got.tgz:155202.got - 2010.06.28 07:06:18.
