data_PCOD8150360
_publ_section_title
;
Structure prediction by ZEFSAII (Michael W. Deem and Ramdas Pophale) SiO2 
 PCOD8150360
Probable space group: C 2/C
;
_chemical_formula_sum "Si O2"
_cell_formula_units_Z 56
_cell_length_a 25.118129
_cell_length_b 13.627351
_cell_length_c 8.281257
_cell_angle_alpha 90.000000
_cell_angle_beta 110.208473
_cell_angle_gamma 90.000000
_cell_volume 2660.127203
_symmetry_space_group_name_H-M "C 2/C"
_symmetry_group_IT_number 15
_symmetry_cell_setting 'monoclinic'
loop_
_space_group_symop_operation_xyz
x,y,z
-x,y,1/2-z
-x,-y,-z
x,-y,1/2+z
1/2+x,1/2+y,z
1/2-x,1/2+y,1/2-z
1/2-x,1/2-y,-z
1/2+x,1/2-y,1/2+z
loop_
_atom_site_type_symbol
_atom_site_label
_atom_site_fract_x
_atom_site_fract_y
_atom_site_fract_z
Si Si1 0.438626 0.039968 0.972952
Si Si2 0.386734 0.566583 0.710510
Si Si3 0.242466 0.634006 0.012576
Si Si4 0.000000 0.332962 0.750000
Si Si5 0.000000 0.053859 0.250000
Si Si6 0.804064 0.026554 0.360503
Si Si7 0.550414 0.289121 0.028583
Si Si8 0.389274 0.872357 0.104211
O O1 0.419218 0.104217 0.803088
O O2 0.444293 0.102639 0.145947
O O3 0.500000 0.000000 0.000000
O O4 0.397558 0.949887 0.968577
O O5 0.443819 0.512299 0.709560
O O6 0.334927 0.588422 0.533080
O O7 0.359841 0.502036 0.821912
O O8 0.402482 0.671755 0.798327
O O9 0.263241 0.595684 0.210457
O O10 0.250000 0.750000 0.000000
O O11 0.271545 0.568725 0.901084
O O12 0.176159 0.624047 0.927789
O O13 0.991149 0.275557 0.907192
O O14 0.011984 0.123082 0.416776
O O15 0.583837 0.231388 0.922719
#
# Coordination Sequence:
#
# PCOD8150360 Si02
#       8
#     8   8   8   4   4   8   8   8
#     4  12  22  43  63  97 137 182 212 278 344 410
#     4  11  23  44  66  94 138 178 215 278 343 401
#     4  11  25  47  72 103 131 184 240 292 346 408
#     4  12  25  37  62  96 148 170 224 267 333 404
#     4  12  25  41  68  96 142 180 216 259 347 420
#     4  10  24  46  70  97 138 177 231 294 343 401
#     4  12  25  39  62 105 132 176 227 269 325 425
#     4  12  24  42  71  93 138 181 230 278 342 400
#
# _framework density 21.051625000000001
#
# number of rings (size 3 to 8) (size 9 to 14) (size 15 to 20)
#    0.000    0.571    4.286    3.429    4.000    1.143 
#    0.000    7.857    0.000    0.000    0.000    0.000 
#    0.000    0.000    0.000    0.000    0.000    0.000 
#
# Total GULP energy -346988.419706 kJ/mol
# GULP energy per Si atom -12392.443561 kJ/mol
# Density = 2.100371 g / cm^3
# Si number density = 21.051625 Si / 1000 Ang^3
#
#
#
# Elastic Constant Matrix: (Units=GPa)
#
#
# Indices 1 2 3 4 5 6 
#
# 1 112.2362 30.3733 52.8115 0.0000 15.2000 0.0000
# 2 30.3733 111.7482 73.2133 0.0000 7.6919 0.0000
# 3 52.8115 73.2133 127.6183 0.0000 7.1692 0.0000
# 4 0.0000 0.0000 0.0000 48.3517 0.0000 -6.8333
# 5 15.2000 7.6919 7.1692 0.0000 32.0820 0.0000
# 6 0.0000 0.0000 0.0000 -6.8333 0.0000 12.9409
#
#
#
# Elastic Compliance Matrix: (Units=1/GPa)
#
#
# Indices 1 2 3 4 5 6 
#
# 1 0.011678 0.000220 -0.004704 0.000000 -0.004534 0.000000
# 2 0.000220 0.014425 -0.008270 0.000000 -0.001715 0.000000
# 3 -0.004704 -0.008270 0.014472 0.000000 0.000978 0.000000
# 4 0.000000 0.000000 0.000000 0.022350 0.000000 0.011801
# 5 -0.004534 -0.001715 0.000978 0.000000 0.033511 0.000000
# 6 0.000000 0.000000 0.000000 0.011801 0.000000 0.083506
#
#
# Mechanical properties :
#
#
# Convention : Reuss Voigt Hill
#
# Bulk Modulus (GPa) = 66.37246 73.82211 70.09729
# Shear Modulus (GPa) = 23.75603 31.68855 27.72229
#
# Velocity S-wave (km/s) = 3.36291 3.88400 3.63281
# Velocity P-wave (km/s) = 6.83197 7.43352 7.13908
#
# Compressibility (1/GPa) = 0.01506649
#
# Stress axis : x y z
#
# Youngs Moduli (GPa) = 85.63296 69.32230 69.09794
#
# Poissons Ratio (x) = -0.01525 0.32504
# Poissons Ratio (y) = -0.01884 0.57147
# Poissons Ratio (z) = 0.40282 0.57332
#
# Static dielectric constant tensor:
#      x y z
#    x 3.600400 0.000000 -0.420540 
#    y 0.000000 4.456770 0.000000 
#    z -0.420540 0.000000 3.385980 
# 
# 
# High freq. dielectric constant tensor:
#      x y z
#    x 1.823850 0.000000 -0.003320 
#    y 0.000000 1.826350 0.000000 
#    z -0.003320 0.000000 1.846150 
# 
# From -- ./inp_files/62035.got.cif
#   From: 2010.06.25/outbox.cif.g09.slc.cpg/sg15_32_cif.got.tgz:62035.got - 2010.06.28 07:06:18.
