data_PCOD8150404
_publ_section_title
;
Structure prediction by ZEFSAII (Michael W. Deem and Ramdas Pophale) SiO2 
 PCOD8150404
Probable space group: C 2/C
;
_chemical_formula_sum "Si O2"
_cell_formula_units_Z 32
_cell_length_a 12.099422
_cell_length_b 18.288004
_cell_length_c 7.411270
_cell_angle_alpha 90.000000
_cell_angle_beta 127.094865
_cell_angle_gamma 90.000000
_cell_volume 1308.065213
_symmetry_space_group_name_H-M "C 2/C"
_symmetry_group_IT_number 15
_symmetry_cell_setting 'monoclinic'
loop_
_space_group_symop_operation_xyz
x,y,z
-x,y,1/2-z
-x,-y,-z
x,-y,1/2+z
1/2+x,1/2+y,z
1/2-x,1/2+y,1/2-z
1/2-x,1/2-y,-z
1/2+x,1/2-y,1/2+z
loop_
_atom_site_type_symbol
_atom_site_label
_atom_site_fract_x
_atom_site_fract_y
_atom_site_fract_z
Si Si1 0.746917 0.914577 0.568866
Si Si2 0.765225 0.821404 0.239314
Si Si3 0.149008 0.059183 0.953427
Si Si4 0.038711 0.304417 0.480638
O O1 0.795153 0.857393 0.463819
O O2 0.600529 0.886301 0.506991
O O3 0.736959 0.995285 0.469493
O O4 0.855601 0.917985 0.841335
O O5 0.820543 0.869845 0.132563
O O6 0.845616 0.744526 0.306832
O O7 0.601431 0.809984 0.040824
O O8 0.000000 0.027180 0.750000
O O9 0.000000 0.268372 0.250000
#
# Coordination Sequence:
#
# PCOD8150404 Si02
#       4
#     8   8   8   8
#     4  11  24  46  70 103 139 183 235 285 347 413
#     4  11  26  48  73 104 143 183 233 289 351 410
#     4  12  27  42  72 107 141 187 232 288 348 419
#     4  10  24  46  76 102 138 191 226 290 350 415
#
# _framework density 24.463614
#
# number of rings (size 3 to 8) (size 9 to 14) (size 15 to 20)
#    0.000    1.000    2.500    3.750    7.000    3.000 
#    4.500    0.000    0.000    0.000    0.000    0.000 
#    0.000    0.000    0.000    0.000    0.000    0.000 
#
# Total GULP energy -198403.288812 kJ/mol
# GULP energy per Si atom -12400.205551 kJ/mol
# Density = 2.440793 g / cm^3
# Si number density = 24.463614 Si / 1000 Ang^3
#
#
#
# Elastic Constant Matrix: (Units=GPa)
#
#
# Indices 1 2 3 4 5 6 
#
# 1 93.3530 44.4482 30.6625 0.0000 4.4055 0.0000
# 2 44.4482 119.6591 25.8735 0.0000 10.4567 0.0000
# 3 30.6625 25.8735 86.9946 0.0000 -3.0986 0.0000
# 4 0.0000 0.0000 0.0000 28.7122 0.0000 3.5407
# 5 4.4055 10.4567 -3.0986 0.0000 43.9443 0.0000
# 6 0.0000 0.0000 0.0000 3.5407 0.0000 33.6274
#
#
#
# Elastic Compliance Matrix: (Units=1/GPa)
#
#
# Indices 1 2 3 4 5 6 
#
# 1 0.014023 -0.004361 -0.003668 0.000000 -0.000627 0.000000
# 2 -0.004361 0.010530 -0.001672 0.000000 -0.002186 0.000000
# 3 -0.003668 -0.001672 0.013346 0.000000 0.001707 0.000000
# 4 0.000000 0.000000 0.000000 0.035287 0.000000 -0.003715
# 5 -0.000627 -0.002186 0.001707 0.000000 0.023460 0.000000
# 6 0.000000 0.000000 0.000000 -0.003715 0.000000 0.030129
#
#
# Mechanical properties :
#
#
# Convention : Reuss Voigt Hill
#
# Bulk Modulus (GPa) = 54.06625 55.77500 54.92062
# Shear Modulus (GPa) = 32.82107 34.52494 33.67301
#
# Velocity S-wave (km/s) = 3.66680 3.76077 3.71408
# Velocity P-wave (km/s) = 6.33055 6.45806 6.39462
#
# Compressibility (1/GPa) = 0.01849583
#
# Stress axis : x y z
#
# Youngs Moduli (GPa) = 71.31280 94.96970 74.92906
#
# Poissons Ratio (x) = 0.41416 0.27483
# Poissons Ratio (y) = 0.31099 0.12532
# Poissons Ratio (z) = 0.26156 0.15883
#
# Static dielectric constant tensor:
#      x y z
#    x 4.347990 0.000000 0.009770 
#    y 0.000000 4.336320 0.000000 
#    z 0.009770 0.000000 4.595090 
# 
# 
# High freq. dielectric constant tensor:
#      x y z
#    x 1.969920 0.000000 -0.011420 
#    y 0.000000 1.969650 0.000000 
#    z -0.011420 0.000000 1.972890 
# 
# From -- ./inp_files/30622.got.cif
#   From: 2010.06.25/outbox.cif.g09.slc.cpg/sg15_16_cif.got.tgz:30622.got - 2010.06.28 07:06:18.
