data_PCOD8150718
_publ_section_title
;
Structure prediction by ZEFSAII (Michael W. Deem and Ramdas Pophale) SiO2 
 PCOD8150718
Probable space group: C 2/C
;
_chemical_formula_sum "Si O2"
_cell_formula_units_Z 32
_cell_length_a 25.395819
_cell_length_b 5.028367
_cell_length_c 9.035574
_cell_angle_alpha 90.000000
_cell_angle_beta 75.383010
_cell_angle_gamma 90.000000
_cell_volume 1116.493577
_symmetry_space_group_name_H-M "C 2/C"
_symmetry_group_IT_number 15
_symmetry_cell_setting 'monoclinic'
loop_
_space_group_symop_operation_xyz
x,y,z
-x,y,1/2-z
-x,-y,-z
x,-y,1/2+z
1/2+x,1/2+y,z
1/2-x,1/2+y,1/2-z
1/2-x,1/2-y,-z
1/2+x,1/2-y,1/2+z
loop_
_atom_site_type_symbol
_atom_site_label
_atom_site_fract_x
_atom_site_fract_y
_atom_site_fract_z
Si Si1 0.715014 0.572775 0.244460
Si Si2 0.466051 0.317814 0.413924
Si Si3 0.622049 0.064757 0.856451
Si Si4 0.136478 0.848058 0.565612
O O1 0.740781 0.308195 0.292357
O O2 0.662259 0.683168 0.382391
O O3 0.692307 0.525634 0.093383
O O4 0.500000 0.205280 0.250000
O O5 0.500000 0.500000 0.500000
O O6 0.439276 0.084840 0.533563
O O7 0.416293 0.474295 0.375516
O O8 0.622929 0.081566 0.678216
O O9 0.645523 0.779919 0.894508
#
# Coordination Sequence:
#
# PCOD8150718 Si02
#       4
#     8   8   8   8
#     4  10  25  47  77 113 151 205 247 311 384 448
#     4  12  25  47  72 101 147 194 250 313 382 438
#     4  10  26  44  72 105 150 185 254 311 366 463
#     4  10  26  44  71 109 144 192 253 306 373 459
#
# _framework density 28.661158
#
# number of rings (size 3 to 8) (size 9 to 14) (size 15 to 20)
#    1.500    0.000    2.500    0.000   10.500    4.000 
#    0.000    0.000    0.000    0.000    0.000    0.000 
#    0.000    0.000    0.000    0.000    0.000    0.000 
#
# Total GULP energy -198272.080020 kJ/mol
# GULP energy per Si atom -12392.005001 kJ/mol
# Density = 2.859592 g / cm^3
# Si number density = 28.661158 Si / 1000 Ang^3
#
#
#
# Elastic Constant Matrix: (Units=GPa)
#
#
# Indices 1 2 3 4 5 6 
#
# 1 127.0231 4.9241 5.4408 0.0000 -8.4058 0.0000
# 2 4.9241 58.7562 -19.9679 0.0000 7.5829 0.0000
# 3 5.4408 -19.9679 74.9483 0.0000 -27.9590 0.0000
# 4 0.0000 0.0000 0.0000 41.6971 0.0000 0.7042
# 5 -8.4058 7.5829 -27.9590 0.0000 60.5536 0.0000
# 6 0.0000 0.0000 0.0000 0.7042 0.0000 21.4278
#
#
#
# Elastic Compliance Matrix: (Units=1/GPa)
#
#
# Indices 1 2 3 4 5 6 
#
# 1 0.007997 -0.000956 -0.000455 0.000000 0.001020 0.000000
# 2 -0.000956 0.018828 0.005022 0.000000 -0.000172 0.000000
# 3 -0.000455 0.005022 0.017463 0.000000 0.007371 0.000000
# 4 0.000000 0.000000 0.000000 0.023996 0.000000 -0.000789
# 5 0.001020 -0.000172 0.007371 0.000000 0.020081 0.000000
# 6 0.000000 0.000000 0.000000 -0.000789 0.000000 0.046694
#
#
# Mechanical properties :
#
#
# Convention : Reuss Voigt Hill
#
# Bulk Modulus (GPa) = 19.41413 26.83573 23.12493
# Shear Modulus (GPa) = 34.48085 42.75774 38.61930
#
# Velocity S-wave (km/s) = 3.47227 3.86662 3.67474
# Velocity P-wave (km/s) = 4.78162 5.41459 5.10792
#
# Compressibility (1/GPa) = 0.05150889
#
# Stress axis : x y z
#
# Youngs Moduli (GPa) = 125.05275 53.11131 57.26328
#
# Poissons Ratio (x) = 0.05079 0.02605
# Poissons Ratio (y) = 0.11960 -0.28755
# Poissons Ratio (z) = 0.05688 -0.26670
#
# Static dielectric constant tensor:
#      x y z
#    x 5.599890 0.000000 -0.057140 
#    y 0.000000 4.946790 0.000000 
#    z -0.057140 0.000000 5.373120 
# 
# 
# High freq. dielectric constant tensor:
#      x y z
#    x 2.187730 0.000000 -0.002970 
#    y 0.000000 2.159660 0.000000 
#    z -0.002970 0.000000 2.169850 
# 
# From -- ./inp_files/115390.got.cif
#   From: 2010.06.25/outbox.cif.g09.slc.cpg/sg15_58_cif.got.tgz:115390.got - 2010.06.28 07:06:18.
