data_PCOD8150002
_publ_section_title
;
Structure prediction by ZEFSAII (Michael W. Deem and Ramdas Pophale) SiO2 
 PCOD8150002
Probable space group: C 2/C
;
_chemical_formula_sum "Si O2"
_cell_formula_units_Z 44
_cell_length_a 10.690727
_cell_length_b 14.976849
_cell_length_c 12.722053
_cell_angle_alpha 90.000000
_cell_angle_beta 85.848305
_cell_angle_gamma 90.000000
_cell_volume 2031.625931
_symmetry_space_group_name_H-M "C 2/C"
_symmetry_group_IT_number 15
_symmetry_cell_setting 'monoclinic'
loop_
_space_group_symop_operation_xyz
x,y,z
-x,y,1/2-z
-x,-y,-z
x,-y,1/2+z
1/2+x,1/2+y,z
1/2-x,1/2+y,1/2-z
1/2-x,1/2-y,-z
1/2+x,1/2-y,1/2+z
loop_
_atom_site_type_symbol
_atom_site_label
_atom_site_fract_x
_atom_site_fract_y
_atom_site_fract_z
Si Si1 0.330224 0.663394 0.972996
Si Si2 0.242744 0.954878 0.214590
Si Si3 0.500000 0.869601 0.250000
Si Si4 0.631258 0.507752 0.928537
Si Si5 0.760856 0.627018 0.072763
Si Si6 0.444302 0.758926 0.449099
O O1 0.309945 0.623172 0.857699
O O2 0.250000 0.750000 0.000000
O O3 0.294103 0.585231 0.057114
O O4 0.473717 0.690030 0.987341
O O5 0.373033 0.928436 0.263947
O O6 0.129083 0.974479 0.303786
O O7 0.270336 0.048888 0.156618
O O8 0.519827 0.811159 0.354195
O O9 0.500000 0.500000 0.000000
O O10 0.711867 0.589094 0.965946
O O11 0.663967 0.706089 0.108875
O O12 0.894811 0.671025 0.039499
#
# Coordination Sequence:
#
# PCOD8150002 Si02
#       6
#     8   8   4   8   8   8
#     4  11  24  43  69 103 136 181 233 289 339 418
#     4  11  26  43  69 104 135 191 231 277 360 412
#     4  12  24  42  72  96 144 180 230 290 352 418
#     4  11  23  45  64  99 138 180 227 284 338 410
#     4  10  24  43  68  96 138 178 228 280 345 411
#     4  11  23  44  67 101 137 181 227 295 342 405
#
# _framework density 21.657530000000001
#
# number of rings (size 3 to 8) (size 9 to 14) (size 15 to 20)
#    0.000    1.091    5.455    0.000    2.545    5.091 
#    0.000    0.000    0.000    0.000    0.000    0.000 
#    0.000    0.000    0.000    0.000    0.000    0.000 
#
# Total GULP energy -272620.215210 kJ/mol
# GULP energy per Si atom -12391.827964 kJ/mol
# Density = 2.160824 g / cm^3
# Si number density = 21.657530 Si / 1000 Ang^3
#
#
#
# Elastic Constant Matrix: (Units=GPa)
#
#
# Indices 1 2 3 4 5 6 
#
# 1 84.2445 24.4379 46.1489 0.0000 -2.8999 0.0000
# 2 24.4379 113.3067 52.3904 0.0000 -9.2504 0.0000
# 3 46.1489 52.3904 144.3623 0.0000 -12.0463 0.0000
# 4 0.0000 0.0000 0.0000 22.7103 0.0000 8.7255
# 5 -2.8999 -9.2504 -12.0463 0.0000 31.0711 0.0000
# 6 0.0000 0.0000 0.0000 8.7255 0.0000 44.0471
#
#
#
# Elastic Compliance Matrix: (Units=1/GPa)
#
#
# Indices 1 2 3 4 5 6 
#
# 1 0.014534 -0.001219 -0.004259 0.000000 -0.000658 0.000000
# 2 -0.001219 0.010797 -0.003379 0.000000 0.001791 0.000000
# 3 -0.004259 -0.003379 0.009712 0.000000 0.002362 0.000000
# 4 0.000000 0.000000 0.000000 0.047660 0.000000 -0.009441
# 5 -0.000658 0.001791 0.002362 0.000000 0.033572 0.000000
# 6 0.000000 0.000000 0.000000 -0.009441 0.000000 0.024573
#
#
# Mechanical properties :
#
#
# Convention : Reuss Voigt Hill
#
# Bulk Modulus (GPa) = 57.70688 65.31865 61.51277
# Shear Modulus (GPa) = 30.42493 34.16144 32.29318
#
# Velocity S-wave (km/s) = 3.75216 3.97589 3.86564
# Velocity P-wave (km/s) = 6.74349 7.16256 6.95618
#
# Compressibility (1/GPa) = 0.01732896
#
# Stress axis : x y z
#
# Youngs Moduli (GPa) = 68.80364 92.61623 102.96762
#
# Poissons Ratio (x) = 0.11293 0.43849
# Poissons Ratio (y) = 0.08390 0.34795
# Poissons Ratio (z) = 0.29300 0.31297
#
# Static dielectric constant tensor:
#      x y z
#    x 3.997760 0.000000 0.052500 
#    y 0.000000 4.214590 0.000000 
#    z 0.052500 0.000000 3.751920 
# 
# 
# High freq. dielectric constant tensor:
#      x y z
#    x 1.843230 0.000000 -0.001760 
#    y 0.000000 1.877540 0.000000 
#    z -0.001760 0.000000 1.836420 
# 
# From -- ./inp_files/86065.got.cif
#   From: 2010.06.25/outbox.cif.g09.slc.cpg/sg15_44_cif.got.tgz:86065.got - 2010.06.28 07:06:18.
