data_PCOD8150385
_publ_section_title
;
Structure prediction by ZEFSAII (Michael W. Deem and Ramdas Pophale) SiO2 
 PCOD8150385
Probable space group: C 2/C
;
_chemical_formula_sum "Si O2"
_cell_formula_units_Z 56
_cell_length_a 20.616924
_cell_length_b 21.061418
_cell_length_c 17.360564
_cell_angle_alpha 90.000000
_cell_angle_beta 20.275304
_cell_angle_gamma 90.000000
_cell_volume 2612.268757
_symmetry_space_group_name_H-M "C 2/C"
_symmetry_group_IT_number 15
_symmetry_cell_setting 'monoclinic'
loop_
_space_group_symop_operation_xyz
x,y,z
-x,y,1/2-z
-x,-y,-z
x,-y,1/2+z
1/2+x,1/2+y,z
1/2-x,1/2+y,1/2-z
1/2-x,1/2-y,-z
1/2+x,1/2-y,1/2+z
loop_
_atom_site_type_symbol
_atom_site_label
_atom_site_fract_x
_atom_site_fract_y
_atom_site_fract_z
Si Si1 0.329697 0.082897 0.689015
Si Si2 0.500000 0.906834 0.750000
Si Si3 0.501754 0.997205 0.119987
Si Si4 0.000000 0.594270 0.750000
Si Si5 0.784187 0.819672 0.489517
Si Si6 0.000718 0.182011 0.029988
Si Si7 0.830349 0.816053 0.886332
Si Si8 0.161100 0.681717 0.301017
O O1 0.333728 0.038926 0.761535
O O2 0.143979 0.123931 0.883785
O O3 0.506251 0.130337 0.497478
O O4 0.343971 0.029520 0.606514
O O5 0.682671 0.862418 0.536945
O O6 0.569433 0.946091 0.746643
O O7 0.590518 0.946210 0.079431
O O8 0.172089 0.635000 0.586724
O O9 0.750000 0.750000 0.500000
O O10 0.686868 0.824227 0.681206
O O11 0.000000 0.838991 0.250000
O O12 0.106198 0.247158 0.889681
O O13 0.882082 0.190009 0.239547
O O14 0.856872 0.163244 0.122987
O O15 0.000000 0.837338 0.750000
O O16 0.750000 0.750000 0.000000
#
# Coordination Sequence:
#
# PCOD8150385 Si02
#       8
#     8   4   8   4   8   8   8   8
#     4  11  24  47  70  97 143 178 242 278 350 416
#     4  11  24  48  70  98 136 179 236 278 352 409
#     4  10  24  46  72  91 134 199 218 283 337 417
#     4  11  24  46  70  96 140 175 236 276 350 411
#     4  12  26  41  70 104 141 178 231 291 358 416
#     4  12  26  41  71 109 142 181 231 294 359 418
#     4  12  25  42  70 106 139 178 228 292 360 418
#     4  12  25  42  70 109 141 182 227 296 362 417
#
# _framework density 21.437304000000001
#
# number of rings (size 3 to 8) (size 9 to 14) (size 15 to 20)
#    0.000    0.571    4.286    3.429    6.000    0.000 
#    0.000   15.000    0.000    0.000    0.000    0.000 
#    0.000    0.000    0.000    0.000    0.000    0.000 
#
# Total GULP energy -346989.056622 kJ/mol
# GULP energy per Si atom -12392.466308 kJ/mol
# Density = 2.138851 g / cm^3
# Si number density = 21.437304 Si / 1000 Ang^3
#
#
#
# Elastic Constant Matrix: (Units=GPa)
#
#
# Indices 1 2 3 4 5 6 
#
# 1 125.0914 64.4867 45.4039 0.0190 -8.7982 -0.0024
# 2 64.4867 148.2463 60.9157 0.1152 -11.9161 -0.0532
# 3 45.4039 60.9157 108.5909 0.1005 -22.7200 -0.0744
# 4 0.0190 0.1152 0.1005 16.6547 -0.0430 2.9420
# 5 -8.7982 -11.9161 -22.7200 -0.0430 47.8385 0.0398
# 6 -0.0024 -0.0532 -0.0744 2.9420 0.0398 39.5849
#
#
#
# Elastic Compliance Matrix: (Units=1/GPa)
#
#
# Indices 1 2 3 4 5 6 
#
# 1 0.010781 -0.003687 -0.002461 0.000030 -0.000105 -0.000011
# 2 -0.003687 0.010028 -0.004112 -0.000042 -0.000133 0.000009
# 3 -0.002461 -0.004112 0.013586 -0.000041 0.004975 0.000018
# 4 0.000030 -0.000042 -0.000041 0.060843 0.000034 -0.004522
# 5 -0.000105 -0.000133 0.004975 0.000034 0.023214 -0.000017
# 6 -0.000011 0.000009 0.000018 -0.004522 -0.000017 0.025598
#
#
# Mechanical properties :
#
#
# Convention : Reuss Voigt Hill
#
# Bulk Modulus (GPa) = 72.07310 80.39346 76.23328
# Shear Modulus (GPa) = 29.55186 34.89045 32.22116
#
# Velocity S-wave (km/s) = 3.71688 4.03868 3.88111
# Velocity P-wave (km/s) = 7.21898 7.70266 7.46474
#
# Compressibility (1/GPa) = 0.01387480
#
# Stress axis : x y z
#
# Youngs Moduli (GPa) = 92.75821 99.72005 73.60723
#
# Poissons Ratio (x) = 0.36762 0.18118
# Poissons Ratio (y) = 0.34196 0.30265
# Poissons Ratio (z) = 0.22832 0.41002
#
# Static dielectric constant tensor:
#      x y z
#    x 4.536360 0.002560 0.264640 
#    y 0.002560 4.106030 0.003410 
#    z 0.264640 0.003410 3.961220 
# 
# 
# High freq. dielectric constant tensor:
#      x y z
#    x 1.863880 -0.000010 0.002980 
#    y -0.000010 1.862500 0.000030 
#    z 0.002980 0.000030 1.820790 
# 
# From -- ./inp_files/216648.got.cif
#   From: 2010.06.25/outbox.cif.g09.slc.cpg/sg15_109_cif.got.tgz:216648.got - 2010.06.28 07:06:18.
