data_PCOD8150535
_publ_section_title
;
Structure prediction by ZEFSAII (Michael W. Deem and Ramdas Pophale) SiO2 
 PCOD8150535
Probable space group: C 2/C
;
_chemical_formula_sum "Si O2"
_cell_formula_units_Z 44
_cell_length_a 12.223150
_cell_length_b 8.432197
_cell_length_c 19.808435
_cell_angle_alpha 90.000000
_cell_angle_beta 74.973711
_cell_angle_gamma 90.000000
_cell_volume 1971.806918
_symmetry_space_group_name_H-M "C 2/C"
_symmetry_group_IT_number 15
_symmetry_cell_setting 'monoclinic'
loop_
_space_group_symop_operation_xyz
x,y,z
-x,y,1/2-z
-x,-y,-z
x,-y,1/2+z
1/2+x,1/2+y,z
1/2-x,1/2+y,1/2-z
1/2-x,1/2-y,-z
1/2+x,1/2-y,1/2+z
loop_
_atom_site_type_symbol
_atom_site_label
_atom_site_fract_x
_atom_site_fract_y
_atom_site_fract_z
Si Si1 0.700313 0.275528 0.132899
Si Si2 0.424414 0.995606 0.413150
Si Si3 0.839092 0.430387 0.571663
Si Si4 0.700216 0.802138 0.169560
Si Si5 0.836641 0.078267 0.204566
Si Si6 0.000000 0.896198 0.250000
O O1 0.738922 0.438618 0.092375
O O2 0.815831 0.201384 0.147335
O O3 0.606904 0.293168 0.207575
O O4 0.648264 0.156789 0.085774
O O5 0.383051 0.915285 0.488740
O O6 0.406868 0.871739 0.354529
O O7 0.557532 0.030562 0.394419
O O8 0.792824 0.257321 0.600104
O O9 0.671694 0.650906 0.219207
O O10 0.744294 0.939882 0.211427
O O11 0.961272 0.998338 0.189630
#
# Coordination Sequence:
#
# PCOD8150535 Si02
#       6
#     8   8   8   8   8   4
#     4  11  24  41  63  93 126 160 206 260 308 374
#     4  10  25  40  67  91 125 169 208 255 313 360
#     4  11  22  44  64  93 124 167 213 254 303 379
#     4  11  21  43  61  92 128 161 206 258 307 371
#     4  11  23  39  60  93 123 162 203 251 315 370
#     4  12  22  38  62  88 126 160 196 254 318 354
#
# _framework density 22.314558999999999
#
# number of rings (size 3 to 8) (size 9 to 14) (size 15 to 20)
#    0.000    1.091    3.636    2.182    2.545    0.000 
#    0.000    0.000    0.000   12.000    0.000    0.000 
#    0.000    0.000    0.000    0.000    0.000    0.000 
#
# Total GULP energy -272726.803302 kJ/mol
# GULP energy per Si atom -12396.672877 kJ/mol
# Density = 2.226377 g / cm^3
# Si number density = 22.314559 Si / 1000 Ang^3
#
#
#
# Elastic Constant Matrix: (Units=GPa)
#
#
# Indices 1 2 3 4 5 6 
#
# 1 98.2295 23.5268 16.6085 0.0000 30.7383 0.0000
# 2 23.5268 86.3360 21.4121 0.0000 14.2405 0.0000
# 3 16.6085 21.4121 47.6902 0.0000 18.4346 0.0000
# 4 0.0000 0.0000 0.0000 33.9541 0.0000 3.6281
# 5 30.7383 14.2405 18.4346 0.0000 33.9399 0.0000
# 6 0.0000 0.0000 0.0000 3.6281 0.0000 27.1153
#
#
#
# Elastic Compliance Matrix: (Units=1/GPa)
#
#
# Indices 1 2 3 4 5 6 
#
# 1 0.014517 -0.002053 0.000779 0.000000 -0.012710 0.000000
# 2 -0.002053 0.013554 -0.004925 0.000000 -0.001153 0.000000
# 3 0.000779 -0.004925 0.028331 0.000000 -0.014027 0.000000
# 4 0.000000 0.000000 0.000000 0.029879 0.000000 -0.003998
# 5 -0.012710 -0.001153 -0.014027 0.000000 0.049077 0.000000
# 6 0.000000 0.000000 0.000000 -0.003998 0.000000 0.037415
#
#
# Mechanical properties :
#
#
# Convention : Reuss Voigt Hill
#
# Bulk Modulus (GPa) = 22.72522 39.48337 31.10430
# Shear Modulus (GPa) = 25.02030 30.38241 27.70136
#
# Velocity S-wave (km/s) = 3.35215 3.69392 3.52718
# Velocity P-wave (km/s) = 5.01883 5.99382 5.52786
#
# Compressibility (1/GPa) = 0.04400398
#
# Stress axis : x y z
#
# Youngs Moduli (GPa) = 68.88297 73.78121 35.29734
#
# Poissons Ratio (x) = 0.15146 -0.02749
# Poissons Ratio (y) = 0.14140 0.17383
# Poissons Ratio (z) = -0.05365 0.36336
#
# Static dielectric constant tensor:
#      x y z
#    x 4.137040 0.000000 0.295080 
#    y 0.000000 4.113760 0.000000 
#    z 0.295080 0.000000 3.727170 
# 
# 
# High freq. dielectric constant tensor:
#      x y z
#    x 1.885920 0.000000 0.025330 
#    y 0.000000 1.887320 0.000000 
#    z 0.025330 0.000000 1.856340 
# 
# From -- ./inp_files/236043.got.cif
#   From: 2010.06.25/outbox.cif.g09.slc.cpg/sg15_119_cif.got.tgz:236043.got - 2010.06.28 07:06:18.
