data_PCOD8150629
_publ_section_title
;
Structure prediction by ZEFSAII (Michael W. Deem and Ramdas Pophale) SiO2 
 PCOD8150629
Probable space group: C 2/C
;
_chemical_formula_sum "Si O2"
_cell_formula_units_Z 64
_cell_length_a 8.254255
_cell_length_b 15.240665
_cell_length_c 28.728913
_cell_angle_alpha 90.000000
_cell_angle_beta 52.681779
_cell_angle_gamma 90.000000
_cell_volume 2874.229551
_symmetry_space_group_name_H-M "C 2/C"
_symmetry_group_IT_number 15
_symmetry_cell_setting 'monoclinic'
loop_
_space_group_symop_operation_xyz
x,y,z
-x,y,1/2-z
-x,-y,-z
x,-y,1/2+z
1/2+x,1/2+y,z
1/2-x,1/2+y,1/2-z
1/2-x,1/2-y,-z
1/2+x,1/2-y,1/2+z
loop_
_atom_site_type_symbol
_atom_site_label
_atom_site_fract_x
_atom_site_fract_y
_atom_site_fract_z
Si Si1 0.699473 0.492450 0.245321
Si Si2 0.879572 0.839390 0.687430
Si Si3 0.830333 0.304565 0.628169
Si Si4 0.548443 0.246582 0.004526
Si Si5 0.942064 0.477809 0.886446
Si Si6 0.227365 0.308913 0.228339
Si Si7 0.445423 0.387990 0.574883
Si Si8 0.597383 0.926125 0.013426
O O1 0.500000 0.510975 0.250000
O O2 0.731171 0.571797 0.276248
O O3 0.670011 0.401465 0.277753
O O4 0.901770 0.486577 0.178967
O O5 0.766801 0.753754 0.727265
O O6 0.876762 0.832592 0.632100
O O7 0.105752 0.844270 0.669396
O O8 0.863566 0.236698 0.664625
O O9 0.861852 0.254269 0.573769
O O10 0.990375 0.383911 0.604448
O O11 0.539648 0.331106 0.974191
O O12 0.524767 0.163388 0.974761
O O13 0.750000 0.250000 0.000000
O O14 0.716781 0.466201 0.904021
O O15 0.926068 0.552262 0.928291
O O16 0.000000 0.325339 0.250000
O O17 0.669133 0.426009 0.544353
O O18 0.500000 0.000000 0.000000
#
# Coordination Sequence:
#
# PCOD8150629 Si02
#       8
#     8   8   8   8   8   8   8   8
#     4  12  26  46  73 104 140 190 245 292 364 434
#     4  11  23  47  73  98 146 191 235 295 367 425
#     4  11  21  49  70  95 149 189 229 291 363 426
#     4  12  25  45  72 105 138 189 237 289 359 431
#     4  12  25  45  70 106 144 188 235 300 360 430
#     4  10  25  44  71 105 134 187 238 297 356 424
#     4  12  27  45  72 106 144 191 236 301 363 431
#     4  12  25  46  71 104 142 185 240 291 360 424
#
# _framework density 22.266838
#
# number of rings (size 3 to 8) (size 9 to 14) (size 15 to 20)
#    0.000    0.500    6.250    1.125    3.500    3.000 
#    2.250    0.000    0.000    0.000    0.000    0.000 
#    0.000    0.000    0.000    0.000    0.000    0.000 
#
# Total GULP energy -396939.635047 kJ/mol
# GULP energy per Si atom -12404.363595 kJ/mol
# Density = 2.221616 g / cm^3
# Si number density = 22.266838 Si / 1000 Ang^3
#
#
#
# Elastic Constant Matrix: (Units=GPa)
#
#
# Indices 1 2 3 4 5 6 
#
# 1 94.0342 33.9778 23.8416 0.0001 0.1525 -0.0003
# 2 33.9778 97.4306 43.4926 0.0001 5.1861 -0.0002
# 3 23.8416 43.4926 130.3007 0.0000 21.0882 0.0002
# 4 0.0001 0.0001 0.0000 38.4128 -0.0001 15.4300
# 5 0.1525 5.1861 21.0882 -0.0001 37.4828 0.0002
# 6 -0.0003 -0.0002 0.0002 15.4300 0.0002 43.1832
#
#
#
# Elastic Compliance Matrix: (Units=1/GPa)
#
#
# Indices 1 2 3 4 5 6 
#
# 1 0.012312 -0.003839 -0.001155 0.000000 0.001131 0.000000
# 2 -0.003839 0.013272 -0.003777 0.000000 0.000304 0.000000
# 3 -0.001155 -0.003777 0.009969 0.000000 -0.005081 0.000000
# 4 0.000000 0.000000 0.000000 0.030396 0.000000 -0.010861
# 5 0.001131 0.000304 -0.005081 0.000000 0.029491 0.000000
# 6 0.000000 0.000000 0.000000 -0.010861 0.000000 0.027038
#
#
# Mechanical properties :
#
#
# Convention : Reuss Voigt Hill
#
# Bulk Modulus (GPa) = 55.51471 58.26552 56.89011
# Shear Modulus (GPa) = 34.24129 38.51268 36.37698
#
# Velocity S-wave (km/s) = 3.92570 4.16336 4.04627
# Velocity P-wave (km/s) = 6.74787 7.02390 6.88727
#
# Compressibility (1/GPa) = 0.01801324
#
# Stress axis : x y z
#
# Youngs Moduli (GPa) = 81.21946 75.34551 100.31220
#
# Poissons Ratio (x) = 0.28922 0.11581
# Poissons Ratio (y) = 0.31177 0.37888
# Poissons Ratio (z) = 0.09377 0.28458
#
# Static dielectric constant tensor:
#      x y z
#    x 3.746470 0.000000 0.362190 
#    y 0.000000 3.464050 0.000000 
#    z 0.362190 0.000000 3.668160 
# 
# 
# High freq. dielectric constant tensor:
#      x y z
#    x 1.878330 0.000000 0.006630 
#    y 0.000000 1.871400 0.000000 
#    z 0.006630 0.000000 1.890260 
# 
# From -- ./inp_files/308256.got.cif
#   From: 2010.06.25/outbox.cif.g09.slc.cpg/sg15_155_cif.got.tgz:308256.got - 2010.06.28 07:06:18.
