data_PCOD8150806
_publ_section_title
;
Structure prediction by ZEFSAII (Michael W. Deem and Ramdas Pophale) SiO2 
 PCOD8150806
Probable space group: C 2/C
;
_chemical_formula_sum "Si O2"
_cell_formula_units_Z 44
_cell_length_a 29.371928
_cell_length_b 4.991466
_cell_length_c 22.833616
_cell_angle_alpha 90.000000
_cell_angle_beta 145.090261
_cell_angle_gamma 90.000000
_cell_volume 1915.789705
_symmetry_space_group_name_H-M "C 2/C"
_symmetry_group_IT_number 15
_symmetry_cell_setting 'monoclinic'
loop_
_space_group_symop_operation_xyz
x,y,z
-x,y,1/2-z
-x,-y,-z
x,-y,1/2+z
1/2+x,1/2+y,z
1/2-x,1/2+y,1/2-z
1/2-x,1/2-y,-z
1/2+x,1/2-y,1/2+z
loop_
_atom_site_type_symbol
_atom_site_label
_atom_site_fract_x
_atom_site_fract_y
_atom_site_fract_z
Si Si1 0.442310 0.559308 0.992623
Si Si2 0.212872 0.726111 0.230868
Si Si3 0.155907 0.314114 0.793901
Si Si4 0.666810 0.685970 0.380874
Si Si5 0.000000 0.616673 0.750000
Si Si6 0.483769 0.083105 0.105695
O O1 0.360634 0.642846 0.878694
O O2 0.500000 0.500000 0.000000
O O3 0.476245 0.790470 0.070352
O O4 0.423353 0.298766 0.013660
O O5 0.285111 0.915022 0.285673
O O6 0.214394 0.749986 0.302549
O O7 0.164618 0.620630 0.822842
O O8 0.067302 0.281835 0.675300
O O9 0.172824 0.119943 0.866331
O O10 0.750000 0.750000 0.500000
O O11 0.582775 0.715779 0.327993
O O12 0.980838 0.431986 0.673368
#
# Coordination Sequence:
#
# PCOD8150806 Si02
#       6
#     8   8   8   8   4   8
#     4  12  25  43  73  98 135 183 238 277 354 420
#     4  12  27  43  66 103 141 179 231 289 357 421
#     4  11  24  45  69  96 142 184 222 292 362 407
#     4  11  25  45  72 100 140 188 233 291 353 422
#     4  10  26  44  72 106 140 180 246 280 352 414
#     4  11  24  43  72 101 136 184 231 297 338 426
#
# _framework density 22.967029
#
# number of rings (size 3 to 8) (size 9 to 14) (size 15 to 20)
#    0.000    0.727    1.818    5.455    2.545   10.909 
#    0.000    1.818    0.000    0.000    0.000    0.000 
#    0.000    0.000    0.000    0.000    0.000    0.000 
#
# Total GULP energy -272690.049857 kJ/mol
# GULP energy per Si atom -12395.002266 kJ/mol
# Density = 2.291475 g / cm^3
# Si number density = 22.967029 Si / 1000 Ang^3
#
#
#
# Elastic Constant Matrix: (Units=GPa)
#
#
# Indices 1 2 3 4 5 6 
#
# 1 129.3539 38.7691 38.0424 -0.0046 -16.9871 -0.0137
# 2 38.7691 110.5539 21.3207 0.0213 -19.5002 -0.0408
# 3 38.0424 21.3207 85.2129 0.0262 -5.1021 0.0184
# 4 -0.0046 0.0213 0.0262 43.6607 0.0091 -2.5059
# 5 -16.9871 -19.5002 -5.1021 0.0091 44.0483 -0.0012
# 6 -0.0137 -0.0408 0.0184 -2.5059 -0.0012 34.4292
#
#
#
# Elastic Compliance Matrix: (Units=1/GPa)
#
#
# Indices 1 2 3 4 5 6 
#
# 1 0.009809 -0.002323 -0.003658 0.000004 0.002331 0.000003
# 2 -0.002323 0.010793 -0.001441 -0.000005 0.003715 0.000012
# 3 -0.003658 -0.001441 0.013701 -0.000008 -0.000462 -0.000011
# 4 0.000004 -0.000005 -0.000008 0.023000 -0.000006 0.001674
# 5 0.002331 0.003715 -0.000462 -0.000006 0.025192 0.000006
# 6 0.000003 0.000012 -0.000011 0.001674 0.000006 0.029167
#
#
# Mechanical properties :
#
#
# Convention : Reuss Voigt Hill
#
# Bulk Modulus (GPa) = 51.39051 57.93166 54.66108
# Shear Modulus (GPa) = 37.59562 39.56020 38.57791
#
# Velocity S-wave (km/s) = 4.05030 4.15478 4.10287
# Velocity P-wave (km/s) = 6.65564 6.94945 6.80413
#
# Compressibility (1/GPa) = 0.01945885
#
# Stress axis : x y z
#
# Youngs Moduli (GPa) = 101.94742 92.65009 72.98524
#
# Poissons Ratio (x) = 0.21525 0.26700
# Poissons Ratio (y) = 0.23685 0.10516
# Poissons Ratio (z) = 0.37295 0.13350
#
# Static dielectric constant tensor:
#      x y z
#    x 4.055310 -0.000010 0.050950 
#    y -0.000010 4.591550 -0.000140 
#    z 0.050950 -0.000140 4.280940 
# 
# 
# High freq. dielectric constant tensor:
#      x y z
#    x 1.900750 0.000000 -0.004940 
#    y 0.000000 1.918360 0.000000 
#    z -0.004940 0.000000 1.921960 
# 
# From -- ./inp_files/258484.got.cif
#   From: 2010.06.25/outbox.cif.g09.slc.cpg/sg15_130_cif.got.tgz:258484.got - 2010.06.28 07:06:18.
