data_PCOD8150835
_publ_section_title
;
Structure prediction by ZEFSAII (Michael W. Deem and Ramdas Pophale) SiO2 
 PCOD8150835
Probable space group: C 2/C
;
_chemical_formula_sum "Si O2"
_cell_formula_units_Z 44
_cell_length_a 19.332302
_cell_length_b 5.111296
_cell_length_c 20.870616
_cell_angle_alpha 90.000000
_cell_angle_beta 106.226787
_cell_angle_gamma 90.000000
_cell_volume 1980.135469
_symmetry_space_group_name_H-M "C 2/C"
_symmetry_group_IT_number 15
_symmetry_cell_setting 'monoclinic'
loop_
_space_group_symop_operation_xyz
x,y,z
-x,y,1/2-z
-x,-y,-z
x,-y,1/2+z
1/2+x,1/2+y,z
1/2-x,1/2+y,1/2-z
1/2-x,1/2-y,-z
1/2+x,1/2-y,1/2+z
loop_
_atom_site_type_symbol
_atom_site_label
_atom_site_fract_x
_atom_site_fract_y
_atom_site_fract_z
Si Si1 0.139250 0.586930 0.845709
Si Si2 0.637719 0.971838 0.116156
Si Si3 0.705023 0.420807 0.303837
Si Si4 0.500000 0.708661 0.250000
Si Si5 0.403769 0.523272 0.830453
Si Si6 0.199629 0.501325 0.992582
O O1 0.174963 0.872728 0.848104
O O2 0.058546 0.598359 0.796864
O O3 0.184441 0.372665 0.818445
O O4 0.140433 0.507471 0.920643
O O5 0.709707 0.957916 0.177527
O O6 0.587475 0.206246 0.129010
O O7 0.654787 0.004147 0.046181
O O8 0.593539 0.706147 0.116142
O O9 0.673112 0.484845 0.225839
O O10 0.532850 0.515693 0.204830
O O11 0.250000 0.750000 0.000000
O O12 0.250000 0.250000 0.000000
#
# Coordination Sequence:
#
# PCOD8150835 Si02
#       6
#     8   8   8   4   8   8
#     4  11  22  41  66  95 124 180 215 262 320 400
#     4  12  22  38  63  97 130 160 218 273 336 381
#     4  11  21  38  64  95 131 160 213 277 338 381
#     4  10  26  46  66  90 138 182 234 258 322 398
#     4  11  24  39  61  93 129 175 214 270 318 387
#     4  12  22  41  65  95 134 166 211 268 340 400
#
# _framework density 22.220703
#
# number of rings (size 3 to 8) (size 9 to 14) (size 15 to 20)
#    0.000    0.727    3.636    5.455    0.000    6.545 
#    0.000    1.818    0.000    0.000    0.000    0.000 
#    0.000    0.000    0.000    0.000    0.000    0.000 
#
# Total GULP energy -272858.703130 kJ/mol
# GULP energy per Si atom -12402.668324 kJ/mol
# Density = 2.217013 g / cm^3
# Si number density = 22.220703 Si / 1000 Ang^3
#
#
#
# Elastic Constant Matrix: (Units=GPa)
#
#
# Indices 1 2 3 4 5 6 
#
# 1 88.3280 43.0744 30.3296 -0.0002 -15.5546 0.0000
# 2 43.0744 145.1570 40.3357 -0.0013 -12.6162 0.0000
# 3 30.3296 40.3357 115.6507 -0.0003 -26.1301 0.0000
# 4 -0.0002 -0.0013 -0.0003 30.4843 0.0002 -10.6219
# 5 -15.5546 -12.6162 -26.1301 0.0002 42.5100 0.0000
# 6 0.0000 0.0000 0.0000 -10.6219 0.0000 25.5598
#
#
#
# Elastic Compliance Matrix: (Units=1/GPa)
#
#
# Indices 1 2 3 4 5 6 
#
# 1 0.014157 -0.003428 -0.001831 0.000000 0.003037 0.000000
# 2 -0.003428 0.008478 -0.002059 0.000000 -0.000004 0.000000
# 3 -0.001831 -0.002059 0.011097 0.000000 0.005540 0.000000
# 4 0.000000 0.000000 0.000000 0.038358 0.000000 0.015941
# 5 0.003037 -0.000004 0.005540 0.000000 0.028039 0.000000
# 6 0.000000 0.000000 0.000000 0.015941 0.000000 0.045748
#
#
# Mechanical properties :
#
#
# Convention : Reuss Voigt Hill
#
# Bulk Modulus (GPa) = 52.36662 64.06833 58.21748
# Shear Modulus (GPa) = 29.96198 35.40387 32.68293
#
# Velocity S-wave (km/s) = 3.67601 3.99593 3.83930
# Velocity P-wave (km/s) = 6.45253 7.08415 6.77571
#
# Compressibility (1/GPa) = 0.01909613
#
# Stress axis : x y z
#
# Youngs Moduli (GPa) = 70.63770 117.95040 90.11792
#
# Poissons Ratio (x) = 0.40436 0.16498
# Poissons Ratio (y) = 0.24216 0.18553
# Poissons Ratio (z) = 0.12932 0.24283
#
# Static dielectric constant tensor:
#      x y z
#    x 3.776770 0.000000 -0.009010 
#    y 0.000000 4.276910 0.000000 
#    z -0.009010 0.000000 4.151750 
# 
# 
# High freq. dielectric constant tensor:
#      x y z
#    x 1.848160 0.000000 -0.016780 
#    y 0.000000 1.898270 0.000000 
#    z -0.016780 0.000000 1.872710 
# 
# From -- ./inp_files/250642.got.cif
#   From: 2010.06.25/outbox.cif.g09.slc.cpg/sg15_126_cif.got.tgz:250642.got - 2010.06.28 07:06:18.
