data_PCOD8150451
_publ_section_title
;
Structure prediction by ZEFSAII (Michael W. Deem and Ramdas Pophale) SiO2 
 PCOD8150451
Probable space group: C 2/C
;
_chemical_formula_sum "Si O2"
_cell_formula_units_Z 40
_cell_length_a 16.375491
_cell_length_b 9.692259
_cell_length_c 10.717484
_cell_angle_alpha 90.000000
_cell_angle_beta 88.462414
_cell_angle_gamma 90.000000
_cell_volume 1700.418355
_symmetry_space_group_name_H-M "C 2/C"
_symmetry_group_IT_number 15
_symmetry_cell_setting 'monoclinic'
loop_
_space_group_symop_operation_xyz
x,y,z
-x,y,1/2-z
-x,-y,-z
x,-y,1/2+z
1/2+x,1/2+y,z
1/2-x,1/2+y,1/2-z
1/2-x,1/2-y,-z
1/2+x,1/2-y,1/2+z
loop_
_atom_site_type_symbol
_atom_site_label
_atom_site_fract_x
_atom_site_fract_y
_atom_site_fract_z
Si Si1 0.089654 0.585542 0.782185
Si Si2 0.655306 0.269402 0.991586
Si Si3 0.908811 0.948960 0.028297
Si Si4 0.301385 0.272963 0.874456
Si Si5 0.134770 0.279301 0.768177
O O1 0.151596 0.635214 0.671140
O O2 0.089425 0.421841 0.797730
O O3 0.000000 0.637917 0.750000
O O4 0.114311 0.648743 0.913801
O O5 0.613593 0.270070 0.129758
O O6 0.750000 0.250000 0.000000
O O7 0.640300 0.415989 0.924694
O O8 0.901604 0.833040 0.134963
O O9 0.867600 0.893146 0.900390
O O10 0.000000 0.000000 0.000000
O O11 0.232995 0.307715 0.773243
O O12 0.250000 0.250000 0.000000
#
# Coordination Sequence:
#
# PCOD8150451 Si02
#       5
#     8   8   8   8   8
#     4  12  28  48  76 114 160 199 257 327 396 458
#     4  12  27  46  81 110 151 206 261 310 392 468
#     4  11  27  49  75 111 154 199 262 324 390 448
#     4  10  24  47  78 106 152 204 258 315 380 464
#     4  11  28  48  77 111 153 205 265 313 383 477
#
# _framework density 23.523620999999999
#
# number of rings (size 3 to 8) (size 9 to 14) (size 15 to 20)
#    0.000    0.800    2.000    2.400   16.800    0.800 
#    0.000    0.000    0.000    0.000    0.000    0.000 
#    0.000    0.000    0.000    0.000    0.000    0.000 
#
# Total GULP energy -248008.472138 kJ/mol
# GULP energy per Si atom -12400.423607 kJ/mol
# Density = 2.347008 g / cm^3
# Si number density = 23.523621 Si / 1000 Ang^3
#
#
#
# Elastic Constant Matrix: (Units=GPa)
#
#
# Indices 1 2 3 4 5 6 
#
# 1 176.7305 52.2683 51.8069 0.0000 10.4349 0.0000
# 2 52.2683 152.4096 60.5497 0.0000 -7.5892 0.0000
# 3 51.8069 60.5497 144.3337 0.0000 0.3145 0.0000
# 4 0.0000 0.0000 0.0000 46.2851 0.0000 -2.4481
# 5 10.4349 -7.5892 0.3145 0.0000 31.7369 0.0000
# 6 0.0000 0.0000 0.0000 -2.4481 0.0000 41.9315
#
#
#
# Elastic Compliance Matrix: (Units=1/GPa)
#
#
# Indices 1 2 3 4 5 6 
#
# 1 0.006847 -0.001808 -0.001693 0.000000 -0.002667 0.000000
# 2 -0.001808 0.008469 -0.002910 0.000000 0.002649 0.000000
# 3 -0.001693 -0.002910 0.008757 0.000000 -0.000226 0.000000
# 4 0.000000 0.000000 0.000000 0.021672 0.000000 0.001265
# 5 -0.002667 0.002649 -0.000226 0.000000 0.033022 0.000000
# 6 0.000000 0.000000 0.000000 0.001265 0.000000 0.023922
#
#
# Mechanical properties :
#
#
# Convention : Reuss Voigt Hill
#
# Bulk Modulus (GPa) = 88.87960 89.19152 89.03556
# Shear Modulus (GPa) = 41.92446 44.58063 43.25254
#
# Velocity S-wave (km/s) = 4.22622 4.35805 4.29264
# Velocity P-wave (km/s) = 7.85365 7.95748 7.90573
#
# Compressibility (1/GPa) = 0.01125118
#
# Stress axis : x y z
#
# Youngs Moduli (GPa) = 146.05060 118.07432 114.19045
#
# Poissons Ratio (x) = 0.21351 0.19335
# Poissons Ratio (y) = 0.26409 0.33226
# Poissons Ratio (z) = 0.24730 0.34356
#
# Static dielectric constant tensor:
#      x y z
#    x 4.530840 0.000000 0.501040 
#    y 0.000000 3.978890 0.000000 
#    z 0.501040 0.000000 4.671890 
# 
# 
# High freq. dielectric constant tensor:
#      x y z
#    x 1.946640 0.000000 0.011360 
#    y 0.000000 1.934460 0.000000 
#    z 0.011360 0.000000 1.936780 
# 
# From -- ./inp_files/102777.got.cif
#   From: 2010.06.25/outbox.cif.g09.slc.cpg/sg15_52_cif.got.tgz:102777.got - 2010.06.28 07:06:18.
