data_PCOD8150076
_publ_section_title
;
Structure prediction by ZEFSAII (Michael W. Deem and Ramdas Pophale) SiO2 
 PCOD8150076
Probable space group: C 2/C
;
_chemical_formula_sum "Si O2"
_cell_formula_units_Z 56
_cell_length_a 18.283053
_cell_length_b 21.774387
_cell_length_c 8.870725
_cell_angle_alpha 90.000000
_cell_angle_beta 131.243069
_cell_angle_gamma 90.000000
_cell_volume 2655.370679
_symmetry_space_group_name_H-M "C 2/C"
_symmetry_group_IT_number 15
_symmetry_cell_setting 'monoclinic'
loop_
_space_group_symop_operation_xyz
x,y,z
-x,y,1/2-z
-x,-y,-z
x,-y,1/2+z
1/2+x,1/2+y,z
1/2-x,1/2+y,1/2-z
1/2-x,1/2-y,-z
1/2+x,1/2-y,1/2+z
loop_
_atom_site_type_symbol
_atom_site_label
_atom_site_fract_x
_atom_site_fract_y
_atom_site_fract_z
Si Si1 0.500000 0.494560 0.750000
Si Si2 0.562573 0.583192 0.082836
Si Si3 0.283153 0.650661 0.379094
Si Si4 0.000000 0.497015 0.250000
Si Si5 0.105573 0.824300 0.161477
Si Si6 0.089241 0.582094 0.123069
Si Si7 0.984240 0.703682 0.052345
Si Si8 0.237412 0.730231 0.812088
O O1 0.434631 0.535953 0.552349
O O2 0.423723 0.453516 0.742654
O O3 0.648327 0.631082 0.167974
O O4 0.458827 0.616225 0.956405
O O5 0.345137 0.665852 0.610296
O O6 0.201979 0.599507 0.297603
O O7 0.234174 0.713710 0.259691
O O8 0.935344 0.539723 0.268532
O O9 0.073123 0.454892 0.446367
O O10 0.185202 0.821527 0.135116
O O11 0.037185 0.764491 0.065437
O O12 0.024412 0.643300 0.025019
O O13 0.000000 0.696036 0.250000
O O14 0.870607 0.706210 0.861511
O O15 0.250000 0.750000 0.000000
#
# Coordination Sequence:
#
# PCOD8150076 Si02
#       8
#     4   8   8   4   8   8   8   8
#     4  10  24  44  64  96 134 188 220 274 332 402
#     4  11  23  44  70  98 140 177 228 276 341 403
#     4  12  23  44  70 103 132 179 227 277 344 421
#     4  10  26  50  62  94 132 184 232 284 324 396
#     4  12  23  44  72 101 138 180 219 280 348 418
#     4  11  25  44  71  93 134 176 231 278 338 392
#     4  12  22  43  74  99 137 178 216 280 349 414
#     4  12  28  40  65 111 140 171 225 280 355 414
#
# _framework density 21.089335999999999
#
# number of rings (size 3 to 8) (size 9 to 14) (size 15 to 20)
#    0.000    0.571    6.429    1.286    4.000    1.714 
#    0.000    0.000    0.000    0.000    0.000    0.000 
#    0.000    0.000    0.000    0.000    0.000    0.000 
#
# Total GULP energy -347296.561356 kJ/mol
# GULP energy per Si atom -12403.448620 kJ/mol
# Density = 2.104134 g / cm^3
# Si number density = 21.089336 Si / 1000 Ang^3
#
#
#
# Elastic Constant Matrix: (Units=GPa)
#
#
# Indices 1 2 3 4 5 6 
#
# 1 129.5192 50.6593 55.4965 0.0000 12.9044 0.0000
# 2 50.6593 106.8792 48.1305 0.0000 -2.7678 0.0000
# 3 55.4965 48.1305 86.9891 0.0000 6.6962 0.0000
# 4 0.0000 0.0000 0.0000 21.9405 0.0000 -2.4941
# 5 12.9044 -2.7678 6.6962 0.0000 33.7888 0.0000
# 6 0.0000 0.0000 0.0000 -2.4941 0.0000 41.5150
#
#
#
# Elastic Compliance Matrix: (Units=1/GPa)
#
#
# Indices 1 2 3 4 5 6 
#
# 1 0.011635 -0.003186 -0.005380 0.000000 -0.003638 0.000000
# 2 -0.003186 0.013533 -0.005721 0.000000 0.003459 0.000000
# 3 -0.005380 -0.005721 0.018249 0.000000 -0.002031 0.000000
# 4 0.000000 0.000000 0.000000 0.045891 0.000000 0.002757
# 5 -0.003638 0.003459 -0.002031 0.000000 0.031671 0.000000
# 6 0.000000 0.000000 0.000000 0.002757 0.000000 0.024253
#
#
# Mechanical properties :
#
#
# Convention : Reuss Voigt Hill
#
# Bulk Modulus (GPa) = 67.37218 70.21777 68.79498
# Shear Modulus (GPa) = 27.97151 30.72228 29.34689
#
# Velocity S-wave (km/s) = 3.64584 3.82090 3.73440
# Velocity P-wave (km/s) = 7.05254 7.26866 7.16141
#
# Compressibility (1/GPa) = 0.01484292
#
# Stress axis : x y z
#
# Youngs Moduli (GPa) = 85.94994 73.89613 54.79651
#
# Poissons Ratio (x) = 0.23546 0.29478
# Poissons Ratio (y) = 0.27387 0.31349
# Poissons Ratio (z) = 0.46237 0.42275
#
# Static dielectric constant tensor:
#      x y z
#    x 3.913590 0.000000 -0.071770 
#    y 0.000000 4.153200 0.000000 
#    z -0.071770 0.000000 3.660260 
# 
# 
# High freq. dielectric constant tensor:
#      x y z
#    x 1.835580 0.000000 -0.006110 
#    y 0.000000 1.840940 0.000000 
#    z -0.006110 0.000000 1.817890 
# 
# From -- ./inp_files/51617.got.cif
#   From: 2010.06.25/outbox.cif.g09.slc.cpg/sg15_26_cif.got.tgz:51617.got - 2010.06.28 07:06:18.
