data_PCOD8150150
_publ_section_title
;
Structure prediction by ZEFSAII (Michael W. Deem and Ramdas Pophale) SiO2 
 PCOD8150150
Probable space group: C 2/C
;
_chemical_formula_sum "Si O2"
_cell_formula_units_Z 60
_cell_length_a 26.826340
_cell_length_b 16.459515
_cell_length_c 11.568405
_cell_angle_alpha 90.000000
_cell_angle_beta 146.705921
_cell_angle_gamma 90.000000
_cell_volume 2803.974154
_symmetry_space_group_name_H-M "C 2/C"
_symmetry_group_IT_number 15
_symmetry_cell_setting 'monoclinic'
loop_
_space_group_symop_operation_xyz
x,y,z
-x,y,1/2-z
-x,-y,-z
x,-y,1/2+z
1/2+x,1/2+y,z
1/2-x,1/2+y,1/2-z
1/2-x,1/2-y,-z
1/2+x,1/2-y,1/2+z
loop_
_atom_site_type_symbol
_atom_site_label
_atom_site_fract_x
_atom_site_fract_y
_atom_site_fract_z
Si Si1 0.815250 0.142091 0.207025
Si Si2 0.792994 0.189468 0.732909
Si Si3 0.217556 0.036472 0.937985
Si Si4 0.000000 0.646185 0.750000
Si Si5 0.074324 0.434018 0.609015
Si Si6 0.147153 0.747928 0.914985
Si Si7 0.090768 0.879283 0.376409
Si Si8 0.394456 0.231882 0.236322
O O1 0.878290 0.193465 0.241136
O O2 0.848384 0.152258 0.401026
O O3 0.816304 0.049441 0.170503
O O4 0.714118 0.177228 0.002507
O O5 0.795410 0.096527 0.695538
O O6 0.698026 0.229650 0.516386
O O7 0.872135 0.241776 0.824577
O O8 0.809147 0.195284 0.900784
O O9 0.152903 0.062692 0.918537
O O10 0.322941 0.033531 0.180458
O O11 0.937617 0.588850 0.548800
O O12 0.943956 0.703674 0.725769
O O13 0.057849 0.356132 0.662355
O O14 0.000000 0.500000 0.500000
O O15 0.050632 0.802292 0.224616
O O16 0.000000 0.924347 0.250000
#
# Coordination Sequence:
#
# PCOD8150150 Si02
#       8
#     8   8   8   4   8   8   8   8
#     4  11  25  43  64  99 135 172 225 290 340 404
#     4   9  17  38  69  90 117 182 221 264 336 403
#     4  10  24  44  69  95 140 173 230 282 343 407
#     4  12  24  42  68  94 144 174 224 280 328 426
#     4  11  23  42  67 104 136 179 219 280 351 400
#     4  11  23  41  65  97 133 180 223 274 342 406
#     4  11  24  42  67  95 131 181 226 287 333 406
#     4   9  18  39  66  92 126 170 228 268 323 413
#
# _framework density 21.398199999999999
#
# number of rings (size 3 to 8) (size 9 to 14) (size 15 to 20)
#    0.000    1.600    2.667    2.400    3.733    0.533 
#    4.800    0.000    0.000    0.000    0.000    0.000 
#    0.000    0.000    0.000    0.000    0.000    0.000 
#
# Total GULP energy -371973.527047 kJ/mol
# GULP energy per Si atom -12399.117568 kJ/mol
# Density = 2.134950 g / cm^3
# Si number density = 21.398200 Si / 1000 Ang^3
#
#
#
# Elastic Constant Matrix: (Units=GPa)
#
#
# Indices 1 2 3 4 5 6 
#
# 1 116.7173 54.5861 25.4837 0.0000 1.3617 0.0000
# 2 54.5861 122.6602 24.7779 0.0000 3.3044 0.0000
# 3 25.4837 24.7779 52.9841 0.0000 -1.2470 0.0000
# 4 0.0000 0.0000 0.0000 28.5070 0.0000 2.8152
# 5 1.3617 3.3044 -1.2470 0.0000 44.5231 0.0000
# 6 0.0000 0.0000 0.0000 2.8152 0.0000 27.8586
#
#
#
# Elastic Compliance Matrix: (Units=1/GPa)
#
#
# Indices 1 2 3 4 5 6 
#
# 1 0.011355 -0.004358 -0.003426 0.000000 -0.000120 0.000000
# 2 -0.004358 0.010703 -0.002927 0.000000 -0.000743 0.000000
# 3 -0.003426 -0.002927 0.021912 0.000000 0.000936 0.000000
# 4 0.000000 0.000000 0.000000 0.035433 0.000000 -0.003581
# 5 -0.000120 -0.000743 0.000936 0.000000 0.022545 0.000000
# 6 0.000000 0.000000 0.000000 -0.003581 0.000000 0.036257
#
#
# Mechanical properties :
#
#
# Convention : Reuss Voigt Hill
#
# Bulk Modulus (GPa) = 44.34868 55.78411 50.06640
# Shear Modulus (GPa) = 29.91421 32.67868 31.29644
#
# Velocity S-wave (km/s) = 3.74301 3.91214 3.82851
# Velocity P-wave (km/s) = 6.28097 6.82148 6.55680
#
# Compressibility (1/GPa) = 0.02254858
#
# Stress axis : x y z
#
# Youngs Moduli (GPa) = 88.06442 93.42987 45.63648
#
# Poissons Ratio (x) = 0.40716 0.15637
# Poissons Ratio (y) = 0.38378 0.13357
# Poissons Ratio (z) = 0.30174 0.27345
#
# Static dielectric constant tensor:
#      x y z
#    x 3.950220 0.000000 -0.105600 
#    y 0.000000 3.777530 0.000000 
#    z -0.105600 0.000000 3.750170 
# 
# 
# High freq. dielectric constant tensor:
#      x y z
#    x 1.841570 0.000000 -0.007180 
#    y 0.000000 1.834730 0.000000 
#    z -0.007180 0.000000 1.841080 
# 
# From -- ./inp_files/123998.got.cif
#   From: 2010.06.25/outbox.cif.g09.slc.cpg/sg15_62_cif.got.tgz:123998.got - 2010.06.28 07:06:18.
