data_PCOD8150280
_publ_section_title
;
Structure prediction by ZEFSAII (Michael W. Deem and Ramdas Pophale) SiO2 
 PCOD8150280
Probable space group: C 2/C
;
_chemical_formula_sum "Si O2"
_cell_formula_units_Z 32
_cell_length_a 8.305131
_cell_length_b 22.255802
_cell_length_c 10.201593
_cell_angle_alpha 90.000000
_cell_angle_beta 131.586472
_cell_angle_gamma 90.000000
_cell_volume 1410.370122
_symmetry_space_group_name_H-M "C 2/C"
_symmetry_group_IT_number 15
_symmetry_cell_setting 'monoclinic'
loop_
_space_group_symop_operation_xyz
x,y,z
-x,y,1/2-z
-x,-y,-z
x,-y,1/2+z
1/2+x,1/2+y,z
1/2-x,1/2+y,1/2-z
1/2-x,1/2-y,-z
1/2+x,1/2-y,1/2+z
loop_
_atom_site_type_symbol
_atom_site_label
_atom_site_fract_x
_atom_site_fract_y
_atom_site_fract_z
Si Si1 0.609905 0.830316 0.029690
Si Si2 0.500000 0.244753 0.250000
Si Si3 0.279713 0.947218 0.561857
Si Si4 0.500000 0.138019 0.750000
Si Si5 0.919502 0.071800 0.070313
O O1 0.813275 0.789699 0.111498
O O2 0.533994 0.822570 0.138068
O O3 0.436220 0.800568 0.835970
O O4 0.663294 0.899726 0.022375
O O5 0.500000 0.968350 0.750000
O O6 0.120282 0.919165 0.582835
O O7 0.153645 0.003896 0.433078
O O8 0.285226 0.100626 0.609663
O O9 0.000000 0.101817 0.250000
#
# Coordination Sequence:
#
# PCOD8150280 Si02
#       5
#     8   4   8   4   8
#     4  11  24  44  69  98 132 182 228 284 342 399
#     4  10  24  45  70  94 130 181 234 284 344 400
#     4  11  23  43  68  97 143 185 222 278 341 410
#     4  12  26  45  70 106 142 177 226 284 342 412
#     4  11  26  40  67 107 140 183 227 270 340 422
#
# _framework density 22.689080000000001
#
# number of rings (size 3 to 8) (size 9 to 14) (size 15 to 20)
#    0.000    1.000    2.500    3.000    8.750    3.000 
#    0.000    0.000    0.000    0.000    0.000    0.000 
#    0.000    0.000    0.000    0.000    0.000    0.000 
#
# Total GULP energy -198284.690190 kJ/mol
# GULP energy per Si atom -12392.793137 kJ/mol
# Density = 2.263744 g / cm^3
# Si number density = 22.689080 Si / 1000 Ang^3
#
#
#
# Elastic Constant Matrix: (Units=GPa)
#
#
# Indices 1 2 3 4 5 6 
#
# 1 85.5865 0.6384 35.1876 0.0000 -7.5346 0.0000
# 2 0.6384 56.9452 7.7952 0.0000 -11.4733 0.0000
# 3 35.1876 7.7952 125.1493 0.0000 -9.7307 0.0000
# 4 0.0000 0.0000 0.0000 82.3053 0.0000 22.7588
# 5 -7.5346 -11.4733 -9.7307 0.0000 52.7577 0.0000
# 6 0.0000 0.0000 0.0000 22.7588 0.0000 25.9588
#
#
#
# Elastic Compliance Matrix: (Units=1/GPa)
#
#
# Indices 1 2 3 4 5 6 
#
# 1 0.013310 0.000628 -0.003676 0.000000 0.001359 0.000000
# 2 0.000628 0.018484 -0.001023 0.000000 0.003921 0.000000
# 3 -0.003676 -0.001023 0.009161 0.000000 0.000942 0.000000
# 4 0.000000 0.000000 0.000000 0.016038 0.000000 -0.014061
# 5 0.001359 0.003921 0.000942 0.000000 0.020175 0.000000
# 6 0.000000 0.000000 0.000000 -0.014061 0.000000 0.050850
#
#
# Mechanical properties :
#
#
# Convention : Reuss Voigt Hill
#
# Bulk Modulus (GPa) = 30.47564 39.43594 34.95579
# Shear Modulus (GPa) = 33.99096 47.14169 40.56632
#
# Velocity S-wave (km/s) = 3.87475 4.56315 4.23297
# Velocity P-wave (km/s) = 5.78613 6.72175 6.27141
#
# Compressibility (1/GPa) = 0.03281310
#
# Stress axis : x y z
#
# Youngs Moduli (GPa) = 75.12960 54.10183 109.15912
#
# Poissons Ratio (x) = -0.03397 0.40125
# Poissons Ratio (y) = -0.04717 0.11167
# Poissons Ratio (z) = 0.27616 0.05535
#
# Static dielectric constant tensor:
#      x y z
#    x 4.042680 0.000000 -0.052830 
#    y 0.000000 3.982630 0.000000 
#    z -0.052830 0.000000 4.674980 
# 
# 
# High freq. dielectric constant tensor:
#      x y z
#    x 1.886930 0.000000 -0.000360 
#    y 0.000000 1.878010 0.000000 
#    z -0.000360 0.000000 1.921030 
# 
# From -- ./inp_files/23265.got.cif
#   From: 2010.06.25/outbox.cif.g09.slc.cpg/sg15_12_cif.got.tgz:23265.got - 2010.06.28 07:06:18.
