data_PCOD8150511
_publ_section_title
;
Structure prediction by ZEFSAII (Michael W. Deem and Ramdas Pophale) SiO2 
 PCOD8150511
Probable space group: C 2/C
;
_chemical_formula_sum "Si O2"
_cell_formula_units_Z 44
_cell_length_a 7.380732
_cell_length_b 12.544810
_cell_length_c 19.929838
_cell_angle_alpha 90.000000
_cell_angle_beta 100.597655
_cell_angle_gamma 90.000000
_cell_volume 1813.825789
_symmetry_space_group_name_H-M "C 2/C"
_symmetry_group_IT_number 15
_symmetry_cell_setting 'monoclinic'
loop_
_space_group_symop_operation_xyz
x,y,z
-x,y,1/2-z
-x,-y,-z
x,-y,1/2+z
1/2+x,1/2+y,z
1/2-x,1/2+y,1/2-z
1/2-x,1/2-y,-z
1/2+x,1/2-y,1/2+z
loop_
_atom_site_type_symbol
_atom_site_label
_atom_site_fract_x
_atom_site_fract_y
_atom_site_fract_z
Si Si1 0.000000 0.174906 0.750000
Si Si2 0.717599 0.506584 0.937408
Si Si3 0.682979 0.730036 0.890117
Si Si4 0.829769 0.388009 0.188961
Si Si5 0.300307 0.453307 0.916246
Si Si6 0.808271 0.272825 0.927669
O O1 0.896272 0.249782 0.689601
O O2 0.854038 0.101486 0.778746
O O3 0.781697 0.613836 0.901979
O O4 0.496124 0.509082 0.920536
O O5 0.795183 0.398953 0.909485
O O6 0.788309 0.514737 0.018473
O O7 0.826368 0.825676 0.912579
O O8 0.520844 0.737750 0.934593
O O9 0.840900 0.498986 0.148599
O O10 0.817938 0.290344 0.134773
O O11 0.000000 0.370245 0.250000
O O12 0.750000 0.250000 0.000000
#
# Coordination Sequence:
#
# PCOD8150511 Si02
#       6
#     4   8   8   8   8   8
#     4  10  24  50  64 100 156 186 238 302 356 438
#     4  11  22  45  71  99 143 181 230 305 365 418
#     4  11  25  45  68 105 144 184 242 295 359 439
#     4  11  25  48  72 108 145 194 248 296 372 449
#     4  11  23  45  71 101 140 182 237 304 357 432
#     4  11  22  46  72 102 144 183 240 302 358 432
#
# _framework density 24.258118
#
# number of rings (size 3 to 8) (size 9 to 14) (size 15 to 20)
#    0.000    1.091    5.455    1.636    3.818    2.182 
#    4.909    0.000    0.000    0.000    0.000    0.000 
#    0.000    0.000    0.000    0.000    0.000    0.000 
#
# Total GULP energy -272797.812571 kJ/mol
# GULP energy per Si atom -12399.900571 kJ/mol
# Density = 2.420291 g / cm^3
# Si number density = 24.258118 Si / 1000 Ang^3
#
#
#
# Elastic Constant Matrix: (Units=GPa)
#
#
# Indices 1 2 3 4 5 6 
#
# 1 22.7909 26.3851 40.5873 0.0000 3.2896 0.0000
# 2 26.3851 217.3208 52.2268 0.0000 5.5497 0.0000
# 3 40.5873 52.2268 153.9110 0.0000 4.3900 0.0000
# 4 0.0000 0.0000 0.0000 29.0663 0.0000 5.6318
# 5 3.2896 5.5497 4.3900 0.0000 31.1757 0.0000
# 6 0.0000 0.0000 0.0000 5.6318 0.0000 29.7570
#
#
#
# Elastic Compliance Matrix: (Units=1/GPa)
#
#
# Indices 1 2 3 4 5 6 
#
# 1 0.089468 -0.005543 -0.021558 0.000000 -0.005418 0.000000
# 2 -0.005543 0.005367 -0.000350 0.000000 -0.000321 0.000000
# 3 -0.021558 -0.000350 0.012284 0.000000 0.000607 0.000000
# 4 0.000000 0.000000 0.000000 0.035714 0.000000 -0.006759
# 5 -0.005418 -0.000321 0.000607 0.000000 0.032620 0.000000
# 6 0.000000 0.000000 0.000000 -0.006759 0.000000 0.034885
#
#
# Mechanical properties :
#
#
# Convention : Reuss Voigt Hill
#
# Bulk Modulus (GPa) = 19.15119 70.26900 44.71009
# Shear Modulus (GPa) = 17.69012 36.32138 27.00575
#
# Velocity S-wave (km/s) = 2.70338 3.87368 3.34018
# Velocity P-wave (km/s) = 4.20194 7.00266 5.77467
#
# Compressibility (1/GPa) = 0.05221608
#
# Stress axis : x y z
#
# Youngs Moduli (GPa) = 11.17722 186.32866 81.40902
#
# Poissons Ratio (x) = 1.03286 1.75499
# Poissons Ratio (y) = 0.06196 0.02851
# Poissons Ratio (z) = 0.24095 0.06525
#
# Static dielectric constant tensor:
#      x y z
#    x 4.102190 0.000000 -0.006300 
#    y 0.000000 4.421450 0.000000 
#    z -0.006300 0.000000 4.608250 
# 
# 
# High freq. dielectric constant tensor:
#      x y z
#    x 1.946210 0.000000 0.002960 
#    y 0.000000 1.965780 0.000000 
#    z 0.002960 0.000000 1.971370 
# 
# From -- ./inp_files/230242.got.cif
#   From: 2010.06.25/outbox.cif.g09.slc.cpg/sg15_116_cif.got.tgz:230242.got - 2010.06.28 07:06:18.
