data_PCOD8150896
_publ_section_title
;
Structure prediction by ZEFSAII (Michael W. Deem and Ramdas Pophale) SiO2 
 PCOD8150896
Probable space group: C 2/C
;
_chemical_formula_sum "Si O2"
_cell_formula_units_Z 56
_cell_length_a 5.346747
_cell_length_b 14.576155
_cell_length_c 29.676267
_cell_angle_alpha 90.000000
_cell_angle_beta 82.820451
_cell_angle_gamma 90.000000
_cell_volume 2294.686297
_symmetry_space_group_name_H-M "C 2/C"
_symmetry_group_IT_number 15
_symmetry_cell_setting 'monoclinic'
loop_
_space_group_symop_operation_xyz
x,y,z
-x,y,1/2-z
-x,-y,-z
x,-y,1/2+z
1/2+x,1/2+y,z
1/2-x,1/2+y,1/2-z
1/2-x,1/2-y,-z
1/2+x,1/2-y,1/2+z
loop_
_atom_site_type_symbol
_atom_site_label
_atom_site_fract_x
_atom_site_fract_y
_atom_site_fract_z
Si Si1 0.950463 0.619877 0.826346
Si Si2 0.806622 0.026744 0.295956
Si Si3 0.573088 0.364590 0.952822
Si Si4 0.325296 0.818238 0.094258
Si Si5 0.968313 0.607031 0.995546
Si Si6 0.774727 0.727119 0.221928
Si Si7 0.049725 0.027888 0.885257
O O1 0.732589 0.684599 0.810592
O O2 0.832232 0.547223 0.863679
O O3 0.111661 0.556110 0.788468
O O4 0.123576 0.683787 0.853385
O O5 0.000000 0.024536 0.250000
O O6 0.911758 0.012797 0.343940
O O7 0.673640 0.127275 0.300946
O O8 0.679051 0.289007 0.916152
O O9 0.773710 0.354722 0.988572
O O10 0.569525 0.460657 0.927023
O O11 0.286487 0.350997 0.976809
O O12 0.072002 0.877792 0.093390
O O13 0.536734 0.863858 0.056782
O O14 0.000000 0.500000 0.000000
O O15 0.500000 0.726962 0.250000
O O16 0.000000 0.751038 0.250000
#
# Coordination Sequence:
#
# PCOD8150896 Si02
#       7
#     8   8   8   8   8   8   8
#     4  11  27  45  77 103 151 192 248 303 378 444
#     4  10  26  49  73 108 144 196 248 309 374 451
#     4  12  27  46  75 106 150 193 244 306 368 439
#     4  11  26  46  70 109 144 196 243 304 365 448
#     4  12  25  47  76 105 148 194 248 303 368 441
#     4  11  28  48  74 107 143 187 247 308 370 447
#     4  11  26  44  73 105 145 194 242 305 371 446
#
# _framework density 24.404205000000001
#
# number of rings (size 3 to 8) (size 9 to 14) (size 15 to 20)
#    0.000    0.857    1.429    3.000   16.000    1.143 
#    0.000    0.000    0.000    0.000    0.000    0.000 
#    0.000    0.000    0.000    0.000    0.000    0.000 
#
# Total GULP energy -346917.098819 kJ/mol
# GULP energy per Si atom -12389.896386 kJ/mol
# Density = 2.434866 g / cm^3
# Si number density = 24.404205 Si / 1000 Ang^3
#
#
#
# Elastic Constant Matrix: (Units=GPa)
#
#
# Indices 1 2 3 4 5 6 
#
# 1 118.3879 35.3208 34.7300 0.0000 4.0784 0.0000
# 2 35.3208 124.8588 19.0534 0.0000 2.1727 0.0000
# 3 34.7300 19.0534 75.8976 0.0000 -4.2818 0.0000
# 4 0.0000 0.0000 0.0000 50.4144 0.0000 -10.5605
# 5 4.0784 2.1727 -4.2818 0.0000 36.0244 0.0000
# 6 0.0000 0.0000 0.0000 -10.5605 0.0000 16.7966
#
#
#
# Elastic Compliance Matrix: (Units=1/GPa)
#
#
# Indices 1 2 3 4 5 6 
#
# 1 0.010437 -0.002270 -0.004294 0.000000 -0.001555 0.000000
# 2 -0.002270 0.008842 -0.001205 0.000000 -0.000419 0.000000
# 3 -0.004294 -0.001205 0.015579 0.000000 0.002410 0.000000
# 4 0.000000 0.000000 0.000000 0.022844 0.000000 0.014363
# 5 -0.001555 -0.000419 0.002410 0.000000 0.028247 0.000000
# 6 0.000000 0.000000 0.000000 0.014363 0.000000 0.068566
#
#
# Mechanical properties :
#
#
# Convention : Reuss Voigt Hill
#
# Bulk Modulus (GPa) = 51.75671 55.26142 53.50906
# Shear Modulus (GPa) = 28.32960 35.98307 32.15633
#
# Velocity S-wave (km/s) = 3.41082 3.84404 3.63389
# Velocity P-wave (km/s) = 6.06348 6.51119 6.29131
#
# Compressibility (1/GPa) = 0.01932117
#
# Stress axis : x y z
#
# Youngs Moduli (GPa) = 95.80981 113.09145 64.18952
#
# Poissons Ratio (x) = 0.25675 0.27562
# Poissons Ratio (y) = 0.21752 0.07732
# Poissons Ratio (z) = 0.41139 0.13623
#
# Static dielectric constant tensor:
#      x y z
#    x 6.349670 0.000000 1.209030 
#    y 0.000000 4.812360 0.000000 
#    z 1.209030 0.000000 5.199990 
# 
# 
# High freq. dielectric constant tensor:
#      x y z
#    x 1.968660 0.000000 0.000110 
#    y 0.000000 1.985670 0.000000 
#    z 0.000110 0.000000 1.978120 
# 
# From -- ./inp_files/305388.got.cif
#   From: 2010.06.25/outbox.cif.g09.slc.cpg/sg15_153_cif.got.tgz:305388.got - 2010.06.28 07:06:18.
