data_PCOD8150922
_publ_section_title
;
Structure prediction by ZEFSAII (Michael W. Deem and Ramdas Pophale) SiO2 
 PCOD8150922
Probable space group: C 2/C
;
_chemical_formula_sum "Si O2"
_cell_formula_units_Z 60
_cell_length_a 8.629224
_cell_length_b 26.922049
_cell_length_c 12.451614
_cell_angle_alpha 90.000000
_cell_angle_beta 107.620693
_cell_angle_gamma 90.000000
_cell_volume 2756.991943
_symmetry_space_group_name_H-M "C 2/C"
_symmetry_group_IT_number 15
_symmetry_cell_setting 'monoclinic'
loop_
_space_group_symop_operation_xyz
x,y,z
-x,y,1/2-z
-x,-y,-z
x,-y,1/2+z
1/2+x,1/2+y,z
1/2-x,1/2+y,1/2-z
1/2-x,1/2-y,-z
1/2+x,1/2-y,1/2+z
loop_
_atom_site_type_symbol
_atom_site_label
_atom_site_fract_x
_atom_site_fract_y
_atom_site_fract_z
Si Si1 0.162872 0.004882 0.101753
Si Si2 0.425544 0.929225 0.118012
Si Si3 0.169390 0.119022 0.106493
Si Si4 0.809510 0.804623 0.713175
Si Si5 0.829026 0.201099 0.770069
Si Si6 0.229151 0.617599 0.599204
Si Si7 0.183295 0.155333 0.509336
Si Si8 0.000000 0.947621 0.250000
O O1 0.212822 0.061479 0.131490
O O2 0.314376 0.977955 0.072867
O O3 0.128843 0.980056 0.210146
O O4 0.000000 0.000000 0.000000
O O5 0.500000 0.933947 0.250000
O O6 0.576743 0.920616 0.069268
O O7 0.312593 0.881675 0.085652
O O8 0.239342 0.148600 0.223060
O O9 0.256741 0.140109 0.017522
O O10 0.975401 0.125527 0.061241
O O11 0.735528 0.756606 0.755406
O O12 0.744881 0.814946 0.578659
O O13 0.000000 0.795055 0.750000
O O14 0.710465 0.161262 0.684812
O O15 0.853826 0.192834 0.901987
O O16 0.000000 0.195441 0.750000
O O17 0.396284 0.586891 0.648796
#
# Coordination Sequence:
#
# PCOD8150922 Si02
#       8
#     8   8   8   8   8   8   8   4
#     4  12  24  42  72 100 141 187 231 284 357 427
#     4  12  24  41  70 108 141 177 234 293 348 408
#     4  11  24  48  68 101 141 187 237 285 355 432
#     4  10  27  45  68 102 141 188 236 289 363 429
#     4  12  23  42  72 101 138 185 236 295 364 422
#     4  12  23  42  71 105 139 178 236 299 343 422
#     4  11  22  46  71  99 141 180 237 295 348 427
#     4  12  22  42  72 102 134 186 234 286 354 426
#
# _framework density 21.762848999999999
#
# number of rings (size 3 to 8) (size 9 to 14) (size 15 to 20)
#    0.000    0.533    7.333    0.400    4.667    2.133 
#    0.000    2.000    0.000    0.000    0.000    0.000 
#    0.000    0.000    0.000    0.000    0.000    0.000 
#
# Total GULP energy -372025.159457 kJ/mol
# GULP energy per Si atom -12400.838649 kJ/mol
# Density = 2.171332 g / cm^3
# Si number density = 21.762849 Si / 1000 Ang^3
#
#
#
# Elastic Constant Matrix: (Units=GPa)
#
#
# Indices 1 2 3 4 5 6 
#
# 1 95.3164 42.6054 32.1433 0.0000 -4.9922 0.0000
# 2 42.6054 146.4059 46.3674 0.0000 -3.8603 0.0000
# 3 32.1433 46.3674 121.2039 0.0000 -21.3664 0.0000
# 4 0.0000 0.0000 0.0000 26.9001 0.0000 -2.9265
# 5 -4.9922 -3.8603 -21.3664 0.0000 35.3757 0.0000
# 6 0.0000 0.0000 0.0000 -2.9265 0.0000 39.5448
#
#
#
# Elastic Compliance Matrix: (Units=1/GPa)
#
#
# Indices 1 2 3 4 5 6 
#
# 1 0.012555 -0.002962 -0.002172 0.000000 0.000136 0.000000
# 2 -0.002962 0.008506 -0.002662 0.000000 -0.001098 0.000000
# 3 -0.002172 -0.002662 0.010900 0.000000 0.005987 0.000000
# 4 0.000000 0.000000 0.000000 0.037476 0.000000 0.002773
# 5 0.000136 -0.001098 0.005987 0.000000 0.031783 0.000000
# 6 0.000000 0.000000 0.000000 0.002773 0.000000 0.025493
#
#
# Mechanical properties :
#
#
# Convention : Reuss Voigt Hill
#
# Bulk Modulus (GPa) = 61.09188 67.23984 64.16586
# Shear Modulus (GPa) = 33.83768 36.48479 35.16124
#
# Velocity S-wave (km/s) = 3.94742 4.09892 4.02388
# Velocity P-wave (km/s) = 6.99348 7.30515 7.15101
#
# Compressibility (1/GPa) = 0.01636879
#
# Stress axis : x y z
#
# Youngs Moduli (GPa) = 79.64881 117.55733 91.73912
#
# Poissons Ratio (x) = 0.34821 0.19930
# Poissons Ratio (y) = 0.23592 0.24423
# Poissons Ratio (z) = 0.17303 0.31296
#
# Static dielectric constant tensor:
#      x y z
#    x 4.443740 0.000000 0.201860 
#    y 0.000000 4.023830 0.000000 
#    z 0.201860 0.000000 4.297790 
# 
# 
# High freq. dielectric constant tensor:
#      x y z
#    x 1.851820 0.000000 -0.010570 
#    y 0.000000 1.853210 0.000000 
#    z -0.010570 0.000000 1.854840 
# 
# From -- ./inp_files/82658.got.cif
#   From: 2010.06.25/outbox.cif.g09.slc.cpg/sg15_42_cif.got.tgz:82658.got - 2010.06.28 07:06:18.
