data_PCOD8150771
_publ_section_title
;
Structure prediction by ZEFSAII (Michael W. Deem and Ramdas Pophale) SiO2 
 PCOD8150771
Probable space group: C 2/C
;
_chemical_formula_sum "Si O2"
_cell_formula_units_Z 44
_cell_length_a 13.455034
_cell_length_b 10.291150
_cell_length_c 16.606295
_cell_angle_alpha 90.000000
_cell_angle_beta 124.430278
_cell_angle_gamma 90.000000
_cell_volume 1896.609472
_symmetry_space_group_name_H-M "C 2/C"
_symmetry_group_IT_number 15
_symmetry_cell_setting 'monoclinic'
loop_
_space_group_symop_operation_xyz
x,y,z
-x,y,1/2-z
-x,-y,-z
x,-y,1/2+z
1/2+x,1/2+y,z
1/2-x,1/2+y,1/2-z
1/2-x,1/2-y,-z
1/2+x,1/2-y,1/2+z
loop_
_atom_site_type_symbol
_atom_site_label
_atom_site_fract_x
_atom_site_fract_y
_atom_site_fract_z
Si Si1 0.850131 0.848560 0.831282
Si Si2 0.848087 0.455740 0.320821
Si Si3 0.071950 0.229762 0.359157
Si Si4 0.311802 0.086819 0.466531
Si Si5 0.500000 0.060712 0.250000
Si Si6 0.261986 0.868808 0.562908
O O1 0.813302 0.696409 0.799205
O O2 0.763200 0.954520 0.753548
O O3 0.850139 0.870128 0.927245
O O4 0.981959 0.879164 0.854424
O O5 0.875776 0.503554 0.425406
O O6 0.960478 0.479258 0.311780
O O7 0.199046 0.175298 0.384183
O O8 0.087727 0.326490 0.442761
O O9 0.000000 0.294364 0.250000
O O10 0.254049 0.000021 0.509621
O O11 0.613529 0.146982 0.329496
O O12 0.250000 0.750000 0.500000
#
# Coordination Sequence:
#
# PCOD8150771 Si02
#       6
#     8   8   8   8   4   8
#     4  11  25  43  72 100 143 179 231 293 347 413
#     4  11  24  45  68 106 135 188 233 283 349 417
#     4  11  25  45  71 102 138 187 227 293 345 419
#     4  11  25  44  73 101 136 184 240 278 353 422
#     4  10  26  42  72  98 142 186 226 286 344 414
#     4  11  24  45  65 106 136 177 232 285 348 414
#
# _framework density 23.199293999999998
#
# number of rings (size 3 to 8) (size 9 to 14) (size 15 to 20)
#    0.000    1.091    3.636    1.091   10.182    2.182 
#    8.182    0.000    0.000    0.000    0.000    0.000 
#    0.000    0.000    0.000    0.000    0.000    0.000 
#
# Total GULP energy -272590.268987 kJ/mol
# GULP energy per Si atom -12390.466772 kJ/mol
# Density = 2.314649 g / cm^3
# Si number density = 23.199294 Si / 1000 Ang^3
#
#
#
# Elastic Constant Matrix: (Units=GPa)
#
#
# Indices 1 2 3 4 5 6 
#
# 1 132.2086 9.2503 36.1728 0.0000 -27.6136 0.0000
# 2 9.2503 74.3333 21.8702 0.0000 0.2275 0.0000
# 3 36.1728 21.8702 115.3822 0.0000 -1.6374 0.0000
# 4 0.0000 0.0000 0.0000 33.4427 0.0000 -13.3221
# 5 -27.6136 0.2275 -1.6374 0.0000 43.8970 0.0000
# 6 0.0000 0.0000 0.0000 -13.3221 0.0000 40.2008
#
#
#
# Elastic Compliance Matrix: (Units=1/GPa)
#
#
# Indices 1 2 3 4 5 6 
#
# 1 0.009613 -0.000373 -0.002859 0.000000 0.005943 0.000000
# 2 -0.000373 0.014263 -0.002592 0.000000 -0.000406 0.000000
# 3 -0.002859 -0.002592 0.010034 0.000000 -0.001411 0.000000
# 4 0.000000 0.000000 0.000000 0.034450 0.000000 0.011416
# 5 0.005943 -0.000406 -0.001411 0.000000 0.026468 0.000000
# 6 0.000000 0.000000 0.000000 0.011416 0.000000 0.028658
#
#
# Mechanical properties :
#
#
# Convention : Reuss Voigt Hill
#
# Bulk Modulus (GPa) = 44.91902 50.72341 47.82122
# Shear Modulus (GPa) = 35.07379 40.48349 37.77864
#
# Velocity S-wave (km/s) = 3.89247 4.18189 4.03977
# Velocity P-wave (km/s) = 6.29333 6.72527 6.51288
#
# Compressibility (1/GPa) = 0.02226229
#
# Stress axis : x y z
#
# Youngs Moduli (GPa) = 104.02287 70.10995 99.65732
#
# Poissons Ratio (x) = 0.02618 0.28489
# Poissons Ratio (y) = 0.03884 0.25834
# Poissons Ratio (z) = 0.29737 0.18174
#
# Static dielectric constant tensor:
#      x y z
#    x 4.235480 0.000000 -0.329780 
#    y 0.000000 3.624820 0.000000 
#    z -0.329780 0.000000 4.407260 
# 
# 
# High freq. dielectric constant tensor:
#      x y z
#    x 1.935520 0.000000 -0.019700 
#    y 0.000000 1.903610 0.000000 
#    z -0.019700 0.000000 1.927500 
# 
# From -- ./inp_files/196651.got.cif
#   From: 2010.06.25/outbox.cif.g09.slc.cpg/sg15_99_cif.got.tgz:196651.got - 2010.06.28 07:06:18.
