data_PCOD8150507
_publ_section_title
;
Structure prediction by ZEFSAII (Michael W. Deem and Ramdas Pophale) SiO2 
 PCOD8150507
Probable space group: C 2/C
;
_chemical_formula_sum "Si O2"
_cell_formula_units_Z 36
_cell_length_a 7.467087
_cell_length_b 17.534636
_cell_length_c 11.793383
_cell_angle_alpha 90.000000
_cell_angle_beta 71.006016
_cell_angle_gamma 90.000000
_cell_volume 1460.064808
_symmetry_space_group_name_H-M "C 2/C"
_symmetry_group_IT_number 15
_symmetry_cell_setting 'monoclinic'
loop_
_space_group_symop_operation_xyz
x,y,z
-x,y,1/2-z
-x,-y,-z
x,-y,1/2+z
1/2+x,1/2+y,z
1/2-x,1/2+y,1/2-z
1/2-x,1/2-y,-z
1/2+x,1/2-y,1/2+z
loop_
_atom_site_type_symbol
_atom_site_label
_atom_site_fract_x
_atom_site_fract_y
_atom_site_fract_z
Si Si1 0.011621 0.259642 0.430061
Si Si2 0.780616 0.862172 0.091349
Si Si3 0.500000 0.420609 0.250000
Si Si4 0.717672 0.016478 0.984569
Si Si5 0.359456 0.835046 0.874558
O O1 0.217003 0.228027 0.350092
O O2 0.018681 0.298178 0.551416
O O3 0.878951 0.186006 0.470984
O O4 0.929239 0.322379 0.357598
O O5 0.887035 0.862604 0.190174
O O6 0.786234 0.948999 0.050199
O O7 0.652919 0.474550 0.154538
O O8 0.750939 0.092873 0.050770
O O9 0.500000 0.000000 0.000000
O O10 0.500000 0.865395 0.750000
#
# Coordination Sequence:
#
# PCOD8150507 Si02
#       5
#     8   8   4   8   8
#     4  10  24  49  72 112 152 196 258 313 389 460
#     4  11  25  48  77 110 150 202 260 315 383 460
#     4  12  28  48  84 108 160 206 260 328 376 474
#     4  12  27  49  74 115 153 203 265 314 389 465
#     4  11  25  47  75 111 159 196 252 325 386 461
#
# _framework density 24.656438999999999
#
# number of rings (size 3 to 8) (size 9 to 14) (size 15 to 20)
#    0.000    0.889    4.444    0.667    4.667    0.000 
#    4.000    2.222    0.000    0.000    0.000    0.000 
#    0.000    0.000    0.000    0.000    0.000    0.000 
#
# Total GULP energy -223175.223107 kJ/mol
# GULP energy per Si atom -12398.623506 kJ/mol
# Density = 2.460032 g / cm^3
# Si number density = 24.656439 Si / 1000 Ang^3
#
#
#
# Elastic Constant Matrix: (Units=GPa)
#
#
# Indices 1 2 3 4 5 6 
#
# 1 156.2884 53.6555 58.6009 0.0000 15.6379 0.0000
# 2 53.6555 132.1896 46.2243 0.0000 6.0167 0.0000
# 3 58.6009 46.2243 125.6375 0.0000 -19.0079 0.0000
# 4 0.0000 0.0000 0.0000 8.8252 0.0000 -0.0432
# 5 15.6379 6.0167 -19.0079 0.0000 37.1393 0.0000
# 6 0.0000 0.0000 0.0000 -0.0432 0.0000 56.8570
#
#
#
# Elastic Compliance Matrix: (Units=1/GPa)
#
#
# Indices 1 2 3 4 5 6 
#
# 1 0.009370 -0.001937 -0.004560 0.000000 -0.005966 0.000000
# 2 -0.001937 0.009471 -0.002916 0.000000 -0.002211 0.000000
# 3 -0.004560 -0.002916 0.012488 0.000000 0.008784 0.000000
# 4 0.000000 0.000000 0.000000 0.113312 0.000000 0.000086
# 5 -0.005966 -0.002211 0.008784 0.000000 0.034291 0.000000
# 6 0.000000 0.000000 0.000000 0.000086 0.000000 0.017588
#
#
# Mechanical properties :
#
#
# Convention : Reuss Voigt Hill
#
# Bulk Modulus (GPa) = 79.97810 81.23075 80.60443
# Shear Modulus (GPa) = 22.77737 37.60661 30.19199
#
# Velocity S-wave (km/s) = 3.04269 3.90965 3.50309
# Velocity P-wave (km/s) = 6.69712 7.30733 7.00887
#
# Compressibility (1/GPa) = 0.01250342
#
# Stress axis : x y z
#
# Youngs Moduli (GPa) = 106.71962 105.58145 80.07562
#
# Poissons Ratio (x) = 0.20453 0.36518
# Poissons Ratio (y) = 0.20673 0.23347
# Poissons Ratio (z) = 0.48669 0.30784
#
# Static dielectric constant tensor:
#      x y z
#    x 4.786750 0.000000 -0.016960 
#    y 0.000000 4.721970 0.000000 
#    z -0.016960 0.000000 4.092690 
# 
# 
# High freq. dielectric constant tensor:
#      x y z
#    x 2.001680 0.000000 -0.003650 
#    y 0.000000 1.990970 0.000000 
#    z -0.003650 0.000000 1.961910 
# 
# From -- ./inp_files/76595.got.cif
#   From: 2010.06.25/outbox.cif.g09.slc.cpg/sg15_39_cif.got.tgz:76595.got - 2010.06.28 07:06:18.
