data_PCOD8150247
_publ_section_title
;
Structure prediction by ZEFSAII (Michael W. Deem and Ramdas Pophale) SiO2 
 PCOD8150247
Probable space group: C 2/C
;
_chemical_formula_sum "Si O2"
_cell_formula_units_Z 36
_cell_length_a 7.802285
_cell_length_b 26.051497
_cell_length_c 8.313812
_cell_angle_alpha 90.000000
_cell_angle_beta 78.111181
_cell_angle_gamma 90.000000
_cell_volume 1653.626270
_symmetry_space_group_name_H-M "C 2/C"
_symmetry_group_IT_number 15
_symmetry_cell_setting 'monoclinic'
loop_
_space_group_symop_operation_xyz
x,y,z
-x,y,1/2-z
-x,-y,-z
x,-y,1/2+z
1/2+x,1/2+y,z
1/2-x,1/2+y,1/2-z
1/2-x,1/2-y,-z
1/2+x,1/2-y,1/2+z
loop_
_atom_site_type_symbol
_atom_site_label
_atom_site_fract_x
_atom_site_fract_y
_atom_site_fract_z
Si Si1 0.434558 0.385635 0.084566
Si Si2 0.275407 0.073038 0.417268
Si Si3 0.691871 0.029136 0.749728
Si Si4 0.000000 0.343946 0.750000
Si Si5 0.184215 0.797594 0.616745
O O1 0.500000 0.367501 0.250000
O O2 0.325060 0.438118 0.116854
O O3 0.594260 0.396702 0.933393
O O4 0.326970 0.341770 0.015430
O O5 0.268388 0.037499 0.573146
O O6 0.424259 0.116838 0.399012
O O7 0.296553 0.032537 0.268784
O O8 0.500000 0.049927 0.750000
O O9 0.841953 0.309885 0.710550
O O10 0.250000 0.750000 0.500000
O O11 0.000000 0.787785 0.750000
#
# Coordination Sequence:
#
# PCOD8150247 Si02
#       5
#     8   8   8   4   8
#     4  10  24  45  68 102 144 188 239 293 349 420
#     4  11  23  40  66 101 147 188 232 285 340 428
#     4  11  22  36  64 103 143 192 235 278 342 417
#     4  12  26  48  76 104 140 186 238 290 368 420
#     4  12  29  50  79 106 139 186 241 312 366 434
#
# _framework density 21.770337000000001
#
# number of rings (size 3 to 8) (size 9 to 14) (size 15 to 20)
#    0.000    0.889    3.333    2.667    4.667    5.333 
#    0.000    0.000    0.000    0.000    0.000    0.000 
#    0.000    0.000    0.000    0.000    0.000    0.000 
#
# Total GULP energy -223091.876864 kJ/mol
# GULP energy per Si atom -12393.993159 kJ/mol
# Density = 2.172079 g / cm^3
# Si number density = 21.770337 Si / 1000 Ang^3
#
#
#
# Elastic Constant Matrix: (Units=GPa)
#
#
# Indices 1 2 3 4 5 6 
#
# 1 148.2203 58.6200 43.9665 0.0000 -8.9168 0.0000
# 2 58.6200 121.9856 49.8877 0.0000 2.0067 0.0000
# 3 43.9665 49.8877 75.1890 0.0000 -12.7633 0.0000
# 4 0.0000 0.0000 0.0000 -20.7149 0.0000 7.0633
# 5 -8.9168 2.0067 -12.7633 0.0000 39.4664 0.0000
# 6 0.0000 0.0000 0.0000 7.0633 0.0000 28.2018
#
#
#
# Elastic Compliance Matrix: (Units=1/GPa)
#
#
# Indices 1 2 3 4 5 6 
#
# 1 0.008922 -0.003099 -0.002954 0.000000 0.001218 0.000000
# 2 -0.003099 0.012712 -0.007249 0.000000 -0.003691 0.000000
# 3 -0.002954 -0.007249 0.020935 0.000000 0.006472 0.000000
# 4 0.000000 0.000000 0.000000 -0.044476 0.000000 0.011139
# 5 0.001218 -0.003691 0.006472 0.000000 0.027894 0.000000
# 6 0.000000 0.000000 0.000000 0.011139 0.000000 0.032669
#
#
# Mechanical properties :
#
#
# Convention : Reuss Voigt Hill
#
# Bulk Modulus (GPa) = 62.63553 72.26038 67.44795
# Shear Modulus (GPa) = 55.19889 22.25205 38.72547
#
# Velocity S-wave (km/s) = 5.04085 3.20054 4.22218
# Velocity P-wave (km/s) = 7.91920 6.84997 7.40391
#
# Compressibility (1/GPa) = 0.01596538
#
# Stress axis : x y z
#
# Youngs Moduli (GPa) = 112.08229 78.66394 47.76670
#
# Poissons Ratio (x) = 0.24382 0.14110
# Poissons Ratio (y) = 0.34740 0.34625
# Poissons Ratio (z) = 0.33107 0.57021
#
# Static dielectric constant tensor:
#      x y z
#    x 12.467610 0.000000 -10.193610 
#    y 0.000000 4.018810 0.000000 
#    z -10.193610 0.000000 16.098820 
# 
# 
# High freq. dielectric constant tensor:
#      x y z
#    x 1.871990 0.000000 -0.012740 
#    y 0.000000 1.851290 0.000000 
#    z -0.012740 0.000000 1.857650 
# 
# From -- ./inp_files/23319.got.cif
#   From: 2010.06.25/outbox.cif.g09.slc.cpg/sg15_12_cif.got.tgz:23319.got - 2010.06.28 07:06:18.
