data_PCOD8150022
_publ_section_title
;
Structure prediction by ZEFSAII (Michael W. Deem and Ramdas Pophale) SiO2 
 PCOD8150022
Probable space group: C 2/C
;
_chemical_formula_sum "Si O2"
_cell_formula_units_Z 40
_cell_length_a 29.229035
_cell_length_b 14.795884
_cell_length_c 5.199918
_cell_angle_alpha 90.000000
_cell_angle_beta 52.200225
_cell_angle_gamma 90.000000
_cell_volume 1776.910331
_symmetry_space_group_name_H-M "C 2/C"
_symmetry_group_IT_number 15
_symmetry_cell_setting 'monoclinic'
loop_
_space_group_symop_operation_xyz
x,y,z
-x,y,1/2-z
-x,-y,-z
x,-y,1/2+z
1/2+x,1/2+y,z
1/2-x,1/2+y,1/2-z
1/2-x,1/2-y,-z
1/2+x,1/2-y,1/2+z
loop_
_atom_site_type_symbol
_atom_site_label
_atom_site_fract_x
_atom_site_fract_y
_atom_site_fract_z
Si Si1 0.275943 0.943790 0.296345
Si Si2 0.383853 0.841142 0.017116
Si Si3 0.500000 0.559556 0.250000
Si Si4 0.500000 0.937867 0.750000
Si Si5 0.112313 0.166973 0.768382
Si Si6 0.173894 0.821978 0.563054
O O1 0.344811 0.923558 0.047258
O O2 0.240561 0.849131 0.385655
O O3 0.259284 0.010780 0.123570
O O4 0.341555 0.785201 0.360803
O O5 0.442510 0.875725 0.949850
O O6 0.400085 0.774485 0.724994
O O7 0.500000 0.500000 0.500000
O O8 0.445489 0.623450 0.433028
O O9 0.500000 0.000000 0.500000
O O10 0.135045 0.126418 0.416769
O O11 0.159527 0.146903 0.824977
#
# Coordination Sequence:
#
# PCOD8150022 Si02
#       6
#     8   8   4   4   8   8
#     4  12  26  43  70 102 141 175 226 289 347 397
#     4  10  27  45  72  95 142 179 236 271 348 413
#     4  12  26  42  66  98 140 174 230 298 342 388
#     4  12  28  44  72 104 138 176 232 294 346 394
#     4  10  25  41  71  93 134 182 233 266 348 411
#     4  10  24  43  70  98 133 182 223 276 338 421
#
# _framework density 22.510984000000001
#
# number of rings (size 3 to 8) (size 9 to 14) (size 15 to 20)
#    1.200    0.000    0.000    4.200    8.400    5.600 
#    0.000    0.000    0.000    0.000    0.000    0.000 
#    0.000    0.000    0.000    0.000    0.000    0.000 
#
# Total GULP energy -247864.473341 kJ/mol
# GULP energy per Si atom -12393.223667 kJ/mol
# Density = 2.245975 g / cm^3
# Si number density = 22.510984 Si / 1000 Ang^3
#
#
#
# Elastic Constant Matrix: (Units=GPa)
#
#
# Indices 1 2 3 4 5 6 
#
# 1 171.2360 58.2641 58.1172 0.0000 -2.2746 0.0000
# 2 58.2641 86.9033 39.7308 0.0000 -8.4634 0.0000
# 3 58.1172 39.7308 89.0772 0.0000 16.3282 0.0000
# 4 0.0000 0.0000 0.0000 52.2976 0.0000 -10.7212
# 5 -2.2746 -8.4634 16.3282 0.0000 55.3764 0.0000
# 6 0.0000 0.0000 0.0000 -10.7212 0.0000 42.4587
#
#
#
# Elastic Compliance Matrix: (Units=1/GPa)
#
#
# Indices 1 2 3 4 5 6 
#
# 1 0.008506 -0.003756 -0.004052 0.000000 0.000970 0.000000
# 2 -0.003756 0.017174 -0.005986 0.000000 0.004236 0.000000
# 3 -0.004052 -0.005986 0.017695 0.000000 -0.006299 0.000000
# 4 0.000000 0.000000 0.000000 0.020165 0.000000 0.005092
# 5 0.000970 0.004236 -0.006299 0.000000 0.020603 0.000000
# 6 0.000000 0.000000 0.000000 0.005092 0.000000 0.024838
#
#
# Mechanical properties :
#
#
# Convention : Reuss Voigt Hill
#
# Bulk Modulus (GPa) = 63.34532 73.27119 68.30825
# Shear Modulus (GPa) = 35.25300 42.76685 39.00992
#
# Velocity S-wave (km/s) = 3.96161 4.36342 4.16736
# Velocity P-wave (km/s) = 7.00904 7.61615 7.31889
#
# Compressibility (1/GPa) = 0.01578649
#
# Stress axis : x y z
#
# Youngs Moduli (GPa) = 117.56354 58.22630 56.51391
#
# Poissons Ratio (x) = 0.21868 0.22901
# Poissons Ratio (y) = 0.44153 0.33831
# Poissons Ratio (z) = 0.47641 0.34856
#
# Static dielectric constant tensor:
#      x y z
#    x 4.065530 0.000000 -0.005730 
#    y 0.000000 3.853610 0.000000 
#    z -0.005730 0.000000 3.862100 
# 
# 
# High freq. dielectric constant tensor:
#      x y z
#    x 1.901570 0.000000 0.002950 
#    y 0.000000 1.876210 0.000000 
#    z 0.002950 0.000000 1.882380 
# 
# From -- ./inp_files/18102.got.cif
#   From: 2010.06.25/outbox.cif.g09.slc.cpg/sg15_10_cif.got.tgz:18102.got - 2010.06.28 07:06:18.
