data_PCOD8150547
_publ_section_title
;
Structure prediction by ZEFSAII (Michael W. Deem and Ramdas Pophale) SiO2 
 PCOD8150547
Probable space group: C 2/C
;
_chemical_formula_sum "Si O2"
_cell_formula_units_Z 52
_cell_length_a 12.509798
_cell_length_b 8.185772
_cell_length_c 25.554733
_cell_angle_alpha 90.000000
_cell_angle_beta 60.928519
_cell_angle_gamma 90.000000
_cell_volume 2287.176982
_symmetry_space_group_name_H-M "C 2/C"
_symmetry_group_IT_number 15
_symmetry_cell_setting 'monoclinic'
loop_
_space_group_symop_operation_xyz
x,y,z
-x,y,1/2-z
-x,-y,-z
x,-y,1/2+z
1/2+x,1/2+y,z
1/2-x,1/2+y,1/2-z
1/2-x,1/2-y,-z
1/2+x,1/2-y,1/2+z
loop_
_atom_site_type_symbol
_atom_site_label
_atom_site_fract_x
_atom_site_fract_y
_atom_site_fract_z
Si Si1 0.687796 0.288824 0.213358
Si Si2 0.403813 0.227939 0.848389
Si Si3 0.000000 0.021660 0.250000
Si Si4 0.805445 0.982126 0.067208
Si Si5 0.397664 0.235130 0.384640
Si Si6 0.457146 0.439216 0.931270
Si Si7 0.897429 0.484113 0.694940
O O1 0.587776 0.408259 0.265538
O O2 0.637365 0.271913 0.166894
O O3 0.817331 0.380857 0.183405
O O4 0.686821 0.114069 0.243105
O O5 0.405412 0.376438 0.807537
O O6 0.266879 0.159615 0.884536
O O7 0.445508 0.285512 0.895917
O O8 0.495134 0.090248 0.803530
O O9 0.900437 0.053953 0.086811
O O10 0.711352 0.119154 0.068138
O O11 0.876733 0.902979 0.001711
O O12 0.405424 0.396793 0.417186
O O13 0.529207 0.143069 0.359475
#
# Coordination Sequence:
#
# PCOD8150547 Si02
#       7
#     8   8   4   8   8   8   8
#     4  12  23  44  62  97 137 179 224 274 323 408
#     4  11  24  43  65  97 136 175 222 276 332 403
#     4  12  24  40  64  96 134 180 214 272 334 392
#     4  10  25  41  72  96 133 175 224 281 334 397
#     4  11  23  42  65  97 134 171 224 280 328 399
#     4  11  22  46  68 100 129 177 226 277 341 388
#     4  11  25  40  65  94 133 181 222 265 335 394
#
# _framework density 22.735451999999999
#
# number of rings (size 3 to 8) (size 9 to 14) (size 15 to 20)
#    0.000    0.923    3.077    2.769    6.462    1.231 
#    0.000    0.000    0.000   10.154    0.000    0.000 
#    0.000    0.000    0.000    0.000    0.000    0.000 
#
# Total GULP energy -322288.497282 kJ/mol
# GULP energy per Si atom -12395.711434 kJ/mol
# Density = 2.268370 g / cm^3
# Si number density = 22.735452 Si / 1000 Ang^3
#
#
#
# Elastic Constant Matrix: (Units=GPa)
#
#
# Indices 1 2 3 4 5 6 
#
# 1 103.6408 30.3804 44.7988 0.0000 -23.3928 0.0000
# 2 30.3804 94.2022 29.0935 0.0000 -12.7337 0.0000
# 3 44.7988 29.0935 71.9406 0.0000 -13.7992 0.0000
# 4 0.0000 0.0000 0.0000 33.2236 0.0000 -6.0238
# 5 -23.3928 -12.7337 -13.7992 0.0000 31.5000 0.0000
# 6 0.0000 0.0000 0.0000 -6.0238 0.0000 35.9794
#
#
#
# Elastic Compliance Matrix: (Units=1/GPa)
#
#
# Indices 1 2 3 4 5 6 
#
# 1 0.014873 -0.001585 -0.007233 0.000000 0.007236 0.000000
# 2 -0.001585 0.012566 -0.003653 0.000000 0.002303 0.000000
# 3 -0.007233 -0.003653 0.020272 0.000000 0.002032 0.000000
# 4 0.000000 0.000000 0.000000 0.031041 0.000000 0.005197
# 5 0.007236 0.002303 0.002032 0.000000 0.038941 0.000000
# 6 0.000000 0.000000 0.000000 0.005197 0.000000 0.028664
#
#
# Mechanical properties :
#
#
# Convention : Reuss Voigt Hill
#
# Bulk Modulus (GPa) = 43.91960 53.14767 48.53364
# Shear Modulus (GPa) = 27.95049 31.17466 29.56258
#
# Velocity S-wave (km/s) = 3.51005 3.70698 3.60986
# Velocity P-wave (km/s) = 5.98222 6.46139 6.22641
#
# Compressibility (1/GPa) = 0.02276888
#
# Stress axis : x y z
#
# Youngs Moduli (GPa) = 67.23675 79.57933 49.33000
#
# Poissons Ratio (x) = 0.12610 0.35679
# Poissons Ratio (y) = 0.10654 0.18022
# Poissons Ratio (z) = 0.48631 0.29074
#
# Static dielectric constant tensor:
#      x y z
#    x 4.097320 0.000000 -0.305380 
#    y 0.000000 4.404990 0.000000 
#    z -0.305380 0.000000 4.000280 
# 
# 
# High freq. dielectric constant tensor:
#      x y z
#    x 1.894340 0.000000 -0.022300 
#    y 0.000000 1.912320 0.000000 
#    z -0.022300 0.000000 1.886510 
# 
# From -- ./inp_files/291465.got.cif
#   From: 2010.06.25/outbox.cif.g09.slc.cpg/sg15_146_cif.got.tgz:291465.got - 2010.06.28 07:06:18.
