data_PCOD8150426
_publ_section_title
;
Structure prediction by ZEFSAII (Michael W. Deem and Ramdas Pophale) SiO2 
 PCOD8150426
Probable space group: C 2/C
;
_chemical_formula_sum "Si O2"
_cell_formula_units_Z 48
_cell_length_a 8.091715
_cell_length_b 25.436302
_cell_length_c 14.934844
_cell_angle_alpha 90.000000
_cell_angle_beta 139.764402
_cell_angle_gamma 90.000000
_cell_volume 1985.555891
_symmetry_space_group_name_H-M "C 2/C"
_symmetry_group_IT_number 15
_symmetry_cell_setting 'monoclinic'
loop_
_space_group_symop_operation_xyz
x,y,z
-x,y,1/2-z
-x,-y,-z
x,-y,1/2+z
1/2+x,1/2+y,z
1/2-x,1/2+y,1/2-z
1/2-x,1/2-y,-z
1/2+x,1/2-y,1/2+z
loop_
_atom_site_type_symbol
_atom_site_label
_atom_site_fract_x
_atom_site_fract_y
_atom_site_fract_z
Si Si1 0.769331 0.555772 0.382648
Si Si2 0.982020 0.355180 0.145163
Si Si3 0.551661 0.144487 0.411211
Si Si4 0.407319 0.658042 0.405045
Si Si5 0.790943 0.728390 0.892502
Si Si6 0.459704 0.029352 0.835788
O O1 0.500000 0.583712 0.250000
O O2 0.794977 0.531554 0.493621
O O3 0.002423 0.598247 0.464105
O O4 0.767608 0.509919 0.305988
O O5 0.138653 0.410379 0.211510
O O6 0.000000 0.329329 0.250000
O O7 0.116260 0.315096 0.137186
O O8 0.683780 0.366587 0.995523
O O9 0.763554 0.126236 0.425925
O O10 0.273742 0.155906 0.255589
O O11 0.663142 0.200210 0.493065
O O12 0.456189 0.718769 0.453136
O O13 0.500000 0.743347 0.750000
O O14 0.500000 0.008581 0.750000
#
# Coordination Sequence:
#
# PCOD8150426 Si02
#       6
#     8   8   8   8   8   8
#     4  11  24  47  72 104 140 183 238 293 355 429
#     4  11  24  44  66 100 136 181 232 282 346 414
#     4  11  24  43  70  98 137 181 233 287 352 411
#     4  11  25  43  67 100 137 184 231 283 352 416
#     4  12  24  43  67  98 138 181 229 290 341 416
#     4  10  24  47  67 103 138 179 236 286 359 418
#
# _framework density 24.174590999999999
#
# number of rings (size 3 to 8) (size 9 to 14) (size 15 to 20)
#    0.000    1.000    3.333    3.000    4.667    1.333 
#   12.000    0.000    0.000    0.000    0.000    0.000 
#    0.000    0.000    0.000    0.000    0.000    0.000 
#
# Total GULP energy -297404.164348 kJ/mol
# GULP energy per Si atom -12391.840181 kJ/mol
# Density = 2.411957 g / cm^3
# Si number density = 24.174591 Si / 1000 Ang^3
#
#
#
# Elastic Constant Matrix: (Units=GPa)
#
#
# Indices 1 2 3 4 5 6 
#
# 1 38.0959 23.9633 -7.4748 0.0000 -15.7586 0.0000
# 2 23.9633 90.3515 -7.1762 0.0000 6.4249 0.0000
# 3 -7.4748 -7.1762 81.7281 0.0000 -21.9867 0.0000
# 4 0.0000 0.0000 0.0000 6.3859 0.0000 20.0867
# 5 -15.7586 6.4249 -21.9867 0.0000 44.8810 0.0000
# 6 0.0000 0.0000 0.0000 20.0867 0.0000 13.5099
#
#
#
# Elastic Compliance Matrix: (Units=1/GPa)
#
#
# Indices 1 2 3 4 5 6 
#
# 1 0.045246 -0.012862 0.008959 0.000000 0.022117 0.000000
# 2 -0.012862 0.014866 -0.001910 0.000000 -0.007580 0.000000
# 3 0.008959 -0.001910 0.015903 0.000000 0.011210 0.000000
# 4 0.000000 0.000000 0.000000 -0.042591 0.000000 0.063325
# 5 0.022117 -0.007580 0.011210 0.000000 0.036623 0.000000
# 6 0.000000 0.000000 0.000000 0.063325 0.000000 -0.020132
#
#
# Mechanical properties :
#
#
# Convention : Reuss Voigt Hill
#
# Bulk Modulus (GPa) = 15.53037 25.42224 20.47631
# Shear Modulus (GPa) = 60.23719 26.34624 43.29172
#
# Velocity S-wave (km/s) = 4.99716 3.30484 4.23637
# Velocity P-wave (km/s) = 6.30347 5.01015 5.69365
#
# Compressibility (1/GPa) = 0.06438997
#
# Stress axis : x y z
#
# Youngs Moduli (GPa) = 22.10125 67.26602 62.88122
#
# Poissons Ratio (x) = 0.86514 -0.56334
# Poissons Ratio (y) = 0.28426 0.12011
# Poissons Ratio (z) = -0.19800 0.12848
#
# Static dielectric constant tensor:
#      x y z
#    x 4.332460 0.000000 -0.410130 
#    y 0.000000 4.432450 0.000000 
#    z -0.410130 0.000000 4.579200 
# 
# 
# High freq. dielectric constant tensor:
#      x y z
#    x 1.952620 0.000000 -0.030080 
#    y 0.000000 1.964160 0.000000 
#    z -0.030080 0.000000 1.962870 
# 
# From -- ./inp_files/139002.got.cif
#   From: 2010.06.25/outbox.cif.g09.slc.cpg/sg15_70_cif.got.tgz:139002.got - 2010.06.28 07:06:18.
