data_PCOD8150173
_publ_section_title
;
Structure prediction by ZEFSAII (Michael W. Deem and Ramdas Pophale) SiO2 
 PCOD8150173
Probable space group: C 2/C
;
_chemical_formula_sum "Si O2"
_cell_formula_units_Z 36
_cell_length_a 18.651093
_cell_length_b 11.107640
_cell_length_c 14.687798
_cell_angle_alpha 90.000000
_cell_angle_beta 31.080592
_cell_angle_gamma 90.000000
_cell_volume 1570.858850
_symmetry_space_group_name_H-M "C 2/C"
_symmetry_group_IT_number 15
_symmetry_cell_setting 'monoclinic'
loop_
_space_group_symop_operation_xyz
x,y,z
-x,y,1/2-z
-x,-y,-z
x,-y,1/2+z
1/2+x,1/2+y,z
1/2-x,1/2+y,1/2-z
1/2-x,1/2-y,-z
1/2+x,1/2-y,1/2+z
loop_
_atom_site_type_symbol
_atom_site_label
_atom_site_fract_x
_atom_site_fract_y
_atom_site_fract_z
Si Si1 0.653333 0.954466 0.584960
Si Si2 0.643625 0.460280 0.973958
Si Si3 0.000000 0.776771 0.250000
Si Si4 0.764613 0.379761 0.655039
Si Si5 0.499046 0.296004 0.859422
O O1 0.500000 0.016929 0.750000
O O2 0.635292 0.809412 0.614186
O O3 0.746728 0.997458 0.567171
O O4 0.728741 0.995902 0.410137
O O5 0.727446 0.409000 0.798280
O O6 0.530149 0.361918 0.130801
O O7 0.561183 0.579188 0.035439
O O8 0.655399 0.287171 0.727856
O O9 0.913265 0.314721 0.493538
O O10 0.500000 0.294802 0.750000
#
# Coordination Sequence:
#
# PCOD8150173 Si02
#       5
#     8   8   4   8   8
#     4  10  25  44  71  99 145 182 233 286 348 409
#     4  12  25  46  72 101 142 186 236 284 348 413
#     4  10  24  44  70  94 142 186 232 280 346 408
#     4  12  28  44  74 108 137 185 237 283 352 414
#     4  12  26  47  72 100 148 181 229 293 351 409
#
# _framework density 22.917400000000001
#
# number of rings (size 3 to 8) (size 9 to 14) (size 15 to 20)
#    0.667    0.000    3.333    2.667    9.333    0.889 
#    0.000    0.000    0.000    0.000    0.000    0.000 
#    0.000    0.000    0.000    0.000    0.000    0.000 
#
# Total GULP energy -223177.461235 kJ/mol
# GULP energy per Si atom -12398.747846 kJ/mol
# Density = 2.286524 g / cm^3
# Si number density = 22.917400 Si / 1000 Ang^3
#
#
#
# Elastic Constant Matrix: (Units=GPa)
#
#
# Indices 1 2 3 4 5 6 
#
# 1 62.1450 13.0609 33.4534 0.0000 8.6744 0.0000
# 2 13.0609 89.6039 54.8251 0.0000 13.0103 0.0000
# 3 33.4534 54.8251 140.6553 0.0000 32.5921 0.0000
# 4 0.0000 0.0000 0.0000 36.0603 0.0000 -3.1629
# 5 8.6744 13.0103 32.5921 0.0000 51.6137 0.0000
# 6 0.0000 0.0000 0.0000 -3.1629 0.0000 19.4782
#
#
#
# Elastic Compliance Matrix: (Units=1/GPa)
#
#
# Indices 1 2 3 4 5 6 
#
# 1 0.018461 -0.000004 -0.004300 0.000000 -0.000387 0.000000
# 2 -0.000004 0.014656 -0.005688 0.000000 -0.000102 0.000000
# 3 -0.004300 -0.005688 0.011538 0.000000 -0.005129 0.000000
# 4 0.000000 0.000000 0.000000 0.028132 0.000000 0.004568
# 5 -0.000387 -0.000102 -0.005129 0.000000 0.022704 0.000000
# 6 0.000000 0.000000 0.000000 0.004568 0.000000 0.052081
#
#
# Mechanical properties :
#
#
# Convention : Reuss Voigt Hill
#
# Bulk Modulus (GPa) = 40.53319 55.00922 47.77121
# Shear Modulus (GPa) = 28.44480 34.16809 31.30644
#
# Velocity S-wave (km/s) = 3.52687 3.86544 3.70003
# Velocity P-wave (km/s) = 5.85749 6.63155 6.25650
#
# Compressibility (1/GPa) = 0.02467114
#
# Stress axis : x y z
#
# Youngs Moduli (GPa) = 54.16911 68.23187 86.67134
#
# Poissons Ratio (x) = 0.00028 0.37265
# Poissons Ratio (y) = 0.00022 0.49299
# Poissons Ratio (z) = 0.23290 0.38811
#
# Static dielectric constant tensor:
#      x y z
#    x 3.874840 0.000000 -0.180460 
#    y 0.000000 4.098700 0.000000 
#    z -0.180460 0.000000 4.280190 
# 
# 
# High freq. dielectric constant tensor:
#      x y z
#    x 1.891460 0.000000 -0.012320 
#    y 0.000000 1.906970 0.000000 
#    z -0.012320 0.000000 1.921430 
# 
# From -- ./inp_files/167477.got.cif
#   From: 2010.06.25/outbox.cif.g09.slc.cpg/sg15_84_cif.got.tgz:167477.got - 2010.06.28 07:06:18.
