data_PCOD8150088
_publ_section_title
;
Structure prediction by ZEFSAII (Michael W. Deem and Ramdas Pophale) SiO2 
 PCOD8150088
Probable space group: C 2/C
;
_chemical_formula_sum "Si O2"
_cell_formula_units_Z 52
_cell_length_a 12.948877
_cell_length_b 14.953016
_cell_length_c 12.377228
_cell_angle_alpha 90.000000
_cell_angle_beta 108.152440
_cell_angle_gamma 90.000000
_cell_volume 2277.264538
_symmetry_space_group_name_H-M "C 2/C"
_symmetry_group_IT_number 15
_symmetry_cell_setting 'monoclinic'
loop_
_space_group_symop_operation_xyz
x,y,z
-x,y,1/2-z
-x,-y,-z
x,-y,1/2+z
1/2+x,1/2+y,z
1/2-x,1/2+y,1/2-z
1/2-x,1/2-y,-z
1/2+x,1/2-y,1/2+z
loop_
_atom_site_type_symbol
_atom_site_label
_atom_site_fract_x
_atom_site_fract_y
_atom_site_fract_z
Si Si1 0.666187 0.955138 0.512475
Si Si2 0.741062 0.836134 0.354975
Si Si3 0.005691 0.781826 0.050592
Si Si4 0.601703 0.675800 0.208332
Si Si5 0.003136 0.592783 0.375066
Si Si6 0.700372 0.493078 0.269104
Si Si7 0.500000 0.613403 0.750000
O O1 0.697781 0.862571 0.461664
O O2 0.610508 0.941488 0.613023
O O3 0.593517 0.016272 0.412576
O O4 0.770605 0.008529 0.592340
O O5 0.863410 0.798094 0.404316
O O6 0.662233 0.763815 0.273771
O O7 0.726351 0.929479 0.283987
O O8 0.971922 0.678244 0.043432
O O9 0.950387 0.825715 0.138207
O O10 0.947950 0.816318 0.925916
O O11 0.500000 0.650636 0.250000
O O12 0.690305 0.596442 0.228726
O O13 0.000000 0.621350 0.250000
O O14 0.584336 0.448953 0.218149
#
# Coordination Sequence:
#
# PCOD8150088 Si02
#       7
#     8   8   8   8   8   8   4
#     4  11  24  42  68  97 141 176 226 287 339 403
#     4  11  26  44  68 106 137 177 235 282 339 412
#     4  11  24  45  71  97 141 177 230 286 342 404
#     4  12  25  44  72 101 137 185 229 280 347 405
#     4  11  23  43  68  99 133 183 225 281 346 406
#     4  11  24  43  66 102 136 179 229 278 344 409
#     4  10  24  44  66 100 132 180 226 286 334 420
#
# _framework density 22.834412
#
# number of rings (size 3 to 8) (size 9 to 14) (size 15 to 20)
#    0.000    0.923    1.538    4.615    2.154    6.154 
#    0.000    2.308    0.000    0.000    0.000    0.000 
#    0.000    0.000    0.000    0.000    0.000    0.000 
#
# Total GULP energy -322199.731797 kJ/mol
# GULP energy per Si atom -12392.297377 kJ/mol
# Density = 2.278244 g / cm^3
# Si number density = 22.834412 Si / 1000 Ang^3
#
#
#
# Elastic Constant Matrix: (Units=GPa)
#
#
# Indices 1 2 3 4 5 6 
#
# 1 56.4217 37.5807 33.9819 0.0000 0.3058 0.0000
# 2 37.5807 122.0458 25.4919 0.0000 -4.8148 0.0000
# 3 33.9819 25.4919 126.8040 0.0000 -4.1260 0.0000
# 4 0.0000 0.0000 0.0000 16.0057 0.0000 -11.7693
# 5 0.3058 -4.8148 -4.1260 0.0000 32.7392 0.0000
# 6 0.0000 0.0000 0.0000 -11.7693 0.0000 29.0085
#
#
#
# Elastic Compliance Matrix: (Units=1/GPa)
#
#
# Indices 1 2 3 4 5 6 
#
# 1 0.025613 -0.006802 -0.005560 0.000000 -0.001940 0.000000
# 2 -0.006802 0.010395 -0.000216 0.000000 0.001565 0.000000
# 3 -0.005560 -0.000216 0.009459 0.000000 0.001212 0.000000
# 4 0.000000 0.000000 0.000000 0.089042 0.000000 0.036126
# 5 -0.001940 0.001565 0.001212 0.000000 0.030946 0.000000
# 6 0.000000 0.000000 0.000000 0.036126 0.000000 0.049129
#
#
# Mechanical properties :
#
#
# Convention : Reuss Voigt Hill
#
# Bulk Modulus (GPa) = 49.23272 55.48673 52.35972
# Shear Modulus (GPa) = 20.28309 29.43181 24.85745
#
# Velocity S-wave (km/s) = 2.98362 3.59405 3.30297
# Velocity P-wave (km/s) = 5.78592 6.44789 6.12585
#
# Compressibility (1/GPa) = 0.02031170
#
# Stress axis : x y z
#
# Youngs Moduli (GPa) = 39.04192 96.19954 105.71964
#
# Poissons Ratio (x) = 0.65437 0.58777
# Poissons Ratio (y) = 0.26557 0.02283
# Poissons Ratio (z) = 0.21706 0.02077
#
# Static dielectric constant tensor:
#      x y z
#    x 4.238150 0.000000 -0.143970 
#    y 0.000000 4.296090 0.000000 
#    z -0.143970 0.000000 4.282590 
# 
# 
# High freq. dielectric constant tensor:
#      x y z
#    x 1.895650 0.000000 -0.001940 
#    y 0.000000 1.915450 0.000000 
#    z -0.001940 0.000000 1.911290 
# 
# From -- ./inp_files/97113.got.cif
#   From: 2010.06.25/outbox.cif.g09.slc.cpg/sg15_49_cif.got.tgz:97113.got - 2010.06.28 07:06:18.
