data_PCOD8150950
_publ_section_title
;
Structure prediction by ZEFSAII (Michael W. Deem and Ramdas Pophale) SiO2 
 PCOD8150950
Probable space group: C 2/C
;
_chemical_formula_sum "Si O2"
_cell_formula_units_Z 48
_cell_length_a 8.705429
_cell_length_b 16.533062
_cell_length_c 24.897189
_cell_angle_alpha 90.000000
_cell_angle_beta 128.794062
_cell_angle_gamma 90.000000
_cell_volume 2792.902701
_symmetry_space_group_name_H-M "C 2/C"
_symmetry_group_IT_number 15
_symmetry_cell_setting 'monoclinic'
loop_
_space_group_symop_operation_xyz
x,y,z
-x,y,1/2-z
-x,-y,-z
x,-y,1/2+z
1/2+x,1/2+y,z
1/2-x,1/2+y,1/2-z
1/2-x,1/2-y,-z
1/2+x,1/2-y,1/2+z
loop_
_atom_site_type_symbol
_atom_site_label
_atom_site_fract_x
_atom_site_fract_y
_atom_site_fract_z
Si Si1 0.462364 0.074686 0.418566
Si Si2 0.302018 0.660459 0.449578
Si Si3 0.643024 0.100247 0.573877
Si Si4 0.451555 0.745462 0.076494
Si Si5 0.168394 0.786246 0.830154
Si Si6 0.030129 0.815318 0.405582
O O1 0.653900 0.083210 0.420985
O O2 0.522221 0.102956 0.491528
O O3 0.288551 0.130617 0.358678
O O4 0.384549 0.983506 0.401030
O O5 0.415995 0.670901 0.418148
O O6 0.170737 0.738572 0.431658
O O7 0.467726 0.653803 0.532368
O O8 0.563380 0.169790 0.595073
O O9 0.876875 0.115257 0.612792
O O10 0.427054 0.729680 0.133388
O O11 0.250000 0.750000 0.000000
O O12 0.307358 0.710694 0.842559
O O13 0.000000 0.796388 0.750000
#
# Coordination Sequence:
#
# PCOD8150950 Si02
#       6
#     8   8   8   8   8   8
#     4   9  17  33  51  79 105 133 170 215 273 311
#     4   8  14  27  51  71  99 129 168 216 249 300
#     4   9  17  31  57  78 101 131 177 222 256 315
#     4  11  17  31  52  78 100 132 181 223 255 301
#     4  11  21  33  50  74 107 138 173 217 270 319
#     4   8  14  29  48  72  97 134 168 204 253 302
#
# _framework density 17.186419999999998
#
# number of rings (size 3 to 8) (size 9 to 14) (size 15 to 20)
#    0.000    2.667    3.333    2.000    0.000    0.000 
#    0.000   11.667    0.000    0.000    0.000    0.000 
#    0.000    0.000    0.000    0.000    0.000    0.000 
#
# Total GULP energy -297395.022046 kJ/mol
# GULP energy per Si atom -12391.459252 kJ/mol
# Density = 1.714730 g / cm^3
# Si number density = 17.186420 Si / 1000 Ang^3
#
#
#
# Elastic Constant Matrix: (Units=GPa)
#
#
# Indices 1 2 3 4 5 6 
#
# 1 124.5754 58.0948 54.0567 0.0000 1.1993 0.0000
# 2 58.0948 94.5229 34.1039 0.0000 5.9911 0.0000
# 3 54.0567 34.1039 98.1894 0.0000 7.9299 0.0000
# 4 0.0000 0.0000 0.0000 14.3506 0.0000 2.3574
# 5 1.1993 5.9911 7.9299 0.0000 21.1007 0.0000
# 6 0.0000 0.0000 0.0000 2.3574 0.0000 34.4283
#
#
#
# Elastic Compliance Matrix: (Units=1/GPa)
#
#
# Indices 1 2 3 4 5 6 
#
# 1 0.013329 -0.006459 -0.005343 0.000000 0.003085 0.000000
# 2 -0.006459 0.015301 -0.001482 0.000000 -0.003420 0.000000
# 3 -0.005343 -0.001482 0.014008 0.000000 -0.004540 0.000000
# 4 0.000000 0.000000 0.000000 0.070476 0.000000 -0.004826
# 5 0.003085 -0.003420 -0.004540 0.000000 0.049894 0.000000
# 6 0.000000 0.000000 0.000000 -0.004826 0.000000 0.029376
#
#
# Mechanical properties :
#
#
# Convention : Reuss Voigt Hill
#
# Bulk Modulus (GPa) = 62.23855 67.75537 64.99696
# Shear Modulus (GPa) = 22.29067 25.37807 23.83437
#
# Velocity S-wave (km/s) = 3.60529 3.84687 3.72804
# Velocity P-wave (km/s) = 7.32279 7.69679 7.51212
#
# Compressibility (1/GPa) = 0.01606721
#
# Stress axis : x y z
#
# Youngs Moduli (GPa) = 75.02697 65.35504 71.39028
#
# Poissons Ratio (x) = 0.42216 0.38147
# Poissons Ratio (y) = 0.48464 0.10581
# Poissons Ratio (z) = 0.40090 0.09686
#
# Static dielectric constant tensor:
#      x y z
#    x 5.504910 0.000000 -1.890030 
#    y 0.000000 3.245930 0.000000 
#    z -1.890030 0.000000 4.828060 
# 
# 
# High freq. dielectric constant tensor:
#      x y z
#    x 1.677340 0.000000 0.006060 
#    y 0.000000 1.644480 0.000000 
#    z 0.006060 0.000000 1.616380 
# 
# From -- ./inp_files/189783.got.cif
#   From: 2010.06.25/outbox.cif.g09.slc.cpg/sg15_95_cif.got.tgz:189783.got - 2010.06.28 07:06:18.
