data_PCOD8150329
_publ_section_title
;
Structure prediction by ZEFSAII (Michael W. Deem and Ramdas Pophale) SiO2 
 PCOD8150329
Probable space group: C 2/C
;
_chemical_formula_sum "Si O2"
_cell_formula_units_Z 56
_cell_length_a 11.167031
_cell_length_b 8.924094
_cell_length_c 28.328035
_cell_angle_alpha 90.000000
_cell_angle_beta 70.673477
_cell_angle_gamma 90.000000
_cell_volume 2663.963459
_symmetry_space_group_name_H-M "C 2/C"
_symmetry_group_IT_number 15
_symmetry_cell_setting 'monoclinic'
loop_
_space_group_symop_operation_xyz
x,y,z
-x,y,1/2-z
-x,-y,-z
x,-y,1/2+z
1/2+x,1/2+y,z
1/2-x,1/2+y,1/2-z
1/2-x,1/2-y,-z
1/2+x,1/2-y,1/2+z
loop_
_atom_site_type_symbol
_atom_site_label
_atom_site_fract_x
_atom_site_fract_y
_atom_site_fract_z
Si Si1 0.422059 0.369577 0.303801
Si Si2 0.680747 0.934328 0.838491
Si Si3 0.546399 0.995167 0.569266
Si Si4 0.362778 0.056265 0.265017
Si Si5 0.854633 0.111087 0.654168
Si Si6 0.008475 0.748640 0.499188
Si Si7 0.170306 0.009792 0.440708
O O1 0.500000 0.441910 0.250000
O O2 0.305207 0.471964 0.333783
O O3 0.370289 0.206834 0.295327
O O4 0.511273 0.360963 0.337841
O O5 0.662699 0.903292 0.785624
O O6 0.695903 0.769729 0.859492
O O7 0.561559 0.020115 0.877171
O O8 0.551787 0.136378 0.534171
O O9 0.678511 0.983464 0.579175
O O10 0.521010 0.841422 0.544626
O O11 0.500000 0.973014 0.250000
O O12 0.249918 0.951422 0.296344
O O13 0.876045 0.000463 0.607483
O O14 0.120969 0.867851 0.477016
O O15 0.881352 0.836025 0.530798
#
# Coordination Sequence:
#
# PCOD8150329 Si02
#       7
#     8   8   8   8   8   8   8
#     4  11  24  45  65  92 139 172 216 270 318 388
#     4  12  23  42  66  97 132 172 215 266 328 387
#     4  11  24  44  68 100 133 169 219 278 329 389
#     4  11  22  43  67  92 132 172 213 271 320 387
#     4  12  25  43  65  99 132 173 219 268 325 392
#     4  10  24  46  67  98 131 172 220 273 336 383
#     4  11  24  44  70  97 131 174 222 268 329 398
#
# _framework density 21.021308999999999
#
# number of rings (size 3 to 8) (size 9 to 14) (size 15 to 20)
#    0.000    0.857    5.714    1.714    2.000    1.714 
#   12.857    0.000    0.000    0.000    0.000    0.000 
#    0.000    0.000    0.000    0.000    0.000    0.000 
#
# Total GULP energy -347291.874581 kJ/mol
# GULP energy per Si atom -12403.281235 kJ/mol
# Density = 2.097346 g / cm^3
# Si number density = 21.021309 Si / 1000 Ang^3
#
#
#
# Elastic Constant Matrix: (Units=GPa)
#
#
# Indices 1 2 3 4 5 6 
#
# 1 117.2161 28.5028 32.3981 0.0000 -11.8530 0.0000
# 2 28.5028 52.3952 15.3523 0.0000 -1.5569 0.0000
# 3 32.3981 15.3523 91.8591 0.0000 -7.9621 0.0000
# 4 0.0000 0.0000 0.0000 18.9619 0.0000 -5.8294
# 5 -11.8530 -1.5569 -7.9621 0.0000 41.6668 0.0000
# 6 0.0000 0.0000 0.0000 -5.8294 0.0000 21.5904
#
#
#
# Elastic Compliance Matrix: (Units=1/GPa)
#
#
# Indices 1 2 3 4 5 6 
#
# 1 0.010736 -0.004964 -0.002754 0.000000 0.002342 0.000000
# 2 -0.004964 0.022364 -0.002071 0.000000 -0.000972 0.000000
# 3 -0.002754 -0.002071 0.012333 0.000000 0.001496 0.000000
# 4 0.000000 0.000000 0.000000 0.057511 0.000000 0.015528
# 5 0.002342 -0.000972 0.001496 0.000000 0.024916 0.000000
# 6 0.000000 0.000000 0.000000 0.015528 0.000000 0.050509
#
#
# Mechanical properties :
#
#
# Convention : Reuss Voigt Hill
#
# Bulk Modulus (GPa) = 38.67646 45.99742 42.33694
# Shear Modulus (GPa) = 24.20522 28.79163 26.49842
#
# Velocity S-wave (km/s) = 3.39700 3.70488 3.55428
# Velocity P-wave (km/s) = 5.81591 6.34274 6.08503
#
# Compressibility (1/GPa) = 0.02585552
#
# Stress axis : x y z
#
# Youngs Moduli (GPa) = 93.14126 44.71447 81.08076
#
# Poissons Ratio (x) = 0.22196 0.22330
# Poissons Ratio (y) = 0.46235 0.16793
# Poissons Ratio (z) = 0.25651 0.09261
#
# Static dielectric constant tensor:
#      x y z
#    x 3.723550 0.000000 -0.100560 
#    y 0.000000 3.862390 0.000000 
#    z -0.100560 0.000000 3.915780 
# 
# 
# High freq. dielectric constant tensor:
#      x y z
#    x 1.823420 0.000000 -0.005310 
#    y 0.000000 1.821900 0.000000 
#    z -0.005310 0.000000 1.836900 
# 
# From -- ./inp_files/310241.got.cif
#   From: 2010.06.25/outbox.cif.g09.slc.cpg/sg15_156_cif.got.tgz:310241.got - 2010.06.28 07:06:18.
