data_PCOD8150216
_publ_section_title
;
Structure prediction by ZEFSAII (Michael W. Deem and Ramdas Pophale) SiO2 
 PCOD8150216
Probable space group: C 2/C
;
_chemical_formula_sum "Si O2"
_cell_formula_units_Z 44
_cell_length_a 20.923946
_cell_length_b 10.097505
_cell_length_c 9.605203
_cell_angle_alpha 90.000000
_cell_angle_beta 62.027870
_cell_angle_gamma 90.000000
_cell_volume 1792.302871
_symmetry_space_group_name_H-M "C 2/C"
_symmetry_group_IT_number 15
_symmetry_cell_setting 'monoclinic'
loop_
_space_group_symop_operation_xyz
x,y,z
-x,y,1/2-z
-x,-y,-z
x,-y,1/2+z
1/2+x,1/2+y,z
1/2-x,1/2+y,1/2-z
1/2-x,1/2-y,-z
1/2+x,1/2-y,1/2+z
loop_
_atom_site_type_symbol
_atom_site_label
_atom_site_fract_x
_atom_site_fract_y
_atom_site_fract_z
Si Si1 0.106864 0.319447 0.332162
Si Si2 0.688194 0.419700 0.667104
Si Si3 0.216471 0.460007 0.668288
Si Si4 0.000000 0.556250 0.750000
Si Si5 0.598100 0.815131 0.646106
Si Si6 0.043790 0.934270 0.331377
O O1 0.146484 0.218869 0.185493
O O2 0.153910 0.451368 0.300817
O O3 0.101352 0.246363 0.489285
O O4 0.027033 0.352402 0.351119
O O5 0.736393 0.402708 0.755117
O O6 0.735156 0.452546 0.484521
O O7 0.628309 0.532424 0.749727
O O8 0.178407 0.336477 0.627533
O O9 0.066537 0.460930 0.642285
O O10 0.547860 0.727196 0.802992
O O11 0.000000 0.999559 0.250000
O O12 0.000000 0.000000 0.500000
#
# Coordination Sequence:
#
# PCOD8150216 Si02
#       6
#     8   8   8   4   8   8
#     4  11  24  45  73 112 154 197 258 316 380 457
#     4  12  26  45  72 105 157 192 255 318 381 459
#     4  11  25  47  73 110 145 204 255 312 386 445
#     4  10  24  44  76 112 150 200 256 310 388 444
#     4  11  23  48  79 105 153 196 261 320 374 464
#     4  12  27  50  75 111 149 202 256 311 393 451
#
# _framework density 24.549422
#
# number of rings (size 3 to 8) (size 9 to 14) (size 15 to 20)
#    0.000    0.727    2.727    4.364    3.818    1.455 
#    6.545    0.000    0.000    0.000    0.000    0.000 
#    0.000    0.000    0.000    0.000    0.000    0.000 
#
# Total GULP energy -272681.608407 kJ/mol
# GULP energy per Si atom -12394.618564 kJ/mol
# Density = 2.449355 g / cm^3
# Si number density = 24.549422 Si / 1000 Ang^3
#
#
#
# Elastic Constant Matrix: (Units=GPa)
#
#
# Indices 1 2 3 4 5 6 
#
# 1 152.6971 32.0257 34.5523 0.0000 12.9134 0.0000
# 2 32.0257 96.1451 27.3492 0.0000 4.2820 0.0000
# 3 34.5523 27.3492 121.4573 0.0000 1.4664 0.0000
# 4 0.0000 0.0000 0.0000 37.7517 0.0000 -7.4026
# 5 12.9134 4.2820 1.4664 0.0000 38.9073 0.0000
# 6 0.0000 0.0000 0.0000 -7.4026 0.0000 26.0293
#
#
#
# Elastic Compliance Matrix: (Units=1/GPa)
#
#
# Indices 1 2 3 4 5 6 
#
# 1 0.007521 -0.001929 -0.001678 0.000000 -0.002221 0.000000
# 2 -0.001929 0.011657 -0.002069 0.000000 -0.000565 0.000000
# 3 -0.001678 -0.002069 0.009172 0.000000 0.000439 0.000000
# 4 0.000000 0.000000 0.000000 0.028053 0.000000 0.007978
# 5 -0.002221 -0.000565 0.000439 0.000000 0.026485 0.000000
# 6 0.000000 0.000000 0.000000 0.007978 0.000000 0.040687
#
#
# Mechanical properties :
#
#
# Convention : Reuss Voigt Hill
#
# Bulk Modulus (GPa) = 58.83605 62.01712 60.42658
# Shear Modulus (GPa) = 35.56338 38.96247 37.26292
#
# Velocity S-wave (km/s) = 3.81023 3.98817 3.90022
# Velocity P-wave (km/s) = 6.58601 6.82087 6.70447
#
# Compressibility (1/GPa) = 0.01699638
#
# Stress axis : x y z
#
# Youngs Moduli (GPa) = 132.95976 85.78340 109.03334
#
# Poissons Ratio (x) = 0.16547 0.18301
# Poissons Ratio (y) = 0.25647 0.22563
# Poissons Ratio (z) = 0.22317 0.17752
#
# Static dielectric constant tensor:
#      x y z
#    x 4.683210 0.000000 0.049370 
#    y 0.000000 4.332340 0.000000 
#    z 0.049370 0.000000 4.271190 
# 
# 
# High freq. dielectric constant tensor:
#      x y z
#    x 2.004150 0.000000 -0.000550 
#    y 0.000000 1.966930 0.000000 
#    z -0.000550 0.000000 1.965120 
# 
# From -- ./inp_files/54353.got.cif
#   From: 2010.06.25/outbox.cif.g09.slc.cpg/sg15_28_cif.got.tgz:54353.got - 2010.06.28 07:06:18.
