data_PCOD8150516
_publ_section_title
;
Structure prediction by ZEFSAII (Michael W. Deem and Ramdas Pophale) SiO2 
 PCOD8150516
Probable space group: C 2/C
;
_chemical_formula_sum "Si O2"
_cell_formula_units_Z 52
_cell_length_a 15.847906
_cell_length_b 26.292047
_cell_length_c 8.840926
_cell_angle_alpha 90.000000
_cell_angle_beta 140.336660
_cell_angle_gamma 90.000000
_cell_volume 2351.268067
_symmetry_space_group_name_H-M "C 2/C"
_symmetry_group_IT_number 15
_symmetry_cell_setting 'monoclinic'
loop_
_space_group_symop_operation_xyz
x,y,z
-x,y,1/2-z
-x,-y,-z
x,-y,1/2+z
1/2+x,1/2+y,z
1/2-x,1/2+y,1/2-z
1/2-x,1/2-y,-z
1/2+x,1/2-y,1/2+z
loop_
_atom_site_type_symbol
_atom_site_label
_atom_site_fract_x
_atom_site_fract_y
_atom_site_fract_z
Si Si1 0.904610 0.431931 0.834417
Si Si2 0.867611 0.146495 0.163735
Si Si3 0.866560 0.349731 0.373622
Si Si4 0.038797 0.751265 0.642854
Si Si5 0.500000 0.985033 0.250000
Si Si6 0.812990 0.198853 0.642269
Si Si7 0.129565 0.115191 0.996496
O O1 0.759805 0.410567 0.613148
O O2 0.907609 0.479865 0.726708
O O3 0.915433 0.449016 0.023707
O O4 0.017792 0.390905 0.947661
O O5 0.876314 0.115074 0.330655
O O6 0.000000 0.135966 0.250000
O O7 0.845722 0.206962 0.168728
O O8 0.736147 0.129211 0.893079
O O9 0.792150 0.340590 0.429240
O O10 0.926380 0.294363 0.418962
O O11 0.922079 0.787381 0.417716
O O12 0.000000 0.726319 0.750000
O O13 0.750000 0.250000 0.500000
O O14 0.874220 0.172199 0.578997
O O15 0.000000 0.086440 0.750000
#
# Coordination Sequence:
#
# PCOD8150516 Si02
#       7
#     8   8   8   8   4   8   8
#     4  11  25  45  75 101 126 170 212 286 347 414
#     4  11  22  41  60  91 138 189 223 272 313 372
#     4  12  24  40  67  95 131 181 241 264 325 408
#     4  11  23  38  56  91 140 189 227 268 311 365
#     4  10  24  50  72 102 132 148 214 290 364 414
#     4  12  25  38  59  94 141 191 226 280 317 364
#     4  12  24  42  67  98 136 172 226 270 331 398
#
# _framework density 22.115728000000001
#
# number of rings (size 3 to 8) (size 9 to 14) (size 15 to 20)
#    0.000    0.615    4.615    4.154    5.385    1.231 
#    0.000    0.769    0.000    3.692    0.000    0.000 
#    0.000    0.000    0.000    0.000    0.000    0.000 
#
# Total GULP energy -322385.780355 kJ/mol
# GULP energy per Si atom -12399.453091 kJ/mol
# Density = 2.206539 g / cm^3
# Si number density = 22.115728 Si / 1000 Ang^3
#
#
#
# Elastic Constant Matrix: (Units=GPa)
#
#
# Indices 1 2 3 4 5 6 
#
# 1 103.2363 23.9367 53.8080 0.0000 1.3391 0.0000
# 2 23.9367 56.6329 31.6487 0.0000 11.1994 0.0000
# 3 53.8080 31.6487 120.5016 0.0000 10.3134 0.0000
# 4 0.0000 0.0000 0.0000 23.3417 0.0000 -10.2526
# 5 1.3391 11.1994 10.3134 0.0000 46.6773 0.0000
# 6 0.0000 0.0000 0.0000 -10.2526 0.0000 22.6174
#
#
#
# Elastic Compliance Matrix: (Units=1/GPa)
#
#
# Indices 1 2 3 4 5 6 
#
# 1 0.013045 -0.002905 -0.005188 0.000000 0.001469 0.000000
# 2 -0.002905 0.022039 -0.004124 0.000000 -0.004293 0.000000
# 3 -0.005188 -0.004124 0.011824 0.000000 -0.001474 0.000000
# 4 0.000000 0.000000 0.000000 0.053493 0.000000 0.024248
# 5 0.001469 -0.004293 -0.001474 0.000000 0.022737 0.000000
# 6 0.000000 0.000000 0.000000 0.024248 0.000000 0.055206
#
#
# Mechanical properties :
#
#
# Convention : Reuss Voigt Hill
#
# Bulk Modulus (GPa) = 44.49315 55.46196 49.97756
# Shear Modulus (GPa) = 23.77908 29.92577 26.85243
#
# Velocity S-wave (km/s) = 3.28260 3.68250 3.48829
# Velocity P-wave (km/s) = 5.87616 6.57371 6.23470
#
# Compressibility (1/GPa) = 0.02247537
#
# Stress axis : x y z
#
# Youngs Moduli (GPa) = 76.65804 45.37416 84.57092
#
# Poissons Ratio (x) = 0.13181 0.43873
# Poissons Ratio (y) = 0.22269 0.34875
# Poissons Ratio (z) = 0.39768 0.18711
#
# Static dielectric constant tensor:
#      x y z
#    x 4.148110 0.000000 -0.228880 
#    y 0.000000 3.277930 0.000000 
#    z -0.228880 0.000000 5.578200 
# 
# 
# High freq. dielectric constant tensor:
#      x y z
#    x 1.882960 0.000000 -0.011160 
#    y 0.000000 1.834250 0.000000 
#    z -0.011160 0.000000 1.889860 
# 
# From -- ./inp_files/52237.got.cif
#   From: 2010.06.25/outbox.cif.g09.slc.cpg/sg15_27_cif.got.tgz:52237.got - 2010.06.28 07:06:18.
