data_PCOD8150422
_publ_section_title
;
Structure prediction by ZEFSAII (Michael W. Deem and Ramdas Pophale) SiO2 
 PCOD8150422
Probable space group: C 2/C
;
_chemical_formula_sum "Si O2"
_cell_formula_units_Z 64
_cell_length_a 14.320896
_cell_length_b 13.269754
_cell_length_c 17.962822
_cell_angle_alpha 90.000000
_cell_angle_beta 123.678872
_cell_angle_gamma 90.000000
_cell_volume 2840.624113
_symmetry_space_group_name_H-M "C 2/C"
_symmetry_group_IT_number 15
_symmetry_cell_setting 'monoclinic'
loop_
_space_group_symop_operation_xyz
x,y,z
-x,y,1/2-z
-x,-y,-z
x,-y,1/2+z
1/2+x,1/2+y,z
1/2-x,1/2+y,1/2-z
1/2-x,1/2-y,-z
1/2+x,1/2-y,1/2+z
loop_
_atom_site_type_symbol
_atom_site_label
_atom_site_fract_x
_atom_site_fract_y
_atom_site_fract_z
Si Si1 0.882450 0.846215 0.538240
Si Si2 0.616222 0.348512 0.321102
Si Si3 0.317601 0.928521 0.801006
Si Si4 0.956252 0.368541 0.654845
Si Si5 0.301363 0.159277 0.791107
Si Si6 0.732474 0.721765 0.371953
Si Si7 0.369906 0.648435 0.392137
Si Si8 0.275817 0.443737 0.993405
O O1 0.844645 0.764286 0.460584
O O2 0.868335 0.795427 0.613564
O O3 0.007687 0.888839 0.579968
O O4 0.799152 0.939590 0.490427
O O5 0.500000 0.405153 0.250000
O O6 0.590615 0.241954 0.348087
O O7 0.675163 0.335315 0.267110
O O8 0.691699 0.415214 0.408393
O O9 0.433633 0.865860 0.848131
O O10 0.259290 0.888615 0.850236
O O11 0.231733 0.907363 0.695301
O O12 0.347899 0.046338 0.816342
O O13 0.857384 0.432051 0.574055
O O14 0.000000 0.422118 0.750000
O O15 0.307063 0.201287 0.709814
O O16 0.372575 0.231561 0.877617
O O17 0.348333 0.626568 0.469439
#
# Coordination Sequence:
#
# PCOD8150422 Si02
#       8
#     8   8   8   8   8   8   8   8
#     4  11  26  43  69 101 138 192 235 288 362 421
#     4  11  24  41  70 103 140 185 235 299 366 414
#     4  11  24  43  71 103 139 188 239 290 362 434
#     4  11  22  44  68 100 145 181 233 293 356 428
#     4  11  24  44  68 101 138 185 235 291 363 424
#     4  10  24  47  65  95 148 179 235 294 351 432
#     4  11  24  43  67 103 141 182 238 293 353 423
#     4  12  24  43  71 107 142 183 242 291 354 433
#
# _framework density 22.530259999999998
#
# number of rings (size 3 to 8) (size 9 to 14) (size 15 to 20)
#    0.000    1.000    2.500    4.500    5.250    4.000 
#    0.000    1.875    0.000    0.000    0.000    0.000 
#    0.000    0.000    0.000    0.000    0.000    0.000 
#
# Total GULP energy -396783.920948 kJ/mol
# GULP energy per Si atom -12399.497530 kJ/mol
# Density = 2.247898 g / cm^3
# Si number density = 22.530260 Si / 1000 Ang^3
#
#
#
# Elastic Constant Matrix: (Units=GPa)
#
#
# Indices 1 2 3 4 5 6 
#
# 1 105.9940 2.6426 35.2787 0.0000 5.9799 0.0000
# 2 2.6426 99.9903 26.0418 0.0000 -8.0515 0.0000
# 3 35.2787 26.0418 111.8866 0.0000 5.6319 0.0000
# 4 0.0000 0.0000 0.0000 24.8736 0.0000 -0.9926
# 5 5.9799 -8.0515 5.6319 0.0000 47.0958 0.0000
# 6 0.0000 0.0000 0.0000 -0.9926 0.0000 26.1645
#
#
#
# Elastic Compliance Matrix: (Units=1/GPa)
#
#
# Indices 1 2 3 4 5 6 
#
# 1 0.010610 0.000545 -0.003430 0.000000 -0.000844 0.000000
# 2 0.000545 0.010891 -0.002814 0.000000 0.002129 0.000000
# 3 -0.003430 -0.002814 0.010741 0.000000 -0.001330 0.000000
# 4 0.000000 0.000000 0.000000 0.040264 0.000000 0.001528
# 5 -0.000844 0.002129 -0.001330 0.000000 0.021864 0.000000
# 6 0.000000 0.000000 0.000000 0.001528 0.000000 0.038278
#
#
# Mechanical properties :
#
#
# Convention : Reuss Voigt Hill
#
# Bulk Modulus (GPa) = 47.97450 49.53301 48.75376
# Shear Modulus (GPa) = 33.11414 36.55397 34.83406
#
# Velocity S-wave (km/s) = 3.83791 4.03232 3.93631
# Velocity P-wave (km/s) = 6.40148 6.61153 6.50735
#
# Compressibility (1/GPa) = 0.02084441
#
# Stress axis : x y z
#
# Youngs Moduli (GPa) = 94.24997 91.82008 93.10177
#
# Poissons Ratio (x) = -0.05003 0.31932
# Poissons Ratio (y) = -0.05136 0.26198
# Poissons Ratio (z) = 0.32326 0.25837
#
# Static dielectric constant tensor:
#      x y z
#    x 4.161410 0.000000 -0.071760 
#    y 0.000000 3.959440 0.000000 
#    z -0.071760 0.000000 4.067520 
# 
# 
# High freq. dielectric constant tensor:
#      x y z
#    x 1.895400 0.000000 -0.006650 
#    y 0.000000 1.882990 0.000000 
#    z -0.006650 0.000000 1.883450 
# 
# From -- ./inp_files/205745.got.cif
#   From: 2010.06.25/outbox.cif.g09.slc.cpg/sg15_103_cif.got.tgz:205745.got - 2010.06.28 07:06:18.
