data_PCOD8150310
_publ_section_title
;
Structure prediction by ZEFSAII (Michael W. Deem and Ramdas Pophale) SiO2 
 PCOD8150310
Probable space group: C 2/C
;
_chemical_formula_sum "Si O2"
_cell_formula_units_Z 44
_cell_length_a 23.626052
_cell_length_b 5.022538
_cell_length_c 17.040653
_cell_angle_alpha 90.000000
_cell_angle_beta 67.957338
_cell_angle_gamma 90.000000
_cell_volume 1874.285258
_symmetry_space_group_name_H-M "C 2/C"
_symmetry_group_IT_number 15
_symmetry_cell_setting 'monoclinic'
loop_
_space_group_symop_operation_xyz
x,y,z
-x,y,1/2-z
-x,-y,-z
x,-y,1/2+z
1/2+x,1/2+y,z
1/2-x,1/2+y,1/2-z
1/2-x,1/2-y,-z
1/2+x,1/2-y,1/2+z
loop_
_atom_site_type_symbol
_atom_site_label
_atom_site_fract_x
_atom_site_fract_y
_atom_site_fract_z
Si Si1 0.227383 0.950640 0.076876
Si Si2 0.616896 0.168364 0.172014
Si Si3 0.434288 0.860292 0.167399
Si Si4 0.437075 0.614330 0.564054
Si Si5 0.846932 0.652542 0.988439
Si Si6 0.500000 0.543460 0.250000
O O1 0.181958 0.805293 0.161660
O O2 0.185963 0.179717 0.061487
O O3 0.250000 0.750000 0.000000
O O4 0.292516 0.057142 0.077172
O O5 0.560027 0.365491 0.211601
O O6 0.610848 0.926964 0.236992
O O7 0.618886 0.079210 0.079224
O O8 0.404812 0.625554 0.129516
O O9 0.495633 0.734188 0.175223
O O10 0.450195 0.124012 0.109611
O O11 0.500000 0.500000 0.500000
O O12 0.394928 0.681913 0.512927
#
# Coordination Sequence:
#
# PCOD8150310 Si02
#       6
#     8   8   8   8   8   4
#     4   9  21  44  77 104 135 199 255 307 357 455
#     4  11  24  44  79 106 146 196 257 309 371 458
#     4  12  28  47  71 109 153 196 247 305 382 449
#     4  12  30  47  72 113 157 197 239 318 387 450
#     4  10  24  45  78 105 150 193 259 303 376 449
#     4  12  26  44  76 108 148 192 246 304 372 462
#
# _framework density 23.475614
#
# number of rings (size 3 to 8) (size 9 to 14) (size 15 to 20)
#    0.000    1.091    1.818    2.182   12.727    0.000 
#    0.000    0.000   16.000    0.000    0.000    0.000 
#    0.000    0.000    0.000    0.000    0.000    0.000 
#
# Total GULP energy -272558.592169 kJ/mol
# GULP energy per Si atom -12389.026917 kJ/mol
# Density = 2.342218 g / cm^3
# Si number density = 23.475614 Si / 1000 Ang^3
#
#
#
# Elastic Constant Matrix: (Units=GPa)
#
#
# Indices 1 2 3 4 5 6 
#
# 1 126.7124 52.4736 69.3503 0.0003 -17.9733 0.0019
# 2 52.4736 146.5097 58.8010 -0.0036 -8.8117 -0.0090
# 3 69.3503 58.8010 116.8543 0.0010 -14.2971 0.0021
# 4 0.0003 -0.0036 0.0010 48.6686 -0.0009 1.4309
# 5 -17.9733 -8.8117 -14.2971 -0.0009 35.2161 -0.0032
# 6 0.0019 -0.0090 0.0021 1.4309 -0.0032 40.0879
#
#
#
# Elastic Compliance Matrix: (Units=1/GPa)
#
#
# Indices 1 2 3 4 5 6 
#
# 1 0.012445 -0.001823 -0.006047 0.000000 0.003440 0.000000
# 2 -0.001823 0.008826 -0.003370 0.000001 -0.000090 0.000002
# 3 -0.006047 -0.003370 0.014060 0.000000 0.001779 -0.000001
# 4 0.000000 0.000001 0.000000 0.020569 0.000000 -0.000734
# 5 0.003440 -0.000090 0.001779 0.000000 0.030851 0.000002
# 6 0.000000 0.000002 -0.000001 -0.000734 0.000002 0.024971
#
#
# Mechanical properties :
#
#
# Convention : Reuss Voigt Hill
#
# Bulk Modulus (GPa) = 77.82623 83.48068 80.65345
# Shear Modulus (GPa) = 36.10488 38.75795 37.43141
#
# Velocity S-wave (km/s) = 3.92596 4.06764 3.99743
# Velocity P-wave (km/s) = 7.33313 7.59597 7.46570
#
# Compressibility (1/GPa) = 0.01284914
#
# Stress axis : x y z
#
# Youngs Moduli (GPa) = 80.35672 113.30667 71.12392
#
# Poissons Ratio (x) = 0.20658 0.43010
# Poissons Ratio (y) = 0.14650 0.23969
# Poissons Ratio (z) = 0.48593 0.38185
#
# Static dielectric constant tensor:
#      x y z
#    x 4.590390 0.000000 -0.450310 
#    y 0.000000 4.563430 -0.000020 
#    z -0.450310 -0.000020 4.482820 
# 
# 
# High freq. dielectric constant tensor:
#      x y z
#    x 1.907910 0.000000 -0.025680 
#    y 0.000000 1.960950 0.000000 
#    z -0.025680 0.000000 1.918060 
# 
# From -- ./inp_files/212853.got.cif
#   From: 2010.06.25/outbox.cif.g09.slc.cpg/sg15_107_cif.got.tgz:212853.got - 2010.06.28 07:06:18.
