data_PCOD8150509
_publ_section_title
;
Structure prediction by ZEFSAII (Michael W. Deem and Ramdas Pophale) SiO2 
 PCOD8150509
Probable space group: C 2/C
;
_chemical_formula_sum "Si O2"
_cell_formula_units_Z 56
_cell_length_a 25.851671
_cell_length_b 13.433727
_cell_length_c 10.354227
_cell_angle_alpha 90.000000
_cell_angle_beta 33.501942
_cell_angle_gamma 90.000000
_cell_volume 1984.789970
_symmetry_space_group_name_H-M "C 2/C"
_symmetry_group_IT_number 15
_symmetry_cell_setting 'monoclinic'
loop_
_space_group_symop_operation_xyz
x,y,z
-x,y,1/2-z
-x,-y,-z
x,-y,1/2+z
1/2+x,1/2+y,z
1/2-x,1/2+y,1/2-z
1/2-x,1/2-y,-z
1/2+x,1/2-y,1/2+z
loop_
_atom_site_type_symbol
_atom_site_label
_atom_site_fract_x
_atom_site_fract_y
_atom_site_fract_z
Si Si1 0.000000 0.548311 0.250000
Si Si2 0.500000 0.540328 0.750000
Si Si3 0.244453 0.408042 0.955407
Si Si4 0.376405 0.722269 0.332580
Si Si5 0.342862 0.337690 0.432664
Si Si6 0.545804 0.172062 0.380597
Si Si7 0.156152 0.087380 0.849847
Si Si8 0.668290 0.051783 0.319230
O O1 0.978246 0.613702 0.422737
O O2 0.903365 0.487516 0.420509
O O3 0.570430 0.601371 0.692127
O O4 0.557775 0.468686 0.534245
O O5 0.335685 0.338349 0.793793
O O6 0.266104 0.495493 0.800868
O O7 0.162502 0.335366 0.077856
O O8 0.223772 0.462419 0.134159
O O9 0.350016 0.662147 0.516838
O O10 0.487564 0.740058 0.076760
O O11 0.371575 0.222053 0.380009
O O12 0.320836 0.354608 0.327547
O O13 0.244421 0.363773 0.709848
O O14 0.591524 0.097857 0.384129
#
# Coordination Sequence:
#
# PCOD8150509 Si02
#       8
#     4   4   8   8   8   8   8   8
#     4  12  27  50  79 106 166 226 270 333 425 486
#     4  12  23  46  77 114 160 212 264 343 415 496
#     4  10  24  49  75 119 163 217 282 334 415 504
#     4  11  24  48  80 117 169 217 276 345 414 503
#     4  11  26  48  76 119 160 209 277 343 413 496
#     4  12  26  51  76 120 162 214 279 346 408 499
#     4  11  23  45  78 116 160 213 270 341 418 483
#     4  11  26  51  76 118 160 215 274 348 412 491
#
# _framework density 28.214573000000001
#
# number of rings (size 3 to 8) (size 9 to 14) (size 15 to 20)
#    0.000    0.857    1.429    5.143    0.000    5.714 
#   10.286    1.429    0.000    0.000    0.000    0.000 
#    0.000    0.000    0.000    0.000    0.000    0.000 
#
# Total GULP energy -347055.338849 kJ/mol
# GULP energy per Si atom -12394.833530 kJ/mol
# Density = 2.815036 g / cm^3
# Si number density = 28.214573 Si / 1000 Ang^3
#
#
#
# Elastic Constant Matrix: (Units=GPa)
#
#
# Indices 1 2 3 4 5 6 
#
# 1 90.8036 30.0546 6.9643 0.0000 -6.1884 0.0000
# 2 30.0546 129.1155 46.4878 0.0000 0.2827 0.0000
# 3 6.9643 46.4878 125.0485 0.0000 -9.6505 0.0000
# 4 0.0000 0.0000 0.0000 54.8794 0.0000 11.2127
# 5 -6.1884 0.2827 -9.6505 0.0000 39.5703 0.0000
# 6 0.0000 0.0000 0.0000 11.2127 0.0000 38.6387
#
#
#
# Elastic Compliance Matrix: (Units=1/GPa)
#
#
# Indices 1 2 3 4 5 6 
#
# 1 0.012115 -0.003047 0.000618 0.000000 0.002067 0.000000
# 2 -0.003047 0.009739 -0.003560 0.000000 -0.001414 0.000000
# 3 0.000618 -0.003560 0.009474 0.000000 0.002432 0.000000
# 4 0.000000 0.000000 0.000000 0.019370 0.000000 -0.005621
# 5 0.002067 -0.001414 0.002432 0.000000 0.026198 0.000000
# 6 0.000000 0.000000 0.000000 -0.005621 0.000000 0.027512
#
#
# Mechanical properties :
#
#
# Convention : Reuss Voigt Hill
#
# Bulk Modulus (GPa) = 51.68288 56.88681 54.28485
# Shear Modulus (GPa) = 40.70459 44.04841 42.37650
#
# Velocity S-wave (km/s) = 3.80238 3.95548 3.87969
# Velocity P-wave (km/s) = 6.13474 6.40836 6.27304
#
# Compressibility (1/GPa) = 0.01934877
#
# Stress axis : x y z
#
# Youngs Moduli (GPa) = 82.54405 102.67872 105.55524
#
# Poissons Ratio (x) = 0.31285 -0.06518
# Poissons Ratio (y) = 0.25150 0.37578
# Poissons Ratio (z) = -0.05097 0.36554
#
# Static dielectric constant tensor:
#      x y z
#    x 4.882640 0.000000 -0.151850 
#    y 0.000000 5.443140 0.000000 
#    z -0.151850 0.000000 5.479520 
# 
# 
# High freq. dielectric constant tensor:
#      x y z
#    x 2.147140 0.000000 -0.005580 
#    y 0.000000 2.157240 0.000000 
#    z -0.005580 0.000000 2.153490 
# 
# From -- ./inp_files/127008.got.cif
#   From: 2010.06.25/outbox.cif.g09.slc.cpg/sg15_64_cif.got.tgz:127008.got - 2010.06.28 07:06:18.
