data_PCOD8150438
_publ_section_title
;
Structure prediction by ZEFSAII (Michael W. Deem and Ramdas Pophale) SiO2 
 PCOD8150438
Probable space group: C 2/C
;
_chemical_formula_sum "Si O2"
_cell_formula_units_Z 40
_cell_length_a 16.631036
_cell_length_b 8.173647
_cell_length_c 12.438837
_cell_angle_alpha 90.000000
_cell_angle_beta 99.380657
_cell_angle_gamma 90.000000
_cell_volume 1668.276613
_symmetry_space_group_name_H-M "C 2/C"
_symmetry_group_IT_number 15
_symmetry_cell_setting 'monoclinic'
loop_
_space_group_symop_operation_xyz
x,y,z
-x,y,1/2-z
-x,-y,-z
x,-y,1/2+z
1/2+x,1/2+y,z
1/2-x,1/2+y,1/2-z
1/2-x,1/2-y,-z
1/2+x,1/2-y,1/2+z
loop_
_atom_site_type_symbol
_atom_site_label
_atom_site_fract_x
_atom_site_fract_y
_atom_site_fract_z
Si Si1 0.343242 0.482610 0.743082
Si Si2 0.421864 0.918068 0.530503
Si Si3 0.218479 0.273940 0.112884
Si Si4 0.968084 0.863400 0.413234
Si Si5 0.156510 0.267061 0.447173
O O1 0.283990 0.625824 0.693686
O O2 0.297438 0.398039 0.832930
O O3 0.430000 0.557590 0.797664
O O4 0.364247 0.353960 0.654314
O O5 0.367273 0.867512 0.415767
O O6 0.455438 0.756648 0.601584
O O7 0.500000 0.000000 0.500000
O O8 0.369031 0.045598 0.592565
O O9 0.250000 0.250000 0.000000
O O10 0.895510 0.768580 0.457924
O O11 0.000000 0.000000 0.500000
O O12 0.250000 0.250000 0.500000
#
# Coordination Sequence:
#
# PCOD8150438 Si02
#       5
#     8   8   8   8   8
#     4  12  26  44  81 106 151 209 251 303 398 452
#     4  10  24  47  71 104 156 188 242 332 372 435
#     4  12  27  48  73 113 149 197 261 314 372 467
#     4  11  24  47  71 107 154 190 247 318 372 455
#     4  11  23  46  76 105 148 197 254 313 372 463
#
# _framework density 23.976838999999998
#
# number of rings (size 3 to 8) (size 9 to 14) (size 15 to 20)
#    0.000    0.800    4.000    2.400    5.600    0.800 
#    0.000    2.000    0.000    0.000    0.000    0.000 
#    0.000    0.000    0.000    0.000    0.000    0.000 
#
# Total GULP energy -247959.344733 kJ/mol
# GULP energy per Si atom -12397.967237 kJ/mol
# Density = 2.392227 g / cm^3
# Si number density = 23.976839 Si / 1000 Ang^3
#
#
#
# Elastic Constant Matrix: (Units=GPa)
#
#
# Indices 1 2 3 4 5 6 
#
# 1 148.0291 70.0879 51.1381 0.0000 37.8895 0.0000
# 2 70.0879 158.1438 53.8683 0.0000 37.6048 0.0000
# 3 51.1381 53.8683 116.9881 0.0000 36.9726 0.0000
# 4 0.0000 0.0000 0.0000 53.5811 0.0000 7.1803
# 5 37.8895 37.6048 36.9726 0.0000 57.2547 0.0000
# 6 0.0000 0.0000 0.0000 7.1803 0.0000 63.8459
#
#
#
# Elastic Compliance Matrix: (Units=1/GPa)
#
#
# Indices 1 2 3 4 5 6 
#
# 1 0.009575 -0.002835 -0.001842 0.000000 -0.003285 0.000000
# 2 -0.002835 0.008901 -0.002016 0.000000 -0.002668 0.000000
# 3 -0.001842 -0.002016 0.011908 0.000000 -0.005147 0.000000
# 4 0.000000 0.000000 0.000000 0.018949 0.000000 -0.002131
# 5 -0.003285 -0.002668 -0.005147 0.000000 0.024716 0.000000
# 6 0.000000 0.000000 0.000000 -0.002131 0.000000 0.015902
#
#
# Mechanical properties :
#
#
# Convention : Reuss Voigt Hill
#
# Bulk Modulus (GPa) = 58.83088 85.92775 72.37931
# Shear Modulus (GPa) = 45.87072 51.47412 48.67242
#
# Velocity S-wave (km/s) = 4.37867 4.63841 4.51041
# Velocity P-wave (km/s) = 7.08192 8.03754 7.57482
#
# Compressibility (1/GPa) = 0.01699788
#
# Stress axis : x y z
#
# Youngs Moduli (GPa) = 104.44084 112.34714 83.97871
#
# Poissons Ratio (x) = 0.31850 0.15467
# Poissons Ratio (y) = 0.29609 0.16931
# Poissons Ratio (z) = 0.19236 0.22650
#
# Static dielectric constant tensor:
#      x y z
#    x 5.199850 0.000000 0.191610 
#    y 0.000000 5.460310 0.000000 
#    z 0.191610 0.000000 3.563190 
# 
# 
# High freq. dielectric constant tensor:
#      x y z
#    x 1.974340 0.000000 0.017730 
#    y 0.000000 1.975010 0.000000 
#    z 0.017730 0.000000 1.929510 
# 
# From -- ./inp_files/102864.got.cif
#   From: 2010.06.25/outbox.cif.g09.slc.cpg/sg15_52_cif.got.tgz:102864.got - 2010.06.28 07:06:18.
