data_PCOD8150966
_publ_section_title
;
Structure prediction by ZEFSAII (Michael W. Deem and Ramdas Pophale) SiO2 
 PCOD8150966
Probable space group: C 2/C
;
_chemical_formula_sum "Si O2"
_cell_formula_units_Z 64
_cell_length_a 29.124378
_cell_length_b 14.310973
_cell_length_c 10.848587
_cell_angle_alpha 90.000000
_cell_angle_beta 131.759274
_cell_angle_gamma 90.000000
_cell_volume 3372.938898
_symmetry_space_group_name_H-M "C 2/C"
_symmetry_group_IT_number 15
_symmetry_cell_setting 'monoclinic'
loop_
_space_group_symop_operation_xyz
x,y,z
-x,y,1/2-z
-x,-y,-z
x,-y,1/2+z
1/2+x,1/2+y,z
1/2-x,1/2+y,1/2-z
1/2-x,1/2-y,-z
1/2+x,1/2-y,1/2+z
loop_
_atom_site_type_symbol
_atom_site_label
_atom_site_fract_x
_atom_site_fract_y
_atom_site_fract_z
Si Si1 0.635519 0.910462 0.956586
Si Si2 0.361898 0.601916 0.722258
Si Si3 0.071549 0.211009 0.854731
Si Si4 0.730280 0.347387 0.016874
Si Si5 0.260269 0.315052 0.192808
Si Si6 0.160977 0.490193 0.260306
Si Si7 0.355527 0.583406 0.324313
Si Si8 0.734321 0.395323 0.639519
O O1 0.596856 0.815283 0.884092
O O2 0.620205 0.977323 0.808505
O O3 0.708295 0.891831 0.069309
O O4 0.621914 0.953606 0.070206
O O5 0.417863 0.653483 0.753201
O O6 0.320283 0.679267 0.715385
O O7 0.386844 0.518514 0.855908
O O8 0.314690 0.555283 0.539695
O O9 0.000000 0.217920 0.750000
O O10 0.101962 0.154076 0.022645
O O11 0.713038 0.334385 0.126605
O O12 0.788512 0.416072 0.103885
O O13 0.750000 0.250000 0.000000
O O14 0.664136 0.373812 0.841030
O O15 0.226805 0.215982 0.117823
O O16 0.195901 0.579587 0.265127
O O17 0.288190 0.568882 0.267589
#
# Coordination Sequence:
#
# PCOD8150966 Si02
#       8
#     8   8   8   8   8   8   8   8
#     4  11  21  39  60  91 126 160 200 245 298 367
#     4  11  21  34  60  88 116 150 193 245 288 360
#     4  11  26  46  63  77 109 163 212 257 305 349
#     4  11  19  31  50  88 132 159 174 227 301 371
#     4  11  19  31  57  90 128 159 182 225 305 370
#     4  11  21  32  58  94 127 161 190 235 303 375
#     4  11  20  36  56  85 115 152 195 244 296 355
#     4  11  18  31  50  87 130 152 186 222 285 371
#
# _framework density 18.974551000000002
#
# number of rings (size 3 to 8) (size 9 to 14) (size 15 to 20)
#    0.000    1.000    6.250    4.125    1.750    0.500 
#    0.000    0.625    0.000    0.000    0.000    0.000 
#    0.000    0.000    0.000    0.000    0.000    0.000 
#
# Total GULP energy -396419.886336 kJ/mol
# GULP energy per Si atom -12388.121448 kJ/mol
# Density = 1.893136 g / cm^3
# Si number density = 18.974551 Si / 1000 Ang^3
#
#
#
# Elastic Constant Matrix: (Units=GPa)
#
#
# Indices 1 2 3 4 5 6 
#
# 1 107.3834 48.8477 49.4707 0.0000 -9.2060 0.0000
# 2 48.8477 103.8576 35.9338 0.0000 -13.6265 0.0000
# 3 49.4707 35.9338 61.4438 0.0000 -13.4157 0.0000
# 4 0.0000 0.0000 0.0000 21.1262 0.0000 -12.6775
# 5 -9.2060 -13.6265 -13.4157 0.0000 27.5863 0.0000
# 6 0.0000 0.0000 0.0000 -12.6775 0.0000 31.0649
#
#
#
# Elastic Compliance Matrix: (Units=1/GPa)
#
#
# Indices 1 2 3 4 5 6 
#
# 1 0.016026 -0.003991 -0.011000 0.000000 -0.001973 0.000000
# 2 -0.003991 0.013265 -0.003810 0.000000 0.003368 0.000000
# 3 -0.011000 -0.003810 0.029254 0.000000 0.008674 0.000000
# 4 0.000000 0.000000 0.000000 0.062686 0.000000 0.025582
# 5 -0.001973 0.003368 0.008674 0.000000 0.041474 0.000000
# 6 0.000000 0.000000 0.000000 0.025582 0.000000 0.042630
#
#
# Mechanical properties :
#
#
# Convention : Reuss Voigt Hill
#
# Bulk Modulus (GPa) = 47.74536 60.13213 53.93875
# Shear Modulus (GPa) = 20.00658 25.18432 22.59545
#
# Velocity S-wave (km/s) = 3.25066 3.64712 3.45458
# Velocity P-wave (km/s) = 6.26949 7.03527 6.66339
#
# Compressibility (1/GPa) = 0.02094444
#
# Stress axis : x y z
#
# Youngs Moduli (GPa) = 62.39727 75.38375 34.18378
#
# Poissons Ratio (x) = 0.30082 0.37603
# Poissons Ratio (y) = 0.24900 0.13023
# Poissons Ratio (z) = 0.68639 0.28718
#
# Static dielectric constant tensor:
#      x y z
#    x 3.509380 0.000000 -0.487950 
#    y 0.000000 3.650280 0.000000 
#    z -0.487950 0.000000 3.230960 
# 
# 
# High freq. dielectric constant tensor:
#      x y z
#    x 1.722420 0.000000 -0.048430 
#    y 0.000000 1.752530 0.000000 
#    z -0.048430 0.000000 1.701040 
# 
# From -- ./inp_files/126884.got.cif
#   From: 2010.06.25/outbox.cif.g09.slc.cpg/sg15_64_cif.got.tgz:126884.got - 2010.06.28 07:06:18.
