data_PCOD8150744
_publ_section_title
;
Structure prediction by ZEFSAII (Michael W. Deem and Ramdas Pophale) SiO2 
 PCOD8150744
Probable space group: C 2/C
;
_chemical_formula_sum "Si O2"
_cell_formula_units_Z 48
_cell_length_a 14.668644
_cell_length_b 26.284778
_cell_length_c 12.062440
_cell_angle_alpha 90.000000
_cell_angle_beta 28.900003
_cell_angle_gamma 90.000000
_cell_volume 2247.659156
_symmetry_space_group_name_H-M "C 2/C"
_symmetry_group_IT_number 15
_symmetry_cell_setting 'monoclinic'
loop_
_space_group_symop_operation_xyz
x,y,z
-x,y,1/2-z
-x,-y,-z
x,-y,1/2+z
1/2+x,1/2+y,z
1/2-x,1/2+y,1/2-z
1/2-x,1/2-y,-z
1/2+x,1/2-y,1/2+z
loop_
_atom_site_type_symbol
_atom_site_label
_atom_site_fract_x
_atom_site_fract_y
_atom_site_fract_z
Si Si1 0.390847 0.304822 0.475010
Si Si2 0.948019 0.627092 0.189332
Si Si3 0.744919 0.202056 0.797677
Si Si4 0.224019 0.084045 0.038129
Si Si5 0.286906 0.306559 0.000871
Si Si6 0.983520 0.551953 0.950916
O O1 0.500000 0.284869 0.250000
O O2 0.268644 0.354622 0.578258
O O3 0.255439 0.261713 0.670936
O O4 0.547677 0.320255 0.398436
O O5 0.000000 0.598308 0.250000
O O6 0.986834 0.594308 0.041223
O O7 0.085299 0.675771 0.040738
O O8 0.709723 0.192219 0.706867
O O9 0.299884 0.143212 0.966300
O O10 0.000000 0.077952 0.250000
O O11 0.291304 0.056826 0.081113
O O12 0.331945 0.057220 0.821669
O O13 0.500000 0.317611 0.750000
O O14 0.250000 0.250000 0.000000
O O15 0.000000 0.500000 0.000000
#
# Coordination Sequence:
#
# PCOD8150744 Si02
#       6
#     8   8   8   8   8   8
#     4  12  24  39  62  96 137 189 228 276 340 415
#     4  12  26  43  67  98 139 180 237 294 342 417
#     4  12  23  40  63  95 141 184 229 277 344 417
#     4  10  25  49  75 112 148 180 237 302 361 429
#     4  11  25  39  65 103 144 189 228 276 356 432
#     4  11  27  49  79 102 137 188 240 298 364 413
#
# _framework density 21.355550999999998
#
# number of rings (size 3 to 8) (size 9 to 14) (size 15 to 20)
#    0.000    0.667    5.000    2.000   11.667    0.667 
#    0.000    0.833    0.000    0.000    0.000    0.000 
#    0.000    0.000    0.000    0.000    0.000    0.000 
#
# Total GULP energy -297402.668145 kJ/mol
# GULP energy per Si atom -12391.777839 kJ/mol
# Density = 2.130694 g / cm^3
# Si number density = 21.355551 Si / 1000 Ang^3
#
#
#
# Elastic Constant Matrix: (Units=GPa)
#
#
# Indices 1 2 3 4 5 6 
#
# 1 154.4667 52.5844 47.7229 0.0006 -0.0320 -0.0009
# 2 52.5844 107.8233 25.0923 0.0002 0.1167 0.0003
# 3 47.7229 25.0923 91.8744 0.0064 -2.3421 0.0025
# 4 0.0006 0.0002 0.0064 25.9627 -0.0007 3.7830
# 5 -0.0320 0.1167 -2.3421 -0.0007 46.2603 -0.0019
# 6 -0.0009 0.0003 0.0025 3.7830 -0.0019 36.7982
#
#
#
# Elastic Compliance Matrix: (Units=1/GPa)
#
#
# Indices 1 2 3 4 5 6 
#
# 1 0.008759 -0.003430 -0.003617 0.000001 -0.000168 0.000000
# 2 -0.003430 0.011248 -0.001293 0.000000 -0.000096 0.000000
# 3 -0.003617 -0.001293 0.013133 -0.000003 0.000666 -0.000001
# 4 0.000001 0.000000 -0.000003 0.039103 0.000000 -0.004020
# 5 -0.000168 -0.000096 0.000666 0.000000 0.021651 0.000001
# 6 0.000000 0.000000 -0.000001 -0.004020 0.000001 0.027589
#
#
# Mechanical properties :
#
#
# Convention : Reuss Voigt Hill
#
# Bulk Modulus (GPa) = 60.75120 67.21817 63.98468
# Shear Modulus (GPa) = 34.80705 37.05523 35.93114
#
# Velocity S-wave (km/s) = 4.04156 4.17004 4.10630
# Velocity P-wave (km/s) = 7.09142 7.39795 7.24631
#
# Compressibility (1/GPa) = 0.01646058
#
# Stress axis : x y z
#
# Youngs Moduli (GPa) = 114.16856 88.90428 76.14120
#
# Poissons Ratio (x) = 0.30491 0.27543
# Poissons Ratio (y) = 0.39156 0.09845
# Poissons Ratio (z) = 0.41298 0.11495
#
# Static dielectric constant tensor:
#      x y z
#    x 4.263820 0.000110 0.036030 
#    y 0.000110 3.752850 0.000000 
#    z 0.036030 0.000000 3.859070 
# 
# 
# High freq. dielectric constant tensor:
#      x y z
#    x 1.850380 0.000000 0.004480 
#    y 0.000000 1.812750 0.000000 
#    z 0.004480 0.000000 1.851180 
# 
# From -- ./inp_files/101257.got.cif
#   From: 2010.06.25/outbox.cif.g09.slc.cpg/sg15_51_cif.got.tgz:101257.got - 2010.06.28 07:06:18.
