data_PCOD8150105
_publ_section_title
;
Structure prediction by ZEFSAII (Michael W. Deem and Ramdas Pophale) SiO2 
 PCOD8150105
Probable space group: C 2/C
;
_chemical_formula_sum "Si O2"
_cell_formula_units_Z 60
_cell_length_a 25.833577
_cell_length_b 10.785354
_cell_length_c 18.998108
_cell_angle_alpha 90.000000
_cell_angle_beta 149.076590
_cell_angle_gamma 90.000000
_cell_volume 2720.200946
_symmetry_space_group_name_H-M "C 2/C"
_symmetry_group_IT_number 15
_symmetry_cell_setting 'monoclinic'
loop_
_space_group_symop_operation_xyz
x,y,z
-x,y,1/2-z
-x,-y,-z
x,-y,1/2+z
1/2+x,1/2+y,z
1/2-x,1/2+y,1/2-z
1/2-x,1/2-y,-z
1/2+x,1/2-y,1/2+z
loop_
_atom_site_type_symbol
_atom_site_label
_atom_site_fract_x
_atom_site_fract_y
_atom_site_fract_z
Si Si1 0.143115 0.148170 0.809762
Si Si2 0.437119 0.177025 0.405323
Si Si3 0.353845 0.322394 0.434571
Si Si4 0.850732 0.289166 0.081196
Si Si5 0.500000 0.228344 0.250000
Si Si6 0.148427 0.435987 0.137605
Si Si7 0.648789 0.948701 0.977843
Si Si8 0.529142 0.424156 0.710630
O O1 0.110791 0.234338 0.708233
O O2 0.089158 0.194433 0.817511
O O3 0.263536 0.139240 0.952804
O O4 0.111953 0.002867 0.764749
O O5 0.418016 0.236424 0.458261
O O6 0.556712 0.162397 0.532020
O O7 0.379636 0.044554 0.339893
O O8 0.332680 0.249644 0.480564
O O9 0.250819 0.371302 0.281478
O O10 0.431380 0.431046 0.546385
O O11 0.937007 0.217136 0.227330
O O12 0.750000 0.250000 0.000000
O O13 0.869657 0.437009 0.098326
O O14 0.550575 0.138144 0.366714
O O15 0.168742 0.488084 0.082235
O O16 0.500000 0.492386 0.750000
#
# Coordination Sequence:
#
# PCOD8150105 Si02
#       8
#     8   8   8   8   4   8   8   8
#     4  12  24  47  71 103 141 184 237 292 367 428
#     4  11  25  44  71 101 144 191 238 292 355 433
#     4  11  25  43  72  99 141 182 235 300 347 418
#     4  11  24  44  71 105 139 181 238 294 357 435
#     4  12  28  44  68 104 142 184 238 298 348 436
#     4  11  25  46  67 105 145 190 245 291 356 430
#     4  12  25  45  73 101 140 193 237 295 364 424
#     4  10  24  44  67 102 138 181 233 295 357 417
#
# _framework density 22.057192000000001
#
# number of rings (size 3 to 8) (size 9 to 14) (size 15 to 20)
#    0.000    0.800    6.000    0.400    4.667    3.733 
#    0.000    0.000    0.000    0.000    0.000    0.000 
#    0.000    0.000    0.000    0.000    0.000    0.000 
#
# Total GULP energy -371709.774190 kJ/mol
# GULP energy per Si atom -12390.325806 kJ/mol
# Density = 2.200699 g / cm^3
# Si number density = 22.057192 Si / 1000 Ang^3
#
#
#
# Elastic Constant Matrix: (Units=GPa)
#
#
# Indices 1 2 3 4 5 6 
#
# 1 106.2703 36.2325 28.9505 0.0000 5.9394 0.0000
# 2 36.2325 110.0203 52.1264 0.0000 4.1508 0.0000
# 3 28.9505 52.1264 106.1221 0.0000 15.2499 0.0000
# 4 0.0000 0.0000 0.0000 39.3921 0.0000 6.2617
# 5 5.9394 4.1508 15.2499 0.0000 36.6280 0.0000
# 6 0.0000 0.0000 0.0000 6.2617 0.0000 40.2971
#
#
#
# Elastic Compliance Matrix: (Units=1/GPa)
#
#
# Indices 1 2 3 4 5 6 
#
# 1 0.010819 -0.002854 -0.001429 0.000000 -0.000836 0.000000
# 2 -0.002854 0.012645 -0.005630 0.000000 0.001374 0.000000
# 3 -0.001429 -0.005630 0.013246 0.000000 -0.004645 0.000000
# 4 0.000000 0.000000 0.000000 0.026029 0.000000 -0.004045
# 5 -0.000836 0.001374 -0.004645 0.000000 0.029215 0.000000
# 6 0.000000 0.000000 0.000000 -0.004045 0.000000 0.025444
#
#
# Mechanical properties :
#
#
# Convention : Reuss Voigt Hill
#
# Bulk Modulus (GPa) = 59.23152 61.89239 60.56196
# Shear Modulus (GPa) = 35.00114 36.93700 35.96907
#
# Velocity S-wave (km/s) = 3.98783 4.09663 4.04260
# Velocity P-wave (km/s) = 6.93654 7.10615 7.02186
#
# Compressibility (1/GPa) = 0.01688290
#
# Stress axis : x y z
#
# Youngs Moduli (GPa) = 92.42785 79.08449 75.49526
#
# Poissons Ratio (x) = 0.22573 0.10792
# Poissons Ratio (y) = 0.26381 0.42502
# Poissons Ratio (z) = 0.13212 0.44523
#
# Static dielectric constant tensor:
#      x y z
#    x 4.518490 0.000000 0.475240 
#    y 0.000000 4.044790 0.000000 
#    z 0.475240 0.000000 4.166450 
# 
# 
# High freq. dielectric constant tensor:
#      x y z
#    x 1.886910 0.000000 0.011730 
#    y 0.000000 1.865930 0.000000 
#    z 0.011730 0.000000 1.861970 
# 
# From -- ./inp_files/222583.got.cif
#   From: 2010.06.25/outbox.cif.g09.slc.cpg/sg15_112_cif.got.tgz:222583.got - 2010.06.28 07:06:18.
