data_PCOD8150709
_publ_section_title
;
Structure prediction by ZEFSAII (Michael W. Deem and Ramdas Pophale) SiO2 
 PCOD8150709
Probable space group: C 2/C
;
_chemical_formula_sum "Si O2"
_cell_formula_units_Z 28
_cell_length_a 9.230945
_cell_length_b 25.589815
_cell_length_c 5.251324
_cell_angle_alpha 90.000000
_cell_angle_beta 101.922486
_cell_angle_gamma 90.000000
_cell_volume 1213.698987
_symmetry_space_group_name_H-M "C 2/C"
_symmetry_group_IT_number 15
_symmetry_cell_setting 'monoclinic'
loop_
_space_group_symop_operation_xyz
x,y,z
-x,y,1/2-z
-x,-y,-z
x,-y,1/2+z
1/2+x,1/2+y,z
1/2-x,1/2+y,1/2-z
1/2-x,1/2-y,-z
1/2+x,1/2-y,1/2+z
loop_
_atom_site_type_symbol
_atom_site_label
_atom_site_fract_x
_atom_site_fract_y
_atom_site_fract_z
Si Si1 0.000000 0.708467 0.250000
Si Si2 0.347129 0.135131 0.826226
Si Si3 0.171890 0.032052 0.812166
Si Si4 0.916450 0.808713 0.464424
O O1 0.915507 0.745471 0.427047
O O2 0.125921 0.673233 0.424684
O O3 0.500000 0.119639 0.750000
O O4 0.269372 0.083056 0.896384
O O5 0.247040 0.166542 0.585771
O O6 0.000000 0.047680 0.750000
O O7 0.212199 0.007571 0.553567
O O8 0.000000 0.825264 0.750000
O O9 0.000000 0.834139 0.250000
#
# Coordination Sequence:
#
# PCOD8150709 Si02
#       4
#     4   8   8   8
#     4  10  26  44  70 106 152 190 238 286 352 432
#     4  12  27  43  75 110 147 186 237 299 364 412
#     4  10  25  50  76 102 137 185 241 293 354 433
#     4  10  25  47  71  97 147 197 244 280 341 428
#
# _framework density 23.069970000000001
#
# number of rings (size 3 to 8) (size 9 to 14) (size 15 to 20)
#    0.857    0.571    0.000    2.571    8.000    6.857 
#    0.000    0.000    0.000    0.000    0.000    0.000 
#    0.000    0.000    0.000    0.000    0.000    0.000 
#
# Total GULP energy -173620.435856 kJ/mol
# GULP energy per Si atom -12401.459704 kJ/mol
# Density = 2.301746 g / cm^3
# Si number density = 23.069970 Si / 1000 Ang^3
#
#
#
# Elastic Constant Matrix: (Units=GPa)
#
#
# Indices 1 2 3 4 5 6 
#
# 1 111.6077 74.0248 51.1394 0.0000 21.9423 0.0000
# 2 74.0248 131.3570 42.3097 0.0000 19.4194 0.0000
# 3 51.1394 42.3097 166.2391 0.0000 22.2549 0.0000
# 4 0.0000 0.0000 0.0000 16.2075 0.0000 21.7032
# 5 21.9423 19.4194 22.2549 0.0000 39.9361 0.0000
# 6 0.0000 0.0000 0.0000 21.7032 0.0000 51.6971
#
#
#
# Elastic Compliance Matrix: (Units=1/GPa)
#
#
# Indices 1 2 3 4 5 6 
#
# 1 0.015838 -0.007598 -0.002451 0.000000 -0.003642 0.000000
# 2 -0.007598 0.012305 -0.000597 0.000000 -0.001476 0.000000
# 3 -0.002451 -0.000597 0.007243 0.000000 -0.002399 0.000000
# 4 0.000000 0.000000 0.000000 0.140921 0.000000 -0.059161
# 5 -0.003642 -0.001476 -0.002399 0.000000 0.029096 0.000000
# 6 0.000000 0.000000 0.000000 -0.059161 0.000000 0.044180
#
#
# Mechanical properties :
#
#
# Convention : Reuss Voigt Hill
#
# Bulk Modulus (GPa) = 70.94899 82.68351 76.81625
# Shear Modulus (GPa) = 18.14414 37.68347 27.91380
#
# Velocity S-wave (km/s) = 2.80747 4.04597 3.48223
# Velocity P-wave (km/s) = 6.42883 7.59899 7.03827
#
# Compressibility (1/GPa) = 0.01409463
#
# Stress axis : x y z
#
# Youngs Moduli (GPa) = 63.13871 81.26860 138.07362
#
# Poissons Ratio (x) = 0.61744 0.33842
# Poissons Ratio (y) = 0.47970 0.08241
# Poissons Ratio (z) = 0.15475 0.04851
#
# Static dielectric constant tensor:
#      x y z
#    x 4.123140 0.000000 0.208660 
#    y 0.000000 3.962740 0.000000 
#    z 0.208660 0.000000 4.139670 
# 
# 
# High freq. dielectric constant tensor:
#      x y z
#    x 1.910390 0.000000 0.005210 
#    y 0.000000 1.908750 0.000000 
#    z 0.005210 0.000000 1.916200 
# 
# From -- ./inp_files/2058.got.cif
#   From: 2010.06.25/outbox.cif.g09.slc.cpg/sg15_2_cif.got.tgz:2058.got - 2010.06.28 07:06:18.
