data_PCOD8150180
_publ_section_title
;
Structure prediction by ZEFSAII (Michael W. Deem and Ramdas Pophale) SiO2 
 PCOD8150180
Probable space group: C 2/C
;
_chemical_formula_sum "Si O2"
_cell_formula_units_Z 40
_cell_length_a 11.995305
_cell_length_b 9.213224
_cell_length_c 15.286137
_cell_angle_alpha 90.000000
_cell_angle_beta 94.323976
_cell_angle_gamma 90.000000
_cell_volume 1684.545575
_symmetry_space_group_name_H-M "C 2/C"
_symmetry_group_IT_number 15
_symmetry_cell_setting 'monoclinic'
loop_
_space_group_symop_operation_xyz
x,y,z
-x,y,1/2-z
-x,-y,-z
x,-y,1/2+z
1/2+x,1/2+y,z
1/2-x,1/2+y,1/2-z
1/2-x,1/2-y,-z
1/2+x,1/2-y,1/2+z
loop_
_atom_site_type_symbol
_atom_site_label
_atom_site_fract_x
_atom_site_fract_y
_atom_site_fract_z
Si Si1 0.893370 0.013168 0.434957
Si Si2 0.809662 0.490024 0.782215
Si Si3 0.566655 0.163450 0.565735
Si Si4 0.349952 0.026619 0.578357
Si Si5 0.381430 0.681250 0.775084
O O1 0.878829 0.182228 0.409154
O O2 0.775931 0.953058 0.467203
O O3 0.924020 0.919091 0.354533
O O4 0.000000 0.000000 0.500000
O O5 0.898829 0.552123 0.855724
O O6 0.844776 0.505311 0.682507
O O7 0.692095 0.574610 0.792167
O O8 0.802533 0.316549 0.799101
O O9 0.601283 0.113933 0.469962
O O10 0.430119 0.163872 0.560750
O O11 0.500000 0.744729 0.750000
#
# Coordination Sequence:
#
# PCOD8150180 Si02
#       5
#     8   8   8   8   8
#     4  11  27  43  66 105 143 178 234 287 344 421
#     4  11  24  46  73 103 140 176 239 286 346 419
#     4  11  24  43  76  97 138 186 226 293 348 409
#     4  10  24  44  71 102 132 184 233 280 355 408
#     4  11  26  44  72 102 138 188 227 289 355 409
#
# _framework density 23.745276
#
# number of rings (size 3 to 8) (size 9 to 14) (size 15 to 20)
#    0.000    1.200    0.000    4.800   11.200    5.600 
#    0.000    1.000    0.000    0.000    0.000    0.000 
#    0.000    0.000    0.000    0.000    0.000    0.000 
#
# Total GULP energy -247783.975420 kJ/mol
# GULP energy per Si atom -12389.198771 kJ/mol
# Density = 2.369123 g / cm^3
# Si number density = 23.745276 Si / 1000 Ang^3
#
#
#
# Elastic Constant Matrix: (Units=GPa)
#
#
# Indices 1 2 3 4 5 6 
#
# 1 162.1529 31.0579 22.2067 0.0000 22.0583 0.0000
# 2 31.0579 108.0900 7.5959 0.0000 14.1626 0.0000
# 3 22.2067 7.5959 84.2795 0.0000 10.2552 0.0000
# 4 0.0000 0.0000 0.0000 26.5914 0.0000 11.1285
# 5 22.0583 14.1626 10.2552 0.0000 37.5240 0.0000
# 6 0.0000 0.0000 0.0000 11.1285 0.0000 30.9847
#
#
#
# Elastic Compliance Matrix: (Units=1/GPa)
#
#
# Indices 1 2 3 4 5 6 
#
# 1 0.007079 -0.001518 -0.001336 0.000000 -0.003223 0.000000
# 2 -0.001518 0.010074 -0.000159 0.000000 -0.002867 0.000000
# 3 -0.001336 -0.000159 0.012546 0.000000 -0.002583 0.000000
# 4 0.000000 0.000000 0.000000 0.044259 0.000000 -0.015896
# 5 -0.003223 -0.002867 -0.002583 0.000000 0.030332 0.000000
# 6 0.000000 0.000000 0.000000 -0.015896 0.000000 0.037983
#
#
# Mechanical properties :
#
#
# Convention : Reuss Voigt Hill
#
# Bulk Modulus (GPa) = 42.24216 52.91595 47.57906
# Shear Modulus (GPa) = 32.01195 38.59748 35.30472
#
# Velocity S-wave (km/s) = 3.67569 4.03610 3.86010
# Velocity P-wave (km/s) = 5.98686 6.63727 6.32044
#
# Compressibility (1/GPa) = 0.02367303
#
# Stress axis : x y z
#
# Youngs Moduli (GPa) = 141.25819 99.26084 79.70640
#
# Poissons Ratio (x) = 0.15066 0.10651
# Poissons Ratio (y) = 0.21441 0.01269
# Poissons Ratio (z) = 0.18876 0.01581
#
# Static dielectric constant tensor:
#      x y z
#    x 4.374560 0.000000 -0.114430 
#    y 0.000000 4.420740 0.000000 
#    z -0.114430 0.000000 3.738330 
# 
# 
# High freq. dielectric constant tensor:
#      x y z
#    x 1.955290 0.000000 0.019360 
#    y 0.000000 1.937850 0.000000 
#    z 0.019360 0.000000 1.935030 
# 
# From -- ./inp_files/195250.got.cif
#   From: 2010.06.25/outbox.cif.g09.slc.cpg/sg15_98_cif.got.tgz:195250.got - 2010.06.28 07:06:18.
