data_PCOD8150869
_publ_section_title
;
Structure prediction by ZEFSAII (Michael W. Deem and Ramdas Pophale) SiO2 
 PCOD8150869
Probable space group: C 2/C
;
_chemical_formula_sum "Si O2"
_cell_formula_units_Z 32
_cell_length_a 17.571239
_cell_length_b 11.322455
_cell_length_c 14.625081
_cell_angle_alpha 90.000000
_cell_angle_beta 155.545964
_cell_angle_gamma 90.000000
_cell_volume 1204.489222
_symmetry_space_group_name_H-M "C 2/C"
_symmetry_group_IT_number 15
_symmetry_cell_setting 'monoclinic'
loop_
_space_group_symop_operation_xyz
x,y,z
-x,y,1/2-z
-x,-y,-z
x,-y,1/2+z
1/2+x,1/2+y,z
1/2-x,1/2+y,1/2-z
1/2-x,1/2-y,-z
1/2+x,1/2-y,1/2+z
loop_
_atom_site_type_symbol
_atom_site_label
_atom_site_fract_x
_atom_site_fract_y
_atom_site_fract_z
Si Si1 0.792613 0.887138 0.045499
Si Si2 0.509047 0.770705 0.368189
Si Si3 0.334442 0.557040 0.251593
Si Si4 0.680162 0.972915 0.255648
O O1 0.000000 0.913335 0.250000
O O2 0.757444 0.951354 0.103712
O O3 0.750000 0.750000 0.000000
O O4 0.669444 0.941094 0.830801
O O5 0.500000 0.774934 0.250000
O O6 0.507210 0.632847 0.399259
O O7 0.679141 0.843405 0.591763
O O8 0.326371 0.838474 0.211349
O O9 0.357332 0.504757 0.381312
O O10 0.500000 0.000000 0.000000
#
# Coordination Sequence:
#
# PCOD8150869 Si02
#       4
#     8   8   8   8
#     4  12  30  49  78 113 163 212 266 328 411 484
#     4  11  22  44  76 102 149 194 256 319 389 460
#     4  11  26  45  77 110 151 199 268 322 406 464
#     4  10  26  47  76 110 153 206 260 324 403 469
#
# _framework density 26.567278000000002
#
# number of rings (size 3 to 8) (size 9 to 14) (size 15 to 20)
#    0.000    1.000    2.500    1.500   14.000    3.000 
#    0.000    0.000    0.000    0.000    0.000    0.000 
#    0.000    0.000    0.000    0.000    0.000    0.000 
#
# Total GULP energy -198382.658625 kJ/mol
# GULP energy per Si atom -12398.916164 kJ/mol
# Density = 2.650681 g / cm^3
# Si number density = 26.567278 Si / 1000 Ang^3
#
#
#
# Elastic Constant Matrix: (Units=GPa)
#
#
# Indices 1 2 3 4 5 6 
#
# 1 179.1512 97.0251 29.5315 0.0003 -37.4276 -0.0001
# 2 97.0251 242.7361 46.7548 -0.0001 -40.4840 -0.0003
# 3 29.5315 46.7548 53.6644 0.0012 -28.7208 0.0004
# 4 0.0003 -0.0001 0.0012 41.8852 0.0000 -8.7863
# 5 -37.4276 -40.4840 -28.7208 0.0000 58.8740 -0.0003
# 6 -0.0001 -0.0003 0.0004 -8.7863 -0.0003 57.7331
#
#
#
# Elastic Compliance Matrix: (Units=1/GPa)
#
#
# Indices 1 2 3 4 5 6 
#
# 1 0.007601 -0.002461 -0.000485 0.000000 0.002904 0.000000
# 2 -0.002461 0.005885 -0.003309 0.000000 0.000869 0.000000
# 3 -0.000485 -0.003309 0.027610 -0.000001 0.010885 0.000000
# 4 0.000000 0.000000 -0.000001 0.024662 0.000000 0.003753
# 5 0.002904 0.000869 0.010885 0.000000 0.024739 0.000000
# 6 0.000000 0.000000 0.000000 0.003753 0.000000 0.017892
#
#
# Mechanical properties :
#
#
# Convention : Reuss Voigt Hill
#
# Bulk Modulus (GPa) = 34.98036 91.35271 63.16653
# Shear Modulus (GPa) = 38.33550 51.84782 45.09166
#
# Velocity S-wave (km/s) = 3.80275 4.42245 4.12425
# Velocity P-wave (km/s) = 5.69882 7.78058 6.81960
#
# Compressibility (1/GPa) = 0.02858747
#
# Stress axis : x y z
#
# Youngs Moduli (GPa) = 131.56117 169.91207 36.21906
#
# Poissons Ratio (x) = 0.41807 0.01757
# Poissons Ratio (y) = 0.32371 0.11984
# Poissons Ratio (z) = 0.06383 0.56218
#
# Static dielectric constant tensor:
#      x y z
#    x -9.562590 -0.000450 -21.250770 
#    y -0.000450 5.452870 -0.000610 
#    z -21.250770 -0.000610 -24.614790 
# 
# 
# High freq. dielectric constant tensor:
#      x y z
#    x 2.089970 0.000000 0.022730 
#    y 0.000000 2.094880 0.000000 
#    z 0.022730 0.000000 2.097340 
# 
# From -- ./inp_files/160636.got.cif
#   From: 2010.06.25/outbox.cif.g09.slc.cpg/sg15_81_cif.got.tgz:160636.got - 2010.06.28 07:06:18.
