data_PCOD8150126
_publ_section_title
;
Structure prediction by ZEFSAII (Michael W. Deem and Ramdas Pophale) SiO2 
 PCOD8150126
Probable space group: C 2/C
;
_chemical_formula_sum "Si O2"
_cell_formula_units_Z 60
_cell_length_a 22.351727
_cell_length_b 24.722606
_cell_length_c 8.675885
_cell_angle_alpha 90.000000
_cell_angle_beta 150.897914
_cell_angle_gamma 90.000000
_cell_volume 2331.757545
_symmetry_space_group_name_H-M "C 2/C"
_symmetry_group_IT_number 15
_symmetry_cell_setting 'monoclinic'
loop_
_space_group_symop_operation_xyz
x,y,z
-x,y,1/2-z
-x,-y,-z
x,-y,1/2+z
1/2+x,1/2+y,z
1/2-x,1/2+y,1/2-z
1/2-x,1/2-y,-z
1/2+x,1/2-y,1/2+z
loop_
_atom_site_type_symbol
_atom_site_label
_atom_site_fract_x
_atom_site_fract_y
_atom_site_fract_z
Si Si1 0.129152 0.067317 0.765538
Si Si2 0.000000 0.010504 0.750000
Si Si3 0.872709 0.563873 0.947256
Si Si4 0.525188 0.682585 0.482277
Si Si5 0.896557 0.274437 0.634431
Si Si6 0.969064 0.650265 0.847864
Si Si7 0.245739 0.834964 0.055773
Si Si8 0.609638 0.045032 0.180612
O O1 0.056818 0.050646 0.753989
O O2 0.095559 0.126548 0.632293
O O3 0.271459 0.067499 0.142338
O O4 0.101831 0.026492 0.563009
O O5 0.762948 0.602070 0.643101
O O6 0.920113 0.515931 0.939119
O O7 0.833821 0.539466 0.021210
O O8 0.000000 0.599561 0.250000
O O9 0.500000 0.701774 0.250000
O O10 0.616853 0.724794 0.774545
O O11 0.397979 0.676255 0.295706
O O12 0.779635 0.291930 0.267656
O O13 0.000000 0.255532 0.750000
O O14 0.931198 0.327679 0.808168
O O15 0.000000 0.674783 0.750000
O O16 0.832326 0.669900 0.597070
O O17 0.990884 0.584856 0.893779
#
# Coordination Sequence:
#
# PCOD8150126 Si02
#       8
#     8   4   8   8   8   8   8   8
#     4  11  25  45  67 106 144 189 245 293 356 438
#     4  10  24  44  68  94 154 196 232 288 364 428
#     4  12  23  42  66 103 142 186 234 289 357 431
#     4  12  27  47  76 112 140 191 254 300 362 440
#     4  10  24  50  73 103 143 190 241 300 373 430
#     4  11  24  45  69 103 140 185 243 296 368 434
#     4  11  25  49  75 100 152 190 230 312 370 426
#     4  12  25  40  69 103 143 193 237 294 360 433
#
# _framework density 25.731663999999999
#
# number of rings (size 3 to 8) (size 9 to 14) (size 15 to 20)
#    0.000    0.800    3.333    3.200    6.533    3.733 
#    2.400    0.000    0.000    0.000    0.000    0.000 
#    0.000    0.000    0.000    0.000    0.000    0.000 
#
# Total GULP energy -371756.394764 kJ/mol
# GULP energy per Si atom -12391.879825 kJ/mol
# Density = 2.567310 g / cm^3
# Si number density = 25.731664 Si / 1000 Ang^3
#
#
#
# Elastic Constant Matrix: (Units=GPa)
#
#
# Indices 1 2 3 4 5 6 
#
# 1 95.7734 22.6337 22.6255 0.0000 -19.3488 0.0000
# 2 22.6337 122.8595 15.3843 0.0000 -9.0083 0.0000
# 3 22.6255 15.3843 63.0379 0.0000 12.0451 0.0000
# 4 0.0000 0.0000 0.0000 22.5286 0.0000 -6.4886
# 5 -19.3488 -9.0083 12.0451 0.0000 48.3681 0.0000
# 6 0.0000 0.0000 0.0000 -6.4886 0.0000 22.8906
#
#
#
# Elastic Compliance Matrix: (Units=1/GPa)
#
#
# Indices 1 2 3 4 5 6 
#
# 1 0.013432 -0.001270 -0.005767 0.000000 0.006573 0.000000
# 2 -0.001270 0.008740 -0.001986 0.000000 0.001614 0.000000
# 3 -0.005767 -0.001986 0.019875 0.000000 -0.007626 0.000000
# 4 0.000000 0.000000 0.000000 0.048334 0.000000 0.013701
# 5 0.006573 0.001614 -0.007626 0.000000 0.025504 0.000000
# 6 0.000000 0.000000 0.000000 0.013701 0.000000 0.047570
#
#
# Mechanical properties :
#
#
# Convention : Reuss Voigt Hill
#
# Bulk Modulus (GPa) = 41.66359 44.77309 43.21834
# Shear Modulus (GPa) = 26.38516 33.49262 29.93889
#
# Velocity S-wave (km/s) = 3.20566 3.61170 3.41472
# Velocity P-wave (km/s) = 5.47068 5.90172 5.69028
#
# Compressibility (1/GPa) = 0.02400177
#
# Stress axis : x y z
#
# Youngs Moduli (GPa) = 74.45064 114.41132 50.31453
#
# Poissons Ratio (x) = 0.14535 0.29015
# Poissons Ratio (y) = 0.09458 0.09990
# Poissons Ratio (z) = 0.42934 0.22717
#
# Static dielectric constant tensor:
#      x y z
#    x 5.024680 0.000000 -0.200890 
#    y 0.000000 4.431000 0.000000 
#    z -0.200890 0.000000 4.616110 
# 
# 
# High freq. dielectric constant tensor:
#      x y z
#    x 2.050380 0.000000 -0.006220 
#    y 0.000000 2.028400 0.000000 
#    z -0.006220 0.000000 2.007360 
# 
# From -- ./inp_files/64119.got.cif
#   From: 2010.06.25/outbox.cif.g09.slc.cpg/sg15_33_cif.got.tgz:64119.got - 2010.06.28 07:06:18.
