data_PCOD8150859
_publ_section_title
;
Structure prediction by ZEFSAII (Michael W. Deem and Ramdas Pophale) SiO2 
 PCOD8150859
Probable space group: C 2/C
;
_chemical_formula_sum "Si O2"
_cell_formula_units_Z 44
_cell_length_a 5.294256
_cell_length_b 18.207798
_cell_length_c 22.446308
_cell_angle_alpha 90.000000
_cell_angle_beta 115.356946
_cell_angle_gamma 90.000000
_cell_volume 1955.289505
_symmetry_space_group_name_H-M "C 2/C"
_symmetry_group_IT_number 15
_symmetry_cell_setting 'monoclinic'
loop_
_space_group_symop_operation_xyz
x,y,z
-x,y,1/2-z
-x,-y,-z
x,-y,1/2+z
1/2+x,1/2+y,z
1/2-x,1/2+y,1/2-z
1/2-x,1/2-y,-z
1/2+x,1/2-y,1/2+z
loop_
_atom_site_type_symbol
_atom_site_label
_atom_site_fract_x
_atom_site_fract_y
_atom_site_fract_z
Si Si1 0.500000 0.830390 0.750000
Si Si2 0.402293 0.880360 0.864770
Si Si3 0.389119 0.694452 0.467981
Si Si4 0.521834 0.250484 0.854690
Si Si5 0.778781 0.108627 0.907673
Si Si6 0.323184 0.018071 0.923522
O O1 0.429291 0.887594 0.796046
O O2 0.749150 0.774476 0.790839
O O3 0.700692 0.874282 0.927398
O O4 0.272764 0.801250 0.860914
O O5 0.221562 0.944053 0.878860
O O6 0.250000 0.750000 0.500000
O O7 0.481364 0.743386 0.421592
O O8 0.645987 0.652808 0.524666
O O9 0.630120 0.168309 0.848976
O O10 0.540388 0.050540 0.898049
O O11 0.054414 0.069867 0.907403
O O12 0.500000 0.000000 0.000000
#
# Coordination Sequence:
#
# PCOD8150859 Si02
#       6
#     4   8   8   8   8   8
#     4  10  26  46  76  96 132 194 272 304 356 426
#     4  11  24  43  73  98 141 191 243 296 358 445
#     4  11  21  38  68 110 143 178 231 297 362 437
#     4  11  24  43  74  99 137 190 252 303 353 430
#     4  12  25  42  69 110 150 181 225 295 379 431
#     4  12  26  42  69 110 155 186 223 290 378 451
#
# _framework density 22.503060000000001
#
# number of rings (size 3 to 8) (size 9 to 14) (size 15 to 20)
#    0.000    0.727    3.636    3.818    7.636    0.000 
#    0.000    0.000    8.000    0.000    0.000    0.000 
#    0.000    0.000    0.000    0.000    0.000    0.000 
#
# Total GULP energy -272675.664212 kJ/mol
# GULP energy per Si atom -12394.348373 kJ/mol
# Density = 2.245184 g / cm^3
# Si number density = 22.503060 Si / 1000 Ang^3
#
#
#
# Elastic Constant Matrix: (Units=GPa)
#
#
# Indices 1 2 3 4 5 6 
#
# 1 106.7795 36.4745 22.8829 0.0000 -3.1724 0.0000
# 2 36.4745 114.0123 31.8419 0.0000 -7.7731 0.0000
# 3 22.8829 31.8419 100.7766 0.0000 -10.4756 0.0000
# 4 0.0000 0.0000 0.0000 14.9845 0.0000 3.0681
# 5 -3.1724 -7.7731 -10.4756 0.0000 30.1958 0.0000
# 6 0.0000 0.0000 0.0000 3.0681 0.0000 46.7182
#
#
#
# Elastic Compliance Matrix: (Units=1/GPa)
#
#
# Indices 1 2 3 4 5 6 
#
# 1 0.010712 -0.003021 -0.001496 0.000000 -0.000171 0.000000
# 2 -0.003021 0.010536 -0.002484 0.000000 0.001533 0.000000
# 3 -0.001496 -0.002484 0.011375 0.000000 0.003150 0.000000
# 4 0.000000 0.000000 0.000000 0.067645 0.000000 -0.004442
# 5 -0.000171 0.001533 0.003150 0.000000 0.034587 0.000000
# 6 0.000000 0.000000 0.000000 -0.004442 0.000000 0.021697
#
#
# Mechanical properties :
#
#
# Convention : Reuss Voigt Hill
#
# Bulk Modulus (GPa) = 53.69927 55.99632 54.84780
# Shear Modulus (GPa) = 28.28706 33.73764 31.01235
#
# Velocity S-wave (km/s) = 3.54931 3.87621 3.71636
# Velocity P-wave (km/s) = 6.38057 6.70606 6.54534
#
# Compressibility (1/GPa) = 0.01862223
#
# Stress axis : x y z
#
# Youngs Moduli (GPa) = 93.34899 94.91621 87.91464
#
# Poissons Ratio (x) = 0.28675 0.13149
# Poissons Ratio (y) = 0.28201 0.21834
# Poissons Ratio (z) = 0.13962 0.23573
#
# Static dielectric constant tensor:
#      x y z
#    x 4.262610 0.000000 0.205380 
#    y 0.000000 5.806940 0.000000 
#    z 0.205380 0.000000 3.820870 
# 
# 
# High freq. dielectric constant tensor:
#      x y z
#    x 1.899710 0.000000 0.003160 
#    y 0.000000 1.887320 0.000000 
#    z 0.003160 0.000000 1.873290 
# 
# From -- ./inp_files/226921.got.cif
#   From: 2010.06.25/outbox.cif.g09.slc.cpg/sg15_114_cif.got.tgz:226921.got - 2010.06.28 07:06:18.
