data_PCOD8150534
_publ_section_title
;
Structure prediction by ZEFSAII (Michael W. Deem and Ramdas Pophale) SiO2 
 PCOD8150534
Probable space group: C 2/C
;
_chemical_formula_sum "Si O2"
_cell_formula_units_Z 44
_cell_length_a 11.119315
_cell_length_b 22.789604
_cell_length_c 9.018247
_cell_angle_alpha 90.000000
_cell_angle_beta 120.032201
_cell_angle_gamma 90.000000
_cell_volume 1978.456743
_symmetry_space_group_name_H-M "C 2/C"
_symmetry_group_IT_number 15
_symmetry_cell_setting 'monoclinic'
loop_
_space_group_symop_operation_xyz
x,y,z
-x,y,1/2-z
-x,-y,-z
x,-y,1/2+z
1/2+x,1/2+y,z
1/2-x,1/2+y,1/2-z
1/2-x,1/2-y,-z
1/2+x,1/2-y,1/2+z
loop_
_atom_site_type_symbol
_atom_site_label
_atom_site_fract_x
_atom_site_fract_y
_atom_site_fract_z
Si Si1 0.764146 0.593174 0.896044
Si Si2 0.596687 0.633024 0.048167
Si Si3 0.895341 0.981319 0.809759
Si Si4 0.000000 0.628090 0.250000
Si Si5 0.195704 0.302132 0.656543
Si Si6 0.709018 0.667947 0.603097
O O1 0.719937 0.528783 0.810914
O O2 0.806748 0.635201 0.783938
O O3 0.633113 0.625399 0.896413
O O4 0.891676 0.587798 0.091121
O O5 0.677923 0.578419 0.179443
O O6 0.662218 0.691514 0.160476
O O7 0.433517 0.630625 0.980894
O O8 0.000000 0.962200 0.750000
O O9 0.000000 0.000000 0.000000
O O10 0.928763 0.669615 0.328051
O O11 0.213802 0.333184 0.507110
O O12 0.168098 0.233584 0.622684
#
# Coordination Sequence:
#
# PCOD8150534 Si02
#       6
#     8   8   8   4   8   8
#     4  11  24  42  65  98 135 175 219 269 333 401
#     4  11  23  41  67 102 131 169 223 276 338 382
#     4  12  21  39  69 100 129 164 218 291 330 378
#     4  10  26  46  60  90 140 184 220 252 334 414
#     4  10  25  40  64  96 135 177 218 272 327 402
#     4  11  22  40  67  99 130 169 227 280 328 377
#
# _framework density 22.239557000000001
#
# number of rings (size 3 to 8) (size 9 to 14) (size 15 to 20)
#    0.000    1.091    3.636    2.182    5.091    2.182 
#    0.000    3.636    0.000    0.000    0.000    0.000 
#    0.000    0.000    0.000    0.000    0.000    0.000 
#
# Total GULP energy -272641.288649 kJ/mol
# GULP energy per Si atom -12392.785848 kJ/mol
# Density = 2.218894 g / cm^3
# Si number density = 22.239557 Si / 1000 Ang^3
#
#
#
# Elastic Constant Matrix: (Units=GPa)
#
#
# Indices 1 2 3 4 5 6 
#
# 1 94.9831 23.9470 42.9758 0.0000 -11.4532 0.0000
# 2 23.9470 82.7842 42.4703 0.0000 -5.2925 0.0000
# 3 42.9758 42.4703 119.7035 0.0000 0.9989 0.0000
# 4 0.0000 0.0000 0.0000 32.1012 0.0000 -2.5750
# 5 -11.4532 -5.2925 0.9989 0.0000 44.1916 0.0000
# 6 0.0000 0.0000 0.0000 -2.5750 0.0000 22.8746
#
#
#
# Elastic Compliance Matrix: (Units=1/GPa)
#
#
# Indices 1 2 3 4 5 6 
#
# 1 0.013223 -0.001419 -0.004272 0.000000 0.003354 0.000000
# 2 -0.001419 0.015079 -0.004853 0.000000 0.001548 0.000000
# 3 -0.004272 -0.004853 0.011626 0.000000 -0.001951 0.000000
# 4 0.000000 0.000000 0.000000 0.031435 0.000000 0.003539
# 5 0.003354 0.001548 -0.001951 0.000000 0.023727 0.000000
# 6 0.000000 0.000000 0.000000 0.003539 0.000000 0.044115
#
#
# Mechanical properties :
#
#
# Convention : Reuss Voigt Hill
#
# Bulk Modulus (GPa) = 53.08039 57.36188 55.22113
# Shear Modulus (GPa) = 30.01664 32.37199 31.19431
#
# Velocity S-wave (km/s) = 3.67781 3.81938 3.74926
# Velocity P-wave (km/s) = 6.47722 6.73045 6.60505
#
# Compressibility (1/GPa) = 0.01883935
#
# Stress axis : x y z
#
# Youngs Moduli (GPa) = 75.62470 66.31758 86.01483
#
# Poissons Ratio (x) = 0.09411 0.36744
# Poissons Ratio (y) = 0.10732 0.41746
# Poissons Ratio (z) = 0.32306 0.32186
#
# Static dielectric constant tensor:
#      x y z
#    x 3.957740 0.000000 -0.252960 
#    y 0.000000 3.621360 0.000000 
#    z -0.252960 0.000000 4.234740 
# 
# 
# High freq. dielectric constant tensor:
#      x y z
#    x 1.865210 0.000000 -0.023800 
#    y 0.000000 1.870760 0.000000 
#    z -0.023800 0.000000 1.890820 
# 
# From -- ./inp_files/32215.got.cif
#   From: 2010.06.25/outbox.cif.g09.slc.cpg/sg15_17_cif.got.tgz:32215.got - 2010.06.28 07:06:18.
