data_PCOD8150318
_publ_section_title
;
Structure prediction by ZEFSAII (Michael W. Deem and Ramdas Pophale) SiO2 
 PCOD8150318
Probable space group: C 2/C
;
_chemical_formula_sum "Si O2"
_cell_formula_units_Z 60
_cell_length_a 12.691338
_cell_length_b 13.591155
_cell_length_c 16.256564
_cell_angle_alpha 90.000000
_cell_angle_beta 78.910869
_cell_angle_gamma 90.000000
_cell_volume 2751.739015
_symmetry_space_group_name_H-M "C 2/C"
_symmetry_group_IT_number 15
_symmetry_cell_setting 'monoclinic'
loop_
_space_group_symop_operation_xyz
x,y,z
-x,y,1/2-z
-x,-y,-z
x,-y,1/2+z
1/2+x,1/2+y,z
1/2-x,1/2+y,1/2-z
1/2-x,1/2-y,-z
1/2+x,1/2-y,1/2+z
loop_
_atom_site_type_symbol
_atom_site_label
_atom_site_fract_x
_atom_site_fract_y
_atom_site_fract_z
Si Si1 0.796000 0.143820 0.515591
Si Si2 0.769674 0.547271 0.234179
Si Si3 0.596552 0.359492 0.852709
Si Si4 0.383882 0.946852 0.352764
Si Si5 0.023646 0.821513 0.045255
Si Si6 0.979603 0.365051 0.658848
Si Si7 0.500000 0.213721 0.750000
Si Si8 0.102340 0.992712 0.627903
O O1 0.750000 0.250000 0.500000
O O2 0.710109 0.072542 0.569512
O O3 0.899089 0.148514 0.559588
O O4 0.829778 0.089717 0.428478
O O5 0.718655 0.603814 0.321438
O O6 0.844565 0.465395 0.264980
O O7 0.850505 0.616344 0.167753
O O8 0.672352 0.494998 0.199997
O O9 0.588477 0.279674 0.781601
O O10 0.516291 0.449298 0.842805
O O11 0.576694 0.315079 0.946476
O O12 0.450614 0.847084 0.333114
O O13 0.456796 0.035872 0.374517
O O14 0.026525 0.717145 0.090625
O O15 0.092034 0.902305 0.084887
O O16 0.000000 0.332601 0.750000
#
# Coordination Sequence:
#
# PCOD8150318 Si02
#       8
#     8   8   8   8   8   8   4   8
#     4  11  23  41  70  95 127 175 220 272 329 398
#     4  11  21  43  67  94 131 176 220 274 327 404
#     4  11  23  41  67  99 134 166 226 275 328 397
#     4  11  23  45  64  93 133 170 219 280 327 393
#     4  11  24  43  67 100 138 176 214 285 335 398
#     4  10  24  46  64  94 136 176 227 273 332 396
#     4  12  22  42  66  94 126 174 222 272 328 384
#     4  11  22  42  64 102 129 169 221 272 340 392
#
# _framework density 21.804393000000001
#
# number of rings (size 3 to 8) (size 9 to 14) (size 15 to 20)
#    0.000    1.067    3.333    5.600    1.867    2.133 
#    4.800    5.333    0.000    0.000    0.000    0.000 
#    0.000    0.000    0.000    0.000    0.000    0.000 
#
# Total GULP energy -371872.474738 kJ/mol
# GULP energy per Si atom -12395.749158 kJ/mol
# Density = 2.175477 g / cm^3
# Si number density = 21.804393 Si / 1000 Ang^3
#
#
#
# Elastic Constant Matrix: (Units=GPa)
#
#
# Indices 1 2 3 4 5 6 
#
# 1 92.8146 37.0086 44.1893 0.0000 -10.9172 0.0000
# 2 37.0086 113.3365 50.1443 0.0000 -9.5307 0.0000
# 3 44.1893 50.1443 77.2809 0.0000 -3.2252 0.0000
# 4 0.0000 0.0000 0.0000 41.6730 0.0000 -3.3598
# 5 -10.9172 -9.5307 -3.2252 0.0000 33.0634 0.0000
# 6 0.0000 0.0000 0.0000 -3.3598 0.0000 24.3414
#
#
#
# Elastic Compliance Matrix: (Units=1/GPa)
#
#
# Indices 1 2 3 4 5 6 
#
# 1 0.015492 -0.001231 -0.007893 0.000000 0.003991 0.000000
# 2 -0.001231 0.012737 -0.007455 0.000000 0.002538 0.000000
# 3 -0.007893 -0.007455 0.022182 0.000000 -0.002591 0.000000
# 4 0.000000 0.000000 0.000000 0.024266 0.000000 0.003349
# 5 0.003991 0.002538 -0.002591 0.000000 0.032041 0.000000
# 6 0.000000 0.000000 0.000000 0.003349 0.000000 0.041545
#
#
# Mechanical properties :
#
#
# Convention : Reuss Voigt Hill
#
# Bulk Modulus (GPa) = 57.95921 60.67961 59.31941
# Shear Modulus (GPa) = 26.71331 29.95490 28.33410
#
# Velocity S-wave (km/s) = 3.50399 3.71050 3.60872
# Velocity P-wave (km/s) = 6.55818 6.80049 6.68043
#
# Compressibility (1/GPa) = 0.01725351
#
# Stress axis : x y z
#
# Youngs Moduli (GPa) = 64.54767 78.51232 45.08150
#
# Poissons Ratio (x) = 0.09665 0.35584
# Poissons Ratio (y) = 0.07946 0.33607
# Poissons Ratio (z) = 0.50949 0.58528
#
# Static dielectric constant tensor:
#      x y z
#    x 4.116390 0.000000 -0.100840 
#    y 0.000000 3.964890 0.000000 
#    z -0.100840 0.000000 3.863080 
# 
# 
# High freq. dielectric constant tensor:
#      x y z
#    x 1.863860 0.000000 -0.011740 
#    y 0.000000 1.852260 0.000000 
#    z -0.011740 0.000000 1.856590 
# 
# From -- ./inp_files/204018.got.cif
#   From: 2010.06.25/outbox.cif.g09.slc.cpg/sg15_103_cif.got.tgz:204018.got - 2010.06.28 07:06:18.
