data_PCOD8150458
_publ_section_title
;
Structure prediction by ZEFSAII (Michael W. Deem and Ramdas Pophale) SiO2 
 PCOD8150458
Probable space group: C 2/C
;
_chemical_formula_sum "Si O2"
_cell_formula_units_Z 40
_cell_length_a 23.329348
_cell_length_b 8.788395
_cell_length_c 18.697767
_cell_angle_alpha 90.000000
_cell_angle_beta 25.117456
_cell_angle_gamma 90.000000
_cell_volume 1627.250206
_symmetry_space_group_name_H-M "C 2/C"
_symmetry_group_IT_number 15
_symmetry_cell_setting 'monoclinic'
loop_
_space_group_symop_operation_xyz
x,y,z
-x,y,1/2-z
-x,-y,-z
x,-y,1/2+z
1/2+x,1/2+y,z
1/2-x,1/2+y,1/2-z
1/2-x,1/2-y,-z
1/2+x,1/2-y,1/2+z
loop_
_atom_site_type_symbol
_atom_site_label
_atom_site_fract_x
_atom_site_fract_y
_atom_site_fract_z
Si Si1 0.855700 0.925577 0.014038
Si Si2 0.232824 0.373831 0.301824
Si Si3 0.845291 0.561944 0.360632
Si Si4 0.613318 0.085621 0.539308
Si Si5 0.030827 0.181852 0.861901
O O1 0.753376 0.899914 0.195068
O O2 0.793042 0.034531 0.024727
O O3 0.880405 0.762973 0.949263
O O4 0.994964 0.007464 0.881219
O O5 0.199170 0.541056 0.372441
O O6 0.109220 0.261059 0.457213
O O7 0.370612 0.311044 0.181273
O O8 0.829800 0.525655 0.462155
O O9 0.956273 0.447342 0.202761
O O10 0.896124 0.735160 0.288405
#
# Coordination Sequence:
#
# PCOD8150458 Si02
#       5
#     8   8   8   8   8
#     4  12  24  43  75 102 139 185 234 284 352 408
#     4  11  25  44  71 106 143 181 234 288 345 415
#     4  10  24  48  65 101 141 186 232 287 345 412
#     4  10  25  44  68 101 146 175 234 289 348 414
#     4  11  24  46  70 105 139 188 233 286 344 417
#
# _framework density 24.581344999999999
#
# number of rings (size 3 to 8) (size 9 to 14) (size 15 to 20)
#    0.000    1.200    2.000    2.400    5.600    2.400 
#    7.200    0.000    0.000    0.000    0.000    0.000 
#    0.000    0.000    0.000    0.000    0.000    0.000 
#
# Total GULP energy -248033.996833 kJ/mol
# GULP energy per Si atom -12401.699842 kJ/mol
# Density = 2.452540 g / cm^3
# Si number density = 24.581345 Si / 1000 Ang^3
#
#
#
# Elastic Constant Matrix: (Units=GPa)
#
#
# Indices 1 2 3 4 5 6 
#
# 1 82.5248 7.7617 3.9906 0.0020 -16.0629 -0.0005
# 2 7.7617 119.7536 6.1522 0.0085 2.4944 -0.0040
# 3 3.9906 6.1522 21.6377 0.0036 0.1847 -0.0018
# 4 0.0020 0.0085 0.0036 17.2515 -0.0014 1.3933
# 5 -16.0629 2.4944 0.1847 -0.0014 47.2255 0.0007
# 6 -0.0005 -0.0040 -0.0018 1.3933 0.0007 29.2174
#
#
#
# Elastic Compliance Matrix: (Units=1/GPa)
#
#
# Indices 1 2 3 4 5 6 
#
# 1 0.013187 -0.000835 -0.002234 0.000000 0.004538 0.000000
# 2 -0.000835 0.008536 -0.002267 -0.000004 -0.000726 0.000001
# 3 -0.002234 -0.002267 0.047279 -0.000009 -0.000825 0.000003
# 4 0.000000 -0.000004 -0.000009 0.058190 0.000002 -0.002775
# 5 0.004538 -0.000726 -0.000825 0.000002 0.022760 -0.000001
# 6 0.000000 0.000001 0.000003 -0.002775 -0.000001 0.034358
#
#
# Mechanical properties :
#
#
# Convention : Reuss Voigt Hill
#
# Bulk Modulus (GPa) = 17.14311 28.85837 23.00074
# Shear Modulus (GPa) = 23.31810 32.47300 27.89555
#
# Velocity S-wave (km/s) = 3.08329 3.63856 3.37237
# Velocity P-wave (km/s) = 4.43450 5.42380 4.95390
#
# Compressibility (1/GPa) = 0.05833247
#
# Stress axis : x y z
#
# Youngs Moduli (GPa) = 75.82994 117.14883 21.15099
#
# Poissons Ratio (x) = 0.09776 0.04724
# Poissons Ratio (y) = 0.06328 0.04795
# Poissons Ratio (z) = 0.16938 0.26557
#
# Static dielectric constant tensor:
#      x y z
#    x 4.333850 0.000000 -0.112510 
#    y 0.000000 4.509160 0.000000 
#    z -0.112510 0.000000 4.385200 
# 
# 
# High freq. dielectric constant tensor:
#      x y z
#    x 1.975280 0.000000 -0.005310 
#    y 0.000000 1.981400 0.000000 
#    z -0.005310 0.000000 1.979030 
# 
# From -- ./inp_files/218770.got.cif
#   From: 2010.06.25/outbox.cif.g09.slc.cpg/sg15_110_cif.got.tgz:218770.got - 2010.06.28 07:06:18.
