data_PCOD8150735
_publ_section_title
;
Structure prediction by ZEFSAII (Michael W. Deem and Ramdas Pophale) SiO2 
 PCOD8150735
Probable space group: C 2/C
;
_chemical_formula_sum "Si O2"
_cell_formula_units_Z 52
_cell_length_a 11.054153
_cell_length_b 28.142185
_cell_length_c 8.804820
_cell_angle_alpha 90.000000
_cell_angle_beta 57.027035
_cell_angle_gamma 90.000000
_cell_volume 2297.884408
_symmetry_space_group_name_H-M "C 2/C"
_symmetry_group_IT_number 15
_symmetry_cell_setting 'monoclinic'
loop_
_space_group_symop_operation_xyz
x,y,z
-x,y,1/2-z
-x,-y,-z
x,-y,1/2+z
1/2+x,1/2+y,z
1/2-x,1/2+y,1/2-z
1/2-x,1/2-y,-z
1/2+x,1/2-y,1/2+z
loop_
_atom_site_type_symbol
_atom_site_label
_atom_site_fract_x
_atom_site_fract_y
_atom_site_fract_z
Si Si1 0.367771 0.535967 0.083389
Si Si2 0.000000 0.099323 0.750000
Si Si3 0.706192 0.796935 0.727565
Si Si4 0.245101 0.378520 0.225961
Si Si5 0.600067 0.972801 0.315411
Si Si6 0.655874 0.620463 0.178784
Si Si7 0.109017 0.709146 0.955697
O O1 0.219227 0.508213 0.166140
O O2 0.362434 0.568058 0.238240
O O3 0.500000 0.500000 0.000000
O O4 0.387925 0.568029 0.921574
O O5 0.099070 0.130492 0.797825
O O6 0.761399 0.846057 0.759255
O O7 0.822803 0.755442 0.669425
O O8 0.681221 0.804649 0.566359
O O9 0.560286 0.781060 0.911479
O O10 0.175485 0.426893 0.339778
O O11 0.137622 0.334989 0.326094
O O12 0.259269 0.384613 0.036067
O O13 0.500000 0.953590 0.250000
O O14 0.500000 0.000000 0.500000
O O15 0.500000 0.642959 0.250000
#
# Coordination Sequence:
#
# PCOD8150735 Si02
#       7
#     8   4   8   8   8   8   8
#     4  12  26  46  73 101 143 191 251 295 361 434
#     4  12  24  44  72 102 136 196 248 300 352 440
#     4  10  25  49  76 107 148 182 244 293 357 435
#     4  12  27  44  72 106 147 191 242 300 365 435
#     4  12  27  46  69 104 144 189 238 306 366 429
#     4  12  26  46  70 109 147 188 240 305 361 423
#     4  10  25  48  79 109 141 194 234 294 358 436
#
# _framework density 22.62951
#
# number of rings (size 3 to 8) (size 9 to 14) (size 15 to 20)
#    0.000    0.615    3.077    2.769    9.692    1.846 
#    0.000    0.000    0.000    0.000    0.000    0.000 
#    0.000    0.000    0.000    0.000    0.000    0.000 
#
# Total GULP energy -322536.105357 kJ/mol
# GULP energy per Si atom -12405.234821 kJ/mol
# Density = 2.257800 g / cm^3
# Si number density = 22.629510 Si / 1000 Ang^3
#
#
#
# Elastic Constant Matrix: (Units=GPa)
#
#
# Indices 1 2 3 4 5 6 
#
# 1 104.1549 32.7933 29.0282 0.0000 -12.8202 0.0000
# 2 32.7933 118.1089 59.4990 0.0000 -12.1248 0.0000
# 3 29.0282 59.4990 131.6054 0.0000 -15.9334 0.0000
# 4 0.0000 0.0000 0.0000 43.6455 0.0000 -4.6613
# 5 -12.8202 -12.1248 -15.9334 0.0000 42.4238 0.0000
# 6 0.0000 0.0000 0.0000 -4.6613 0.0000 30.8986
#
#
#
# Elastic Compliance Matrix: (Units=1/GPa)
#
#
# Indices 1 2 3 4 5 6 
#
# 1 0.010891 -0.002228 -0.001125 0.000000 0.002232 0.000000
# 2 -0.002228 0.011492 -0.004597 0.000000 0.000885 0.000000
# 3 -0.001125 -0.004597 0.010188 0.000000 0.002173 0.000000
# 4 0.000000 0.000000 0.000000 0.023287 0.000000 0.003513
# 5 0.002232 0.000885 0.002173 0.000000 0.025315 0.000000
# 6 0.000000 0.000000 0.000000 0.003513 0.000000 0.032894
#
#
# Mechanical properties :
#
#
# Convention : Reuss Voigt Hill
#
# Bulk Modulus (GPa) = 59.98398 66.27892 63.13145
# Shear Modulus (GPa) = 36.89404 38.89682 37.89543
#
# Velocity S-wave (km/s) = 4.04214 4.15040 4.09663
# Velocity P-wave (km/s) = 6.95340 7.23326 7.09471
#
# Compressibility (1/GPa) = 0.01667112
#
# Stress axis : x y z
#
# Youngs Moduli (GPa) = 91.82073 87.01669 98.15583
#
# Poissons Ratio (x) = 0.19389 0.11038
# Poissons Ratio (y) = 0.20460 0.45122
# Poissons Ratio (z) = 0.10326 0.40002
#
# Static dielectric constant tensor:
#      x y z
#    x 3.995400 0.000000 -0.789590 
#    y 0.000000 3.874680 0.000000 
#    z -0.789590 0.000000 -3.878310 
# 
# 
# High freq. dielectric constant tensor:
#      x y z
#    x 1.898190 0.000000 -0.008480 
#    y 0.000000 1.885720 0.000000 
#    z -0.008480 0.000000 1.906480 
# 
# From -- ./inp_files/34088.got.cif
#   From: 2010.06.25/outbox.cif.g09.slc.cpg/sg15_18_cif.got.tgz:34088.got - 2010.06.28 07:06:18.
