data_PCOD8150102
_publ_section_title
;
Structure prediction by ZEFSAII (Michael W. Deem and Ramdas Pophale) SiO2 
 PCOD8150102
Probable space group: C 2/C
;
_chemical_formula_sum "Si O2"
_cell_formula_units_Z 36
_cell_length_a 7.394685
_cell_length_b 7.221750
_cell_length_c 31.863219
_cell_angle_alpha 90.000000
_cell_angle_beta 108.375082
_cell_angle_gamma 90.000000
_cell_volume 1614.819665
_symmetry_space_group_name_H-M "C 2/C"
_symmetry_group_IT_number 15
_symmetry_cell_setting 'monoclinic'
loop_
_space_group_symop_operation_xyz
x,y,z
-x,y,1/2-z
-x,-y,-z
x,-y,1/2+z
1/2+x,1/2+y,z
1/2-x,1/2+y,1/2-z
1/2-x,1/2-y,-z
1/2+x,1/2-y,1/2+z
loop_
_atom_site_type_symbol
_atom_site_label
_atom_site_fract_x
_atom_site_fract_y
_atom_site_fract_z
Si Si1 0.901300 0.796537 0.546199
Si Si2 0.500000 0.495769 0.250000
Si Si3 0.004713 0.476872 0.118923
Si Si4 0.796867 0.839071 0.081396
Si Si5 0.588640 0.150449 0.714542
O O1 0.750000 0.750000 0.500000
O O2 0.862978 0.664410 0.583924
O O3 0.115352 0.756709 0.544588
O O4 0.890844 0.011829 0.557570
O O5 0.461881 0.630099 0.287570
O O6 0.683174 0.368452 0.270816
O O7 0.953219 0.688494 0.105361
O O8 0.220054 0.438917 0.118272
O O9 0.989247 0.443416 0.167341
O O10 0.500000 0.054130 0.750000
#
# Coordination Sequence:
#
# PCOD8150102 Si02
#       5
#     8   4   8   8   8
#     4  10  24  44  66  98 133 177 222 272 331 394
#     4  10  26  40  68  94 132 170 224 268 344 394
#     4  10  26  42  67  98 132 172 222 273 336 395
#     4  10  25  39  68  93 131 171 218 271 327 390
#     4  10  26  43  68  97 133 175 221 278 336 407
#
# _framework density 22.293512
#
# number of rings (size 3 to 8) (size 9 to 14) (size 15 to 20)
#    2.000    0.000    0.000    0.667   10.889    1.778 
#    0.000    0.000    0.000    0.000    0.000    0.000 
#    0.000    0.000    0.000    0.000    0.000    0.000 
#
# Total GULP energy -223031.154560 kJ/mol
# GULP energy per Si atom -12390.619698 kJ/mol
# Density = 2.224277 g / cm^3
# Si number density = 22.293512 Si / 1000 Ang^3
#
#
#
# Elastic Constant Matrix: (Units=GPa)
#
#
# Indices 1 2 3 4 5 6 
#
# 1 93.1383 59.8737 25.7135 0.0000 10.1829 0.0000
# 2 59.8737 113.0012 33.7764 0.0000 0.3345 0.0000
# 3 25.7135 33.7764 132.2657 0.0000 4.2362 0.0000
# 4 0.0000 0.0000 0.0000 21.8860 0.0000 3.2757
# 5 10.1829 0.3345 4.2362 0.0000 13.2006 0.0000
# 6 0.0000 0.0000 0.0000 3.2757 0.0000 45.4937
#
#
#
# Elastic Compliance Matrix: (Units=1/GPa)
#
#
# Indices 1 2 3 4 5 6 
#
# 1 0.018640 -0.009619 -0.000722 0.000000 -0.013903 0.000000
# 2 -0.009619 0.014549 -0.002093 0.000000 0.007723 0.000000
# 3 -0.000722 -0.002093 0.008301 0.000000 -0.002054 0.000000
# 4 0.000000 0.000000 0.000000 0.046189 0.000000 -0.003326
# 5 -0.013903 0.007723 -0.002054 0.000000 0.086943 0.000000
# 6 0.000000 0.000000 0.000000 -0.003326 0.000000 0.022221
#
#
# Mechanical properties :
#
#
# Convention : Reuss Voigt Hill
#
# Bulk Modulus (GPa) = 60.16135 64.12580 62.14358
# Shear Modulus (GPa) = 22.00214 30.71883 26.36049
#
# Velocity S-wave (km/s) = 3.14495 3.71607 3.44238
# Velocity P-wave (km/s) = 6.34289 6.87307 6.61329
#
# Compressibility (1/GPa) = 0.01662197
#
# Stress axis : x y z
#
# Youngs Moduli (GPa) = 53.64842 68.73370 120.46653
#
# Poissons Ratio (x) = 0.66118 0.08697
# Poissons Ratio (y) = 0.51606 0.25209
# Poissons Ratio (z) = 0.03873 0.14383
#
# Static dielectric constant tensor:
#      x y z
#    x 3.791480 0.000000 -0.071730 
#    y 0.000000 3.932900 0.000000 
#    z -0.071730 0.000000 3.797490 
# 
# 
# High freq. dielectric constant tensor:
#      x y z
#    x 1.869610 0.000000 0.003310 
#    y 0.000000 1.879680 0.000000 
#    z 0.003310 0.000000 1.859250 
# 
# From -- ./inp_files/306369.got.cif
#   From: 2010.06.25/outbox.cif.g09.slc.cpg/sg15_154_cif.got.tgz:306369.got - 2010.06.28 07:06:18.
