data_PCOD8150503
_publ_section_title
;
Structure prediction by ZEFSAII (Michael W. Deem and Ramdas Pophale) SiO2 
 PCOD8150503
Probable space group: C 2/C
;
_chemical_formula_sum "Si O2"
_cell_formula_units_Z 32
_cell_length_a 11.172292
_cell_length_b 7.669914
_cell_length_c 16.339188
_cell_angle_alpha 90.000000
_cell_angle_beta 108.029944
_cell_angle_gamma 90.000000
_cell_volume 1331.360766
_symmetry_space_group_name_H-M "C 2/C"
_symmetry_group_IT_number 15
_symmetry_cell_setting 'monoclinic'
loop_
_space_group_symop_operation_xyz
x,y,z
-x,y,1/2-z
-x,-y,-z
x,-y,1/2+z
1/2+x,1/2+y,z
1/2-x,1/2+y,1/2-z
1/2-x,1/2-y,-z
1/2+x,1/2-y,1/2+z
loop_
_atom_site_type_symbol
_atom_site_label
_atom_site_fract_x
_atom_site_fract_y
_atom_site_fract_z
Si Si1 0.569603 0.623960 0.187430
Si Si2 0.399432 0.228283 0.528791
Si Si3 0.495586 0.131154 0.119732
Si Si4 0.831735 0.762258 0.221608
O O1 0.500000 0.710918 0.250000
O O2 0.469063 0.614202 0.091677
O O3 0.682304 0.750837 0.183262
O O4 0.623317 0.436851 0.223391
O O5 0.250000 0.250000 0.500000
O O6 0.449990 0.230725 0.447503
O O7 0.435609 0.051945 0.583575
O O8 0.388549 0.249550 0.141938
O O9 0.611458 0.107525 0.208703
#
# Coordination Sequence:
#
# PCOD8150503 Si02
#       4
#     8   8   8   8
#     4  12  26  45  75 107 141 192 242 295 359 433
#     4  11  26  46  75 106 147 190 241 295 370 425
#     4  10  24  49  68 107 146 186 238 302 354 428
#     4  11  25  48  73 105 145 190 246 296 359 426
#
# _framework density 24.035558000000002
#
# number of rings (size 3 to 8) (size 9 to 14) (size 15 to 20)
#    0.000    1.000    2.500    3.000   10.500    4.000 
#    0.000    0.000    0.000    0.000    0.000    0.000 
#    0.000    0.000    0.000    0.000    0.000    0.000 
#
# Total GULP energy -198343.296623 kJ/mol
# GULP energy per Si atom -12396.456039 kJ/mol
# Density = 2.398085 g / cm^3
# Si number density = 24.035558 Si / 1000 Ang^3
#
#
#
# Elastic Constant Matrix: (Units=GPa)
#
#
# Indices 1 2 3 4 5 6 
#
# 1 220.5642 53.6642 101.7343 0.0000 7.1839 0.0000
# 2 53.6642 82.8543 43.9722 0.0000 -6.8656 0.0000
# 3 101.7343 43.9722 160.3900 0.0000 -13.5313 0.0000
# 4 0.0000 0.0000 0.0000 34.3239 0.0000 6.1057
# 5 7.1839 -6.8656 -13.5313 0.0000 52.2249 0.0000
# 6 0.0000 0.0000 0.0000 6.1057 0.0000 31.7544
#
#
#
# Elastic Compliance Matrix: (Units=1/GPa)
#
#
# Indices 1 2 3 4 5 6 
#
# 1 0.007090 -0.002686 -0.003960 0.000000 -0.002354 0.000000
# 2 -0.002686 0.015181 -0.002309 0.000000 0.001767 0.000000
# 3 -0.003960 -0.002309 0.009610 0.000000 0.002731 0.000000
# 4 0.000000 0.000000 0.000000 0.030166 0.000000 -0.005800
# 5 -0.002354 0.001767 0.002731 0.000000 0.020412 0.000000
# 6 0.000000 0.000000 0.000000 -0.005800 0.000000 0.032607
#
#
# Mechanical properties :
#
#
# Convention : Reuss Voigt Hill
#
# Bulk Modulus (GPa) = 71.57392 95.83889 83.70641
# Shear Modulus (GPa) = 36.32853 41.28983 38.80918
#
# Velocity S-wave (km/s) = 3.89195 4.14921 4.02264
# Velocity P-wave (km/s) = 7.07385 7.93189 7.51513
#
# Compressibility (1/GPa) = 0.01397157
#
# Stress axis : x y z
#
# Youngs Moduli (GPa) = 141.03577 65.87150 104.05992
#
# Poissons Ratio (x) = 0.17693 0.41204
# Poissons Ratio (y) = 0.37883 0.24029
# Poissons Ratio (z) = 0.55845 0.15211
#
# Static dielectric constant tensor:
#      x y z
#    x 4.710370 0.000000 0.050500 
#    y 0.000000 4.069480 0.000000 
#    z 0.050500 0.000000 4.608120 
# 
# 
# High freq. dielectric constant tensor:
#      x y z
#    x 1.971800 0.000000 -0.006460 
#    y 0.000000 1.944660 0.000000 
#    z -0.006460 0.000000 1.960300 
# 
# From -- ./inp_files/140724.got.cif
#   From: 2010.06.25/outbox.cif.g09.slc.cpg/sg15_71_cif.got.tgz:140724.got - 2010.06.28 07:06:18.
