data_PCOD8150957
_publ_section_title
;
Structure prediction by ZEFSAII (Michael W. Deem and Ramdas Pophale) SiO2 
 PCOD8150957
Probable space group: C 2/C
;
_chemical_formula_sum "Si O2"
_cell_formula_units_Z 40
_cell_length_a 23.399097
_cell_length_b 11.880856
_cell_length_c 11.163001
_cell_angle_alpha 90.000000
_cell_angle_beta 138.871034
_cell_angle_gamma 90.000000
_cell_volume 2041.233541
_symmetry_space_group_name_H-M "C 2/C"
_symmetry_group_IT_number 15
_symmetry_cell_setting 'monoclinic'
loop_
_space_group_symop_operation_xyz
x,y,z
-x,y,1/2-z
-x,-y,-z
x,-y,1/2+z
1/2+x,1/2+y,z
1/2-x,1/2+y,1/2-z
1/2-x,1/2-y,-z
1/2+x,1/2-y,1/2+z
loop_
_atom_site_type_symbol
_atom_site_label
_atom_site_fract_x
_atom_site_fract_y
_atom_site_fract_z
Si Si1 0.515333 0.842682 0.615478
Si Si2 0.197681 0.671500 0.506059
Si Si3 0.716905 0.082544 0.013261
Si Si4 0.162793 0.268394 0.210057
Si Si5 0.064583 0.582786 0.947083
O O1 0.439249 0.749800 0.481594
O O2 0.566855 0.848552 0.572401
O O3 0.466756 0.956296 0.577032
O O4 0.591807 0.814053 0.830000
O O5 0.250000 0.750000 0.500000
O O6 0.232929 0.549485 0.520535
O O7 0.217576 0.698810 0.677001
O O8 0.804195 0.152090 0.179232
O O9 0.671425 0.130768 0.821391
O O10 0.659317 0.089591 0.041377
O O11 0.000000 0.640799 0.750000
#
# Coordination Sequence:
#
# PCOD8150957 Si02
#       5
#     8   8   8   8   8
#     4  11  20  35  62  93 119 161 210 255 304 360
#     4  12  25  39  62  91 123 165 210 258 307 372
#     4  11  23  39  61  96 126 162 203 255 317 369
#     4  11  23  38  61  91 131 158 199 263 315 366
#     4  11  17  33  61  89 121 155 206 262 297 350
#
# _framework density 19.595993
#
# number of rings (size 3 to 8) (size 9 to 14) (size 15 to 20)
#    0.000    0.800    6.000    3.000    2.800    0.000 
#    0.000    1.000    0.000    0.000    0.000    0.000 
#    0.000    0.000    0.000    0.000    0.000    0.000 
#
# Total GULP energy -247893.263459 kJ/mol
# GULP energy per Si atom -12394.663173 kJ/mol
# Density = 1.955139 g / cm^3
# Si number density = 19.595993 Si / 1000 Ang^3
#
#
#
# Elastic Constant Matrix: (Units=GPa)
#
#
# Indices 1 2 3 4 5 6 
#
# 1 124.6610 39.1505 27.6654 0.0000 -18.9877 0.0000
# 2 39.1505 100.9661 43.0388 0.0000 7.0069 0.0000
# 3 27.6654 43.0388 90.3908 0.0000 -6.7260 0.0000
# 4 0.0000 0.0000 0.0000 23.0386 0.0000 4.6786
# 5 -18.9877 7.0069 -6.7260 0.0000 37.5121 0.0000
# 6 0.0000 0.0000 0.0000 4.6786 0.0000 27.8945
#
#
#
# Elastic Compliance Matrix: (Units=1/GPa)
#
#
# Indices 1 2 3 4 5 6 
#
# 1 0.010378 -0.004096 -0.000789 0.000000 0.005877 0.000000
# 2 -0.004096 0.014493 -0.006084 0.000000 -0.005871 0.000000
# 3 -0.000789 -0.006084 0.014449 0.000000 0.003328 0.000000
# 4 0.000000 0.000000 0.000000 0.044936 0.000000 -0.007537
# 5 0.005877 -0.005871 0.003328 0.000000 0.031326 0.000000
# 6 0.000000 0.000000 0.000000 -0.007537 0.000000 0.037113
#
#
# Mechanical properties :
#
#
# Convention : Reuss Voigt Hill
#
# Bulk Modulus (GPa) = 57.52784 59.52526 58.52655
# Shear Modulus (GPa) = 27.71177 31.43327 29.57252
#
# Velocity S-wave (km/s) = 3.76460 4.00942 3.88894
# Velocity P-wave (km/s) = 6.95104 7.20251 7.07789
#
# Compressibility (1/GPa) = 0.01738289
#
# Stress axis : x y z
#
# Youngs Moduli (GPa) = 96.35515 68.99647 69.20826
#
# Poissons Ratio (x) = 0.28260 0.05460
# Poissons Ratio (y) = 0.39465 0.42108
# Poissons Ratio (z) = 0.07602 0.41979
#
# Static dielectric constant tensor:
#      x y z
#    x 3.919260 0.000000 -0.239760 
#    y 0.000000 3.331800 0.000000 
#    z -0.239760 0.000000 3.918830 
# 
# 
# High freq. dielectric constant tensor:
#      x y z
#    x 1.785090 0.000000 -0.025240 
#    y 0.000000 1.716530 0.000000 
#    z -0.025240 0.000000 1.771760 
# 
# From -- ./inp_files/94494.got.cif
#   From: 2010.06.25/outbox.cif.g09.slc.cpg/sg15_48_cif.got.tgz:94494.got - 2010.06.28 07:06:18.
