data_PCOD8150121
_publ_section_title
;
Structure prediction by ZEFSAII (Michael W. Deem and Ramdas Pophale) SiO2 
 PCOD8150121
Probable space group: C 2/C
;
_chemical_formula_sum "Si O2"
_cell_formula_units_Z 44
_cell_length_a 5.180730
_cell_length_b 18.290371
_cell_length_c 25.108494
_cell_angle_alpha 90.000000
_cell_angle_beta 58.063498
_cell_angle_gamma 90.000000
_cell_volume 2019.086872
_symmetry_space_group_name_H-M "C 2/C"
_symmetry_group_IT_number 15
_symmetry_cell_setting 'monoclinic'
loop_
_space_group_symop_operation_xyz
x,y,z
-x,y,1/2-z
-x,-y,-z
x,-y,1/2+z
1/2+x,1/2+y,z
1/2-x,1/2+y,1/2-z
1/2-x,1/2-y,-z
1/2+x,1/2-y,1/2+z
loop_
_atom_site_type_symbol
_atom_site_label
_atom_site_fract_x
_atom_site_fract_y
_atom_site_fract_z
Si Si1 0.959027 0.262952 0.817382
Si Si2 0.188681 0.586366 0.116817
Si Si3 0.902611 0.421419 0.533138
Si Si4 0.000000 0.671795 0.750000
Si Si5 0.802855 0.362764 0.094341
Si Si6 0.860676 0.427511 0.350413
O O1 0.923823 0.347214 0.834349
O O2 0.696728 0.216416 0.876262
O O3 0.000000 0.250235 0.750000
O O4 0.265378 0.225599 0.805523
O O5 0.544440 0.589956 0.065763
O O6 0.113345 0.514602 0.159633
O O7 0.999261 0.589152 0.083229
O O8 0.000000 0.500000 0.500000
O O9 0.071447 0.358543 0.479762
O O10 0.896677 0.615713 0.713935
O O11 0.477591 0.402999 0.129682
O O12 0.052791 0.411617 0.098022
#
# Coordination Sequence:
#
# PCOD8150121 Si02
#       6
#     8   8   8   4   8   8
#     4  11  26  46  65  98 137 176 218 284 331 390
#     4  12  26  40  71 103 134 168 224 279 336 380
#     4  12  23  44  68 101 137 170 220 281 324 399
#     4  10  24  44  68  86 142 176 224 266 330 406
#     4  11  23  42  72  91 134 178 219 256 342 395
#     4  11  21  41  66 101 118 182 220 263 324 400
#
# _framework density 21.792027999999998
#
# number of rings (size 3 to 8) (size 9 to 14) (size 15 to 20)
#    0.000    0.727    5.455    1.636    3.818    1.455 
#    0.000    0.000    0.000    0.000    0.000    0.000 
#    0.000    0.000    0.000    0.000    0.000    0.000 
#
# Total GULP energy -272616.704698 kJ/mol
# GULP energy per Si atom -12391.668395 kJ/mol
# Density = 2.174243 g / cm^3
# Si number density = 21.792028 Si / 1000 Ang^3
#
#
#
# Elastic Constant Matrix: (Units=GPa)
#
#
# Indices 1 2 3 4 5 6 
#
# 1 79.4589 27.9551 7.5392 0.0000 5.6076 0.0000
# 2 27.9551 163.9966 50.3431 0.0000 -8.6552 0.0000
# 3 7.5392 50.3431 74.6154 0.0000 -6.2825 0.0000
# 4 0.0000 0.0000 0.0000 50.3435 0.0000 -0.0235
# 5 5.6076 -8.6552 -6.2825 0.0000 31.7967 0.0000
# 6 0.0000 0.0000 0.0000 -0.0235 0.0000 21.5035
#
#
#
# Elastic Compliance Matrix: (Units=1/GPa)
#
#
# Indices 1 2 3 4 5 6 
#
# 1 0.013681 -0.002511 0.000052 0.000000 -0.003086 0.000000
# 2 -0.002511 0.008188 -0.005131 0.000000 0.001658 0.000000
# 3 0.000052 -0.005131 0.017024 0.000000 0.001958 0.000000
# 4 0.000000 0.000000 0.000000 0.019864 0.000000 0.000022
# 5 -0.003086 0.001658 0.001958 0.000000 0.032832 0.000000
# 6 0.000000 0.000000 0.000000 0.000022 0.000000 0.046504
#
#
# Mechanical properties :
#
#
# Convention : Reuss Voigt Hill
#
# Bulk Modulus (GPa) = 42.17148 54.41620 48.29384
# Shear Modulus (GPa) = 31.02150 36.21099 33.61624
#
# Velocity S-wave (km/s) = 3.77706 4.08077 3.93185
# Velocity P-wave (km/s) = 6.19801 6.87230 6.54385
#
# Compressibility (1/GPa) = 0.02371271
#
# Stress axis : x y z
#
# Youngs Moduli (GPa) = 73.09195 122.12335 58.74112
#
# Poissons Ratio (x) = 0.30665 -0.00305
# Poissons Ratio (y) = 0.18353 0.30143
# Poissons Ratio (z) = -0.00380 0.62667
#
# Static dielectric constant tensor:
#      x y z
#    x 3.944410 0.000000 0.020720 
#    y 0.000000 4.003010 0.000000 
#    z 0.020720 0.000000 4.125230 
# 
# 
# High freq. dielectric constant tensor:
#      x y z
#    x 1.857280 0.000000 0.009000 
#    y 0.000000 1.856630 0.000000 
#    z 0.009000 0.000000 1.857340 
# 
# From -- ./inp_files/226917.got.cif
#   From: 2010.06.25/outbox.cif.g09.slc.cpg/sg15_114_cif.got.tgz:226917.got - 2010.06.28 07:06:18.
