data_PCOD8150569
_publ_section_title
;
Structure prediction by ZEFSAII (Michael W. Deem and Ramdas Pophale) SiO2 
 PCOD8150569
Probable space group: C 2/C
;
_chemical_formula_sum "Si O2"
_cell_formula_units_Z 56
_cell_length_a 28.074323
_cell_length_b 9.596181
_cell_length_c 14.159525
_cell_angle_alpha 90.000000
_cell_angle_beta 132.367001
_cell_angle_gamma 90.000000
_cell_volume 2818.440752
_symmetry_space_group_name_H-M "C 2/C"
_symmetry_group_IT_number 15
_symmetry_cell_setting 'monoclinic'
loop_
_space_group_symop_operation_xyz
x,y,z
-x,y,1/2-z
-x,-y,-z
x,-y,1/2+z
1/2+x,1/2+y,z
1/2-x,1/2+y,1/2-z
1/2-x,1/2-y,-z
1/2+x,1/2-y,1/2+z
loop_
_atom_site_type_symbol
_atom_site_label
_atom_site_fract_x
_atom_site_fract_y
_atom_site_fract_z
Si Si1 0.622305 0.150483 0.254490
Si Si2 0.850757 0.055167 0.651487
Si Si3 0.031580 0.393484 0.472022
Si Si4 0.260088 0.388871 0.865132
Si Si5 0.606646 0.952312 0.395002
Si Si6 0.053232 0.814213 0.747217
Si Si7 0.761275 0.565385 0.848917
O O1 0.613799 0.297455 0.294042
O O2 0.697331 0.109547 0.347868
O O3 0.586292 0.038186 0.273737
O O4 0.594329 0.162833 0.111411
O O5 0.818149 0.049162 0.504989
O O6 0.799471 0.036578 0.666201
O O7 0.905858 0.940518 0.739193
O O8 0.053750 0.474073 0.406778
O O9 0.000000 0.500000 0.500000
O O10 0.983417 0.265926 0.386367
O O11 0.252223 0.493369 0.768373
O O12 0.273857 0.230180 0.850110
O O13 0.604120 0.788952 0.366087
O O14 0.676974 0.995123 0.521809
O O15 0.000000 0.869959 0.750000
#
# Coordination Sequence:
#
# PCOD8150569 Si02
#       7
#     8   8   8   8   8   8   8
#     4  11  21  42  67  91 127 169 205 270 317 376
#     4  11  24  43  63  93 136 164 209 264 327 384
#     4  11  23  40  66  92 125 165 221 263 305 380
#     4  11  23  40  64  99 134 161 209 264 324 379
#     4  11  21  41  65  92 126 163 215 265 315 372
#     4  10  25  43  61  92 129 172 212 262 321 377
#     4  11  23  39  66  98 124 170 209 263 329 378
#
# _framework density 19.869140999999999
#
# number of rings (size 3 to 8) (size 9 to 14) (size 15 to 20)
#    0.000    1.143    5.714    0.857    2.000    4.571 
#    2.571    0.000    0.000    0.000    0.000    0.000 
#    0.000    0.000    0.000    0.000    0.000    0.000 
#
# Total GULP energy -347235.703327 kJ/mol
# GULP energy per Si atom -12401.275119 kJ/mol
# Density = 1.982392 g / cm^3
# Si number density = 19.869141 Si / 1000 Ang^3
#
#
#
# Elastic Constant Matrix: (Units=GPa)
#
#
# Indices 1 2 3 4 5 6 
#
# 1 89.4267 63.2291 25.3878 0.0000 -6.0741 0.0000
# 2 63.2291 101.5755 32.8799 0.0000 -2.4191 0.0000
# 3 25.3878 32.8799 101.3983 0.0000 -9.1661 0.0000
# 4 0.0000 0.0000 0.0000 29.1139 0.0000 2.5959
# 5 -6.0741 -2.4191 -9.1661 0.0000 33.3780 0.0000
# 6 0.0000 0.0000 0.0000 2.5959 0.0000 37.1636
#
#
#
# Elastic Compliance Matrix: (Units=1/GPa)
#
#
# Indices 1 2 3 4 5 6 
#
# 1 0.020292 -0.012291 -0.000863 0.000000 0.002565 0.000000
# 2 -0.012291 0.018445 -0.003061 0.000000 -0.001740 0.000000
# 3 -0.000863 -0.003061 0.011318 0.000000 0.002729 0.000000
# 4 0.000000 0.000000 0.000000 0.034563 0.000000 -0.002414
# 5 0.002565 -0.001740 0.002729 0.000000 0.031050 0.000000
# 6 0.000000 0.000000 0.000000 -0.002414 0.000000 0.027077
#
#
# Mechanical properties :
#
#
# Convention : Reuss Voigt Hill
#
# Bulk Modulus (GPa) = 56.74037 59.48823 58.11430
# Shear Modulus (GPa) = 27.61678 31.32468 29.47073
#
# Velocity S-wave (km/s) = 3.73223 3.97489 3.85547
# Velocity P-wave (km/s) = 6.86962 7.14642 7.00939
#
# Compressibility (1/GPa) = 0.01762414
#
# Stress axis : x y z
#
# Youngs Moduli (GPa) = 49.28088 54.21483 88.35839
#
# Poissons Ratio (x) = 0.66634 0.07628
# Poissons Ratio (y) = 0.60570 0.27047
# Poissons Ratio (z) = 0.04254 0.16596
#
# Static dielectric constant tensor:
#      x y z
#    x 3.539560 0.000000 -0.077800 
#    y 0.000000 3.587770 0.000000 
#    z -0.077800 0.000000 4.162180 
# 
# 
# High freq. dielectric constant tensor:
#      x y z
#    x 1.772160 0.000000 -0.002330 
#    y 0.000000 1.767820 0.000000 
#    z -0.002330 0.000000 1.794690 
# 
# From -- ./inp_files/180867.got.cif
#   From: 2010.06.25/outbox.cif.g09.slc.cpg/sg15_91_cif.got.tgz:180867.got - 2010.06.28 07:06:18.
