data_PCOD8150666
_publ_section_title
;
Structure prediction by ZEFSAII (Michael W. Deem and Ramdas Pophale) SiO2 
 PCOD8150666
Probable space group: C 2/C
;
_chemical_formula_sum "Si O2"
_cell_formula_units_Z 24
_cell_length_a 14.105204
_cell_length_b 7.112364
_cell_length_c 13.814833
_cell_angle_alpha 90.000000
_cell_angle_beta 142.285919
_cell_angle_gamma 90.000000
_cell_volume 847.798632
_symmetry_space_group_name_H-M "C 2/C"
_symmetry_group_IT_number 15
_symmetry_cell_setting 'monoclinic'
loop_
_space_group_symop_operation_xyz
x,y,z
-x,y,1/2-z
-x,-y,-z
x,-y,1/2+z
1/2+x,1/2+y,z
1/2-x,1/2+y,1/2-z
1/2-x,1/2-y,-z
1/2+x,1/2-y,1/2+z
loop_
_atom_site_type_symbol
_atom_site_label
_atom_site_fract_x
_atom_site_fract_y
_atom_site_fract_z
Si Si1 0.072596 0.355797 0.189364
Si Si2 0.681890 0.139940 0.572784
Si Si3 0.667307 0.460669 0.970573
O O1 0.169045 0.352603 0.369350
O O2 0.972962 0.543957 0.094532
O O3 0.195631 0.363197 0.199961
O O4 0.975844 0.164360 0.112207
O O5 0.672521 0.356624 0.540402
O O6 0.826779 0.029654 0.637924
#
# Coordination Sequence:
#
# PCOD8150666 Si02
#       3
#     8   8   8
#     4  11  25  46  78 109 148 199 251 313 383 451
#     4  10  25  45  73 108 151 200 244 307 384 453
#     4  11  25  49  75 112 149 197 253 315 379 456
#
# _framework density 28.308606000000001
#
# number of rings (size 3 to 8) (size 9 to 14) (size 15 to 20)
#    0.000    1.333    0.000    3.000    9.333    2.667 
#    6.000    6.667    0.000    0.000    0.000    0.000 
#    0.000    0.000    0.000    0.000    0.000    0.000 
#
# Total GULP energy -148796.959100 kJ/mol
# GULP energy per Si atom -12399.746592 kJ/mol
# Density = 2.824417 g / cm^3
# Si number density = 28.308606 Si / 1000 Ang^3
#
#
#
# Elastic Constant Matrix: (Units=GPa)
#
#
# Indices 1 2 3 4 5 6 
#
# 1 146.4064 15.5562 -14.2239 0.0000 -39.7506 0.0000
# 2 15.5562 139.6142 10.9747 0.0000 23.3580 0.0000
# 3 -14.2239 10.9747 95.1658 0.0000 -6.8019 0.0000
# 4 0.0000 0.0000 0.0000 22.4947 0.0000 10.0498
# 5 -39.7506 23.3580 -6.8019 0.0000 40.0699 0.0000
# 6 0.0000 0.0000 0.0000 10.0498 0.0000 33.2551
#
#
#
# Elastic Compliance Matrix: (Units=1/GPa)
#
#
# Indices 1 2 3 4 5 6 
#
# 1 0.011366 -0.003867 0.003150 0.000000 0.014064 0.000000
# 2 -0.003867 0.009405 -0.002357 0.000000 -0.009719 0.000000
# 3 0.003150 -0.002357 0.011714 0.000000 0.006487 0.000000
# 4 0.000000 0.000000 0.000000 0.051394 0.000000 -0.015531
# 5 0.014064 -0.009719 0.006487 0.000000 0.045675 0.000000
# 6 0.000000 0.000000 0.000000 -0.015531 0.000000 0.034764
#
#
# Mechanical properties :
#
#
# Convention : Reuss Voigt Hill
#
# Bulk Modulus (GPa) = 37.97043 45.08893 41.52968
# Shear Modulus (GPa) = 27.89486 43.75591 35.82539
#
# Velocity S-wave (km/s) = 3.14249 3.93577 3.56129
# Velocity P-wave (km/s) = 5.15840 6.05111 5.62250
#
# Compressibility (1/GPa) = 0.02633628
#
# Stress axis : x y z
#
# Youngs Moduli (GPa) = 87.98401 106.32966 85.36578
#
# Poissons Ratio (x) = 0.41117 -0.26890
# Poissons Ratio (y) = 0.34023 0.20122
# Poissons Ratio (z) = -0.27714 0.25064
#
# Static dielectric constant tensor:
#      x y z
#    x 5.702180 0.000000 -0.149730 
#    y 0.000000 5.435280 0.000000 
#    z -0.149730 0.000000 5.124640 
# 
# 
# High freq. dielectric constant tensor:
#      x y z
#    x 2.171830 0.000000 -0.010220 
#    y 0.000000 2.185950 0.000000 
#    z -0.010220 0.000000 2.122760 
# 
# From -- ./inp_files/36119.got.cif
#   From: 2010.06.25/outbox.cif.g09.slc.cpg/sg15_19_cif.got.tgz:36119.got - 2010.06.28 07:06:18.
