data_PCOD8150345
_publ_section_title
;
Structure prediction by ZEFSAII (Michael W. Deem and Ramdas Pophale) SiO2 
 PCOD8150345
Probable space group: C 2/C
;
_chemical_formula_sum "Si O2"
_cell_formula_units_Z 28
_cell_length_a 11.578079
_cell_length_b 23.083584
_cell_length_c 4.910549
_cell_angle_alpha 90.000000
_cell_angle_beta 125.444133
_cell_angle_gamma 90.000000
_cell_volume 1069.196609
_symmetry_space_group_name_H-M "C 2/C"
_symmetry_group_IT_number 15
_symmetry_cell_setting 'monoclinic'
loop_
_space_group_symop_operation_xyz
x,y,z
-x,y,1/2-z
-x,-y,-z
x,-y,1/2+z
1/2+x,1/2+y,z
1/2-x,1/2+y,1/2-z
1/2-x,1/2-y,-z
1/2+x,1/2-y,1/2+z
loop_
_atom_site_type_symbol
_atom_site_label
_atom_site_fract_x
_atom_site_fract_y
_atom_site_fract_z
Si Si1 0.359128 0.734266 0.920971
Si Si2 0.500000 0.375495 0.750000
Si Si3 0.500000 0.893689 0.250000
Si Si4 0.500000 0.185111 0.250000
Si Si5 0.784161 0.960714 0.644882
O O1 0.359784 0.773276 0.635063
O O2 0.500000 0.762253 0.250000
O O3 0.250000 0.750000 0.000000
O O4 0.389452 0.665315 0.924648
O O5 0.409113 0.413118 0.841248
O O6 0.451589 0.855884 0.440703
O O7 0.632785 0.933363 0.508105
O O8 0.802371 0.984704 0.365435
#
# Coordination Sequence:
#
# PCOD8150345 Si02
#       5
#     8   4   4   4   8
#     4  10  24  46  69 108 147 186 233 289 356 438
#     4  10  25  46  69 106 141 194 229 298 358 424
#     4  12  25  47  74 108 140 191 237 304 360 422
#     4  12  24  45  73 108 151 183 240 286 362 440
#     4  12  26  48  72 102 140 187 247 301 354 417
#
# _framework density 26.187887
#
# number of rings (size 3 to 8) (size 9 to 14) (size 15 to 20)
#    0.857    0.000    1.429    5.143    0.000    3.429 
#    0.000    0.000    0.000    0.000    0.000    0.000 
#    0.000    0.000    0.000    0.000    0.000    0.000 
#
# Total GULP energy -173536.151379 kJ/mol
# GULP energy per Si atom -12395.439384 kJ/mol
# Density = 2.612828 g / cm^3
# Si number density = 26.187887 Si / 1000 Ang^3
#
#
#
# Elastic Constant Matrix: (Units=GPa)
#
#
# Indices 1 2 3 4 5 6 
#
# 1 221.0877 88.6835 40.3158 0.0000 -4.5517 0.0000
# 2 88.6835 163.0109 37.5210 0.0000 -4.6039 0.0000
# 3 40.3158 37.5210 59.0738 0.0000 -31.2265 0.0000
# 4 0.0000 0.0000 0.0000 42.1197 0.0000 -5.0716
# 5 -4.5517 -4.6039 -31.2265 0.0000 34.3170 0.0000
# 6 0.0000 0.0000 0.0000 -5.0716 0.0000 53.0442
#
#
#
# Elastic Compliance Matrix: (Units=1/GPa)
#
#
# Indices 1 2 3 4 5 6 
#
# 1 0.006291 -0.002431 -0.004780 0.000000 -0.003841 0.000000
# 2 -0.002431 0.008866 -0.006771 0.000000 -0.005294 0.000000
# 3 -0.004780 -0.006771 0.045616 0.000000 0.039966 0.000000
# 4 0.000000 0.000000 0.000000 0.024018 0.000000 0.002296
# 5 -0.003841 -0.005294 0.039966 0.000000 0.064287 0.000000
# 6 0.000000 0.000000 0.000000 0.002296 0.000000 0.019072
#
#
# Mechanical properties :
#
#
# Convention : Reuss Voigt Hill
#
# Bulk Modulus (GPa) = 30.47757 86.24589 58.36173
# Shear Modulus (GPa) = 24.14887 44.33966 34.24426
#
# Velocity S-wave (km/s) = 3.03997 4.11924 3.62005
# Velocity P-wave (km/s) = 4.89747 7.45850 6.30929
#
# Compressibility (1/GPa) = 0.03281102
#
# Stress axis : x y z
#
# Youngs Moduli (GPa) = 158.96839 112.79238 21.92191
#
# Poissons Ratio (x) = 0.27416 0.10478
# Poissons Ratio (y) = 0.38639 0.14843
# Poissons Ratio (z) = 0.75979 0.76369
#
# Static dielectric constant tensor:
#      x y z
#    x 4.976480 0.000000 0.248460 
#    y 0.000000 4.927160 0.000000 
#    z 0.248460 0.000000 5.179400 
# 
# 
# High freq. dielectric constant tensor:
#      x y z
#    x 2.078690 0.000000 0.004470 
#    y 0.000000 2.067340 0.000000 
#    z 0.004470 0.000000 2.038510 
# 
# From -- ./inp_files/3748.got.cif
#   From: 2010.06.25/outbox.cif.g09.slc.cpg/sg15_2_cif.got.tgz:3748.got - 2010.06.28 07:06:18.
