data_PCOD8150644
_publ_section_title
;
Structure prediction by ZEFSAII (Michael W. Deem and Ramdas Pophale) SiO2 
 PCOD8150644
Probable space group: C 2/C
;
_chemical_formula_sum "Si O2"
_cell_formula_units_Z 60
_cell_length_a 12.841665
_cell_length_b 16.566263
_cell_length_c 14.285917
_cell_angle_alpha 90.000000
_cell_angle_beta 111.896629
_cell_angle_gamma 90.000000
_cell_volume 2819.912414
_symmetry_space_group_name_H-M "C 2/C"
_symmetry_group_IT_number 15
_symmetry_cell_setting 'monoclinic'
loop_
_space_group_symop_operation_xyz
x,y,z
-x,y,1/2-z
-x,-y,-z
x,-y,1/2+z
1/2+x,1/2+y,z
1/2-x,1/2+y,1/2-z
1/2-x,1/2-y,-z
1/2+x,1/2-y,1/2+z
loop_
_atom_site_type_symbol
_atom_site_label
_atom_site_fract_x
_atom_site_fract_y
_atom_site_fract_z
Si Si1 0.114988 0.043755 0.514208
Si Si2 0.254118 0.218896 0.226580
Si Si3 0.592770 0.697308 0.857422
Si Si4 0.481453 0.200509 0.845003
Si Si5 0.125445 0.024977 0.829323
Si Si6 0.583835 0.725366 0.557092
Si Si7 0.233660 0.466993 0.790932
Si Si8 0.000000 0.457279 0.250000
O O1 0.116575 0.133494 0.553307
O O2 0.139477 0.045060 0.411525
O O3 0.213716 0.994493 0.594814
O O4 0.000000 0.000000 0.500000
O O5 0.325575 0.235358 0.156909
O O6 0.145692 0.274878 0.174376
O O7 0.318439 0.237758 0.345385
O O8 0.230042 0.124334 0.218378
O O9 0.500000 0.676983 0.750000
O O10 0.650219 0.609911 0.891140
O O11 0.537539 0.731603 0.933391
O O12 0.500000 0.243571 0.750000
O O13 0.504889 0.103736 0.841752
O O14 0.570387 0.229846 0.953076
O O15 0.000000 0.016474 0.750000
O O16 0.216899 0.019072 0.778015
O O17 0.101964 0.482065 0.762831
#
# Coordination Sequence:
#
# PCOD8150644 Si02
#       8
#     8   8   8   8   8   8   8   4
#     4  12  22  41  70 109 137 170 232 303 364 403
#     4  11  25  43  69  98 133 183 240 285 343 414
#     4   9  19  39  64  94 126 172 218 280 338 405
#     4  10  25  45  67  97 139 186 230 286 344 427
#     4  11  22  39  70 102 138 173 226 289 358 410
#     4  11  23  42  73  98 135 178 227 286 353 410
#     4  12  26  45  68 100 144 188 233 298 351 426
#     4  10  26  50  64  92 156 192 226 284 360 430
#
# _framework density 21.277255
#
# number of rings (size 3 to 8) (size 9 to 14) (size 15 to 20)
#    0.400    0.800    2.667    4.000    4.667    2.133 
#    2.400    1.333    0.000    0.000    0.000    0.000 
#    0.000    0.000    0.000    0.000    0.000    0.000 
#
# Total GULP energy -371826.282458 kJ/mol
# GULP energy per Si atom -12394.209415 kJ/mol
# Density = 2.122883 g / cm^3
# Si number density = 21.277255 Si / 1000 Ang^3
#
#
#
# Elastic Constant Matrix: (Units=GPa)
#
#
# Indices 1 2 3 4 5 6 
#
# 1 91.2198 1.8176 19.9693 0.0000 -0.6238 0.0000
# 2 1.8176 60.5255 10.9705 0.0000 -5.7143 0.0000
# 3 19.9693 10.9705 103.0687 0.0000 -9.7553 0.0000
# 4 0.0000 0.0000 0.0000 29.0684 0.0000 -0.2473
# 5 -0.6238 -5.7143 -9.7553 0.0000 24.0566 0.0000
# 6 0.0000 0.0000 0.0000 -0.2473 0.0000 29.2923
#
#
#
# Elastic Compliance Matrix: (Units=1/GPa)
#
#
# Indices 1 2 3 4 5 6 
#
# 1 0.011457 0.000010 -0.002280 0.000000 -0.000625 0.000000
# 2 0.000010 0.017120 -0.001497 0.000000 0.003460 0.000000
# 3 -0.002280 -0.001497 0.010674 0.000000 0.003914 0.000000
# 4 0.000000 0.000000 0.000000 0.034404 0.000000 0.000290
# 5 -0.000625 0.003460 0.003914 0.000000 0.043961 0.000000
# 6 0.000000 0.000000 0.000000 0.000290 0.000000 0.034141
#
#
# Mechanical properties :
#
#
# Convention : Reuss Voigt Hill
#
# Bulk Modulus (GPa) = 31.52841 35.59209 33.56025
# Shear Modulus (GPa) = 29.43556 31.28724 30.36140
#
# Velocity S-wave (km/s) = 3.72348 3.83881 3.78159
# Velocity P-wave (km/s) = 5.77372 6.03429 5.90544
#
# Compressibility (1/GPa) = 0.03171742
#
# Stress axis : x y z
#
# Youngs Moduli (GPa) = 87.28143 58.41262 93.68771
#
# Poissons Ratio (x) = -0.00060 0.21361
# Poissons Ratio (y) = -0.00089 0.14022
# Poissons Ratio (z) = 0.19901 0.08743
#
# Static dielectric constant tensor:
#      x y z
#    x 4.032500 0.000000 -0.193670 
#    y 0.000000 3.918400 0.000000 
#    z -0.193670 0.000000 3.966220 
# 
# 
# High freq. dielectric constant tensor:
#      x y z
#    x 1.834260 0.000000 -0.011250 
#    y 0.000000 1.831370 0.000000 
#    z -0.011250 0.000000 1.831850 
# 
# From -- ./inp_files/146127.got.cif
#   From: 2010.06.25/outbox.cif.g09.slc.cpg/sg15_74_cif.got.tgz:146127.got - 2010.06.28 07:06:18.
