data_PCOD8150445
_publ_section_title
;
Structure prediction by ZEFSAII (Michael W. Deem and Ramdas Pophale) SiO2 
 PCOD8150445
Probable space group: C 2/C
;
_chemical_formula_sum "Si O2"
_cell_formula_units_Z 64
_cell_length_a 11.733296
_cell_length_b 27.733211
_cell_length_c 13.654932
_cell_angle_alpha 90.000000
_cell_angle_beta 138.141021
_cell_angle_gamma 90.000000
_cell_volume 2965.039748
_symmetry_space_group_name_H-M "C 2/C"
_symmetry_group_IT_number 15
_symmetry_cell_setting 'monoclinic'
loop_
_space_group_symop_operation_xyz
x,y,z
-x,y,1/2-z
-x,-y,-z
x,-y,1/2+z
1/2+x,1/2+y,z
1/2-x,1/2+y,1/2-z
1/2-x,1/2-y,-z
1/2+x,1/2-y,1/2+z
loop_
_atom_site_type_symbol
_atom_site_label
_atom_site_fract_x
_atom_site_fract_y
_atom_site_fract_z
Si Si1 0.255353 0.282991 0.846053
Si Si2 0.299191 0.498727 0.890369
Si Si3 0.183864 0.028084 0.890432
Si Si4 0.744913 0.437409 0.818115
Si Si5 0.881775 0.696406 0.036332
Si Si6 0.810688 0.391531 0.164411
Si Si7 0.010227 0.848715 0.642557
Si Si8 0.401752 0.103932 0.931359
O O1 0.241755 0.304374 0.947774
O O2 0.391992 0.310118 0.863869
O O3 0.070642 0.283792 0.678433
O O4 0.310664 0.227613 0.899462
O O5 0.203247 0.471168 0.740947
O O6 0.225670 0.551569 0.861737
O O7 0.500000 0.500000 0.000000
O O8 0.266056 0.466216 0.964617
O O9 0.321533 0.053329 0.910884
O O10 0.000000 0.051784 0.750000
O O11 0.174610 0.971234 0.859152
O O12 0.601383 0.400087 0.693032
O O13 0.900325 0.407138 0.962917
O O14 0.887256 0.641031 0.010291
O O15 0.806236 0.375371 0.275159
O O16 0.000000 0.380429 0.250000
O O17 0.680016 0.358070 0.020195
O O18 0.000000 0.830877 0.750000
#
# Coordination Sequence:
#
# PCOD8150445 Si02
#       8
#     8   8   8   8   8   8   8   8
#     4  10  24  48  77 104 139 177 226 287 367 420
#     4  12  23  39  61  91 135 189 238 283 341 404
#     4  12  24  40  62  96 138 184 229 286 338 407
#     4  12  24  44  64  94 143 185 236 286 344 410
#     4  10  24  47  74 108 139 174 222 294 358 430
#     4  12  26  43  65  99 141 189 237 290 345 411
#     4  12  25  46  75 100 139 190 232 287 352 423
#     4  12  26  42  67 102 135 176 235 286 346 416
#
# _framework density 21.584869000000001
#
# number of rings (size 3 to 8) (size 9 to 14) (size 15 to 20)
#    0.000    0.500    5.000    3.000    5.250    0.000 
#    2.250    1.250    0.000    0.000    0.000    0.000 
#    0.000    0.000    0.000    0.000    0.000    0.000 
#
# Total GULP energy -396788.576230 kJ/mol
# GULP energy per Si atom -12399.643007 kJ/mol
# Density = 2.153574 g / cm^3
# Si number density = 21.584869 Si / 1000 Ang^3
#
#
#
# Elastic Constant Matrix: (Units=GPa)
#
#
# Indices 1 2 3 4 5 6 
#
# 1 125.4069 35.7052 47.5043 0.0000 -6.7133 0.0000
# 2 35.7052 73.0863 26.2257 0.0000 0.5452 0.0000
# 3 47.5043 26.2257 123.3118 0.0000 -7.4348 0.0000
# 4 0.0000 0.0000 0.0000 31.9108 0.0000 -4.5369
# 5 -6.7133 0.5452 -7.4348 0.0000 44.2692 0.0000
# 6 0.0000 0.0000 0.0000 -4.5369 0.0000 26.3095
#
#
#
# Elastic Compliance Matrix: (Units=1/GPa)
#
#
# Indices 1 2 3 4 5 6 
#
# 1 0.010320 -0.003948 -0.003070 0.000000 0.001098 0.000000
# 2 -0.003948 0.016346 -0.002024 0.000000 -0.001140 0.000000
# 3 -0.003070 -0.002024 0.009795 0.000000 0.001204 0.000000
# 4 0.000000 0.000000 0.000000 0.032125 0.000000 0.005540
# 5 0.001098 -0.001140 0.001204 0.000000 0.022972 0.000000
# 6 0.000000 0.000000 0.000000 0.005540 0.000000 0.038964
#
#
# Mechanical properties :
#
#
# Convention : Reuss Voigt Hill
#
# Bulk Modulus (GPa) = 54.41607 60.07505 57.24556
# Shear Modulus (GPa) = 32.31391 34.65588 33.48489
#
# Velocity S-wave (km/s) = 3.87339 4.01130 3.94294
# Velocity P-wave (km/s) = 6.72824 7.02470 6.87807
#
# Compressibility (1/GPa) = 0.01837692
#
# Stress axis : x y z
#
# Youngs Moduli (GPa) = 96.90172 61.17642 102.09094
#
# Poissons Ratio (x) = 0.24154 0.31338
# Poissons Ratio (y) = 0.38259 0.20665
# Poissons Ratio (z) = 0.29745 0.12383
#
# Static dielectric constant tensor:
#      x y z
#    x 4.195480 0.000000 -0.559110 
#    y 0.000000 3.614960 0.000000 
#    z -0.559110 0.000000 5.025870 
# 
# 
# High freq. dielectric constant tensor:
#      x y z
#    x 1.856520 0.000000 -0.006150 
#    y 0.000000 1.820960 0.000000 
#    z -0.006150 0.000000 1.863970 
# 
# From -- ./inp_files/149190.got.cif
#   From: 2010.06.25/outbox.cif.g09.slc.cpg/sg15_75_cif.got.tgz:149190.got - 2010.06.28 07:06:18.
