data_PCOD8150013
_publ_section_title
;
Structure prediction by ZEFSAII (Michael W. Deem and Ramdas Pophale) SiO2 
 PCOD8150013
Probable space group: C 2/C
;
_chemical_formula_sum "Si O2"
_cell_formula_units_Z 56
_cell_length_a 14.466716
_cell_length_b 17.916013
_cell_length_c 20.911309
_cell_angle_alpha 90.000000
_cell_angle_beta 151.126275
_cell_angle_gamma 90.000000
_cell_volume 2617.173615
_symmetry_space_group_name_H-M "C 2/C"
_symmetry_group_IT_number 15
_symmetry_cell_setting 'monoclinic'
loop_
_space_group_symop_operation_xyz
x,y,z
-x,y,1/2-z
-x,-y,-z
x,-y,1/2+z
1/2+x,1/2+y,z
1/2-x,1/2+y,1/2-z
1/2-x,1/2-y,-z
1/2+x,1/2-y,1/2+z
loop_
_atom_site_type_symbol
_atom_site_label
_atom_site_fract_x
_atom_site_fract_y
_atom_site_fract_z
Si Si1 0.786336 0.229243 0.095235
Si Si2 0.510230 0.411263 0.115849
Si Si3 0.143776 0.567424 0.472517
Si Si4 0.222316 0.941486 0.721602
Si Si5 0.216567 0.934020 0.867049
Si Si6 0.692515 0.681527 0.835181
Si Si7 0.038911 0.812722 0.533401
O O1 0.728380 0.142897 0.065390
O O2 0.000000 0.241731 0.250000
O O3 0.750000 0.250000 0.000000
O O4 0.661609 0.279458 0.066480
O O5 0.301964 0.440285 0.012655
O O6 0.622521 0.478609 0.149358
O O7 0.637263 0.383756 0.252169
O O8 0.480748 0.342743 0.050226
O O9 0.148008 0.497557 0.523109
O O10 0.174999 0.644576 0.530026
O O11 0.930230 0.564822 0.313276
O O12 0.250815 0.924119 0.813074
O O13 0.086984 0.878810 0.610715
O O14 0.000000 0.958994 0.750000
O O15 0.500000 0.714745 0.750000
O O16 0.799909 0.748948 0.865770
#
# Coordination Sequence:
#
# PCOD8150013 Si02
#       7
#     8   8   8   8   8   8   8
#     4  11  27  45  70 106 143 187 238 293 357 421
#     4  11  26  46  67 102 137 176 233 283 350 422
#     4  11  23  43  72  99 128 180 233 292 336 415
#     4  12  25  43  70 100 135 184 233 280 353 420
#     4  11  20  42  71  97 135 179 239 294 335 422
#     4  10  24  43  70 101 134 177 231 284 346 410
#     4  12  28  44  69 100 146 178 222 290 358 415
#
# _framework density 21.397127999999999
#
# number of rings (size 3 to 8) (size 9 to 14) (size 15 to 20)
#    0.000    0.857    2.857    3.857   10.000    1.143 
#    0.000    0.000    0.000    0.000    0.000    0.000 
#    0.000    0.000    0.000    0.000    0.000    0.000 
#
# Total GULP energy -347376.465865 kJ/mol
# GULP energy per Si atom -12406.302352 kJ/mol
# Density = 2.134843 g / cm^3
# Si number density = 21.397128 Si / 1000 Ang^3
#
#
#
# Elastic Constant Matrix: (Units=GPa)
#
#
# Indices 1 2 3 4 5 6 
#
# 1 96.7381 30.5248 38.0188 0.0032 12.5041 -0.0001
# 2 30.5248 102.5230 31.8130 0.0003 12.9149 -0.0020
# 3 38.0188 31.8130 76.6854 0.0039 18.2404 -0.0002
# 4 0.0032 0.0003 0.0039 32.1576 0.0034 0.9838
# 5 12.5041 12.9149 18.2404 0.0034 35.7105 0.0002
# 6 -0.0001 -0.0020 -0.0002 0.9838 0.0002 38.9214
#
#
#
# Elastic Compliance Matrix: (Units=1/GPa)
#
#
# Indices 1 2 3 4 5 6 
#
# 1 0.013291 -0.002129 -0.005444 -0.000001 -0.001103 0.000000
# 2 -0.002129 0.011652 -0.003362 0.000001 -0.001751 0.000001
# 3 -0.005444 -0.003362 0.018658 -0.000001 -0.006408 0.000000
# 4 -0.000001 0.000001 -0.000001 0.031121 -0.000002 -0.000787
# 5 -0.001103 -0.001751 -0.006408 -0.000002 0.032296 0.000000
# 6 0.000000 0.000001 0.000000 -0.000787 0.000000 0.025713
#
#
# Mechanical properties :
#
#
# Convention : Reuss Voigt Hill
#
# Bulk Modulus (GPa) = 46.01520 52.96219 49.48869
# Shear Modulus (GPa) = 30.89419 33.06387 31.97903
#
# Velocity S-wave (km/s) = 3.80392 3.93523 3.87013
# Velocity P-wave (km/s) = 6.39102 6.74194 6.56882
#
# Compressibility (1/GPa) = 0.02173195
#
# Stress axis : x y z
#
# Youngs Moduli (GPa) = 75.23883 85.82578 53.59633
#
# Poissons Ratio (x) = 0.18273 0.29176
# Poissons Ratio (y) = 0.16019 0.18017
# Poissons Ratio (z) = 0.40958 0.28851
#
# Static dielectric constant tensor:
#      x y z
#    x 3.923450 0.000010 0.186520 
#    y 0.000010 3.927940 0.000010 
#    z 0.186520 0.000010 3.895660 
# 
# 
# High freq. dielectric constant tensor:
#      x y z
#    x 1.843280 0.000000 0.011820 
#    y 0.000000 1.850860 0.000000 
#    z 0.011820 0.000000 1.835890 
# 
# From -- ./inp_files/169183.got.cif
#   From: 2010.06.25/outbox.cif.g09.slc.cpg/sg15_85_cif.got.tgz:169183.got - 2010.06.28 07:06:18.
