data_PCOD8150290
_publ_section_title
;
Structure prediction by ZEFSAII (Michael W. Deem and Ramdas Pophale) SiO2 
 PCOD8150290
Probable space group: C 2/C
;
_chemical_formula_sum "Si O2"
_cell_formula_units_Z 48
_cell_length_a 11.195827
_cell_length_b 25.571445
_cell_length_c 8.227084
_cell_angle_alpha 90.000000
_cell_angle_beta 73.685530
_cell_angle_gamma 90.000000
_cell_volume 2260.520411
_symmetry_space_group_name_H-M "C 2/C"
_symmetry_group_IT_number 15
_symmetry_cell_setting 'monoclinic'
loop_
_space_group_symop_operation_xyz
x,y,z
-x,y,1/2-z
-x,-y,-z
x,-y,1/2+z
1/2+x,1/2+y,z
1/2-x,1/2+y,1/2-z
1/2-x,1/2-y,-z
1/2+x,1/2-y,1/2+z
loop_
_atom_site_type_symbol
_atom_site_label
_atom_site_fract_x
_atom_site_fract_y
_atom_site_fract_z
Si Si1 0.136287 0.951338 0.123683
Si Si2 0.532935 0.785764 0.422539
Si Si3 0.233409 0.147589 0.741913
Si Si4 0.000000 0.785207 0.250000
Si Si5 0.870426 0.616050 0.001408
Si Si6 0.738239 0.962838 0.738030
Si Si7 0.500000 0.032609 0.750000
O O1 0.227608 0.904793 0.139384
O O2 0.000000 0.943229 0.250000
O O3 0.197308 0.006609 0.141552
O O4 0.145210 0.952916 0.926533
O O5 0.500000 0.763643 0.250000
O O6 0.665359 0.812954 0.365351
O O7 0.540297 0.745810 0.570862
O O8 0.432805 0.828737 0.514969
O O9 0.105241 0.178088 0.782828
O O10 0.263748 0.127017 0.910116
O O11 0.973520 0.572424 0.909441
O O12 0.806204 0.594336 0.187772
O O13 0.621003 0.996365 0.719127
#
# Coordination Sequence:
#
# PCOD8150290 Si02
#       7
#     8   8   8   4   8   8   4
#     4  12  24  43  63  90 139 184 222 271 325 405
#     4  10  24  45  71  97 134 169 221 293 348 397
#     4  11  23  46  64  96 137 169 222 285 333 398
#     4  12  26  45  72  96 126 180 237 276 346 406
#     4  11  22  42  67 101 138 171 213 284 341 394
#     4  12  25  38  68 101 133 182 227 265 333 410
#     4  12  20  39  68 100 142 166 219 282 334 384
#
# _framework density 21.234047
#
# number of rings (size 3 to 8) (size 9 to 14) (size 15 to 20)
#    0.000    0.667    6.667    1.500    4.667    2.667 
#    3.000    0.000    0.000    0.000    0.000    0.000 
#    0.000    0.000    0.000    0.000    0.000    0.000 
#
# Total GULP energy -297355.028326 kJ/mol
# GULP energy per Si atom -12389.792847 kJ/mol
# Density = 2.118572 g / cm^3
# Si number density = 21.234047 Si / 1000 Ang^3
#
#
#
# Elastic Constant Matrix: (Units=GPa)
#
#
# Indices 1 2 3 4 5 6 
#
# 1 86.4776 23.0051 30.3739 0.0000 -9.9045 0.0000
# 2 23.0051 71.8967 30.4537 0.0000 2.6706 0.0000
# 3 30.3739 30.4537 129.6212 0.0000 -17.4726 0.0000
# 4 0.0000 0.0000 0.0000 24.2410 0.0000 0.8734
# 5 -9.9045 2.6706 -17.4726 0.0000 25.2624 0.0000
# 6 0.0000 0.0000 0.0000 0.8734 0.0000 23.7073
#
#
#
# Elastic Compliance Matrix: (Units=1/GPa)
#
#
# Indices 1 2 3 4 5 6 
#
# 1 0.013707 -0.003843 -0.001687 0.000000 0.004613 0.000000
# 2 -0.003843 0.017017 -0.003907 0.000000 -0.006008 0.000000
# 3 -0.001687 -0.003907 0.009920 0.000000 0.006612 0.000000
# 4 0.000000 0.000000 0.000000 0.041307 0.000000 -0.001522
# 5 0.004613 -0.006008 0.006612 0.000000 0.046602 0.000000
# 6 0.000000 0.000000 0.000000 -0.001522 0.000000 0.042237
#
#
# Mechanical properties :
#
#
# Convention : Reuss Voigt Hill
#
# Bulk Modulus (GPa) = 45.93774 50.62900 48.28337
# Shear Modulus (GPa) = 25.39109 28.25301 26.82205
#
# Velocity S-wave (km/s) = 3.46175 3.65163 3.55796
# Velocity P-wave (km/s) = 6.13671 6.45556 6.29815
#
# Compressibility (1/GPa) = 0.02176859
#
# Stress axis : x y z
#
# Youngs Moduli (GPa) = 72.95605 58.76623 100.81145
#
# Poissons Ratio (x) = 0.22581 0.17010
# Poissons Ratio (y) = 0.28033 0.39391
# Poissons Ratio (z) = 0.12310 0.22962
#
# Static dielectric constant tensor:
#      x y z
#    x 4.001510 0.000000 0.246330 
#    y 0.000000 3.954130 0.000000 
#    z 0.246330 0.000000 4.314600 
# 
# 
# High freq. dielectric constant tensor:
#      x y z
#    x 1.835190 0.000000 -0.002820 
#    y 0.000000 1.834430 0.000000 
#    z -0.002820 0.000000 1.831460 
# 
# From -- ./inp_files/32597.got.cif
#   From: 2010.06.25/outbox.cif.g09.slc.cpg/sg15_17_cif.got.tgz:32597.got - 2010.06.28 07:06:18.
