data_PCOD8150648
_publ_section_title
;
Structure prediction by ZEFSAII (Michael W. Deem and Ramdas Pophale) SiO2 
 PCOD8150648
Probable space group: C 2/C
;
_chemical_formula_sum "Si O2"
_cell_formula_units_Z 56
_cell_length_a 19.383949
_cell_length_b 23.577532
_cell_length_c 8.726750
_cell_angle_alpha 90.000000
_cell_angle_beta 140.628338
_cell_angle_gamma 90.000000
_cell_volume 2530.002096
_symmetry_space_group_name_H-M "C 2/C"
_symmetry_group_IT_number 15
_symmetry_cell_setting 'monoclinic'
loop_
_space_group_symop_operation_xyz
x,y,z
-x,y,1/2-z
-x,-y,-z
x,-y,1/2+z
1/2+x,1/2+y,z
1/2-x,1/2+y,1/2-z
1/2-x,1/2-y,-z
1/2+x,1/2-y,1/2+z
loop_
_atom_site_type_symbol
_atom_site_label
_atom_site_fract_x
_atom_site_fract_y
_atom_site_fract_z
Si Si1 0.326497 0.349752 0.242476
Si Si2 0.887313 0.424869 0.617037
Si Si3 0.270828 0.202133 0.660011
Si Si4 0.624924 0.710075 0.971366
Si Si5 0.230654 0.116933 0.362361
Si Si6 0.486417 0.561157 0.404457
Si Si7 0.107015 0.461040 0.528453
O O1 0.336274 0.316649 0.423109
O O2 0.325211 0.301236 0.110497
O O3 0.423872 0.394129 0.379054
O O4 0.209132 0.380157 0.040904
O O5 0.910862 0.454263 0.821407
O O6 0.855407 0.474928 0.443616
O O7 0.000000 0.396300 0.750000
O O8 0.250000 0.250000 0.500000
O O9 0.305801 0.144924 0.627335
O O10 0.356374 0.225545 0.933738
O O11 0.500000 0.696483 0.750000
O O12 0.678564 0.668573 0.183727
O O13 0.298200 0.080936 0.359317
O O14 0.135714 0.079926 0.272514
O O15 0.500000 0.553535 0.250000
O O16 0.500000 0.500000 0.500000
O O17 0.000000 0.444815 0.250000
#
# Coordination Sequence:
#
# PCOD8150648 Si02
#       7
#     8   8   8   8   8   8   8
#     4  12  24  44  73 101 140 181 228 291 355 422
#     4  11  25  41  68  98 137 179 229 281 347 416
#     4  10  25  45  68  94 133 183 235 284 341 398
#     4  11  23  45  73 102 135 177 232 296 354 414
#     4  11  23  45  69 100 143 179 229 284 352 421
#     4  12  27  41  71 111 147 187 225 277 360 444
#     4  11  24  42  67  98 137 184 227 280 343 422
#
# _framework density 22.134370000000001
#
# number of rings (size 3 to 8) (size 9 to 14) (size 15 to 20)
#    0.000    0.857    4.286    3.000    6.000    2.857 
#    0.000    0.000    0.000    0.000    0.000    0.000 
#    0.000    0.000    0.000    0.000    0.000    0.000 
#
# Total GULP energy -347017.315856 kJ/mol
# GULP energy per Si atom -12393.475566 kJ/mol
# Density = 2.208399 g / cm^3
# Si number density = 22.134370 Si / 1000 Ang^3
#
#
#
# Elastic Constant Matrix: (Units=GPa)
#
#
# Indices 1 2 3 4 5 6 
#
# 1 132.2529 42.7739 35.9481 0.0000 -9.7617 0.0000
# 2 42.7739 90.6626 36.5703 0.0000 3.1571 0.0000
# 3 35.9481 36.5703 75.0028 0.0000 3.8484 0.0000
# 4 0.0000 0.0000 0.0000 47.8343 0.0000 -15.5691
# 5 -9.7617 3.1571 3.8484 0.0000 44.5331 0.0000
# 6 0.0000 0.0000 0.0000 -15.5691 0.0000 50.4735
#
#
#
# Elastic Compliance Matrix: (Units=1/GPa)
#
#
# Indices 1 2 3 4 5 6 
#
# 1 0.009709 -0.003412 -0.003125 0.000000 0.002640 0.000000
# 2 -0.003412 0.014936 -0.005579 0.000000 -0.001325 0.000000
# 3 -0.003125 -0.005579 0.017644 0.000000 -0.001814 0.000000
# 4 0.000000 0.000000 0.000000 0.023239 0.000000 0.007168
# 5 0.002640 -0.001325 -0.001814 0.000000 0.023285 0.000000
# 6 0.000000 0.000000 0.000000 0.007168 0.000000 0.022023
#
#
# Mechanical properties :
#
#
# Convention : Reuss Voigt Hill
#
# Bulk Modulus (GPa) = 55.38236 58.72254 57.05245
# Shear Modulus (GPa) = 35.43862 40.74325 38.09093
#
# Velocity S-wave (km/s) = 4.00568 4.29502 4.15287
# Velocity P-wave (km/s) = 6.81683 7.15429 6.98760
#
# Compressibility (1/GPa) = 0.01805629
#
# Stress axis : x y z
#
# Youngs Moduli (GPa) = 102.99520 66.95071 56.67538
#
# Poissons Ratio (x) = 0.22844 0.17713
# Poissons Ratio (y) = 0.35142 0.31622
# Poissons Ratio (z) = 0.32190 0.37355
#
# Static dielectric constant tensor:
#      x y z
#    x 4.458500 0.000000 -0.167470 
#    y 0.000000 4.211660 0.000000 
#    z -0.167470 0.000000 4.295870 
# 
# 
# High freq. dielectric constant tensor:
#      x y z
#    x 1.893830 0.000000 -0.019000 
#    y 0.000000 1.880600 0.000000 
#    z -0.019000 0.000000 1.859940 
# 
# From -- ./inp_files/52388.got.cif
#   From: 2010.06.25/outbox.cif.g09.slc.cpg/sg15_27_cif.got.tgz:52388.got - 2010.06.28 07:06:18.
