data_PCOD8150654
_publ_section_title
;
Structure prediction by ZEFSAII (Michael W. Deem and Ramdas Pophale) SiO2 
 PCOD8150654
Probable space group: C 2/C
;
_chemical_formula_sum "Si O2"
_cell_formula_units_Z 56
_cell_length_a 29.299658
_cell_length_b 10.594046
_cell_length_c 8.850532
_cell_angle_alpha 90.000000
_cell_angle_beta 66.899356
_cell_angle_gamma 90.000000
_cell_volume 2526.941892
_symmetry_space_group_name_H-M "C 2/C"
_symmetry_group_IT_number 15
_symmetry_cell_setting 'monoclinic'
loop_
_space_group_symop_operation_xyz
x,y,z
-x,y,1/2-z
-x,-y,-z
x,-y,1/2+z
1/2+x,1/2+y,z
1/2-x,1/2+y,1/2-z
1/2-x,1/2-y,-z
1/2+x,1/2-y,1/2+z
loop_
_atom_site_type_symbol
_atom_site_label
_atom_site_fract_x
_atom_site_fract_y
_atom_site_fract_z
Si Si1 0.619857 0.999356 0.882943
Si Si2 0.989649 0.133746 0.440018
Si Si3 0.788911 0.849739 0.381078
Si Si4 0.322277 0.854671 0.433430
Si Si5 0.045700 0.694632 0.087703
Si Si6 0.217206 0.902950 0.446441
Si Si7 0.398462 0.258665 0.216787
O O1 0.597419 0.892624 0.804214
O O2 0.649078 0.109027 0.755951
O O3 0.656318 0.934869 0.956228
O O4 0.572759 0.064556 0.017836
O O5 0.932275 0.171736 0.546914
O O6 0.000000 0.128250 0.250000
O O7 0.027964 0.234476 0.460268
O O8 0.000000 0.000000 0.500000
O O9 0.750000 0.750000 0.500000
O O10 0.767423 0.900720 0.249944
O O11 0.841040 0.787974 0.272498
O O12 0.802164 0.958246 0.484870
O O13 0.264620 0.886838 0.492393
O O14 0.324621 0.703408 0.460981
O O15 0.081019 0.788546 0.141328
O O16 0.000000 0.654996 0.250000
#
# Coordination Sequence:
#
# PCOD8150654 Si02
#       7
#     8   8   8   8   8   8   8
#     4  12  23  44  71 103 149 186 246 302 375 435
#     4  11  26  48  76 105 147 192 245 314 378 453
#     4  12  28  48  72 106 152 196 247 318 365 452
#     4  11  25  44  69 106 140 197 240 306 365 445
#     4  10  25  45  69 104 141 188 238 303 373 448
#     4  11  27  45  71 105 146 190 259 292 378 442
#     4  11  25  45  70 104 147 192 245 297 378 443
#
# _framework density 22.161176000000001
#
# number of rings (size 3 to 8) (size 9 to 14) (size 15 to 20)
#    0.000    0.857    2.857    3.000    8.000    6.286 
#    0.000    0.000    0.000    0.000    0.000    0.000 
#    0.000    0.000    0.000    0.000    0.000    0.000 
#
# Total GULP energy -347181.096692 kJ/mol
# GULP energy per Si atom -12399.324882 kJ/mol
# Density = 2.211074 g / cm^3
# Si number density = 22.161176 Si / 1000 Ang^3
#
#
#
# Elastic Constant Matrix: (Units=GPa)
#
#
# Indices 1 2 3 4 5 6 
#
# 1 120.3542 45.7321 67.4740 0.0000 2.1098 0.0000
# 2 45.7321 150.8148 91.4760 0.0000 -4.8215 0.0000
# 3 67.4740 91.4760 148.1237 0.0000 10.4591 0.0000
# 4 0.0000 0.0000 0.0000 40.3182 0.0000 -0.6738
# 5 2.1098 -4.8215 10.4591 0.0000 42.4391 0.0000
# 6 0.0000 0.0000 0.0000 -0.6738 0.0000 39.4614
#
#
#
# Elastic Compliance Matrix: (Units=1/GPa)
#
#
# Indices 1 2 3 4 5 6 
#
# 1 0.011195 -0.000410 -0.004889 0.000000 0.000602 0.000000
# 2 -0.000410 0.010971 -0.006796 0.000000 0.002942 0.000000
# 3 -0.004889 -0.006796 0.013447 0.000000 -0.003843 0.000000
# 4 0.000000 0.000000 0.000000 0.024810 0.000000 0.000424
# 5 0.000602 0.002942 -0.003843 0.000000 0.024815 0.000000
# 6 0.000000 0.000000 0.000000 0.000424 0.000000 0.025348
#
#
# Mechanical properties :
#
#
# Convention : Reuss Voigt Hill
#
# Bulk Modulus (GPa) = 87.54838 92.07302 89.81070
# Shear Modulus (GPa) = 36.07925 38.75112 37.41518
#
# Velocity S-wave (km/s) = 4.03927 4.18617 4.11338
# Velocity P-wave (km/s) = 7.83233 8.06241 7.94820
#
# Compressibility (1/GPa) = 0.01142226
#
# Stress axis : x y z
#
# Youngs Moduli (GPa) = 89.32657 91.14579 74.36808
#
# Poissons Ratio (x) = 0.03739 0.36356
# Poissons Ratio (y) = 0.03664 0.50544
# Poissons Ratio (z) = 0.43669 0.61947
#
# Static dielectric constant tensor:
#      x y z
#    x 4.263860 0.000000 0.168590 
#    y 0.000000 4.147850 0.000000 
#    z 0.168590 0.000000 4.049480 
# 
# 
# High freq. dielectric constant tensor:
#      x y z
#    x 1.883340 0.000000 0.009710 
#    y 0.000000 1.873230 0.000000 
#    z 0.009710 0.000000 1.877680 
# 
# From -- ./inp_files/69300.got.cif
#   From: 2010.06.25/outbox.cif.g09.slc.cpg/sg15_35_cif.got.tgz:69300.got - 2010.06.28 07:06:18.
