data_PCOD8150799
_publ_section_title
;
Structure prediction by ZEFSAII (Michael W. Deem and Ramdas Pophale) SiO2 
 PCOD8150799
Probable space group: C 2/C
;
_chemical_formula_sum "Si O2"
_cell_formula_units_Z 52
_cell_length_a 11.083068
_cell_length_b 17.431228
_cell_length_c 14.171002
_cell_angle_alpha 90.000000
_cell_angle_beta 67.479949
_cell_angle_gamma 90.000000
_cell_volume 2528.953835
_symmetry_space_group_name_H-M "C 2/C"
_symmetry_group_IT_number 15
_symmetry_cell_setting 'monoclinic'
loop_
_space_group_symop_operation_xyz
x,y,z
-x,y,1/2-z
-x,-y,-z
x,-y,1/2+z
1/2+x,1/2+y,z
1/2-x,1/2+y,1/2-z
1/2-x,1/2-y,-z
1/2+x,1/2-y,1/2+z
loop_
_atom_site_type_symbol
_atom_site_label
_atom_site_fract_x
_atom_site_fract_y
_atom_site_fract_z
Si Si1 0.430413 0.626870 0.605959
Si Si2 0.190513 0.678087 0.761199
Si Si3 0.724324 0.331089 0.053757
Si Si4 0.000000 0.801316 0.750000
Si Si5 0.120269 0.487656 0.533011
Si Si6 0.134928 0.078872 0.076277
Si Si7 0.500000 0.950030 0.250000
Si Si8 0.500000 0.464320 0.250000
O O1 0.306457 0.685562 0.646557
O O2 0.572368 0.660296 0.577489
O O3 0.430605 0.581480 0.507253
O O4 0.398433 0.579302 0.711903
O O5 0.255089 0.679385 0.842942
O O6 0.106428 0.601515 0.771573
O O7 0.096245 0.751256 0.784351
O O8 0.750000 0.250000 0.000000
O O9 0.810019 0.404037 0.992723
O O10 0.906252 0.848139 0.849141
O O11 0.211993 0.561663 0.482541
O O12 0.072112 0.494576 0.654699
O O13 0.000000 0.500000 0.500000
O O14 0.086953 0.006246 0.147856
#
# Coordination Sequence:
#
# PCOD8150799 Si02
#       8
#     8   8   8   4   8   8   4   4
#     4  12  22  42  71  95 136 184 218 283 351 407
#     4  11  22  46  68  98 145 179 228 286 356 422
#     4  12  26  45  67 102 142 183 230 289 363 426
#     4  10  26  44  70 105 133 182 236 288 338 428
#     4  12  25  46  71 102 139 183 236 298 348 419
#     4  11  24  43  70 103 131 177 236 283 340 420
#     4  11  24  45  73  97 134 186 236 289 350 419
#     4  11  22  39  65 100 131 166 228 279 338 409
#
# _framework density 20.561862000000001
#
# number of rings (size 3 to 8) (size 9 to 14) (size 15 to 20)
#    0.000    0.615    6.154    1.385    0.000    1.846 
#    8.308    0.000    0.000    0.000    0.000    0.000 
#    0.000    0.000    0.000    0.000    0.000    0.000 
#
# Total GULP energy -322100.673589 kJ/mol
# GULP energy per Si atom -12388.487446 kJ/mol
# Density = 2.051506 g / cm^3
# Si number density = 20.561862 Si / 1000 Ang^3
#
#
#
# Elastic Constant Matrix: (Units=GPa)
#
#
# Indices 1 2 3 4 5 6 
#
# 1 142.8321 52.4993 61.5538 0.0000 -11.4321 0.0000
# 2 52.4993 120.1785 64.4487 0.0000 -11.4048 0.0000
# 3 61.5538 64.4487 158.1396 0.0000 -0.1162 0.0000
# 4 0.0000 0.0000 0.0000 -22.0847 0.0000 -4.9428
# 5 -11.4321 -11.4048 -0.1162 0.0000 44.5105 0.0000
# 6 0.0000 0.0000 0.0000 -4.9428 0.0000 26.7032
#
#
#
# Elastic Compliance Matrix: (Units=1/GPa)
#
#
# Indices 1 2 3 4 5 6 
#
# 1 0.009144 -0.002462 -0.002554 0.000000 0.001711 0.000000
# 2 -0.002462 0.011650 -0.003788 0.000000 0.002343 0.000000
# 3 -0.002554 -0.003788 0.008860 0.000000 -0.001604 0.000000
# 4 0.000000 0.000000 0.000000 -0.043479 0.000000 -0.008048
# 5 0.001711 0.002343 -0.001604 0.000000 0.023502 0.000000
# 6 0.000000 0.000000 0.000000 -0.008048 0.000000 0.035959
#
#
# Mechanical properties :
#
#
# Convention : Reuss Voigt Hill
#
# Bulk Modulus (GPa) = 83.01862 86.46153 84.74008
# Shear Modulus (GPa) = 74.33721 26.00238 50.16979
#
# Velocity S-wave (km/s) = 6.01926 3.55997 4.94494
# Velocity P-wave (km/s) = 9.42185 7.68366 8.59680
#
# Compressibility (1/GPa) = 0.01204549
#
# Stress axis : x y z
#
# Youngs Moduli (GPa) = 109.36067 85.83516 112.86228
#
# Poissons Ratio (x) = 0.21135 0.28830
# Poissons Ratio (y) = 0.26927 0.42751
# Poissons Ratio (z) = 0.27936 0.32513
#
# Static dielectric constant tensor:
#      x y z
#    x 4.006420 0.000000 -0.052020 
#    y 0.000000 3.748130 0.000000 
#    z -0.052020 0.000000 4.227940 
# 
# 
# High freq. dielectric constant tensor:
#      x y z
#    x 1.824100 0.000000 -0.002480 
#    y 0.000000 1.791300 0.000000 
#    z -0.002480 0.000000 1.825860 
# 
# From -- ./inp_files/145514.got.cif
#   From: 2010.06.25/outbox.cif.g09.slc.cpg/sg15_73_cif.got.tgz:145514.got - 2010.06.28 07:06:18.
