data_PCOD8150043
_publ_section_title
;
Structure prediction by ZEFSAII (Michael W. Deem and Ramdas Pophale) SiO2 
 PCOD8150043
Probable space group: C 2/C
;
_chemical_formula_sum "Si O2"
_cell_formula_units_Z 48
_cell_length_a 25.711893
_cell_length_b 5.237868
_cell_length_c 21.811144
_cell_angle_alpha 90.000000
_cell_angle_beta 135.790122
_cell_angle_gamma 90.000000
_cell_volume 2048.234457
_symmetry_space_group_name_H-M "C 2/C"
_symmetry_group_IT_number 15
_symmetry_cell_setting 'monoclinic'
loop_
_space_group_symop_operation_xyz
x,y,z
-x,y,1/2-z
-x,-y,-z
x,-y,1/2+z
1/2+x,1/2+y,z
1/2-x,1/2+y,1/2-z
1/2-x,1/2-y,-z
1/2+x,1/2-y,1/2+z
loop_
_atom_site_type_symbol
_atom_site_label
_atom_site_fract_x
_atom_site_fract_y
_atom_site_fract_z
Si Si1 0.199627 0.263993 0.362153
Si Si2 0.731550 0.516166 0.695339
Si Si3 0.071988 0.828475 0.558059
Si Si4 0.460038 0.826606 0.594896
Si Si5 0.552362 0.306448 0.676010
Si Si6 0.691685 0.055771 0.476690
O O1 0.222942 0.471519 0.330358
O O2 0.125324 0.119903 0.276413
O O3 0.174095 0.366392 0.406392
O O4 0.270916 0.079785 0.432354
O O5 0.758461 0.269572 0.755576
O O6 0.644797 0.496101 0.604208
O O7 0.059634 0.619301 0.493688
O O8 0.081207 0.710596 0.633466
O O9 0.000000 0.000000 0.500000
O O10 0.500780 0.555162 0.634438
O O11 0.383504 0.802061 0.567545
O O12 0.507475 0.060218 0.663453
O O13 0.750000 0.250000 0.500000
#
# Coordination Sequence:
#
# PCOD8150043 Si02
#       6
#     8   8   8   8   8   8
#     4  11  28  48  76 108 148 192 254 302 371 434
#     4  12  28  45  78 112 146 192 245 308 374 441
#     4  10  24  43  74 107 152 187 241 297 371 436
#     4  11  27  47  75 107 148 196 244 295 375 438
#     4  11  26  47  73 111 149 190 242 309 366 440
#     4  11  28  50  77 103 147 201 250 311 359 445
#
# _framework density 23.434816000000001
#
# number of rings (size 3 to 8) (size 9 to 14) (size 15 to 20)
#    0.000    1.000    1.667    1.500   21.000    0.667 
#    0.000    0.000    0.000    0.000    0.000    0.000 
#    0.000    0.000    0.000    0.000    0.000    0.000 
#
# Total GULP energy -297526.402365 kJ/mol
# GULP energy per Si atom -12396.933432 kJ/mol
# Density = 2.338148 g / cm^3
# Si number density = 23.434816 Si / 1000 Ang^3
#
#
#
# Elastic Constant Matrix: (Units=GPa)
#
#
# Indices 1 2 3 4 5 6 
#
# 1 126.0761 29.4225 54.3499 0.0191 21.7325 0.0948
# 2 29.4225 115.3538 37.8253 0.0057 10.2060 0.3252
# 3 54.3499 37.8253 149.7820 0.0163 12.8157 0.0424
# 4 0.0191 0.0057 0.0163 16.4781 -0.0160 6.5038
# 5 21.7325 10.2060 12.8157 -0.0160 35.2602 -0.0160
# 6 0.0948 0.3252 0.0424 6.5038 -0.0160 35.6456
#
#
#
# Elastic Compliance Matrix: (Units=1/GPa)
#
#
# Indices 1 2 3 4 5 6 
#
# 1 0.010375 -0.001214 -0.003035 -0.000008 -0.004940 -0.000014
# 2 -0.001214 0.009723 -0.001897 0.000034 -0.001377 -0.000090
# 3 -0.003035 -0.001897 0.008308 -0.000011 -0.000600 0.000017
# 4 -0.000008 0.000034 -0.000011 0.065396 0.000023 -0.011932
# 5 -0.004940 -0.001377 -0.000600 0.000023 0.032022 0.000037
# 6 -0.000014 -0.000090 0.000017 -0.011932 0.000037 0.030232
#
#
# Mechanical properties :
#
#
# Convention : Reuss Voigt Hill
#
# Bulk Modulus (GPa) = 62.06081 70.48969 66.27525
# Shear Modulus (GPa) = 28.78197 35.45106 32.11651
#
# Velocity S-wave (km/s) = 3.50833 3.89363 3.70599
# Velocity P-wave (km/s) = 6.55370 7.09635 6.83041
#
# Compressibility (1/GPa) = 0.01611323
#
# Stress axis : x y z
#
# Youngs Moduli (GPa) = 96.38454 102.85208 120.36280
#
# Poissons Ratio (x) = 0.12485 0.36536
# Poissons Ratio (y) = 0.11700 0.22834
# Poissons Ratio (z) = 0.29257 0.19512
#
# Static dielectric constant tensor:
#      x y z
#    x 3.859540 -0.003130 0.190640 
#    y -0.003130 3.997560 0.004060 
#    z 0.190640 0.004060 4.686470 
# 
# 
# High freq. dielectric constant tensor:
#      x y z
#    x 1.940010 -0.000010 0.007240 
#    y -0.000010 1.907490 0.000000 
#    z 0.007240 0.000000 1.946920 
# 
# From -- ./inp_files/254445.got.cif
#   From: 2010.06.25/outbox.cif.g09.slc.cpg/sg15_128_cif.got.tgz:254445.got - 2010.06.28 07:06:18.
