data_PCOD8150348
_publ_section_title
;
Structure prediction by ZEFSAII (Michael W. Deem and Ramdas Pophale) SiO2 
 PCOD8150348
Probable space group: C 2/C
;
_chemical_formula_sum "Si O2"
_cell_formula_units_Z 52
_cell_length_a 14.860666
_cell_length_b 22.409709
_cell_length_c 8.585163
_cell_angle_alpha 90.000000
_cell_angle_beta 121.922325
_cell_angle_gamma 90.000000
_cell_volume 2426.670812
_symmetry_space_group_name_H-M "C 2/C"
_symmetry_group_IT_number 15
_symmetry_cell_setting 'monoclinic'
loop_
_space_group_symop_operation_xyz
x,y,z
-x,y,1/2-z
-x,-y,-z
x,-y,1/2+z
1/2+x,1/2+y,z
1/2-x,1/2+y,1/2-z
1/2-x,1/2-y,-z
1/2+x,1/2-y,1/2+z
loop_
_atom_site_type_symbol
_atom_site_label
_atom_site_fract_x
_atom_site_fract_y
_atom_site_fract_z
Si Si1 0.500000 0.611347 0.750000
Si Si2 0.015054 0.703759 0.942813
Si Si3 0.381926 0.566649 0.124812
Si Si4 0.381583 0.325753 0.407484
Si Si5 0.687668 0.545473 0.093647
Si Si6 0.094654 0.609238 0.244113
Si Si7 0.685422 0.204728 0.549109
O O1 0.528497 0.651972 0.628999
O O2 0.396728 0.573640 0.604516
O O3 0.000000 0.688915 0.750000
O O4 0.906099 0.729894 0.919929
O O5 0.101366 0.756471 0.036838
O O6 0.056848 0.640192 0.048556
O O7 0.500000 0.541151 0.250000
O O8 0.330465 0.564193 0.246352
O O9 0.383727 0.634650 0.066047
O O10 0.320169 0.525702 0.941752
O O11 0.266488 0.333345 0.226358
O O12 0.808151 0.564126 0.175317
O O13 0.122314 0.665029 0.373557
O O14 0.000000 0.574785 0.250000
O O15 0.750000 0.250000 0.500000
#
# Coordination Sequence:
#
# PCOD8150348 Si02
#       7
#     4   8   8   8   8   8   8
#     4  12  22  38  68  98 134 176 220 274 342 406
#     4  11  26  41  62  98 141 177 227 282 329 397
#     4  12  25  43  66 105 138 171 220 287 344 411
#     4  12  24  39  66  99 137 178 223 272 342 407
#     4  12  25  44  71  96 137 178 223 284 344 397
#     4  10  24  46  69  95 135 185 234 273 331 407
#     4  11  22  41  66  93 135 180 229 270 334 405
#
# _framework density 21.428535
#
# number of rings (size 3 to 8) (size 9 to 14) (size 15 to 20)
#    0.000    0.615    5.385    2.769    3.231    0.615 
#    0.000    0.769    0.000    0.000    0.000    0.000 
#    0.000    0.000    0.000    0.000    0.000    0.000 
#
# Total GULP energy -322323.559849 kJ/mol
# GULP energy per Si atom -12397.059994 kJ/mol
# Density = 2.137976 g / cm^3
# Si number density = 21.428535 Si / 1000 Ang^3
#
#
#
# Elastic Constant Matrix: (Units=GPa)
#
#
# Indices 1 2 3 4 5 6 
#
# 1 137.6106 29.9465 51.7731 0.0000 8.3692 0.0000
# 2 29.9465 65.2181 22.0290 0.0000 3.8154 0.0000
# 3 51.7731 22.0290 111.7325 0.0000 -7.0672 0.0000
# 4 0.0000 0.0000 0.0000 10.9478 0.0000 35.3123
# 5 8.3692 3.8154 -7.0672 0.0000 39.6583 0.0000
# 6 0.0000 0.0000 0.0000 35.3123 0.0000 -12.8537
#
#
#
# Elastic Compliance Matrix: (Units=1/GPa)
#
#
# Indices 1 2 3 4 5 6 
#
# 1 0.009554 -0.002888 -0.004013 0.000000 -0.002454 0.000000
# 2 -0.002888 0.017489 -0.002203 0.000000 -0.001466 0.000000
# 3 -0.004013 -0.002203 0.011440 0.000000 0.003097 0.000000
# 4 0.000000 0.000000 0.000000 0.009263 0.000000 0.025447
# 5 -0.002454 -0.001466 0.003097 0.000000 0.026426 0.000000
# 6 0.000000 0.000000 0.000000 0.025447 0.000000 -0.007889
#
#
# Mechanical properties :
#
#
# Convention : Reuss Voigt Hill
#
# Bulk Modulus (GPa) = 49.32004 58.00649 53.66326
# Shear Modulus (GPa) = 54.79549 21.60466 38.20007
#
# Velocity S-wave (km/s) = 5.06229 3.17869 4.22675
# Velocity P-wave (km/s) = 7.56539 6.37186 6.99413
#
# Compressibility (1/GPa) = 0.02027573
#
# Stress axis : x y z
#
# Youngs Moduli (GPa) = 104.66381 57.17875 87.41583
#
# Poissons Ratio (x) = 0.16514 0.35080
# Poissons Ratio (y) = 0.30228 0.19254
# Poissons Ratio (z) = 0.42001 0.12594
#
# Static dielectric constant tensor:
#      x y z
#    x -1.299340 0.000000 -0.121430 
#    y 0.000000 3.656940 0.000000 
#    z -0.121430 0.000000 4.174500 
# 
# 
# High freq. dielectric constant tensor:
#      x y z
#    x 1.848250 0.000000 -0.000760 
#    y 0.000000 1.817550 0.000000 
#    z -0.000760 0.000000 1.855590 
# 
# From -- ./inp_files/42311.got.cif
#   From: 2010.06.25/outbox.cif.g09.slc.cpg/sg15_22_cif.got.tgz:42311.got - 2010.06.28 07:06:18.
