data_PCOD8150142
_publ_section_title
;
Structure prediction by ZEFSAII (Michael W. Deem and Ramdas Pophale) SiO2 
 PCOD8150142
Probable space group: C 2/C
;
_chemical_formula_sum "Si O2"
_cell_formula_units_Z 56
_cell_length_a 10.519521
_cell_length_b 20.066721
_cell_length_c 11.780556
_cell_angle_alpha 90.000000
_cell_angle_beta 71.499088
_cell_angle_gamma 90.000000
_cell_volume 2358.264081
_symmetry_space_group_name_H-M "C 2/C"
_symmetry_group_IT_number 15
_symmetry_cell_setting 'monoclinic'
loop_
_space_group_symop_operation_xyz
x,y,z
-x,y,1/2-z
-x,-y,-z
x,-y,1/2+z
1/2+x,1/2+y,z
1/2-x,1/2+y,1/2-z
1/2-x,1/2-y,-z
1/2+x,1/2-y,1/2+z
loop_
_atom_site_type_symbol
_atom_site_label
_atom_site_fract_x
_atom_site_fract_y
_atom_site_fract_z
Si Si1 0.108415 0.789847 0.531596
Si Si2 0.351247 0.980488 0.507090
Si Si3 0.643042 0.312430 0.265259
Si Si4 0.185392 0.376845 0.453638
Si Si5 0.430412 0.851905 0.390286
Si Si6 0.697361 0.306146 0.875904
Si Si7 0.648180 0.403503 0.703783
O O1 0.143680 0.821685 0.400041
O O2 0.144842 0.841196 0.619019
O O3 0.163919 0.713307 0.548364
O O4 0.949203 0.773010 0.576413
O O5 0.347707 0.922382 0.410920
O O6 0.261383 0.956224 0.638211
O O7 0.500000 0.000000 0.500000
O O8 0.289097 0.052312 0.490064
O O9 0.500000 0.319494 0.250000
O O10 0.735271 0.371564 0.188427
O O11 0.703649 0.240413 0.221910
O O12 0.030173 0.363535 0.468044
O O13 0.241258 0.317691 0.516507
O O14 0.500000 0.837597 0.250000
O O15 0.688333 0.377218 0.816151
O O16 0.500000 0.437082 0.750000
#
# Coordination Sequence:
#
# PCOD8150142 Si02
#       7
#     8   8   8   8   8   8   8
#     4  11  23  41  68 105 132 168 224 282 351 398
#     4  10  25  46  66  98 136 182 231 272 336 413
#     4  12  23  38  68  99 133 178 221 284 346 397
#     4  11  24  42  63  93 137 177 225 272 331 411
#     4  11  23  42  69 101 138 173 220 288 346 408
#     4  11  22  43  65  97 137 170 220 283 338 409
#     4  10  24  44  69 100 137 177 222 285 346 401
#
# _framework density 23.746281
#
# number of rings (size 3 to 8) (size 9 to 14) (size 15 to 20)
#    0.000    1.143    2.857    3.429    2.000    5.143 
#    0.000    1.429    0.000    0.000    0.000    0.000 
#    0.000    0.000    0.000    0.000    0.000    0.000 
#
# Total GULP energy -347118.757770 kJ/mol
# GULP energy per Si atom -12397.098492 kJ/mol
# Density = 2.369223 g / cm^3
# Si number density = 23.746281 Si / 1000 Ang^3
#
#
#
# Elastic Constant Matrix: (Units=GPa)
#
#
# Indices 1 2 3 4 5 6 
#
# 1 85.9427 25.7563 11.6183 0.0000 -0.6224 0.0000
# 2 25.7563 132.7881 29.1714 0.0000 -8.8063 0.0000
# 3 11.6183 29.1714 109.1661 0.0000 -4.9923 0.0000
# 4 0.0000 0.0000 0.0000 39.3458 0.0000 -11.6650
# 5 -0.6224 -8.8063 -4.9923 0.0000 44.5971 0.0000
# 6 0.0000 0.0000 0.0000 -11.6650 0.0000 28.8950
#
#
#
# Elastic Compliance Matrix: (Units=1/GPa)
#
#
# Indices 1 2 3 4 5 6 
#
# 1 0.012412 -0.002271 -0.000731 0.000000 -0.000357 0.000000
# 2 -0.002271 0.008497 -0.001964 0.000000 0.001426 0.000000
# 3 -0.000731 -0.001964 0.009795 0.000000 0.000698 0.000000
# 4 0.000000 0.000000 0.000000 0.028871 0.000000 0.011655
# 5 -0.000357 0.001426 0.000698 0.000000 0.022778 0.000000
# 6 0.000000 0.000000 0.000000 0.011655 0.000000 0.039313
#
#
# Mechanical properties :
#
#
# Convention : Reuss Voigt Hill
#
# Bulk Modulus (GPa) = 48.13633 51.22097 49.67865
# Shear Modulus (GPa) = 36.09544 39.99099 38.04322
#
# Velocity S-wave (km/s) = 3.90301 4.10822 4.00693
# Velocity P-wave (km/s) = 6.37388 6.64231 6.50948
#
# Compressibility (1/GPa) = 0.02077433
#
# Stress axis : x y z
#
# Youngs Moduli (GPa) = 80.56489 117.68534 102.09501
#
# Poissons Ratio (x) = 0.26723 0.07459
# Poissons Ratio (y) = 0.18294 0.20049
# Poissons Ratio (z) = 0.05886 0.23110
#
# Static dielectric constant tensor:
#      x y z
#    x 4.621290 0.000000 -0.311110 
#    y 0.000000 4.608940 0.000000 
#    z -0.311110 0.000000 4.312850 
# 
# 
# High freq. dielectric constant tensor:
#      x y z
#    x 1.961260 0.000000 -0.016650 
#    y 0.000000 1.938220 0.000000 
#    z -0.016650 0.000000 1.939390 
# 
# From -- ./inp_files/89549.got.cif
#   From: 2010.06.25/outbox.cif.g09.slc.cpg/sg15_45_cif.got.tgz:89549.got - 2010.06.28 07:06:18.
