data_PCOD8150277
_publ_section_title
;
Structure prediction by ZEFSAII (Michael W. Deem and Ramdas Pophale) SiO2 
 PCOD8150277
Probable space group: C 2/C
;
_chemical_formula_sum "Si O2"
_cell_formula_units_Z 44
_cell_length_a 11.829577
_cell_length_b 11.628714
_cell_length_c 14.728035
_cell_angle_alpha 90.000000
_cell_angle_beta 87.361133
_cell_angle_gamma 90.000000
_cell_volume 2023.880790
_symmetry_space_group_name_H-M "C 2/C"
_symmetry_group_IT_number 15
_symmetry_cell_setting 'monoclinic'
loop_
_space_group_symop_operation_xyz
x,y,z
-x,y,1/2-z
-x,-y,-z
x,-y,1/2+z
1/2+x,1/2+y,z
1/2-x,1/2+y,1/2-z
1/2-x,1/2-y,-z
1/2+x,1/2-y,1/2+z
loop_
_atom_site_type_symbol
_atom_site_label
_atom_site_fract_x
_atom_site_fract_y
_atom_site_fract_z
Si Si1 0.889052 0.293753 0.200719
Si Si2 0.335489 0.500185 0.934562
Si Si3 0.845628 0.854497 0.260653
Si Si4 0.075641 0.052015 0.375082
Si Si5 0.084814 0.500829 0.414433
Si Si6 0.000000 0.355379 0.750000
O O1 0.784567 0.340095 0.265800
O O2 0.875186 0.158458 0.182735
O O3 0.893189 0.366583 0.107690
O O4 0.000000 0.324252 0.250000
O O5 0.347705 0.604816 0.864490
O O6 0.443804 0.419254 0.904775
O O7 0.209997 0.442546 0.930310
O O8 0.350097 0.540326 0.037431
O O9 0.892516 0.726337 0.263948
O O10 0.912591 0.937713 0.188343
O O11 0.000000 0.500000 0.500000
O O12 0.021660 0.565480 0.335819
#
# Coordination Sequence:
#
# PCOD8150277 Si02
#       6
#     8   8   8   8   8   4
#     4  11  26  41  70 102 139 181 230 282 346 405
#     4  10  24  45  70 103 130 182 233 274 348 410
#     4  11  25  44  72  98 136 186 225 286 349 404
#     4  11  24  46  72 100 139 174 237 286 340 415
#     4  11  28  44  68 101 143 182 231 281 351 407
#     4  12  26  48  70  98 138 182 230 286 346 414
#
# _framework density 21.740410000000001
#
# number of rings (size 3 to 8) (size 9 to 14) (size 15 to 20)
#    0.000    1.091    2.727    1.091   15.273    1.455 
#    0.000    1.818    0.000    0.000    0.000    0.000 
#    0.000    0.000    0.000    0.000    0.000    0.000 
#
# Total GULP energy -272619.956015 kJ/mol
# GULP energy per Si atom -12391.816182 kJ/mol
# Density = 2.169093 g / cm^3
# Si number density = 21.740410 Si / 1000 Ang^3
#
#
#
# Elastic Constant Matrix: (Units=GPa)
#
#
# Indices 1 2 3 4 5 6 
#
# 1 180.0944 32.3171 68.6391 0.0000 -9.6573 0.0000
# 2 32.3171 89.5888 31.7823 0.0000 -2.8249 0.0000
# 3 68.6391 31.7823 129.9103 0.0000 3.7515 0.0000
# 4 0.0000 0.0000 0.0000 17.4329 0.0000 -1.7588
# 5 -9.6573 -2.8249 3.7515 0.0000 41.3575 0.0000
# 6 0.0000 0.0000 0.0000 -1.7588 0.0000 26.2875
#
#
#
# Elastic Compliance Matrix: (Units=1/GPa)
#
#
# Indices 1 2 3 4 5 6 
#
# 1 0.007248 -0.001287 -0.003570 0.000000 0.001928 0.000000
# 2 -0.001287 0.012502 -0.002401 0.000000 0.000771 0.000000
# 3 -0.003570 -0.002401 0.010227 0.000000 -0.001925 0.000000
# 4 0.000000 0.000000 0.000000 0.057753 0.000000 0.003864
# 5 0.001928 0.000771 -0.001925 0.000000 0.024857 0.000000
# 6 0.000000 0.000000 0.000000 0.003864 0.000000 0.038299
#
#
# Mechanical properties :
#
#
# Convention : Reuss Voigt Hill
#
# Bulk Modulus (GPa) = 64.68014 73.89672 69.28843
# Shear Modulus (GPa) = 29.31586 34.80592 32.06089
#
# Velocity S-wave (km/s) = 3.67611 4.00556 3.84437
# Velocity P-wave (km/s) = 6.91622 7.44695 7.18648
#
# Compressibility (1/GPa) = 0.01546070
#
# Stress axis : x y z
#
# Youngs Moduli (GPa) = 137.97468 79.98427 97.78102
#
# Poissons Ratio (x) = 0.10295 0.34910
# Poissons Ratio (y) = 0.17759 0.23476
# Poissons Ratio (z) = 0.49259 0.19204
#
# Static dielectric constant tensor:
#      x y z
#    x 4.611520 0.000000 0.180560 
#    y 0.000000 3.764860 0.000000 
#    z 0.180560 0.000000 4.124370 
# 
# 
# High freq. dielectric constant tensor:
#      x y z
#    x 1.887250 0.000000 0.001140 
#    y 0.000000 1.834000 0.000000 
#    z 0.001140 0.000000 1.849450 
# 
# From -- ./inp_files/142197.got.cif
#   From: 2010.06.25/outbox.cif.g09.slc.cpg/sg15_72_cif.got.tgz:142197.got - 2010.06.28 07:06:18.
