data_PCOD8150374
_publ_section_title
;
Structure prediction by ZEFSAII (Michael W. Deem and Ramdas Pophale) SiO2 
 PCOD8150374
Probable space group: C 2/C
;
_chemical_formula_sum "Si O2"
_cell_formula_units_Z 60
_cell_length_a 8.329633
_cell_length_b 22.174196
_cell_length_c 15.725426
_cell_angle_alpha 90.000000
_cell_angle_beta 69.073838
_cell_angle_gamma 90.000000
_cell_volume 2712.953401
_symmetry_space_group_name_H-M "C 2/C"
_symmetry_group_IT_number 15
_symmetry_cell_setting 'monoclinic'
loop_
_space_group_symop_operation_xyz
x,y,z
-x,y,1/2-z
-x,-y,-z
x,-y,1/2+z
1/2+x,1/2+y,z
1/2-x,1/2+y,1/2-z
1/2-x,1/2-y,-z
1/2+x,1/2-y,1/2+z
loop_
_atom_site_type_symbol
_atom_site_label
_atom_site_fract_x
_atom_site_fract_y
_atom_site_fract_z
Si Si1 0.591404 0.414496 0.644376
Si Si2 0.044346 0.798582 0.338920
Si Si3 0.198832 0.494603 0.476008
Si Si4 0.500000 0.896920 0.750000
Si Si5 0.307274 0.899927 0.253121
Si Si6 0.790162 0.635534 0.562059
Si Si7 0.716001 0.483935 0.861470
Si Si8 0.382489 0.171994 0.108230
O O1 0.500000 0.404418 0.750000
O O2 0.728622 0.468937 0.618771
O O3 0.449941 0.439652 0.605135
O O4 0.701764 0.353540 0.602145
O O5 0.182660 0.851669 0.321071
O O6 0.128594 0.743322 0.374141
O O7 0.000000 0.781498 0.250000
O O8 0.864826 0.817007 0.418092
O O9 0.266922 0.426487 0.470956
O O10 0.261060 0.521788 0.554965
O O11 0.000000 0.500000 0.500000
O O12 0.372313 0.938399 0.825883
O O13 0.595433 0.857081 0.802745
O O14 0.500000 0.897517 0.250000
O O15 0.324021 0.883738 0.151933
O O16 0.220820 0.965914 0.285333
O O17 0.962336 0.660695 0.486326
#
# Coordination Sequence:
#
# PCOD8150374 Si02
#       8
#     8   8   8   4   8   8   8   8
#     4  12  25  39  63 103 141 175 219 285 360 418
#     4  10  24  46  71  98 135 191 241 286 347 421
#     4  12  23  42  69 100 142 178 234 290 354 425
#     4  12  22  42  70 102 132 184 220 290 352 428
#     4  11  24  44  71  98 143 182 234 289 355 420
#     4  11  23  43  71 102 129 188 240 291 344 425
#     4  12  24  42  68 102 141 181 226 285 360 429
#     4  12  24  45  70  99 142 177 240 288 352 422
#
# _framework density 22.116118
#
# number of rings (size 3 to 8) (size 9 to 14) (size 15 to 20)
#    0.000    0.533    5.333    3.200    0.000    1.600 
#    0.000    0.667    0.000    0.000    0.000    0.000 
#    0.000    0.000    0.000    0.000    0.000    0.000 
#
# Total GULP energy -371745.737941 kJ/mol
# GULP energy per Si atom -12391.524598 kJ/mol
# Density = 2.206578 g / cm^3
# Si number density = 22.116118 Si / 1000 Ang^3
#
#
#
# Elastic Constant Matrix: (Units=GPa)
#
#
# Indices 1 2 3 4 5 6 
#
# 1 129.2528 48.8924 39.0406 0.0000 -22.1846 0.0000
# 2 48.8924 117.9557 34.8029 0.0000 -8.6796 0.0000
# 3 39.0406 34.8029 103.9198 0.0000 -23.8271 0.0000
# 4 0.0000 0.0000 0.0000 26.5089 0.0000 -1.3630
# 5 -22.1846 -8.6796 -23.8271 0.0000 41.3099 0.0000
# 6 0.0000 0.0000 0.0000 -1.3630 0.0000 47.5598
#
#
#
# Elastic Compliance Matrix: (Units=1/GPa)
#
#
# Indices 1 2 3 4 5 6 
#
# 1 0.010225 -0.003421 -0.001845 0.000000 0.003708 0.000000
# 2 -0.003421 0.010553 -0.002491 0.000000 -0.001057 0.000000
# 3 -0.001845 -0.002491 0.012450 0.000000 0.005666 0.000000
# 4 0.000000 0.000000 0.000000 0.037779 0.000000 0.001083
# 5 0.003708 -0.001057 0.005666 0.000000 0.029245 0.000000
# 6 0.000000 0.000000 0.000000 0.001083 0.000000 0.021057
#
#
# Mechanical properties :
#
#
# Convention : Reuss Voigt Hill
#
# Bulk Modulus (GPa) = 56.45877 66.28891 61.37384
# Shear Modulus (GPa) = 35.03191 38.30187 36.66689
#
# Velocity S-wave (km/s) = 3.98427 4.16607 4.07618
# Velocity P-wave (km/s) = 6.83737 7.29244 7.06857
#
# Compressibility (1/GPa) = 0.01771204
#
# Stress axis : x y z
#
# Youngs Moduli (GPa) = 97.80408 94.76004 80.32344
#
# Poissons Ratio (x) = 0.32415 0.14823
# Poissons Ratio (y) = 0.33456 0.20012
# Poissons Ratio (z) = 0.18049 0.23609
#
# Static dielectric constant tensor:
#      x y z
#    x 3.996710 0.000000 -0.193980 
#    y 0.000000 4.390050 0.000000 
#    z -0.193980 0.000000 4.570070 
# 
# 
# High freq. dielectric constant tensor:
#      x y z
#    x 1.868790 0.000000 -0.015420 
#    y 0.000000 1.860510 0.000000 
#    z -0.015420 0.000000 1.886200 
# 
# From -- ./inp_files/192518.got.cif
#   From: 2010.06.25/outbox.cif.g09.slc.cpg/sg15_97_cif.got.tgz:192518.got - 2010.06.28 07:06:18.
