data_PCOD8150864
_publ_section_title
;
Structure prediction by ZEFSAII (Michael W. Deem and Ramdas Pophale) SiO2 
 PCOD8150864
Probable space group: C 2/C
;
_chemical_formula_sum "Si O2"
_cell_formula_units_Z 32
_cell_length_a 4.947108
_cell_length_b 19.990064
_cell_length_c 13.280571
_cell_angle_alpha 90.000000
_cell_angle_beta 75.368247
_cell_angle_gamma 90.000000
_cell_volume 1270.762575
_symmetry_space_group_name_H-M "C 2/C"
_symmetry_group_IT_number 15
_symmetry_cell_setting 'monoclinic'
loop_
_space_group_symop_operation_xyz
x,y,z
-x,y,1/2-z
-x,-y,-z
x,-y,1/2+z
1/2+x,1/2+y,z
1/2-x,1/2+y,1/2-z
1/2-x,1/2-y,-z
1/2+x,1/2-y,1/2+z
loop_
_atom_site_type_symbol
_atom_site_label
_atom_site_fract_x
_atom_site_fract_y
_atom_site_fract_z
Si Si1 0.587692 0.244746 0.131617
Si Si2 0.000000 0.003266 0.250000
Si Si3 0.466513 0.631007 0.141333
Si Si4 0.500000 0.914619 0.250000
Si Si5 0.856846 0.320356 0.439017
O O1 0.500000 0.269453 0.250000
O O2 0.690515 0.167158 0.121823
O O3 0.328579 0.254347 0.077500
O O4 0.828927 0.294944 0.069107
O O5 0.936337 0.050815 0.158579
O O6 0.725815 0.958406 0.289958
O O7 0.500000 0.665013 0.250000
O O8 0.736333 0.640973 0.046539
O O9 0.338243 0.870142 0.346623
#
# Coordination Sequence:
#
# PCOD8150864 Si02
#       5
#     8   4   8   4   8
#     4  12  23  44  73 108 139 178 228 297 359 425
#     4  10  28  45  70  99 144 190 240 282 342 414
#     4  10  26  47  68 108 143 187 227 291 356 425
#     4  12  24  47  70 103 136 190 248 282 338 410
#     4  12  25  44  76 104 140 182 235 293 354 414
#
# _framework density 25.181730000000002
#
# number of rings (size 3 to 8) (size 9 to 14) (size 15 to 20)
#    0.750    0.000    2.500    4.500    1.750    6.000 
#    0.000    0.000    0.000    0.000    0.000    0.000 
#    0.000    0.000    0.000    0.000    0.000    0.000 
#
# Total GULP energy -198430.117961 kJ/mol
# GULP energy per Si atom -12401.882373 kJ/mol
# Density = 2.512441 g / cm^3
# Si number density = 25.181730 Si / 1000 Ang^3
#
#
#
# Elastic Constant Matrix: (Units=GPa)
#
#
# Indices 1 2 3 4 5 6 
#
# 1 151.2694 40.4516 32.4504 0.0000 8.5096 0.0000
# 2 40.4516 126.4650 36.4412 0.0000 -4.2424 0.0000
# 3 32.4504 36.4412 192.9102 0.0000 -11.1829 0.0000
# 4 0.0000 0.0000 0.0000 23.8689 0.0000 2.0146
# 5 8.5096 -4.2424 -11.1829 0.0000 41.1540 0.0000
# 6 0.0000 0.0000 0.0000 2.0146 0.0000 27.4782
#
#
#
# Elastic Compliance Matrix: (Units=1/GPa)
#
#
# Indices 1 2 3 4 5 6 
#
# 1 0.007521 -0.002195 -0.000969 0.000000 -0.002045 0.000000
# 2 -0.002195 0.009011 -0.001273 0.000000 0.001037 0.000000
# 3 -0.000969 -0.001273 0.005681 0.000000 0.001613 0.000000
# 4 0.000000 0.000000 0.000000 0.042156 0.000000 -0.003091
# 5 -0.002045 0.001037 0.001613 0.000000 0.025267 0.000000
# 6 0.000000 0.000000 0.000000 -0.003091 0.000000 0.036619
#
#
# Mechanical properties :
#
#
# Convention : Reuss Voigt Hill
#
# Bulk Modulus (GPa) = 74.96991 76.59234 75.78112
# Shear Modulus (GPa) = 35.82318 42.58697 39.20507
#
# Velocity S-wave (km/s) = 3.77581 4.11686 3.95002
# Velocity P-wave (km/s) = 6.98893 7.28560 7.13881
#
# Compressibility (1/GPa) = 0.01333869
#
# Stress axis : x y z
#
# Youngs Moduli (GPa) = 132.96874 110.97584 176.03491
#
# Poissons Ratio (x) = 0.24358 0.17057
# Poissons Ratio (y) = 0.29186 0.22407
# Poissons Ratio (z) = 0.12884 0.14126
#
# Static dielectric constant tensor:
#      x y z
#    x 4.435990 0.000000 -0.049640 
#    y 0.000000 4.501950 0.000000 
#    z -0.049640 0.000000 4.969260 
# 
# 
# High freq. dielectric constant tensor:
#      x y z
#    x 2.012600 0.000000 -0.001100 
#    y 0.000000 1.993110 0.000000 
#    z -0.001100 0.000000 2.033960 
# 
# From -- ./inp_files/128838.got.cif
#   From: 2010.06.25/outbox.cif.g09.slc.cpg/sg15_65_cif.got.tgz:128838.got - 2010.06.28 07:06:18.
