data_PCOD8150675
_publ_section_title
;
Structure prediction by ZEFSAII (Michael W. Deem and Ramdas Pophale) SiO2 
 PCOD8150675
Probable space group: C 2/C
;
_chemical_formula_sum "Si O2"
_cell_formula_units_Z 32
_cell_length_a 5.910792
_cell_length_b 22.067719
_cell_length_c 12.774482
_cell_angle_alpha 90.000000
_cell_angle_beta 123.428498
_cell_angle_gamma 90.000000
_cell_volume 1390.628900
_symmetry_space_group_name_H-M "C 2/C"
_symmetry_group_IT_number 15
_symmetry_cell_setting 'monoclinic'
loop_
_space_group_symop_operation_xyz
x,y,z
-x,y,1/2-z
-x,-y,-z
x,-y,1/2+z
1/2+x,1/2+y,z
1/2-x,1/2+y,1/2-z
1/2-x,1/2-y,-z
1/2+x,1/2-y,1/2+z
loop_
_atom_site_type_symbol
_atom_site_label
_atom_site_fract_x
_atom_site_fract_y
_atom_site_fract_z
Si Si1 0.500000 0.169814 0.750000
Si Si2 0.978178 0.251449 0.861218
Si Si3 0.311458 0.065739 0.847924
Si Si4 0.220434 0.535092 0.428042
Si Si5 0.000000 0.365024 0.750000
O O1 0.402376 0.129485 0.822282
O O2 0.740627 0.213014 0.856576
O O3 0.897082 0.322151 0.819712
O O4 0.000000 0.221310 0.750000
O O5 0.250000 0.250000 0.000000
O O6 0.000000 0.050988 0.750000
O O7 0.483653 0.012116 0.838386
O O8 0.358351 0.067476 0.983544
O O9 0.500000 0.500000 0.500000
O O10 0.240182 0.590178 0.349833
#
# Coordination Sequence:
#
# PCOD8150675 Si02
#       5
#     4   8   8   8   4
#     4  12  25  46  74 102 147 198 250 302 380 460
#     4  10  27  47  69 106 146 197 256 309 377 448
#     4  11  25  42  73 105 144 186 244 300 383 446
#     4  11  24  46  73 108 141 190 243 312 379 449
#     4  10  25  46  68 104 149 176 254 312 368 450
#
# _framework density 23.01117
#
# number of rings (size 3 to 8) (size 9 to 14) (size 15 to 20)
#    0.750    0.500    0.000    4.500   10.500    1.000 
#   11.250    0.000    0.000    0.000    0.000    0.000 
#    0.000    0.000    0.000    0.000    0.000    0.000 
#
# Total GULP energy -198238.525742 kJ/mol
# GULP energy per Si atom -12389.907859 kJ/mol
# Density = 2.295880 g / cm^3
# Si number density = 23.011170 Si / 1000 Ang^3
#
#
#
# Elastic Constant Matrix: (Units=GPa)
#
#
# Indices 1 2 3 4 5 6 
#
# 1 109.4131 78.4597 66.2058 0.0000 29.7270 0.0000
# 2 78.4597 199.7493 90.8947 0.0000 21.3288 0.0000
# 3 66.2058 90.8947 157.0458 0.0000 21.5859 0.0000
# 4 0.0000 0.0000 0.0000 34.3635 0.0000 -23.8403
# 5 29.7270 21.3288 21.5859 0.0000 47.5584 0.0000
# 6 0.0000 0.0000 0.0000 -23.8403 0.0000 14.2211
#
#
#
# Elastic Compliance Matrix: (Units=1/GPa)
#
#
# Indices 1 2 3 4 5 6 
#
# 1 0.015868 -0.003935 -0.003510 0.000000 -0.006560 0.000000
# 2 -0.003935 0.007854 -0.002923 0.000000 0.000264 0.000000
# 3 -0.003510 -0.002923 0.009660 0.000000 -0.000879 0.000000
# 4 0.000000 0.000000 0.000000 -0.178498 0.000000 -0.299234
# 5 -0.006560 0.000264 -0.000879 0.000000 0.025408 0.000000
# 6 0.000000 0.000000 0.000000 -0.299234 0.000000 -0.431318
#
#
# Mechanical properties :
#
#
# Convention : Reuss Voigt Hill
#
# Bulk Modulus (GPa) = 79.08075 104.14764 91.61419
# Shear Modulus (GPa) = -9.50435 34.60513 12.55039
#
# Velocity S-wave (km/s) = -2.03452 3.88215 2.33792
# Velocity P-wave (km/s) = 5.37790 8.09028 6.86929
#
# Compressibility (1/GPa) = 0.01264530
#
# Stress axis : x y z
#
# Youngs Moduli (GPa) = 63.02035 127.32674 103.51888
#
# Poissons Ratio (x) = 0.50102 0.36338
# Poissons Ratio (y) = 0.24798 0.30259
# Poissons Ratio (z) = 0.22122 0.37218
#
# Static dielectric constant tensor:
#      x y z
#    x 4.105950 0.000000 -0.168630 
#    y 0.000000 4.301680 0.000000 
#    z -0.168630 0.000000 4.253780 
# 
# 
# High freq. dielectric constant tensor:
#      x y z
#    x 1.883380 0.000000 -0.006970 
#    y 0.000000 1.926830 0.000000 
#    z -0.006970 0.000000 1.919240 
# 
# From -- ./inp_files/129269.got.cif
#   From: 2010.06.25/outbox.cif.g09.slc.cpg/sg15_65_cif.got.tgz:129269.got - 2010.06.28 07:06:18.
