data_PCOD8150633
_publ_section_title
;
Structure prediction by ZEFSAII (Michael W. Deem and Ramdas Pophale) SiO2 
 PCOD8150633
Probable space group: C 2/C
;
_chemical_formula_sum "Si O2"
_cell_formula_units_Z 40
_cell_length_a 10.170641
_cell_length_b 17.630734
_cell_length_c 9.728380
_cell_angle_alpha 90.000000
_cell_angle_beta 89.419331
_cell_angle_gamma 90.000000
_cell_volume 1744.363300
_symmetry_space_group_name_H-M "C 2/C"
_symmetry_group_IT_number 15
_symmetry_cell_setting 'monoclinic'
loop_
_space_group_symop_operation_xyz
x,y,z
-x,y,1/2-z
-x,-y,-z
x,-y,1/2+z
1/2+x,1/2+y,z
1/2-x,1/2+y,1/2-z
1/2-x,1/2-y,-z
1/2+x,1/2-y,1/2+z
loop_
_atom_site_type_symbol
_atom_site_label
_atom_site_fract_x
_atom_site_fract_y
_atom_site_fract_z
Si Si1 0.345376 0.058925 0.754621
Si Si2 0.262602 0.076706 0.449894
Si Si3 0.501796 0.656386 0.406685
Si Si4 0.731217 0.160572 0.515704
Si Si5 0.473614 0.800820 0.903145
O O1 0.500000 0.072087 0.750000
O O2 0.288106 0.048347 0.603752
O O3 0.278914 0.132896 0.826368
O O4 0.312020 0.985820 0.844178
O O5 0.107750 0.090603 0.431390
O O6 0.337455 0.154788 0.416425
O O7 0.500000 0.683807 0.250000
O O8 0.358162 0.621086 0.444783
O O9 0.535006 0.729052 0.497959
O O10 0.750000 0.250000 0.500000
O O11 0.593144 0.141260 0.441725
O O12 0.500000 0.770297 0.750000
#
# Coordination Sequence:
#
# PCOD8150633 Si02
#       5
#     8   8   8   8   8
#     4  12  27  49  75 106 146 197 244 307 361 433
#     4  12  28  46  76 104 150 193 251 292 365 434
#     4  11  27  46  73 109 151 189 239 302 370 426
#     4  10  25  44  74 103 146 185 243 300 364 428
#     4  11  24  44  77 108 144 190 248 299 360 437
#
# _framework density 22.931001999999999
#
# number of rings (size 3 to 8) (size 9 to 14) (size 15 to 20)
#    0.000    0.800    2.000    3.000   16.800    0.800 
#    0.000    0.000    0.000    0.000    0.000    0.000 
#    0.000    0.000    0.000    0.000    0.000    0.000 
#
# Total GULP energy -248057.587443 kJ/mol
# GULP energy per Si atom -12402.879372 kJ/mol
# Density = 2.287881 g / cm^3
# Si number density = 22.931002 Si / 1000 Ang^3
#
#
#
# Elastic Constant Matrix: (Units=GPa)
#
#
# Indices 1 2 3 4 5 6 
#
# 1 130.2535 17.4001 33.4124 0.0000 -23.8210 0.0000
# 2 17.4001 78.1184 50.2720 0.0000 -10.0943 0.0000
# 3 33.4124 50.2720 204.6877 0.0000 -4.1136 0.0000
# 4 0.0000 0.0000 0.0000 43.2729 0.0000 -10.4846
# 5 -23.8210 -10.0943 -4.1136 0.0000 40.1269 0.0000
# 6 0.0000 0.0000 0.0000 -10.4846 0.0000 24.9876
#
#
#
# Elastic Compliance Matrix: (Units=1/GPa)
#
#
# Indices 1 2 3 4 5 6 
#
# 1 0.008995 -0.000557 -0.001230 0.000000 0.005074 0.000000
# 2 -0.000557 0.015730 -0.003707 0.000000 0.003247 0.000000
# 3 -0.001230 -0.003707 0.005976 0.000000 -0.001050 0.000000
# 4 0.000000 0.000000 0.000000 0.025724 0.000000 0.010794
# 5 0.005074 0.003247 -0.001050 0.000000 0.028642 0.000000
# 6 0.000000 0.000000 0.000000 0.010794 0.000000 0.044549
#
#
# Mechanical properties :
#
#
# Convention : Reuss Voigt Hill
#
# Bulk Modulus (GPa) = 50.72569 68.35872 59.54221
# Shear Modulus (GPa) = 33.97322 42.47581 38.22451
#
# Velocity S-wave (km/s) = 3.85325 4.30854 4.08724
# Velocity P-wave (km/s) = 6.47810 7.39099 6.94955
#
# Compressibility (1/GPa) = 0.01971388
#
# Stress axis : x y z
#
# Youngs Moduli (GPa) = 111.17278 63.57119 167.34594
#
# Poissons Ratio (x) = 0.03539 0.20577
# Poissons Ratio (y) = 0.06188 0.62041
# Poissons Ratio (z) = 0.13670 0.23568
#
# Static dielectric constant tensor:
#      x y z
#    x 5.023730 0.000000 -0.201440 
#    y 0.000000 3.818480 0.000000 
#    z -0.201440 0.000000 4.474110 
# 
# 
# High freq. dielectric constant tensor:
#      x y z
#    x 1.925460 0.000000 -0.008750 
#    y 0.000000 1.889260 0.000000 
#    z -0.008750 0.000000 1.921490 
# 
# From -- ./inp_files/29090.got.cif
#   From: 2010.06.25/outbox.cif.g09.slc.cpg/sg15_15_cif.got.tgz:29090.got - 2010.06.28 07:06:18.
