data_PCOD8150134
_publ_section_title
;
Structure prediction by ZEFSAII (Michael W. Deem and Ramdas Pophale) SiO2 
 PCOD8150134
Probable space group: C 2/C
;
_chemical_formula_sum "Si O2"
_cell_formula_units_Z 64
_cell_length_a 11.683228
_cell_length_b 26.769014
_cell_length_c 14.863774
_cell_angle_alpha 90.000000
_cell_angle_beta 38.533492
_cell_angle_gamma 90.000000
_cell_volume 2895.961927
_symmetry_space_group_name_H-M "C 2/C"
_symmetry_group_IT_number 15
_symmetry_cell_setting 'monoclinic'
loop_
_space_group_symop_operation_xyz
x,y,z
-x,y,1/2-z
-x,-y,-z
x,-y,1/2+z
1/2+x,1/2+y,z
1/2-x,1/2+y,1/2-z
1/2-x,1/2-y,-z
1/2+x,1/2-y,1/2+z
loop_
_atom_site_type_symbol
_atom_site_label
_atom_site_fract_x
_atom_site_fract_y
_atom_site_fract_z
Si Si1 0.303248 0.279192 0.340151
Si Si2 0.806935 0.108633 0.904974
Si Si3 0.976078 0.855522 0.916420
Si Si4 0.719548 0.837740 0.905058
Si Si5 0.241650 0.500333 0.748453
Si Si6 0.425799 0.263755 0.072273
Si Si7 0.985947 0.431775 0.494570
Si Si8 0.574279 0.565100 0.496082
O O1 0.500000 0.257283 0.250000
O O2 0.272955 0.335051 0.394155
O O3 0.294294 0.274859 0.237408
O O4 0.133032 0.246524 0.481449
O O5 0.824444 0.105679 0.002909
O O6 0.000000 0.088584 0.750000
O O7 0.646147 0.071346 0.971773
O O8 0.837733 0.852497 0.918476
O O9 0.178323 0.846830 0.752436
O O10 0.916930 0.812884 0.019966
O O11 0.973005 0.907622 0.973789
O O12 0.646596 0.781146 0.947128
O O13 0.549740 0.875482 0.014217
O O14 0.197384 0.459655 0.855201
O O15 0.429729 0.532372 0.643597
O O16 0.264177 0.470850 0.640877
O O17 0.067450 0.538034 0.858492
#
# Coordination Sequence:
#
# PCOD8150134 Si02
#       8
#     8   8   8   8   8   8   8   8
#     4  11  24  40  67 102 139 181 220 279 343 407
#     4  11  22  42  72  95 139 184 216 280 358 400
#     4  11  24  45  70  97 138 185 228 279 342 408
#     4  11  24  45  69 100 137 184 225 284 346 400
#     4  10  24  44  68  98 134 174 233 280 341 409
#     4  12  23  45  69 102 142 173 239 275 338 420
#     4  11  22  47  67 102 137 175 231 284 347 409
#     4  11  23  47  68 103 136 180 234 282 347 412
#
# _framework density 22.099737000000001
#
# number of rings (size 3 to 8) (size 9 to 14) (size 15 to 20)
#    0.000    1.000    5.000    2.250    0.000    0.500 
#   13.500    1.250    0.000    0.000    0.000    0.000 
#    0.000    0.000    0.000    0.000    0.000    0.000 
#
# Total GULP energy -396584.000058 kJ/mol
# GULP energy per Si atom -12393.250002 kJ/mol
# Density = 2.204944 g / cm^3
# Si number density = 22.099737 Si / 1000 Ang^3
#
#
#
# Elastic Constant Matrix: (Units=GPa)
#
#
# Indices 1 2 3 4 5 6 
#
# 1 71.2527 25.4033 18.5690 0.0000 6.8368 0.0000
# 2 25.4033 101.2458 40.1963 0.0000 10.6307 0.0000
# 3 18.5690 40.1963 114.6280 0.0000 3.2354 0.0000
# 4 0.0000 0.0000 0.0000 38.4723 0.0000 3.5522
# 5 6.8368 10.6307 3.2354 0.0000 29.1235 0.0000
# 6 0.0000 0.0000 0.0000 3.5522 0.0000 20.3176
#
#
#
# Elastic Compliance Matrix: (Units=1/GPa)
#
#
# Indices 1 2 3 4 5 6 
#
# 1 0.015747 -0.003153 -0.001378 0.000000 -0.002393 0.000000
# 2 -0.003153 0.012530 -0.003787 0.000000 -0.003413 0.000000
# 3 -0.001378 -0.003787 0.010259 0.000000 0.000566 0.000000
# 4 0.000000 0.000000 0.000000 0.026419 0.000000 -0.004619
# 5 -0.002393 -0.003413 0.000566 0.000000 0.036081 0.000000
# 6 0.000000 0.000000 0.000000 -0.004619 0.000000 0.050026
#
#
# Mechanical properties :
#
#
# Convention : Reuss Voigt Hill
#
# Bulk Modulus (GPa) = 45.65948 50.60707 48.13327
# Shear Modulus (GPa) = 28.57184 31.11320 29.84252
#
# Velocity S-wave (km/s) = 3.59954 3.75621 3.67871
# Velocity P-wave (km/s) = 6.16288 6.46229 6.31436
#
# Compressibility (1/GPa) = 0.02190126
#
# Stress axis : x y z
#
# Youngs Moduli (GPa) = 63.50300 79.80998 97.47564
#
# Poissons Ratio (x) = 0.25163 0.13430
# Poissons Ratio (y) = 0.20022 0.36911
# Poissons Ratio (z) = 0.08750 0.30222
#
# Static dielectric constant tensor:
#      x y z
#    x 3.864260 0.000000 0.008990 
#    y 0.000000 4.000830 0.000000 
#    z 0.008990 0.000000 4.229390 
# 
# 
# High freq. dielectric constant tensor:
#      x y z
#    x 1.841440 0.000000 0.001590 
#    y 0.000000 1.880700 0.000000 
#    z 0.001590 0.000000 1.882170 
# 
# From -- ./inp_files/148752.got.cif
#   From: 2010.06.25/outbox.cif.g09.slc.cpg/sg15_75_cif.got.tgz:148752.got - 2010.06.28 07:06:18.
