data_PCOD8150727
_publ_section_title
;
Structure prediction by ZEFSAII (Michael W. Deem and Ramdas Pophale) SiO2 
 PCOD8150727
Probable space group: C 2/C
;
_chemical_formula_sum "Si O2"
_cell_formula_units_Z 56
_cell_length_a 21.282754
_cell_length_b 21.676840
_cell_length_c 17.520568
_cell_angle_alpha 90.000000
_cell_angle_beta 161.787332
_cell_angle_gamma 90.000000
_cell_volume 2526.297325
_symmetry_space_group_name_H-M "C 2/C"
_symmetry_group_IT_number 15
_symmetry_cell_setting 'monoclinic'
loop_
_space_group_symop_operation_xyz
x,y,z
-x,y,1/2-z
-x,-y,-z
x,-y,1/2+z
1/2+x,1/2+y,z
1/2-x,1/2+y,1/2-z
1/2-x,1/2-y,-z
1/2+x,1/2-y,1/2+z
loop_
_atom_site_type_symbol
_atom_site_label
_atom_site_fract_x
_atom_site_fract_y
_atom_site_fract_z
Si Si1 0.174320 0.904252 0.890365
Si Si2 0.657361 0.764243 0.586455
Si Si3 0.201421 0.606673 0.577839
Si Si4 0.480126 0.643711 0.023426
Si Si5 0.466232 0.693225 0.798395
Si Si6 0.500000 0.803332 0.250000
Si Si7 0.000000 0.496166 0.750000
Si Si8 0.595002 0.812624 0.670344
O O1 0.065985 0.905588 0.682834
O O2 0.000000 0.904356 0.750000
O O3 0.304921 0.842781 0.046027
O O4 0.319717 0.962140 0.074680
O O5 0.697270 0.691132 0.652417
O O6 0.853640 0.805773 0.806684
O O7 0.533688 0.762471 0.364373
O O8 0.528317 0.795619 0.506703
O O9 0.277591 0.645864 0.591885
O O10 0.103869 0.543338 0.436785
O O11 0.033286 0.635451 0.437507
O O12 0.399341 0.601783 0.860328
O O13 0.500000 0.712262 0.750000
O O14 0.411552 0.751809 0.785557
O O15 0.674482 0.663582 0.067912
#
# Coordination Sequence:
#
# PCOD8150727 Si02
#       8
#     8   8   8   8   8   4   4   8
#     4  10  25  48  72  96 129 178 232 292 335 389
#     4  11  21  40  64 110 154 171 209 264 340 441
#     4  12  25  43  69  98 132 185 223 282 336 401
#     4  11  23  40  70 105 143 175 214 266 348 418
#     4  12  23  37  58  95 141 184 220 262 329 408
#     4   9  24  40  72 108 142 176 213 272 346 426
#     4  11  28  52  66  90 132 172 253 298 320 370
#     4  12  22  37  61  99 147 177 212 264 333 418
#
# _framework density 22.166829
#
# number of rings (size 3 to 8) (size 9 to 14) (size 15 to 20)
#    0.000    0.857    4.286    2.143    6.000    3.429 
#    0.000    0.714    0.000    0.000    0.000    0.000 
#    0.000    0.000    0.000    0.000    0.000    0.000 
#
# Total GULP energy -346881.722876 kJ/mol
# GULP energy per Si atom -12388.632960 kJ/mol
# Density = 2.211638 g / cm^3
# Si number density = 22.166829 Si / 1000 Ang^3
#
#
#
# Elastic Constant Matrix: (Units=GPa)
#
#
# Indices 1 2 3 4 5 6 
#
# 1 137.5819 39.0294 46.5201 0.0003 -12.7849 0.0001
# 2 39.0294 63.0936 19.7667 0.0003 -2.8754 0.0006
# 3 46.5201 19.7667 85.2644 0.0024 -3.6740 0.0027
# 4 0.0003 0.0003 0.0024 35.6597 0.0007 -16.0495
# 5 -12.7849 -2.8754 -3.6740 0.0007 52.1790 0.0005
# 6 0.0001 0.0006 0.0027 -16.0495 0.0005 6.6360
#
#
#
# Elastic Compliance Matrix: (Units=1/GPa)
#
#
# Indices 1 2 3 4 5 6 
#
# 1 0.010340 -0.004924 -0.004416 -0.000013 0.001951 -0.000029
# 2 -0.004924 0.019458 -0.001836 0.000005 -0.000263 0.000012
# 3 -0.004416 -0.001836 0.014556 0.000040 -0.000158 0.000090
# 4 -0.000013 0.000005 0.000040 -0.316814 0.000012 -0.766225
# 5 0.001951 -0.000263 -0.000158 0.000012 0.019617 0.000028
# 6 -0.000029 0.000012 0.000090 -0.766225 0.000028 -1.702445
#
#
# Mechanical properties :
#
#
# Convention : Reuss Voigt Hill
#
# Bulk Modulus (GPa) = 45.44751 55.17473 50.31112
# Shear Modulus (GPa) = -2.59659 30.93651 14.16996
#
# Velocity S-wave (km/s) = -1.08348 3.73985 2.53107
# Velocity P-wave (km/s) = 4.35681 6.60253 5.59353
#
# Compressibility (1/GPa) = 0.02200341
#
# Stress axis : x y z
#
# Youngs Moduli (GPa) = 96.71615 51.39161 68.69896
#
# Poissons Ratio (x) = 0.25303 0.30336
# Poissons Ratio (y) = 0.47620 0.12613
# Poissons Ratio (z) = 0.42707 0.09436
#
# Static dielectric constant tensor:
#      x y z
#    x 4.397380 0.000000 0.035630 
#    y 0.000000 3.657250 -0.000010 
#    z 0.035630 -0.000010 4.675370 
# 
# 
# High freq. dielectric constant tensor:
#      x y z
#    x 1.888780 0.000000 0.006250 
#    y 0.000000 1.819030 0.000000 
#    z 0.006250 0.000000 1.905940 
# 
# From -- ./inp_files/216688.got.cif
#   From: 2010.06.25/outbox.cif.g09.slc.cpg/sg15_109_cif.got.tgz:216688.got - 2010.06.28 07:06:18.
