data_PCOD8150777
_publ_section_title
;
Structure prediction by ZEFSAII (Michael W. Deem and Ramdas Pophale) SiO2 
 PCOD8150777
Probable space group: C 2/C
;
_chemical_formula_sum "Si O2"
_cell_formula_units_Z 56
_cell_length_a 16.085244
_cell_length_b 6.209539
_cell_length_c 29.920031
_cell_angle_alpha 90.000000
_cell_angle_beta 62.450213
_cell_angle_gamma 90.000000
_cell_volume 2649.606106
_symmetry_space_group_name_H-M "C 2/C"
_symmetry_group_IT_number 15
_symmetry_cell_setting 'monoclinic'
loop_
_space_group_symop_operation_xyz
x,y,z
-x,y,1/2-z
-x,-y,-z
x,-y,1/2+z
1/2+x,1/2+y,z
1/2-x,1/2+y,1/2-z
1/2-x,1/2-y,-z
1/2+x,1/2-y,1/2+z
loop_
_atom_site_type_symbol
_atom_site_label
_atom_site_fract_x
_atom_site_fract_y
_atom_site_fract_z
Si Si1 0.699760 0.241605 0.702696
Si Si2 0.838770 0.729898 0.945884
Si Si3 0.141140 0.451818 0.304837
Si Si4 0.495256 0.493937 0.553668
Si Si5 0.158670 0.030441 0.635750
Si Si6 0.799225 0.143724 0.136610
Si Si7 0.042566 0.656403 0.110147
O O1 0.788121 0.348737 0.706254
O O2 0.639793 0.415157 0.688608
O O3 0.633661 0.119523 0.754822
O O4 0.738087 0.069695 0.657769
O O5 0.927855 0.829744 0.947896
O O6 0.812060 0.853687 0.907576
O O7 0.866321 0.485072 0.925848
O O8 0.750000 0.750000 0.000000
O O9 0.179407 0.242236 0.320313
O O10 0.038312 0.509933 0.348405
O O11 0.500000 0.500000 0.500000
O O12 0.393873 0.404451 0.588234
O O13 0.507325 0.727355 0.573785
O O14 0.246486 0.187946 0.618292
O O15 0.068553 0.164910 0.641292
#
# Coordination Sequence:
#
# PCOD8150777 Si02
#       7
#     8   8   8   8   8   8   8
#     4  11  22  42  71 101 129 177 222 279 335 405
#     4  11  26  45  66  96 138 183 220 274 341 399
#     4  11  22  41  74  97 132 174 225 278 338 393
#     4  11  26  40  71 104 131 175 228 279 332 400
#     4  10  26  43  68  95 136 177 217 274 335 399
#     4  11  22  43  67 100 135 169 224 277 327 397
#     4  11  24  47  67  99 142 177 221 282 335 408
#
# _framework density 21.135217000000001
#
# number of rings (size 3 to 8) (size 9 to 14) (size 15 to 20)
#    0.000    1.143    4.286    0.857    6.000    1.714 
#    0.000    4.286    0.000    0.000    0.000    0.000 
#    0.000    0.000    0.000    0.000    0.000    0.000 
#
# Total GULP energy -347248.912670 kJ/mol
# GULP energy per Si atom -12401.746881 kJ/mol
# Density = 2.108711 g / cm^3
# Si number density = 21.135217 Si / 1000 Ang^3
#
#
#
# Elastic Constant Matrix: (Units=GPa)
#
#
# Indices 1 2 3 4 5 6 
#
# 1 84.8737 46.6593 57.7982 0.0000 15.5068 0.0003
# 2 46.6593 111.9443 50.0110 -0.0038 8.8857 0.0008
# 3 57.7982 50.0110 132.7335 -0.0045 7.1489 0.0030
# 4 0.0000 -0.0038 -0.0045 32.6069 -0.0007 -0.0356
# 5 15.5068 8.8857 7.1489 -0.0007 35.8146 -0.0006
# 6 0.0003 0.0008 0.0030 -0.0356 -0.0006 37.6894
#
#
#
# Elastic Compliance Matrix: (Units=1/GPa)
#
#
# Indices 1 2 3 4 5 6 
#
# 1 0.020096 -0.004961 -0.006549 -0.000002 -0.006163 0.000000
# 2 -0.004961 0.012092 -0.002375 0.000001 -0.000378 0.000000
# 3 -0.006549 -0.002375 0.011217 0.000001 0.001186 -0.000001
# 4 -0.000002 0.000001 0.000001 0.030668 0.000001 0.000029
# 5 -0.006163 -0.000378 0.001186 0.000001 0.030447 0.000000
# 6 0.000000 0.000000 -0.000001 0.000029 0.000000 0.026533
#
#
# Mechanical properties :
#
#
# Convention : Reuss Voigt Hill
#
# Bulk Modulus (GPa) = 63.96746 70.94319 67.45532
# Shear Modulus (GPa) = 30.48134 32.89439 31.68786
#
# Velocity S-wave (km/s) = 3.80176 3.94938 3.87627
# Velocity P-wave (km/s) = 7.04292 7.37807 7.21244
#
# Compressibility (1/GPa) = 0.01563295
#
# Stress axis : x y z
#
# Youngs Moduli (GPa) = 49.76238 82.69958 89.15081
#
# Poissons Ratio (x) = 0.41026 0.58389
# Poissons Ratio (y) = 0.24686 0.21177
# Poissons Ratio (z) = 0.32592 0.19645
#
# Static dielectric constant tensor:
#      x y z
#    x 3.834610 -0.000010 0.123380 
#    y -0.000010 4.077010 0.000000 
#    z 0.123380 0.000000 3.856070 
# 
# 
# High freq. dielectric constant tensor:
#      x y z
#    x 1.827480 0.000000 0.011990 
#    y 0.000000 1.844850 0.000000 
#    z 0.011990 0.000000 1.825760 
# 
# From -- ./inp_files/315025.got.cif
#   From: 2010.06.25/outbox.cif.g09.slc.cpg/sg15_158_cif.got.tgz:315025.got - 2010.06.28 07:06:18.
