data_PCOD8150554
_publ_section_title
;
Structure prediction by ZEFSAII (Michael W. Deem and Ramdas Pophale) SiO2 
 PCOD8150554
Probable space group: C 2/C
;
_chemical_formula_sum "Si O2"
_cell_formula_units_Z 32
_cell_length_a 8.934618
_cell_length_b 10.087856
_cell_length_c 25.845538
_cell_angle_alpha 90.000000
_cell_angle_beta 140.189973
_cell_angle_gamma 90.000000
_cell_volume 1491.440918
_symmetry_space_group_name_H-M "C 2/C"
_symmetry_group_IT_number 15
_symmetry_cell_setting 'monoclinic'
loop_
_space_group_symop_operation_xyz
x,y,z
-x,y,1/2-z
-x,-y,-z
x,-y,1/2+z
1/2+x,1/2+y,z
1/2-x,1/2+y,1/2-z
1/2-x,1/2-y,-z
1/2+x,1/2-y,1/2+z
loop_
_atom_site_type_symbol
_atom_site_label
_atom_site_fract_x
_atom_site_fract_y
_atom_site_fract_z
Si Si1 0.712978 0.045734 0.683065
Si Si2 0.279628 0.253480 0.727206
Si Si3 0.346726 0.405976 0.108233
Si Si4 0.141199 0.383434 0.488762
O O1 0.688809 0.180071 0.709851
O O2 0.904354 0.060493 0.685390
O O3 0.461930 0.032263 0.586936
O O4 0.748903 0.911694 0.726184
O O5 0.500000 0.219329 0.750000
O O6 0.042445 0.193459 0.638374
O O7 0.082778 0.347809 0.033716
O O8 0.345044 0.539874 0.073874
O O9 0.250000 0.250000 0.500000
#
# Coordination Sequence:
#
# PCOD8150554 Si02
#       4
#     8   8   8   8
#     4  10  25  42  67  92 135 170 214 268 325 384
#     4  12  25  39  65  97 131 172 218 262 326 387
#     4   9  22  44  66  90 131 170 212 270 323 379
#     4   9  21  42  73  91 126 172 217 267 328 376
#
# _framework density 21.455760999999999
#
# number of rings (size 3 to 8) (size 9 to 14) (size 15 to 20)
#    1.500    0.500    0.000    2.250    7.000    5.000 
#    0.000    2.500    0.000    0.000    0.000    0.000 
#    0.000    0.000    0.000    0.000    0.000    0.000 
#
# Total GULP energy -198217.988524 kJ/mol
# GULP energy per Si atom -12388.624283 kJ/mol
# Density = 2.140693 g / cm^3
# Si number density = 21.455761 Si / 1000 Ang^3
#
#
#
# Elastic Constant Matrix: (Units=GPa)
#
#
# Indices 1 2 3 4 5 6 
#
# 1 73.7282 68.0102 39.6777 0.0000 1.0149 0.0000
# 2 68.0102 146.6126 44.6715 0.0000 -7.9782 0.0000
# 3 39.6777 44.6715 74.8331 0.0000 -11.0748 0.0000
# 4 0.0000 0.0000 0.0000 39.2000 0.0000 -2.6371
# 5 1.0149 -7.9782 -11.0748 0.0000 37.8993 0.0000
# 6 0.0000 0.0000 0.0000 -2.6371 0.0000 39.0003
#
#
#
# Elastic Compliance Matrix: (Units=1/GPa)
#
#
# Indices 1 2 3 4 5 6 
#
# 1 0.028733 -0.010685 -0.009724 0.000000 -0.005860 0.000000
# 2 -0.010685 0.012314 -0.001316 0.000000 0.002494 0.000000
# 3 -0.009724 -0.001316 0.020175 0.000000 0.005879 0.000000
# 4 0.000000 0.000000 0.000000 0.025627 0.000000 0.001733
# 5 -0.005860 0.002494 0.005879 0.000000 0.028785 0.000000
# 6 0.000000 0.000000 0.000000 0.001733 0.000000 0.025758
#
#
# Mechanical properties :
#
#
# Convention : Reuss Voigt Hill
#
# Bulk Modulus (GPa) = 56.26952 66.65475 61.46214
# Shear Modulus (GPa) = 26.21014 32.74088 29.47551
#
# Velocity S-wave (km/s) = 3.49892 3.91061 3.71048
# Velocity P-wave (km/s) = 6.52733 7.17802 6.86039
#
# Compressibility (1/GPa) = 0.01777161
#
# Stress axis : x y z
#
# Youngs Moduli (GPa) = 34.80305 81.20878 49.56712
#
# Poissons Ratio (x) = 0.86770 0.48198
# Poissons Ratio (y) = 0.37186 0.06526
# Poissons Ratio (z) = 0.33842 0.10691
#
# Static dielectric constant tensor:
#      x y z
#    x 3.761130 0.000000 0.196360 
#    y 0.000000 3.524010 0.000000 
#    z 0.196360 0.000000 4.973330 
# 
# 
# High freq. dielectric constant tensor:
#      x y z
#    x 1.821490 0.000000 0.017620 
#    y 0.000000 1.827520 0.000000 
#    z 0.017620 0.000000 1.871700 
# 
# From -- ./inp_files/187459.got.cif
#   From: 2010.06.25/outbox.cif.g09.slc.cpg/sg15_94_cif.got.tgz:187459.got - 2010.06.28 07:06:18.
