data_PCOD8150537
_publ_section_title
;
Structure prediction by ZEFSAII (Michael W. Deem and Ramdas Pophale) SiO2 
 PCOD8150537
Probable space group: C 2/C
;
_chemical_formula_sum "Si O2"
_cell_formula_units_Z 40
_cell_length_a 11.813532
_cell_length_b 16.834190
_cell_length_c 8.963708
_cell_angle_alpha 90.000000
_cell_angle_beta 101.348375
_cell_angle_gamma 90.000000
_cell_volume 1747.771439
_symmetry_space_group_name_H-M "C 2/C"
_symmetry_group_IT_number 15
_symmetry_cell_setting 'monoclinic'
loop_
_space_group_symop_operation_xyz
x,y,z
-x,y,1/2-z
-x,-y,-z
x,-y,1/2+z
1/2+x,1/2+y,z
1/2-x,1/2+y,1/2-z
1/2-x,1/2-y,-z
1/2+x,1/2-y,1/2+z
loop_
_atom_site_type_symbol
_atom_site_label
_atom_site_fract_x
_atom_site_fract_y
_atom_site_fract_z
Si Si1 0.871137 0.516166 0.518317
Si Si2 0.604032 0.252857 0.109579
Si Si3 0.364847 0.727415 0.442502
Si Si4 0.290159 0.106963 0.220915
Si Si5 0.165757 0.670228 0.824954
O O1 0.789982 0.546244 0.361114
O O2 0.822876 0.434694 0.573769
O O3 0.868861 0.579710 0.652670
O O4 0.000000 0.500000 0.500000
O O5 0.616957 0.176682 0.221677
O O6 0.696163 0.321639 0.173598
O O7 0.472382 0.286570 0.083194
O O8 0.630988 0.228014 0.948418
O O9 0.250000 0.750000 0.500000
O O10 0.335511 0.648230 0.336283
O O11 0.400420 0.799991 0.341048
#
# Coordination Sequence:
#
# PCOD8150537 Si02
#       5
#     8   8   8   8   8
#     4  11  24  39  66  93 142 170 221 282 348 407
#     4   9  20  43  65  91 133 173 228 281 331 403
#     4  11  24  37  68  98 137 176 239 281 333 409
#     4  10  25  41  63 103 129 178 221 277 348 403
#     4   9  21  40  63  94 126 180 223 279 341 399
#
# _framework density 22.886288
#
# number of rings (size 3 to 8) (size 9 to 14) (size 15 to 20)
#    0.000    2.000    0.000    2.400   11.200    5.600 
#    0.000    1.000    0.000    0.000    0.000    0.000 
#    0.000    0.000    0.000    0.000    0.000    0.000 
#
# Total GULP energy -247917.661563 kJ/mol
# GULP energy per Si atom -12395.883078 kJ/mol
# Density = 2.283420 g / cm^3
# Si number density = 22.886288 Si / 1000 Ang^3
#
#
#
# Elastic Constant Matrix: (Units=GPa)
#
#
# Indices 1 2 3 4 5 6 
#
# 1 118.6000 55.8337 30.7226 0.0000 27.9665 0.0000
# 2 55.8337 111.6849 57.7863 0.0000 2.9533 0.0000
# 3 30.7226 57.7863 81.0543 0.0000 22.4617 0.0000
# 4 0.0000 0.0000 0.0000 60.2315 0.0000 -3.2490
# 5 27.9665 2.9533 22.4617 0.0000 45.3080 0.0000
# 6 0.0000 0.0000 0.0000 -3.2490 0.0000 25.8708
#
#
#
# Elastic Compliance Matrix: (Units=1/GPa)
#
#
# Indices 1 2 3 4 5 6 
#
# 1 0.013783 -0.008428 0.003466 0.000000 -0.009677 0.000000
# 2 -0.008428 0.020277 -0.014302 0.000000 0.010971 0.000000
# 3 0.003466 -0.014302 0.024987 0.000000 -0.013594 0.000000
# 4 0.000000 0.000000 0.000000 0.016716 0.000000 0.002099
# 5 -0.009677 0.010971 -0.013594 0.000000 0.034069 0.000000
# 6 0.000000 0.000000 0.000000 0.002099 0.000000 0.038917
#
#
# Mechanical properties :
#
#
# Convention : Reuss Voigt Hill
#
# Bulk Modulus (GPa) = 48.73390 66.66938 57.70164
# Shear Modulus (GPa) = 25.75779 37.41516 31.58648
#
# Velocity S-wave (km/s) = 3.35844 4.04769 3.71907
# Velocity P-wave (km/s) = 6.03150 7.14416 6.61128
#
# Compressibility (1/GPa) = 0.02051960
#
# Stress axis : x y z
#
# Youngs Moduli (GPa) = 72.55141 49.31791 40.02065
#
# Poissons Ratio (x) = 0.41564 -0.13870
# Poissons Ratio (y) = 0.61145 0.57236
# Poissons Ratio (z) = -0.25144 0.70532
#
# Static dielectric constant tensor:
#      x y z
#    x 4.143730 0.000000 0.221720 
#    y 0.000000 4.212400 0.000000 
#    z 0.221720 0.000000 4.631590 
# 
# 
# High freq. dielectric constant tensor:
#      x y z
#    x 1.884870 0.000000 -0.000240 
#    y 0.000000 1.876890 0.000000 
#    z -0.000240 0.000000 1.931920 
# 
# From -- ./inp_files/29315.got.cif
#   From: 2010.06.25/outbox.cif.g09.slc.cpg/sg15_15_cif.got.tgz:29315.got - 2010.06.28 07:06:18.
