data_PCOD8150601
_publ_section_title
;
Structure prediction by ZEFSAII (Michael W. Deem and Ramdas Pophale) SiO2 
 PCOD8150601
Probable space group: C 2/C
;
_chemical_formula_sum "Si O2"
_cell_formula_units_Z 60
_cell_length_a 17.385021
_cell_length_b 8.616622
_cell_length_c 21.808826
_cell_angle_alpha 90.000000
_cell_angle_beta 58.053122
_cell_angle_gamma 90.000000
_cell_volume 2772.147798
_symmetry_space_group_name_H-M "C 2/C"
_symmetry_group_IT_number 15
_symmetry_cell_setting 'monoclinic'
loop_
_space_group_symop_operation_xyz
x,y,z
-x,y,1/2-z
-x,-y,-z
x,-y,1/2+z
1/2+x,1/2+y,z
1/2-x,1/2+y,1/2-z
1/2-x,1/2-y,-z
1/2+x,1/2-y,1/2+z
loop_
_atom_site_type_symbol
_atom_site_label
_atom_site_fract_x
_atom_site_fract_y
_atom_site_fract_z
Si Si1 0.903408 0.461059 0.731772
Si Si2 0.500000 0.473906 0.250000
Si Si3 0.562756 0.230045 0.129028
Si Si4 0.098233 0.101198 0.396650
Si Si5 0.135416 0.795238 0.744146
Si Si6 0.032871 0.771951 0.452371
Si Si7 0.814499 0.443797 0.641486
Si Si8 0.772555 0.261376 0.865730
O O1 0.893842 0.626356 0.769406
O O2 0.861991 0.500505 0.683007
O O3 0.848412 0.315888 0.784068
O O4 0.010038 0.416271 0.682447
O O5 0.520295 0.380797 0.179361
O O6 0.411845 0.577689 0.277897
O O7 0.544668 0.225366 0.064023
O O8 0.671741 0.225267 0.093649
O O9 0.110633 0.177103 0.325504
O O10 0.188035 0.122656 0.400407
O O11 0.012907 0.188210 0.463769
O O12 0.083162 0.918198 0.400466
O O13 0.242486 0.811345 0.689018
O O14 0.106301 0.635315 0.433346
O O15 0.765361 0.588267 0.629519
#
# Coordination Sequence:
#
# PCOD8150601 Si02
#       8
#     8   4   8   8   8   8   8   8
#     4  11  21  36  60  96 125 156 207 266 311 369
#     4  12  22  36  64  90 138 160 202 264 332 366
#     4  11  22  40  60  90 130 164 201 257 328 365
#     4  11  23  42  66  89 126 168 219 254 316 373
#     4  12  23  37  64 101 122 164 212 266 313 380
#     4  10  25  44  64  87 128 175 208 261 309 385
#     4  11  21  38  65  93 121 162 213 264 309 369
#     4  12  22  37  63  93 125 161 207 263 312 376
#
# _framework density 21.643868000000001
#
# number of rings (size 3 to 8) (size 9 to 14) (size 15 to 20)
#    0.000    0.800    6.667    0.800    3.733    1.067 
#    0.000    0.000    0.000    2.400    0.000    0.000 
#    0.000    0.000    0.000    0.000    0.000    0.000 
#
# Total GULP energy -371896.342312 kJ/mol
# GULP energy per Si atom -12396.544744 kJ/mol
# Density = 2.159461 g / cm^3
# Si number density = 21.643868 Si / 1000 Ang^3
#
#
#
# Elastic Constant Matrix: (Units=GPa)
#
#
# Indices 1 2 3 4 5 6 
#
# 1 109.8235 44.3613 26.6189 0.0000 -20.8545 -0.0003
# 2 44.3613 75.8449 -2.0239 0.0000 -6.0955 0.0001
# 3 26.6189 -2.0239 43.8487 0.0000 -9.5671 0.0001
# 4 0.0000 0.0000 0.0000 21.1622 0.0000 -8.0729
# 5 -20.8545 -6.0955 -9.5671 0.0000 22.7085 0.0001
# 6 -0.0003 0.0001 0.0001 -8.0729 0.0001 37.2761
#
#
#
# Elastic Compliance Matrix: (Units=1/GPa)
#
#
# Indices 1 2 3 4 5 6 
#
# 1 0.016647 -0.009223 -0.008519 0.000000 0.009223 0.000000
# 2 -0.009223 0.018682 0.006285 0.000000 -0.000807 0.000000
# 3 -0.008519 0.006285 0.029655 0.000000 0.006357 0.000000
# 4 0.000000 0.000000 0.000000 0.051510 0.000000 0.011155
# 5 0.009223 -0.000807 0.006357 0.000000 0.054968 0.000000
# 6 0.000000 0.000000 0.000000 0.011155 0.000000 0.029243
#
#
# Mechanical properties :
#
#
# Convention : Reuss Voigt Hill
#
# Bulk Modulus (GPa) = 23.77016 40.82553 32.29785
# Shear Modulus (GPa) = 21.04006 26.93341 23.98673
#
# Velocity S-wave (km/s) = 3.12124 3.53142 3.33264
# Velocity P-wave (km/s) = 4.89855 5.96081 5.45559
#
# Compressibility (1/GPa) = 0.04206955
#
# Stress axis : x y z
#
# Youngs Moduli (GPa) = 60.06980 53.52708 33.72169
#
# Poissons Ratio (x) = 0.49368 0.28728
# Poissons Ratio (y) = 0.55402 -0.21194
# Poissons Ratio (z) = 0.51175 -0.33642
#
# Static dielectric constant tensor:
#      x y z
#    x 4.169960 0.000000 -0.253310 
#    y 0.000000 3.984970 0.000000 
#    z -0.253310 0.000000 3.564970 
# 
# 
# High freq. dielectric constant tensor:
#      x y z
#    x 1.859890 0.000000 -0.019340 
#    y 0.000000 1.857410 0.000000 
#    z -0.019340 0.000000 1.820800 
# 
# From -- ./inp_files/298368.got.cif
#   From: 2010.06.25/outbox.cif.g09.slc.cpg/sg15_150_cif.got.tgz:298368.got - 2010.06.28 07:06:18.
