data_PCOD8150091
_publ_section_title
;
Structure prediction by ZEFSAII (Michael W. Deem and Ramdas Pophale) SiO2 
 PCOD8150091
Probable space group: C 2/C
;
_chemical_formula_sum "Si O2"
_cell_formula_units_Z 56
_cell_length_a 16.309560
_cell_length_b 6.622423
_cell_length_c 24.703958
_cell_angle_alpha 90.000000
_cell_angle_beta 65.223150
_cell_angle_gamma 90.000000
_cell_volume 2422.624716
_symmetry_space_group_name_H-M "C 2/C"
_symmetry_group_IT_number 15
_symmetry_cell_setting 'monoclinic'
loop_
_space_group_symop_operation_xyz
x,y,z
-x,y,1/2-z
-x,-y,-z
x,-y,1/2+z
1/2+x,1/2+y,z
1/2-x,1/2+y,1/2-z
1/2-x,1/2-y,-z
1/2+x,1/2-y,1/2+z
loop_
_atom_site_type_symbol
_atom_site_label
_atom_site_fract_x
_atom_site_fract_y
_atom_site_fract_z
Si Si1 0.783270 0.250243 0.305131
Si Si2 0.466511 0.250676 0.701711
Si Si3 0.864278 0.004747 0.374694
Si Si4 0.245999 0.154309 0.373187
Si Si5 0.634520 0.516030 0.503343
Si Si6 0.976922 0.708225 0.031087
Si Si7 0.374713 0.006611 0.645288
O O1 0.861195 0.196694 0.240161
O O2 0.806631 0.169011 0.358379
O O3 0.764172 0.487543 0.321406
O O4 0.703004 0.115496 0.300826
O O5 0.500000 0.162155 0.750000
O O6 0.528641 0.439771 0.664456
O O7 0.460638 0.075802 0.657904
O O8 0.838148 0.782240 0.358925
O O9 0.830386 0.031226 0.445891
O O10 0.215470 0.055170 0.438782
O O11 0.164694 0.299228 0.375700
O O12 0.569035 0.338809 0.502538
O O13 0.570551 0.708672 0.528096
O O14 0.907162 0.675448 0.098517
O O15 0.000000 0.500000 0.000000
#
# Coordination Sequence:
#
# PCOD8150091 Si02
#       7
#     8   8   8   8   8   8   8
#     4  10  24  46  67 100 133 181 234 287 346 408
#     4  10  24  47  68  98 135 179 238 289 350 405
#     4  10  24  44  66 100 143 178 225 289 341 412
#     4  11  23  43  68 104 136 183 231 276 354 415
#     4  11  23  39  67 103 137 181 229 271 347 421
#     4  11  22  39  63  99 137 178 221 278 340 413
#     4  11  23  43  69  97 140 177 230 289 343 417
#
# _framework density 23.115425999999999
#
# number of rings (size 3 to 8) (size 9 to 14) (size 15 to 20)
#    0.000    1.429    2.857    1.286    4.000    4.000 
#    0.000   13.571    0.000    0.000    0.000    0.000 
#    0.000    0.000    0.000    0.000    0.000    0.000 
#
# Total GULP energy -346961.282381 kJ/mol
# GULP energy per Si atom -12391.474371 kJ/mol
# Density = 2.306281 g / cm^3
# Si number density = 23.115426 Si / 1000 Ang^3
#
#
#
# Elastic Constant Matrix: (Units=GPa)
#
#
# Indices 1 2 3 4 5 6 
#
# 1 73.7840 31.2490 18.5432 0.0007 -9.7226 0.0029
# 2 31.2490 96.4528 24.3770 0.0009 -8.5271 0.0053
# 3 18.5432 24.3770 90.8608 0.0005 -3.5166 0.0003
# 4 0.0007 0.0009 0.0005 9.1991 0.0000 -14.9637
# 5 -9.7226 -8.5271 -3.5166 0.0000 44.4899 0.0002
# 6 0.0029 0.0053 0.0003 -14.9637 0.0002 41.4557
#
#
#
# Elastic Compliance Matrix: (Units=1/GPa)
#
#
# Indices 1 2 3 4 5 6 
#
# 1 0.016322 -0.004556 -0.002011 -0.000004 0.002535 -0.000002
# 2 -0.004556 0.012556 -0.002392 -0.000007 0.001222 -0.000004
# 3 -0.002011 -0.002392 0.012060 0.000001 0.000055 0.000001
# 4 -0.000004 -0.000007 0.000001 0.263310 -0.000003 0.095044
# 5 0.002535 0.001222 0.000055 -0.000003 0.023270 -0.000001
# 6 -0.000002 -0.000004 0.000001 0.095044 -0.000001 0.058429
#
#
# Mechanical properties :
#
#
# Convention : Reuss Voigt Hill
#
# Bulk Modulus (GPa) = 43.43679 45.49288 44.46483
# Shear Modulus (GPa) = 12.14960 31.49082 21.82021
#
# Velocity S-wave (km/s) = 2.29510 3.69498 3.07574
# Velocity P-wave (km/s) = 5.08481 6.15851 5.64724
#
# Compressibility (1/GPa) = 0.02302196
#
# Stress axis : x y z
#
# Youngs Moduli (GPa) = 61.26757 79.64178 82.91880
#
# Poissons Ratio (x) = 0.36283 0.16672
# Poissons Ratio (y) = 0.27912 0.19831
# Poissons Ratio (z) = 0.12319 0.19048
#
# Static dielectric constant tensor:
#      x y z
#    x 4.208300 0.000000 0.089990 
#    y 0.000000 4.071780 0.000000 
#    z 0.089990 0.000000 4.249980 
# 
# 
# High freq. dielectric constant tensor:
#      x y z
#    x 1.910020 0.000000 -0.002720 
#    y 0.000000 1.908180 0.000000 
#    z -0.002720 0.000000 1.920790 
# 
# From -- ./inp_files/297723.got.cif
#   From: 2010.06.25/outbox.cif.g09.slc.cpg/sg15_149_cif.got.tgz:297723.got - 2010.06.28 07:06:18.
