data_PCOD8150359
_publ_section_title
;
Structure prediction by ZEFSAII (Michael W. Deem and Ramdas Pophale) SiO2 
 PCOD8150359
Probable space group: C 2/C
;
_chemical_formula_sum "Si O2"
_cell_formula_units_Z 64
_cell_length_a 14.148338
_cell_length_b 13.512143
_cell_length_c 16.841252
_cell_angle_alpha 90.000000
_cell_angle_beta 51.379532
_cell_angle_gamma 90.000000
_cell_volume 2515.477846
_symmetry_space_group_name_H-M "C 2/C"
_symmetry_group_IT_number 15
_symmetry_cell_setting 'monoclinic'
loop_
_space_group_symop_operation_xyz
x,y,z
-x,y,1/2-z
-x,-y,-z
x,-y,1/2+z
1/2+x,1/2+y,z
1/2-x,1/2+y,1/2-z
1/2-x,1/2-y,-z
1/2+x,1/2-y,1/2+z
loop_
_atom_site_type_symbol
_atom_site_label
_atom_site_fract_x
_atom_site_fract_y
_atom_site_fract_z
Si Si1 0.547535 0.249019 0.870185
Si Si2 0.876941 0.691974 0.102562
Si Si3 0.380985 0.463099 0.609995
Si Si4 0.328889 0.680471 0.404028
Si Si5 0.274457 0.479379 0.508381
Si Si6 0.217799 0.859791 0.250570
Si Si7 0.119401 0.813612 0.142854
Si Si8 0.535063 0.899890 0.644006
O O1 0.610537 0.349999 0.866916
O O2 0.465134 0.275062 0.835646
O O3 0.645697 0.166378 0.791425
O O4 0.465929 0.200303 0.981750
O O5 0.737112 0.671088 0.147356
O O6 0.878962 0.793629 0.150396
O O7 0.923005 0.607854 0.140943
O O8 0.500000 0.500000 0.500000
O O9 0.271932 0.478751 0.604973
O O10 0.332821 0.529333 0.709608
O O11 0.250000 0.750000 0.500000
O O12 0.340557 0.573314 0.437223
O O13 0.353750 0.384390 0.444154
O O14 0.133702 0.475160 0.554653
O O15 0.223452 0.827703 0.155018
O O16 0.107907 0.703508 0.114995
O O17 0.000000 0.849973 0.250000
O O18 0.500000 0.936868 0.750000
#
# Coordination Sequence:
#
# PCOD8150359 Si02
#       8
#     8   8   8   8   8   8   8   8
#     4  11  24  44  73 106 142 191 240 302 363 428
#     4  11  22  46  69  97 150 190 237 296 369 429
#     4  12  22  43  77 107 143 194 242 306 365 436
#     4  10  24  46  70  97 137 196 239 284 356 431
#     4  12  24  44  70 104 140 184 247 293 366 433
#     4  12  24  43  72 110 142 187 248 298 364 440
#     4  11  22  41  69 106 141 177 232 306 368 426
#     4  11  23  43  68 103 141 185 227 306 370 425
#
# _framework density 25.442482999999999
#
# number of rings (size 3 to 8) (size 9 to 14) (size 15 to 20)
#    0.000    0.750    5.000    4.125    0.000    2.000 
#    4.500    0.000    0.000    0.000    0.000    0.000 
#    0.000    0.000    0.000    0.000    0.000    0.000 
#
# Total GULP energy -396629.133912 kJ/mol
# GULP energy per Si atom -12394.660435 kJ/mol
# Density = 2.538457 g / cm^3
# Si number density = 25.442483 Si / 1000 Ang^3
#
#
#
# Elastic Constant Matrix: (Units=GPa)
#
#
# Indices 1 2 3 4 5 6 
#
# 1 162.7282 11.7337 6.1267 0.0000 2.6187 0.0000
# 2 11.7337 41.7743 25.8601 0.0000 -10.1596 0.0000
# 3 6.1267 25.8601 56.8517 0.0000 3.4054 0.0000
# 4 0.0000 0.0000 0.0000 28.6143 0.0000 -7.4396
# 5 2.6187 -10.1596 3.4054 0.0000 43.7837 0.0000
# 6 0.0000 0.0000 0.0000 -7.4396 0.0000 28.6192
#
#
#
# Elastic Compliance Matrix: (Units=1/GPa)
#
#
# Indices 1 2 3 4 5 6 
#
# 1 0.006307 -0.002242 0.000396 0.000000 -0.000928 0.000000
# 2 -0.002242 0.038020 -0.017671 0.000000 0.010331 0.000000
# 3 0.000396 -0.017671 0.025953 0.000000 -0.006143 0.000000
# 4 0.000000 0.000000 0.000000 0.037481 0.000000 0.009743
# 5 -0.000928 0.010331 -0.006143 0.000000 0.025770 0.000000
# 6 0.000000 0.000000 0.000000 0.009743 0.000000 0.037474
#
#
# Mechanical properties :
#
#
# Convention : Reuss Voigt Hill
#
# Bulk Modulus (GPa) = 32.00578 38.75504 35.38041
# Shear Modulus (GPa) = 22.68043 34.71236 28.69640
#
# Velocity S-wave (km/s) = 2.98894 3.69771 3.36206
# Velocity P-wave (km/s) = 4.95163 5.78760 5.38586
#
# Compressibility (1/GPa) = 0.03124435
#
# Stress axis : x y z
#
# Youngs Moduli (GPa) = 158.55553 26.30224 38.53133
#
# Poissons Ratio (x) = 0.05898 -0.01526
# Poissons Ratio (y) = 0.35554 0.68089
# Poissons Ratio (z) = -0.06278 0.46479
#
# Static dielectric constant tensor:
#      x y z
#    x 5.270050 0.000000 0.050790 
#    y 0.000000 4.213800 0.000000 
#    z 0.050790 0.000000 4.399720 
# 
# 
# High freq. dielectric constant tensor:
#      x y z
#    x 2.031470 0.000000 -0.003730 
#    y 0.000000 1.992550 0.000000 
#    z -0.003730 0.000000 2.014250 
# 
# From -- ./inp_files/205720.got.cif
#   From: 2010.06.25/outbox.cif.g09.slc.cpg/sg15_103_cif.got.tgz:205720.got - 2010.06.28 07:06:18.
