data_PCOD8150017
_publ_section_title
;
Structure prediction by ZEFSAII (Michael W. Deem and Ramdas Pophale) SiO2 
 PCOD8150017
Probable space group: C 2/C
;
_chemical_formula_sum "Si O2"
_cell_formula_units_Z 48
_cell_length_a 12.790029
_cell_length_b 20.098987
_cell_length_c 11.190733
_cell_angle_alpha 90.000000
_cell_angle_beta 47.953025
_cell_angle_gamma 90.000000
_cell_volume 2136.273359
_symmetry_space_group_name_H-M "C 2/C"
_symmetry_group_IT_number 15
_symmetry_cell_setting 'monoclinic'
loop_
_space_group_symop_operation_xyz
x,y,z
-x,y,1/2-z
-x,-y,-z
x,-y,1/2+z
1/2+x,1/2+y,z
1/2-x,1/2+y,1/2-z
1/2-x,1/2-y,-z
1/2+x,1/2-y,1/2+z
loop_
_atom_site_type_symbol
_atom_site_label
_atom_site_fract_x
_atom_site_fract_y
_atom_site_fract_z
Si Si1 0.241569 0.285655 0.632246
Si Si2 0.280615 0.166733 0.779117
Si Si3 0.500000 0.878121 0.750000
Si Si4 0.015318 0.847272 0.926511
Si Si5 0.500000 0.764468 0.250000
Si Si6 0.621470 0.050150 0.942193
Si Si7 0.924305 0.014255 0.186807
O O1 0.250000 0.250000 0.500000
O O2 0.233480 0.230959 0.740724
O O3 0.103181 0.331583 0.749202
O O4 0.381174 0.330624 0.542544
O O5 0.361446 0.189789 0.837556
O O6 0.385978 0.117202 0.630564
O O7 0.136564 0.126277 0.913167
O O8 0.597814 0.925989 0.595593
O O9 0.980541 0.780310 0.881258
O O10 0.085651 0.905440 0.793709
O O11 0.768534 0.014044 0.810487
O O12 0.500000 0.000000 0.000000
O O13 0.000000 0.986611 0.250000
O O14 0.000000 0.000000 0.000000
#
# Coordination Sequence:
#
# PCOD8150017 Si02
#       7
#     8   8   4   8   4   8   8
#     4  11  23  42  72 106 142 186 238 305 377 438
#     4  11  24  44  70 105 140 183 240 299 369 441
#     4  12  26  47  70 105 148 190 242 308 372 442
#     4  11  23  45  71 102 145 184 245 305 371 442
#     4  10  24  43  70 107 138 186 232 310 380 442
#     4  12  29  47  72 105 149 197 250 301 372 448
#     4  12  28  50  77 108 149 203 256 309 373 449
#
# _framework density 22.469035000000002
#
# number of rings (size 3 to 8) (size 9 to 14) (size 15 to 20)
#    0.000    0.667    4.167    2.500    7.000    2.000 
#    1.500    0.000    0.000    0.000    0.000    0.000 
#    0.000    0.000    0.000    0.000    0.000    0.000 
#
# Total GULP energy -297562.269569 kJ/mol
# GULP energy per Si atom -12398.427899 kJ/mol
# Density = 2.241789 g / cm^3
# Si number density = 22.469035 Si / 1000 Ang^3
#
#
#
# Elastic Constant Matrix: (Units=GPa)
#
#
# Indices 1 2 3 4 5 6 
#
# 1 174.4332 60.9547 66.6135 0.0000 -14.6391 0.0000
# 2 60.9547 120.4387 52.8526 0.0000 -15.3280 0.0000
# 3 66.6135 52.8526 128.7027 0.0000 -14.2648 0.0000
# 4 0.0000 0.0000 0.0000 39.6159 0.0000 -9.9967
# 5 -14.6391 -15.3280 -14.2648 0.0000 40.8245 0.0000
# 6 0.0000 0.0000 0.0000 -9.9967 0.0000 27.5959
#
#
#
# Elastic Compliance Matrix: (Units=1/GPa)
#
#
# Indices 1 2 3 4 5 6 
#
# 1 0.007807 -0.002578 -0.002891 0.000000 0.000821 0.000000
# 2 -0.002578 0.011219 -0.003026 0.000000 0.002231 0.000000
# 3 -0.002891 -0.003026 0.010682 0.000000 0.001560 0.000000
# 4 0.000000 0.000000 0.000000 0.027782 0.000000 0.010064
# 5 0.000821 0.002231 0.001560 0.000000 0.026172 0.000000
# 6 0.000000 0.000000 0.000000 0.010064 0.000000 0.039883
#
#
# Mechanical properties :
#
#
# Convention : Reuss Voigt Hill
#
# Bulk Modulus (GPa) = 78.62607 87.15734 82.89171
# Shear Modulus (GPa) = 34.53680 37.81752 36.17716
#
# Velocity S-wave (km/s) = 3.92482 4.10700 4.01695
# Velocity P-wave (km/s) = 7.45708 7.83353 7.64762
#
# Compressibility (1/GPa) = 0.01271843
#
# Stress axis : x y z
#
# Youngs Moduli (GPa) = 128.09732 89.13154 93.61951
#
# Poissons Ratio (x) = 0.22976 0.27064
# Poissons Ratio (y) = 0.33021 0.28328
# Poissons Ratio (z) = 0.37031 0.26970
#
# Static dielectric constant tensor:
#      x y z
#    x 5.527740 0.000000 0.118750 
#    y 0.000000 4.329030 0.000000 
#    z 0.118750 0.000000 3.845650 
# 
# 
# High freq. dielectric constant tensor:
#      x y z
#    x 1.896560 0.000000 -0.008660 
#    y 0.000000 1.899580 0.000000 
#    z -0.008660 0.000000 1.878970 
# 
# From -- ./inp_files/89434.got.cif
#   From: 2010.06.25/outbox.cif.g09.slc.cpg/sg15_45_cif.got.tgz:89434.got - 2010.06.28 07:06:18.
