data_PCOD8150948
_publ_section_title
;
Structure prediction by ZEFSAII (Michael W. Deem and Ramdas Pophale) SiO2 
 PCOD8150948
Probable space group: C 2/C
;
_chemical_formula_sum "Si O2"
_cell_formula_units_Z 48
_cell_length_a 15.344391
_cell_length_b 9.611318
_cell_length_c 22.048889
_cell_angle_alpha 90.000000
_cell_angle_beta 60.242983
_cell_angle_gamma 90.000000
_cell_volume 2822.981934
_symmetry_space_group_name_H-M "C 2/C"
_symmetry_group_IT_number 15
_symmetry_cell_setting 'monoclinic'
loop_
_space_group_symop_operation_xyz
x,y,z
-x,y,1/2-z
-x,-y,-z
x,-y,1/2+z
1/2+x,1/2+y,z
1/2-x,1/2+y,1/2-z
1/2-x,1/2-y,-z
1/2+x,1/2-y,1/2+z
loop_
_atom_site_type_symbol
_atom_site_label
_atom_site_fract_x
_atom_site_fract_y
_atom_site_fract_z
Si Si1 0.398230 0.318171 0.916656
Si Si2 0.751848 0.897921 0.075377
Si Si3 0.938483 0.196146 0.053159
Si Si4 0.423540 0.623192 0.594708
Si Si5 0.958413 0.093901 0.831311
Si Si6 0.730533 0.781252 0.576699
O O1 0.344501 0.197792 0.898272
O O2 0.496145 0.243510 0.913311
O O3 0.425467 0.439000 0.860346
O O4 0.328562 0.386278 0.992520
O O5 0.808243 0.840678 0.116900
O O6 0.712626 0.055148 0.093339
O O7 0.828579 0.264559 0.082760
O O8 0.932698 0.033802 0.068971
O O9 0.997691 0.218769 0.969463
O O10 0.450568 0.642856 0.655930
O O11 0.864680 0.197836 0.866493
O O12 0.000000 0.094158 0.750000
O O13 0.750000 0.750000 0.500000
#
# Coordination Sequence:
#
# PCOD8150948 Si02
#       6
#     8   8   8   8   8   8
#     4   9  17  33  52  79  98 127 169 210 251 292
#     4   9  17  31  56  76  98 127 170 211 243 295
#     4   8  14  27  52  72  97 128 165 202 245 297
#     4   8  14  29  48  72  97 133 164 192 249 310
#     4  11  21  33  50  74 104 134 167 208 255 302
#     4  11  17  31  52  77 100 132 169 208 248 293
#
# _framework density 17.003298000000001
#
# number of rings (size 3 to 8) (size 9 to 14) (size 15 to 20)
#    0.000    2.667    3.333    2.000    0.000    0.000 
#    0.000    8.333    0.000    0.000    0.000    0.000 
#    0.000    0.000    0.000    0.000    0.000    0.000 
#
# Total GULP energy -297354.614830 kJ/mol
# GULP energy per Si atom -12389.775618 kJ/mol
# Density = 1.696460 g / cm^3
# Si number density = 17.003298 Si / 1000 Ang^3
#
#
#
# Elastic Constant Matrix: (Units=GPa)
#
#
# Indices 1 2 3 4 5 6 
#
# 1 187.9393 64.9410 61.0579 0.0000 19.2072 0.0000
# 2 64.9410 61.5849 37.4119 0.0000 3.4777 0.0000
# 3 61.0579 37.4119 96.7490 0.0000 10.6502 0.0000
# 4 0.0000 0.0000 0.0000 14.4287 0.0000 -2.2833
# 5 19.2072 3.4777 10.6502 0.0000 18.4990 0.0000
# 6 0.0000 0.0000 0.0000 -2.2833 0.0000 31.2647
#
#
#
# Elastic Compliance Matrix: (Units=1/GPa)
#
#
# Indices 1 2 3 4 5 6 
#
# 1 0.009679 -0.008589 -0.001984 0.000000 -0.007292 0.000000
# 2 -0.008589 0.028856 -0.006537 0.000000 0.007256 0.000000
# 3 -0.001984 -0.006537 0.014684 0.000000 -0.005165 0.000000
# 4 0.000000 0.000000 0.000000 0.070116 0.000000 0.005121
# 5 -0.007292 0.007256 -0.005165 0.000000 0.063238 0.000000
# 6 0.000000 0.000000 0.000000 0.005121 0.000000 0.032359
#
#
# Mechanical properties :
#
#
# Convention : Reuss Voigt Hill
#
# Bulk Modulus (GPa) = 52.63288 74.78830 63.71059
# Shear Modulus (GPa) = 19.26898 25.02931 22.14915
#
# Velocity S-wave (km/s) = 3.37003 3.84086 3.61312
# Velocity P-wave (km/s) = 6.79445 7.98434 7.41331
#
# Compressibility (1/GPa) = 0.01899953
#
# Stress axis : x y z
#
# Youngs Moduli (GPa) = 103.32151 34.65508 68.09920
#
# Poissons Ratio (x) = 0.29765 0.13512
# Poissons Ratio (y) = 0.88741 0.44514
# Poissons Ratio (z) = 0.20500 0.22653
#
# Static dielectric constant tensor:
#      x y z
#    x 4.164300 0.000000 0.197360 
#    y 0.000000 2.938390 0.000000 
#    z 0.197360 0.000000 2.793690 
# 
# 
# High freq. dielectric constant tensor:
#      x y z
#    x 1.685100 0.000000 0.014360 
#    y 0.000000 1.625590 0.000000 
#    z 0.014360 0.000000 1.609730 
# 
# From -- ./inp_files/246838.got.cif
#   From: 2010.06.25/outbox.cif.g09.slc.cpg/sg15_124_cif.got.tgz:246838.got - 2010.06.28 07:06:18.
