data_PCOD8150582
_publ_section_title
;
Structure prediction by ZEFSAII (Michael W. Deem and Ramdas Pophale) SiO2 
 PCOD8150582
Probable space group: C 2/C
;
_chemical_formula_sum "Si O2"
_cell_formula_units_Z 40
_cell_length_a 21.797394
_cell_length_b 10.754126
_cell_length_c 9.405129
_cell_angle_alpha 90.000000
_cell_angle_beta 121.292379
_cell_angle_gamma 90.000000
_cell_volume 1883.955806
_symmetry_space_group_name_H-M "C 2/C"
_symmetry_group_IT_number 15
_symmetry_cell_setting 'monoclinic'
loop_
_space_group_symop_operation_xyz
x,y,z
-x,y,1/2-z
-x,-y,-z
x,-y,1/2+z
1/2+x,1/2+y,z
1/2-x,1/2+y,1/2-z
1/2-x,1/2-y,-z
1/2+x,1/2-y,1/2+z
loop_
_atom_site_type_symbol
_atom_site_label
_atom_site_fract_x
_atom_site_fract_y
_atom_site_fract_z
Si Si1 0.293487 0.900699 0.342578
Si Si2 0.448684 0.499933 0.570459
Si Si3 0.353646 0.715416 0.872243
Si Si4 0.298286 0.129614 0.530129
Si Si5 0.920169 0.268884 0.655262
O O1 0.230366 0.798023 0.272466
O O2 0.317640 0.928359 0.207706
O O3 0.364661 0.856873 0.508869
O O4 0.263084 0.022460 0.388423
O O5 0.500000 0.439448 0.750000
O O6 0.500000 0.500000 0.500000
O O7 0.378378 0.417712 0.461800
O O8 0.420642 0.635644 0.579159
O O9 0.399968 0.757265 0.795319
O O10 0.363696 0.817078 0.011423
O O11 0.250000 0.250000 0.500000
O O12 0.000000 0.327906 0.750000
#
# Coordination Sequence:
#
# PCOD8150582 Si02
#       5
#     8   8   8   8   8
#     4  11  25  43  68  95 139 173 232 279 335 407
#     4  11  23  40  66 102 138 177 226 284 344 397
#     4  11  24  40  70  97 137 177 234 276 345 392
#     4  10  25  43  67 103 131 177 224 280 345 395
#     4  11  24  43  66  99 139 183 224 280 342 403
#
# _framework density 21.231919999999999
#
# number of rings (size 3 to 8) (size 9 to 14) (size 15 to 20)
#    0.000    1.200    4.000    1.800   14.000    0.000 
#    0.000    5.000    0.000    0.000    0.000    0.000 
#    0.000    0.000    0.000    0.000    0.000    0.000 
#
# Total GULP energy -247846.596157 kJ/mol
# GULP energy per Si atom -12392.329808 kJ/mol
# Density = 2.118360 g / cm^3
# Si number density = 21.231920 Si / 1000 Ang^3
#
#
#
# Elastic Constant Matrix: (Units=GPa)
#
#
# Indices 1 2 3 4 5 6 
#
# 1 123.6947 30.7566 59.9389 0.0000 -21.5847 0.0000
# 2 30.7566 70.8794 47.5071 0.0000 -13.0572 0.0000
# 3 59.9389 47.5071 131.0880 0.0000 -20.4868 0.0000
# 4 0.0000 0.0000 0.0000 46.3433 0.0000 -4.0803
# 5 -21.5847 -13.0572 -20.4868 0.0000 60.0396 0.0000
# 6 0.0000 0.0000 0.0000 -4.0803 0.0000 38.3681
#
#
#
# Elastic Compliance Matrix: (Units=1/GPa)
#
#
# Indices 1 2 3 4 5 6 
#
# 1 0.010810 -0.001593 -0.004027 0.000000 0.002166 0.000000
# 2 -0.001593 0.019065 -0.005939 0.000000 0.001547 0.000000
# 3 -0.004027 -0.005939 0.011825 0.000000 0.001295 0.000000
# 4 0.000000 0.000000 0.000000 0.021782 0.000000 0.002316
# 5 0.002166 0.001547 0.001295 0.000000 0.018213 0.000000
# 6 0.000000 0.000000 0.000000 0.002316 0.000000 0.026310
#
#
# Mechanical properties :
#
#
# Convention : Reuss Voigt Hill
#
# Bulk Modulus (GPa) = 53.81610 66.89636 60.35623
# Shear Modulus (GPa) = 36.41225 41.44752 38.92989
#
# Velocity S-wave (km/s) = 4.14572 4.42309 4.28665
# Velocity P-wave (km/s) = 6.95110 7.59347 7.27937
#
# Compressibility (1/GPa) = 0.01858180
#
# Stress axis : x y z
#
# Youngs Moduli (GPa) = 92.50943 52.45080 84.56839
#
# Poissons Ratio (x) = 0.08353 0.34056
# Poissons Ratio (y) = 0.14733 0.50229
# Poissons Ratio (z) = 0.37254 0.31153
#
# Static dielectric constant tensor:
#      x y z
#    x 3.872350 0.000000 -0.248090 
#    y 0.000000 3.032270 0.000000 
#    z -0.248090 0.000000 4.034060 
# 
# 
# High freq. dielectric constant tensor:
#      x y z
#    x 1.836930 0.000000 -0.029260 
#    y 0.000000 1.823710 0.000000 
#    z -0.029260 0.000000 1.840300 
# 
# From -- ./inp_files/46081.got.cif
#   From: 2010.06.25/outbox.cif.g09.slc.cpg/sg15_24_cif.got.tgz:46081.got - 2010.06.28 07:06:18.
