data_PCOD8150352
_publ_section_title
;
Structure prediction by ZEFSAII (Michael W. Deem and Ramdas Pophale) SiO2 
 PCOD8150352
Probable space group: C 2/C
;
_chemical_formula_sum "Si O2"
_cell_formula_units_Z 36
_cell_length_a 17.079585
_cell_length_b 8.829493
_cell_length_c 19.677686
_cell_angle_alpha 90.000000
_cell_angle_beta 150.490741
_cell_angle_gamma 90.000000
_cell_volume 1461.672086
_symmetry_space_group_name_H-M "C 2/C"
_symmetry_group_IT_number 15
_symmetry_cell_setting 'monoclinic'
loop_
_space_group_symop_operation_xyz
x,y,z
-x,y,1/2-z
-x,-y,-z
x,-y,1/2+z
1/2+x,1/2+y,z
1/2-x,1/2+y,1/2-z
1/2-x,1/2-y,-z
1/2+x,1/2-y,1/2+z
loop_
_atom_site_type_symbol
_atom_site_label
_atom_site_fract_x
_atom_site_fract_y
_atom_site_fract_z
Si Si1 0.098967 0.107699 0.726662
Si Si2 0.326099 0.982367 0.296076
Si Si3 0.832343 0.378466 0.937984
Si Si4 0.500000 0.863101 0.750000
Si Si5 0.210172 0.037315 0.565283
O O1 0.220067 0.144971 0.755890
O O2 0.030172 0.260370 0.706423
O O3 0.959532 0.005305 0.591331
O O4 0.198012 0.005143 0.856660
O O5 0.496031 0.916240 0.400172
O O6 0.233810 0.033633 0.158521
O O7 0.350149 0.120633 0.368319
O O8 0.771770 0.218042 0.918973
O O9 0.347059 0.968193 0.619895
#
# Coordination Sequence:
#
# PCOD8150352 Si02
#       5
#     8   8   8   4   8
#     4  10  24  46  70 102 142 187 226 291 352 412
#     4   9  22  43  76 105 141 169 239 294 346 403
#     4   9  22  44  74 105 135 179 232 295 343 410
#     4  12  30  44  62 104 154 184 228 288 354 414
#     4  12  24  44  72 106 136 190 236 284 343 422
#
# _framework density 24.629327
#
# number of rings (size 3 to 8) (size 9 to 14) (size 15 to 20)
#    1.333    0.444    0.000    2.667    3.111    6.222 
#    0.000    3.333    0.000    0.000    0.000    0.000 
#    0.000    0.000    0.000    0.000    0.000    0.000 
#
# Total GULP energy -223037.225640 kJ/mol
# GULP energy per Si atom -12390.956980 kJ/mol
# Density = 2.457327 g / cm^3
# Si number density = 24.629327 Si / 1000 Ang^3
#
#
#
# Elastic Constant Matrix: (Units=GPa)
#
#
# Indices 1 2 3 4 5 6 
#
# 1 90.6781 45.6758 47.1730 -0.0013 24.6847 -0.0006
# 2 45.6758 138.9087 36.9513 -0.0034 30.7666 -0.0017
# 3 47.1730 36.9513 130.3149 -0.0074 37.7328 -0.0036
# 4 -0.0013 -0.0034 -0.0074 308.8351 -0.0013 150.0317
# 5 24.6847 30.7666 37.7328 -0.0013 28.0388 -0.0007
# 6 -0.0006 -0.0017 -0.0036 150.0317 -0.0007 118.3308
#
#
#
# Elastic Compliance Matrix: (Units=1/GPa)
#
#
# Indices 1 2 3 4 5 6 
#
# 1 0.015893 -0.002935 -0.002953 0.000000 -0.006798 0.000000
# 2 -0.002935 0.010075 0.001079 0.000000 -0.009923 0.000000
# 3 -0.002953 0.001079 0.013151 0.000000 -0.016283 0.000000
# 4 0.000000 0.000000 0.000000 0.008431 0.000000 -0.010690
# 5 -0.006798 -0.009923 -0.016283 0.000000 0.074451 0.000000
# 6 0.000000 0.000000 0.000000 -0.010690 0.000000 0.022004
#
#
# Mechanical properties :
#
#
# Convention : Reuss Voigt Hill
#
# Bulk Modulus (GPa) = 33.89583 68.83356 51.36470
# Shear Modulus (GPa) = 30.58928 106.38103 68.48516
#
# Velocity S-wave (km/s) = 3.52801 6.57925 5.27889
# Velocity P-wave (km/s) = 5.51253 9.25872 7.61945
#
# Compressibility (1/GPa) = 0.02950215
#
# Stress axis : x y z
#
# Youngs Moduli (GPa) = 62.92111 99.25701 76.03845
#
# Poissons Ratio (x) = 0.29130 0.22451
# Poissons Ratio (y) = 0.18466 -0.08204
# Poissons Ratio (z) = 0.18578 -0.10709
#
# Static dielectric constant tensor:
#      x y z
#    x 4.289890 0.000000 0.207030 
#    y 0.000000 4.049380 0.000000 
#    z 0.207030 0.000000 4.503360 
# 
# 
# High freq. dielectric constant tensor:
#      x y z
#    x 1.965360 0.000000 0.012360 
#    y 0.000000 1.965610 0.000000 
#    z 0.012360 0.000000 1.990250 
# 
# From -- ./inp_files/247924.got.cif
#   From: 2010.06.25/outbox.cif.g09.slc.cpg/sg15_124_cif.got.tgz:247924.got - 2010.06.28 07:06:18.
