data_PCOD8150855
_publ_section_title
;
Structure prediction by ZEFSAII (Michael W. Deem and Ramdas Pophale) SiO2 
 PCOD8150855
Probable space group: C 2/C
;
_chemical_formula_sum "Si O2"
_cell_formula_units_Z 52
_cell_length_a 22.219939
_cell_length_b 8.897230
_cell_length_c 13.093544
_cell_angle_alpha 90.000000
_cell_angle_beta 113.673013
_cell_angle_gamma 90.000000
_cell_volume 2370.719117
_symmetry_space_group_name_H-M "C 2/C"
_symmetry_group_IT_number 15
_symmetry_cell_setting 'monoclinic'
loop_
_space_group_symop_operation_xyz
x,y,z
-x,y,1/2-z
-x,-y,-z
x,-y,1/2+z
1/2+x,1/2+y,z
1/2-x,1/2+y,1/2-z
1/2-x,1/2-y,-z
1/2+x,1/2-y,1/2+z
loop_
_atom_site_type_symbol
_atom_site_label
_atom_site_fract_x
_atom_site_fract_y
_atom_site_fract_z
Si Si1 0.160964 0.482208 0.504163
Si Si2 0.102581 0.828312 0.955346
Si Si3 0.000000 0.000084 0.750000
Si Si4 0.693991 0.416072 0.849823
Si Si5 0.692312 0.182929 0.688045
Si Si6 0.697669 0.895302 0.811414
Si Si7 0.608446 0.346676 0.192428
O O1 0.105224 0.354746 0.454327
O O2 0.227119 0.404364 0.596270
O O3 0.139429 0.612256 0.571235
O O4 0.179765 0.565518 0.414254
O O5 0.168762 0.891569 0.947959
O O6 0.098668 0.890968 0.067583
O O7 0.040767 0.888755 0.850197
O O8 0.956930 0.111398 0.790152
O O9 0.660942 0.289176 0.753504
O O10 0.670137 0.572983 0.788431
O O11 0.744567 0.273319 0.655604
O O12 0.723857 0.042504 0.770881
O O13 0.629879 0.828804 0.714793
#
# Coordination Sequence:
#
# PCOD8150855 Si02
#       7
#     8   8   4   8   8   8   8
#     4  12  24  37  65 102 144 177 217 270 339 409
#     4  11  23  43  68  98 130 178 227 284 335 389
#     4  10  26  46  74  94 122 180 246 284 332 390
#     4  11  24  37  65 101 138 180 214 268 338 424
#     4  12  22  38  60  98 145 178 211 258 331 412
#     4  12  24  38  62 101 142 180 215 263 331 410
#     4  11  23  45  69  96 131 175 229 285 332 394
#
# _framework density 21.934272
#
# number of rings (size 3 to 8) (size 9 to 14) (size 15 to 20)
#    0.000    0.615    6.154    1.385    4.308    1.231 
#    0.000    0.769    0.000    5.538    0.000    0.000 
#    0.000    0.000    0.000    0.000    0.000    0.000 
#
# Total GULP energy -322216.984808 kJ/mol
# GULP energy per Si atom -12392.960954 kJ/mol
# Density = 2.188435 g / cm^3
# Si number density = 21.934272 Si / 1000 Ang^3
#
#
#
# Elastic Constant Matrix: (Units=GPa)
#
#
# Indices 1 2 3 4 5 6 
#
# 1 82.9333 27.2326 22.2077 0.0000 -17.4145 0.0000
# 2 27.2326 76.7917 11.5701 0.0000 -14.2616 0.0000
# 3 22.2077 11.5701 85.0330 0.0000 -35.6858 0.0000
# 4 0.0000 0.0000 0.0000 48.4594 0.0000 -7.4346
# 5 -17.4145 -14.2616 -35.6858 0.0000 40.0255 0.0000
# 6 0.0000 0.0000 0.0000 -7.4346 0.0000 25.6417
#
#
#
# Elastic Compliance Matrix: (Units=1/GPa)
#
#
# Indices 1 2 3 4 5 6 
#
# 1 0.014649 -0.004326 -0.001932 0.000000 0.003109 0.000000
# 2 -0.004326 0.015228 0.000871 0.000000 0.004320 0.000000
# 3 -0.001932 0.000871 0.019053 0.000000 0.016456 0.000000
# 4 0.000000 0.000000 0.000000 0.021597 0.000000 0.006262
# 5 0.003109 0.004320 0.016456 0.000000 0.042548 0.000000
# 6 0.000000 0.000000 0.000000 0.006262 0.000000 0.040815
#
#
# Mechanical properties :
#
#
# Convention : Reuss Voigt Hill
#
# Bulk Modulus (GPa) = 26.20999 40.75321 33.48160
# Shear Modulus (GPa) = 28.18786 35.07516 31.63151
#
# Velocity S-wave (km/s) = 3.58873 4.00322 3.80162
# Velocity P-wave (km/s) = 5.39882 6.32358 5.87941
#
# Compressibility (1/GPa) = 0.03815339
#
# Stress axis : x y z
#
# Youngs Moduli (GPa) = 68.26498 65.67044 52.48652
#
# Poissons Ratio (x) = 0.28411 0.10142
# Poissons Ratio (y) = 0.29534 -0.04571
# Poissons Ratio (z) = 0.13191 -0.05719
#
# Static dielectric constant tensor:
#      x y z
#    x 3.729760 0.000000 -0.414420 
#    y 0.000000 4.201200 0.000000 
#    z -0.414420 0.000000 4.124500 
# 
# 
# High freq. dielectric constant tensor:
#      x y z
#    x 1.830990 0.000000 -0.044720 
#    y 0.000000 1.875120 0.000000 
#    z -0.044720 0.000000 1.868120 
# 
# From -- ./inp_files/172051.got.cif
#   From: 2010.06.25/outbox.cif.g09.slc.cpg/sg15_87_cif.got.tgz:172051.got - 2010.06.28 07:06:18.
