data_PCOD8150190
_publ_section_title
;
Structure prediction by ZEFSAII (Michael W. Deem and Ramdas Pophale) SiO2 
 PCOD8150190
Probable space group: C 2/C
;
_chemical_formula_sum "Si O2"
_cell_formula_units_Z 44
_cell_length_a 10.903627
_cell_length_b 11.948166
_cell_length_c 14.300009
_cell_angle_alpha 90.000000
_cell_angle_beta 97.291577
_cell_angle_gamma 90.000000
_cell_volume 1847.915788
_symmetry_space_group_name_H-M "C 2/C"
_symmetry_group_IT_number 15
_symmetry_cell_setting 'monoclinic'
loop_
_space_group_symop_operation_xyz
x,y,z
-x,y,1/2-z
-x,-y,-z
x,-y,1/2+z
1/2+x,1/2+y,z
1/2-x,1/2+y,1/2-z
1/2-x,1/2-y,-z
1/2+x,1/2-y,1/2+z
loop_
_atom_site_type_symbol
_atom_site_label
_atom_site_fract_x
_atom_site_fract_y
_atom_site_fract_z
Si Si1 0.097803 0.557757 0.573429
Si Si2 0.500000 0.029295 0.250000
Si Si3 0.952709 0.813865 0.956468
Si Si4 0.765346 0.333236 0.689369
Si Si5 0.673549 0.413003 0.869019
Si Si6 0.415447 0.637728 0.662482
O O1 0.065723 0.548631 0.680165
O O2 0.092315 0.686620 0.543330
O O3 0.225915 0.489891 0.564857
O O4 0.000000 0.500000 0.500000
O O5 0.606112 0.100703 0.314409
O O6 0.847566 0.880090 0.885616
O O7 0.088900 0.833549 0.925570
O O8 0.967484 0.858786 0.062574
O O9 0.733535 0.333654 0.796472
O O10 0.785218 0.203883 0.658465
O O11 0.593899 0.508064 0.809148
O O12 0.500000 0.696495 0.750000
#
# Coordination Sequence:
#
# PCOD8150190 Si02
#       6
#     8   4   8   8   8   8
#     4  11  26  46  70 108 145 194 249 307 375 448
#     4  10  24  44  72 102 150 188 238 310 372 442
#     4  12  26  47  77 102 148 195 248 307 377 450
#     4  11  23  45  73 102 143 191 239 302 371 445
#     4  11  27  46  73 111 142 193 252 307 373 453
#     4  12  25  47  70 106 146 190 242 310 373 442
#
# _framework density 23.810611000000002
#
# number of rings (size 3 to 8) (size 9 to 14) (size 15 to 20)
#    0.000    0.727    2.727    3.818    7.636    0.727 
#    3.273    0.000    0.000    0.000    0.000    0.000 
#    0.000    0.000    0.000    0.000    0.000    0.000 
#
# Total GULP energy -272659.940961 kJ/mol
# GULP energy per Si atom -12393.633680 kJ/mol
# Density = 2.375642 g / cm^3
# Si number density = 23.810611 Si / 1000 Ang^3
#
#
#
# Elastic Constant Matrix: (Units=GPa)
#
#
# Indices 1 2 3 4 5 6 
#
# 1 129.7294 16.9160 40.3575 0.0000 5.6547 0.0000
# 2 16.9160 67.0129 10.5511 0.0000 -1.1210 0.0000
# 3 40.3575 10.5511 94.1473 0.0000 2.5766 0.0000
# 4 0.0000 0.0000 0.0000 29.1912 0.0000 -6.1353
# 5 5.6547 -1.1210 2.5766 0.0000 46.0043 0.0000
# 6 0.0000 0.0000 0.0000 -6.1353 0.0000 37.4444
#
#
#
# Elastic Compliance Matrix: (Units=1/GPa)
#
#
# Indices 1 2 3 4 5 6 
#
# 1 0.009125 -0.001738 -0.003690 0.000000 -0.000957 0.000000
# 2 -0.001738 0.015532 -0.001013 0.000000 0.000649 0.000000
# 3 -0.003690 -0.001013 0.012324 0.000000 -0.000261 0.000000
# 4 0.000000 0.000000 0.000000 0.035479 0.000000 0.005813
# 5 -0.000957 0.000649 -0.000261 0.000000 0.021885 0.000000
# 6 0.000000 0.000000 0.000000 0.005813 0.000000 0.027659
#
#
# Mechanical properties :
#
#
# Convention : Reuss Voigt Hill
#
# Bulk Modulus (GPa) = 41.49934 47.39322 44.44628
# Shear Modulus (GPa) = 34.98465 37.39898 36.19182
#
# Velocity S-wave (km/s) = 3.83729 3.96749 3.90293
# Velocity P-wave (km/s) = 6.09096 6.39808 6.24641
#
# Compressibility (1/GPa) = 0.02409677
#
# Stress axis : x y z
#
# Youngs Moduli (GPa) = 109.59124 64.38445 81.14027
#
# Poissons Ratio (x) = 0.11192 0.29945
# Poissons Ratio (y) = 0.19051 0.08222
# Poissons Ratio (z) = 0.40444 0.06524
#
# Static dielectric constant tensor:
#      x y z
#    x 4.816720 0.000000 -0.124420 
#    y 0.000000 4.247350 0.000000 
#    z -0.124420 0.000000 4.546180 
# 
# 
# High freq. dielectric constant tensor:
#      x y z
#    x 1.958470 0.000000 0.012740 
#    y 0.000000 1.936260 0.000000 
#    z 0.012740 0.000000 1.946740 
# 
# From -- ./inp_files/142296.got.cif
#   From: 2010.06.25/outbox.cif.g09.slc.cpg/sg15_72_cif.got.tgz:142296.got - 2010.06.28 07:06:18.
