data_PCOD8150384
_publ_section_title
;
Structure prediction by ZEFSAII (Michael W. Deem and Ramdas Pophale) SiO2 
 PCOD8150384
Probable space group: C 2/C
;
_chemical_formula_sum "Si O2"
_cell_formula_units_Z 36
_cell_length_a 14.589108
_cell_length_b 14.788724
_cell_length_c 7.860183
_cell_angle_alpha 90.000000
_cell_angle_beta 76.376135
_cell_angle_gamma 90.000000
_cell_volume 1648.151527
_symmetry_space_group_name_H-M "C 2/C"
_symmetry_group_IT_number 15
_symmetry_cell_setting 'monoclinic'
loop_
_space_group_symop_operation_xyz
x,y,z
-x,y,1/2-z
-x,-y,-z
x,-y,1/2+z
1/2+x,1/2+y,z
1/2-x,1/2+y,1/2-z
1/2-x,1/2-y,-z
1/2+x,1/2-y,1/2+z
loop_
_atom_site_type_symbol
_atom_site_label
_atom_site_fract_x
_atom_site_fract_y
_atom_site_fract_z
Si Si1 0.500000 0.471457 0.250000
Si Si2 0.890842 0.104567 0.096023
Si Si3 0.176714 0.591507 0.138132
Si Si4 0.901985 0.311174 0.127388
Si Si5 0.393596 0.097408 0.954798
O O1 0.588056 0.534996 0.261508
O O2 0.531825 0.407069 0.084566
O O3 0.788020 0.079036 0.071612
O O4 0.907882 0.204976 0.157642
O O5 0.155486 0.615424 0.343279
O O6 0.115308 0.508153 0.091535
O O7 0.151318 0.675661 0.027895
O O8 0.844714 0.349420 0.317715
O O9 0.999971 0.366391 0.077530
#
# Coordination Sequence:
#
# PCOD8150384 Si02
#       5
#     4   8   8   8   8
#     4  10  24  46  72  82 136 182 216 278 340 406
#     4  11  25  47  66  99 129 177 232 271 338 395
#     4  12  23  42  68 102 133 179 219 280 326 404
#     4  11  25  42  65 105 136 173 224 275 331 407
#     4  11  24  40  70  99 141 175 219 269 347 391
#
# _framework density 21.842649999999999
#
# number of rings (size 3 to 8) (size 9 to 14) (size 15 to 20)
#    0.000    0.889    2.222    4.667    6.222    0.889 
#    0.000    0.000    0.000    0.000    0.000    0.000 
#    0.000    0.000    0.000    0.000    0.000    0.000 
#
# Total GULP energy -223125.406780 kJ/mol
# GULP energy per Si atom -12395.855932 kJ/mol
# Density = 2.179293 g / cm^3
# Si number density = 21.842650 Si / 1000 Ang^3
#
#
#
# Elastic Constant Matrix: (Units=GPa)
#
#
# Indices 1 2 3 4 5 6 
#
# 1 94.6350 21.4088 11.6556 0.0000 0.3735 0.0000
# 2 21.4088 85.7235 41.2300 0.0000 5.1504 0.0000
# 3 11.6556 41.2300 161.8794 0.0000 16.2665 0.0000
# 4 0.0000 0.0000 0.0000 10.7368 0.0000 4.6067
# 5 0.3735 5.1504 16.2665 0.0000 21.5721 0.0000
# 6 0.0000 0.0000 0.0000 4.6067 0.0000 22.0964
#
#
#
# Elastic Compliance Matrix: (Units=1/GPa)
#
#
# Indices 1 2 3 4 5 6 
#
# 1 0.011208 -0.002755 -0.000164 0.000000 0.000588 0.000000
# 2 -0.002755 0.013980 -0.003280 0.000000 -0.000817 0.000000
# 3 -0.000164 -0.003280 0.007515 0.000000 -0.004881 0.000000
# 4 0.000000 0.000000 0.000000 0.102287 0.000000 -0.021325
# 5 0.000588 -0.000817 -0.004881 0.000000 0.050221 0.000000
# 6 0.000000 0.000000 0.000000 -0.021325 0.000000 0.049702
#
#
# Mechanical properties :
#
#
# Convention : Reuss Voigt Hill
#
# Bulk Modulus (GPa) = 49.25211 54.53631 51.89421
# Shear Modulus (GPa) = 19.67870 28.74397 24.21133
#
# Velocity S-wave (km/s) = 3.00481 3.63155 3.33294
# Velocity P-wave (km/s) = 5.88524 6.52734 6.21459
#
# Compressibility (1/GPa) = 0.02030370
#
# Stress axis : x y z
#
# Youngs Moduli (GPa) = 89.22049 71.52908 133.06389
#
# Poissons Ratio (x) = 0.19710 0.02186
# Poissons Ratio (y) = 0.24584 0.43649
# Poissons Ratio (z) = 0.01466 0.23463
#
# Static dielectric constant tensor:
#      x y z
#    x 3.819930 0.000000 0.296390 
#    y 0.000000 3.809390 0.000000 
#    z 0.296390 0.000000 4.498700 
# 
# 
# High freq. dielectric constant tensor:
#      x y z
#    x 1.850960 0.000000 0.020420 
#    y 0.000000 1.858370 0.000000 
#    z 0.020420 0.000000 1.875610 
# 
# From -- ./inp_files/45996.got.cif
#   From: 2010.06.25/outbox.cif.g09.slc.cpg/sg15_23_cif.got.tgz:45996.got - 2010.06.28 07:06:18.
