data_PCOD8150156
_publ_section_title
;
Structure prediction by ZEFSAII (Michael W. Deem and Ramdas Pophale) SiO2 
 PCOD8150156
Probable space group: C 2/C
;
_chemical_formula_sum "Si O2"
_cell_formula_units_Z 60
_cell_length_a 26.136380
_cell_length_b 16.969946
_cell_length_c 11.700877
_cell_angle_alpha 90.000000
_cell_angle_beta 31.133699
_cell_angle_gamma 90.000000
_cell_volume 2683.278901
_symmetry_space_group_name_H-M "C 2/C"
_symmetry_group_IT_number 15
_symmetry_cell_setting 'monoclinic'
loop_
_space_group_symop_operation_xyz
x,y,z
-x,y,1/2-z
-x,-y,-z
x,-y,1/2+z
1/2+x,1/2+y,z
1/2-x,1/2+y,1/2-z
1/2-x,1/2-y,-z
1/2+x,1/2-y,1/2+z
loop_
_atom_site_type_symbol
_atom_site_label
_atom_site_fract_x
_atom_site_fract_y
_atom_site_fract_z
Si Si1 0.837392 0.024460 0.337149
Si Si2 0.500000 0.962640 0.250000
Si Si3 0.969288 0.120362 0.576604
Si Si4 0.179388 0.549903 0.014013
Si Si5 0.600901 0.135470 0.363369
Si Si6 0.030957 0.716190 0.062427
Si Si7 0.235291 0.355204 0.194935
Si Si8 0.403281 0.282317 0.996926
O O1 0.923278 0.082836 0.137272
O O2 0.763265 0.067034 0.568936
O O3 0.770671 0.011237 0.350323
O O4 0.889704 0.942333 0.281291
O O5 0.435012 0.913206 0.460389
O O6 0.573988 0.013125 0.185812
O O7 0.987378 0.196813 0.621045
O O8 0.931226 0.142642 0.522068
O O9 0.181884 0.586640 0.138132
O O10 0.201318 0.618668 0.884637
O O11 0.514666 0.153566 0.437691
O O12 0.646251 0.216304 0.327143
O O13 0.000000 0.693398 0.250000
O O14 0.148520 0.702394 0.813983
O O15 0.332616 0.303031 0.026514
O O16 0.500000 0.246932 0.750000
#
# Coordination Sequence:
#
# PCOD8150156 Si02
#       8
#     8   4   8   8   8   8   8   8
#     4  11  24  43  67 103 138 182 237 290 365 424
#     4  12  24  42  68 100 134 176 222 286 350 418
#     4  10  24  44  69  98 139 182 236 301 349 424
#     4  12  24  41  66  98 137 180 219 284 349 430
#     4  11  24  44  69  94 135 175 230 279 356 409
#     4  11  24  45  69 100 139 187 234 293 350 422
#     4  12  24  41  71  98 138 183 236 287 353 429
#     4  11  22  45  70  94 131 182 229 297 355 417
#
# _framework density 22.360702
#
# number of rings (size 3 to 8) (size 9 to 14) (size 15 to 20)
#    0.000    0.800    4.667    2.800    0.000    4.267 
#    0.000    0.000    0.000    0.000    0.000    0.000 
#    0.000    0.000    0.000    0.000    0.000    0.000 
#
# Total GULP energy -371840.416468 kJ/mol
# GULP energy per Si atom -12394.680549 kJ/mol
# Density = 2.230981 g / cm^3
# Si number density = 22.360702 Si / 1000 Ang^3
#
#
#
# Elastic Constant Matrix: (Units=GPa)
#
#
# Indices 1 2 3 4 5 6 
#
# 1 82.2223 31.7327 12.5526 0.0000 -13.6296 0.0000
# 2 31.7327 95.0174 28.4776 0.0000 -5.2896 0.0000
# 3 12.5526 28.4776 70.8772 0.0000 -4.0613 0.0000
# 4 0.0000 0.0000 0.0000 44.1786 0.0000 -2.0381
# 5 -13.6296 -5.2896 -4.0613 0.0000 45.7962 0.0000
# 6 0.0000 0.0000 0.0000 -2.0381 0.0000 35.7704
#
#
#
# Elastic Compliance Matrix: (Units=1/GPa)
#
#
# Indices 1 2 3 4 5 6 
#
# 1 0.014611 -0.004501 -0.000563 0.000000 0.003779 0.000000
# 2 -0.004501 0.013394 -0.004596 0.000000 -0.000200 0.000000
# 3 -0.000563 -0.004596 0.016097 0.000000 0.000729 0.000000
# 4 0.000000 0.000000 0.000000 0.022695 0.000000 0.001293
# 5 0.003779 -0.000200 0.000729 0.000000 0.023002 0.000000
# 6 0.000000 0.000000 0.000000 0.001293 0.000000 0.028030
#
#
# Mechanical properties :
#
#
# Convention : Reuss Voigt Hill
#
# Bulk Modulus (GPa) = 40.34967 43.73808 42.04387
# Shear Modulus (GPa) = 34.38578 36.83930 35.61254
#
# Velocity S-wave (km/s) = 3.92570 4.06335 3.99512
# Velocity P-wave (km/s) = 6.21549 6.45113 6.33441
#
# Compressibility (1/GPa) = 0.02478335
#
# Stress axis : x y z
#
# Youngs Moduli (GPa) = 68.43939 74.66169 62.12371
#
# Poissons Ratio (x) = 0.33603 0.03497
# Poissons Ratio (y) = 0.30802 0.28551
# Poissons Ratio (z) = 0.03852 0.34313
#
# Static dielectric constant tensor:
#      x y z
#    x 4.877480 0.000000 -0.660790 
#    y 0.000000 4.143590 0.000000 
#    z -0.660790 0.000000 4.463630 
# 
# 
# High freq. dielectric constant tensor:
#      x y z
#    x 1.884500 0.000000 -0.011130 
#    y 0.000000 1.887190 0.000000 
#    z -0.011130 0.000000 1.878800 
# 
# From -- ./inp_files/123996.got.cif
#   From: 2010.06.25/outbox.cif.g09.slc.cpg/sg15_62_cif.got.tgz:123996.got - 2010.06.28 07:06:18.
