data_PCOD8150653
_publ_section_title
;
Structure prediction by ZEFSAII (Michael W. Deem and Ramdas Pophale) SiO2 
 PCOD8150653
Probable space group: C 2/C
;
_chemical_formula_sum "Si O2"
_cell_formula_units_Z 36
_cell_length_a 17.789860
_cell_length_b 18.374451
_cell_length_c 8.565894
_cell_angle_alpha 90.000000
_cell_angle_beta 33.619826
_cell_angle_gamma 90.000000
_cell_volume 1550.308840
_symmetry_space_group_name_H-M "C 2/C"
_symmetry_group_IT_number 15
_symmetry_cell_setting 'monoclinic'
loop_
_space_group_symop_operation_xyz
x,y,z
-x,y,1/2-z
-x,-y,-z
x,-y,1/2+z
1/2+x,1/2+y,z
1/2-x,1/2+y,1/2-z
1/2-x,1/2-y,-z
1/2+x,1/2-y,1/2+z
loop_
_atom_site_type_symbol
_atom_site_label
_atom_site_fract_x
_atom_site_fract_y
_atom_site_fract_z
Si Si1 0.763811 0.429480 0.979847
Si Si2 0.019036 0.154200 0.043015
Si Si3 0.885377 0.294672 0.236668
Si Si4 0.740379 0.413557 0.654317
Si Si5 0.000000 0.362377 0.750000
O O1 0.764028 0.424484 0.794726
O O2 0.913776 0.412847 0.783050
O O3 0.662165 0.370274 0.227897
O O4 0.722449 0.510061 0.099110
O O5 0.000000 0.121543 0.250000
O O6 0.013278 0.243190 0.063020
O O7 0.900424 0.128149 0.132431
O O8 0.750000 0.250000 0.500000
O O9 0.870217 0.369148 0.362123
O O10 0.900090 0.313378 0.027970
#
# Coordination Sequence:
#
# PCOD8150653 Si02
#       5
#     8   8   8   8   4
#     4  12  26  45  75 104 144 192 245 297 362 432
#     4  11  24  45  73 106 145 187 240 301 360 433
#     4  10  25  45  69 103 146 184 237 295 360 428
#     4  11  25  47  73 107 142 189 240 303 362 430
#     4  12  28  46  70 104 146 190 240 296 360 432
#
# _framework density 23.221178999999999
#
# number of rings (size 3 to 8) (size 9 to 14) (size 15 to 20)
#    0.000    0.889    0.000    6.667    9.333    4.444 
#    0.000    0.000    0.000    0.000    0.000    0.000 
#    0.000    0.000    0.000    0.000    0.000    0.000 
#
# Total GULP energy -223232.654033 kJ/mol
# GULP energy per Si atom -12401.814113 kJ/mol
# Density = 2.316833 g / cm^3
# Si number density = 23.221179 Si / 1000 Ang^3
#
#
#
# Elastic Constant Matrix: (Units=GPa)
#
#
# Indices 1 2 3 4 5 6 
#
# 1 170.8350 35.4921 51.1204 0.0002 23.5732 -0.0001
# 2 35.4921 110.2302 49.8095 0.0003 4.7941 0.0000
# 3 51.1204 49.8095 119.5426 0.0005 27.5118 -0.0004
# 4 0.0002 0.0003 0.0005 37.2770 -0.0001 5.8147
# 5 23.5732 4.7941 27.5118 -0.0001 53.6054 0.0002
# 6 -0.0001 0.0000 -0.0004 5.8147 0.0002 33.2932
#
#
#
# Elastic Compliance Matrix: (Units=1/GPa)
#
#
# Indices 1 2 3 4 5 6 
#
# 1 0.006984 -0.001251 -0.002023 0.000000 -0.001921 0.000000
# 2 -0.001251 0.011519 -0.004711 0.000000 0.001938 0.000000
# 3 -0.002023 -0.004711 0.012350 0.000000 -0.005027 0.000000
# 4 0.000000 0.000000 0.000000 0.027577 0.000000 -0.004816
# 5 -0.001921 0.001938 -0.005027 0.000000 0.021907 0.000000
# 6 0.000000 0.000000 0.000000 -0.004816 0.000000 0.030877
#
#
# Mechanical properties :
#
#
# Convention : Reuss Voigt Hill
#
# Bulk Modulus (GPa) = 67.18764 74.82798 71.00781
# Shear Modulus (GPa) = 37.83714 42.44751 40.14232
#
# Velocity S-wave (km/s) = 4.04099 4.28011 4.16227
# Velocity P-wave (km/s) = 7.12527 7.53125 7.33107
#
# Compressibility (1/GPa) = 0.01488369
#
# Stress axis : x y z
#
# Youngs Moduli (GPa) = 143.18431 86.81323 80.97035
#
# Poissons Ratio (x) = 0.10860 0.16383
# Poissons Ratio (y) = 0.17911 0.38141
# Poissons Ratio (z) = 0.28970 0.40894
#
# Static dielectric constant tensor:
#      x y z
#    x 4.137300 0.000000 0.091400 
#    y 0.000000 4.691480 0.000000 
#    z 0.091400 0.000000 4.322880 
# 
# 
# High freq. dielectric constant tensor:
#      x y z
#    x 1.924430 0.000000 0.011230 
#    y 0.000000 1.927560 0.000000 
#    z 0.011230 0.000000 1.922640 
# 
# From -- ./inp_files/50536.got.cif
#   From: 2010.06.25/outbox.cif.g09.slc.cpg/sg15_26_cif.got.tgz:50536.got - 2010.06.28 07:06:18.
