data_PCOD8150109
_publ_section_title
;
Structure prediction by ZEFSAII (Michael W. Deem and Ramdas Pophale) SiO2 
 PCOD8150109
Probable space group: C 2/C
;
_chemical_formula_sum "Si O2"
_cell_formula_units_Z 56
_cell_length_a 13.182655
_cell_length_b 7.793632
_cell_length_c 29.522157
_cell_angle_alpha 90.000000
_cell_angle_beta 55.954396
_cell_angle_gamma 90.000000
_cell_volume 2513.227028
_symmetry_space_group_name_H-M "C 2/C"
_symmetry_group_IT_number 15
_symmetry_cell_setting 'monoclinic'
loop_
_space_group_symop_operation_xyz
x,y,z
-x,y,1/2-z
-x,-y,-z
x,-y,1/2+z
1/2+x,1/2+y,z
1/2-x,1/2+y,1/2-z
1/2-x,1/2-y,-z
1/2+x,1/2-y,1/2+z
loop_
_atom_site_type_symbol
_atom_site_label
_atom_site_fract_x
_atom_site_fract_y
_atom_site_fract_z
Si Si1 0.643035 0.265764 0.371883
Si Si2 0.392748 0.305484 0.403479
Si Si3 0.886624 0.799281 0.301156
Si Si4 0.288414 0.872897 0.551438
Si Si5 0.111497 0.579096 0.566778
Si Si6 0.868282 0.574434 0.772097
Si Si7 0.642444 0.065709 0.827406
O O1 0.515996 0.373349 0.399224
O O2 0.644206 0.150560 0.417247
O O3 0.766168 0.374021 0.334589
O O4 0.631040 0.139228 0.331809
O O5 0.419383 0.265721 0.344638
O O6 0.292689 0.454914 0.432494
O O7 0.352704 0.121177 0.434299
O O8 0.877873 0.627982 0.273615
O O9 0.758277 0.894744 0.329970
O O10 0.000000 0.905666 0.250000
O O11 0.212461 0.698007 0.564872
O O12 0.390618 0.885524 0.486687
O O13 0.982222 0.641037 0.620068
O O14 0.834272 0.629458 0.729524
O O15 0.000000 0.660998 0.750000
#
# Coordination Sequence:
#
# PCOD8150109 Si02
#       7
#     8   8   8   8   8   8   8
#     4  11  23  41  65  98 128 168 227 268 332 409
#     4  11  23  43  65  96 130 173 216 274 335 392
#     4  11  22  40  61  91 131 168 215 270 334 396
#     4  11  23  46  66  97 130 172 220 275 327 394
#     4  10  24  44  67  93 134 168 219 275 324 400
#     4  11  22  39  63  91 131 170 210 275 330 393
#     4  11  22  40  62  95 127 170 215 267 332 389
#
# _framework density 22.282111
#
# number of rings (size 3 to 8) (size 9 to 14) (size 15 to 20)
#    0.000    1.143    1.429    7.286    2.000    2.857 
#    7.714    1.429    0.000    0.000    0.000    0.000 
#    0.000    0.000    0.000    0.000    0.000    0.000 
#
# Total GULP energy -347009.388882 kJ/mol
# GULP energy per Si atom -12393.192460 kJ/mol
# Density = 2.223140 g / cm^3
# Si number density = 22.282111 Si / 1000 Ang^3
#
#
#
# Elastic Constant Matrix: (Units=GPa)
#
#
# Indices 1 2 3 4 5 6 
#
# 1 112.8687 21.0254 36.2993 0.0000 8.7584 0.0000
# 2 21.0254 57.0093 22.0424 0.0001 -2.9870 0.0001
# 3 36.2993 22.0424 122.0025 0.0000 10.5891 0.0000
# 4 0.0000 0.0001 0.0000 26.9183 0.0000 -0.6532
# 5 8.7584 -2.9870 10.5891 0.0000 35.6606 0.0000
# 6 0.0000 0.0001 0.0000 -0.6532 0.0000 33.4253
#
#
#
# Elastic Compliance Matrix: (Units=1/GPa)
#
#
# Indices 1 2 3 4 5 6 
#
# 1 0.010340 -0.003014 -0.002350 0.000000 -0.002094 0.000000
# 2 -0.003014 0.019986 -0.003001 0.000000 0.003306 0.000000
# 3 -0.002350 -0.003001 0.009659 0.000000 -0.002542 0.000000
# 4 0.000000 0.000000 0.000000 0.037167 0.000000 0.000726
# 5 -0.002094 0.003306 -0.002542 0.000000 0.029588 0.000000
# 6 0.000000 0.000000 0.000000 0.000726 0.000000 0.029932
#
#
# Mechanical properties :
#
#
# Convention : Reuss Voigt Hill
#
# Bulk Modulus (GPa) = 43.00389 50.06831 46.53610
# Shear Modulus (GPa) = 31.02633 33.36840 32.19737
#
# Velocity S-wave (km/s) = 3.73558 3.87401 3.80542
# Velocity P-wave (km/s) = 6.16017 6.52147 6.34339
#
# Compressibility (1/GPa) = 0.02325371
#
# Stress axis : x y z
#
# Youngs Moduli (GPa) = 96.71494 50.03442 103.53492
#
# Poissons Ratio (x) = 0.15083 0.24330
# Poissons Ratio (y) = 0.29154 0.31070
# Poissons Ratio (z) = 0.22728 0.15015
#
# Static dielectric constant tensor:
#      x y z
#    x 4.342910 0.000000 -0.257100 
#    y 0.000000 3.742380 0.000000 
#    z -0.257100 0.000000 4.240460 
# 
# 
# High freq. dielectric constant tensor:
#      x y z
#    x 1.887980 0.000000 0.001690 
#    y 0.000000 1.858520 0.000000 
#    z 0.001690 0.000000 1.888240 
# 
# From -- ./inp_files/310242.got.cif
#   From: 2010.06.25/outbox.cif.g09.slc.cpg/sg15_156_cif.got.tgz:310242.got - 2010.06.28 07:06:18.
