data_PCOD8150622
_publ_section_title
;
Structure prediction by ZEFSAII (Michael W. Deem and Ramdas Pophale) SiO2 
 PCOD8150622
Probable space group: C 2/C
;
_chemical_formula_sum "Si O2"
_cell_formula_units_Z 24
_cell_length_a 5.070706
_cell_length_b 21.654480
_cell_length_c 9.019012
_cell_angle_alpha 90.000000
_cell_angle_beta 107.411060
_cell_angle_gamma 90.000000
_cell_volume 944.945239
_symmetry_space_group_name_H-M "C 2/C"
_symmetry_group_IT_number 15
_symmetry_cell_setting 'monoclinic'
loop_
_space_group_symop_operation_xyz
x,y,z
-x,y,1/2-z
-x,-y,-z
x,-y,1/2+z
1/2+x,1/2+y,z
1/2-x,1/2+y,1/2-z
1/2-x,1/2-y,-z
1/2+x,1/2-y,1/2+z
loop_
_atom_site_type_symbol
_atom_site_label
_atom_site_fract_x
_atom_site_fract_y
_atom_site_fract_z
Si Si1 0.500000 0.264472 0.750000
Si Si2 0.846329 0.165314 0.948952
Si Si3 0.500000 0.011796 0.250000
Si Si4 0.181582 0.416188 0.054024
O O1 0.764619 0.221062 0.824976
O O2 0.537610 0.308161 0.613465
O O3 0.575772 0.129990 0.964159
O O4 0.030576 0.119466 0.883905
O O5 0.679497 0.054456 0.389216
O O6 0.694908 0.969218 0.180669
#
# Coordination Sequence:
#
# PCOD8150622 Si02
#       4
#     4   8   4   8
#     4  10  25  44  70 102 136 180 227 280 340 404
#     4  11  25  44  70 101 138 178 227 280 339 404
#     4  10  25  44  70 102 136 180 227 280 340 404
#     4  11  25  44  70 101 138 178 227 280 339 404
#
# _framework density 25.398296999999999
#
# number of rings (size 3 to 8) (size 9 to 14) (size 15 to 20)
#    0.000    1.333    0.000    3.000    0.000   21.333 
#    0.000    0.000    0.000    4.000    0.000    0.000 
#    0.000    0.000    0.000    0.000    0.000    0.000 
#
# Total GULP energy -148807.440407 kJ/mol
# GULP energy per Si atom -12400.620034 kJ/mol
# Density = 2.534049 g / cm^3
# Si number density = 25.398297 Si / 1000 Ang^3
#
#
#
# Elastic Constant Matrix: (Units=GPa)
#
#
# Indices 1 2 3 4 5 6 
#
# 1 88.9126 15.6616 -5.6848 0.0000 -24.7740 0.0000
# 2 15.6616 96.5545 21.2075 0.0000 -15.4675 0.0000
# 3 -5.6848 21.2075 133.8213 0.0000 -2.9981 0.0000
# 4 0.0000 0.0000 0.0000 95.0854 0.0000 8.1067
# 5 -24.7740 -15.4675 -2.9981 0.0000 17.9134 0.0000
# 6 0.0000 0.0000 0.0000 8.1067 0.0000 43.8055
#
#
#
# Elastic Compliance Matrix: (Units=1/GPa)
#
#
# Indices 1 2 3 4 5 6 
#
# 1 0.018625 0.001007 0.001233 0.000000 0.026834 0.000000
# 2 0.001007 0.012462 -0.001666 0.000000 0.011874 0.000000
# 3 0.001233 -0.001666 0.007824 0.000000 0.001576 0.000000
# 4 0.000000 0.000000 0.000000 0.010685 0.000000 -0.001977
# 5 0.026834 0.011874 0.001576 0.000000 0.103452 0.000000
# 6 0.000000 0.000000 0.000000 -0.001977 0.000000 0.023194
#
#
# Mechanical properties :
#
#
# Convention : Reuss Voigt Hill
#
# Bulk Modulus (GPa) = 24.96351 42.40636 33.68494
# Shear Modulus (GPa) = 26.53250 50.56782 38.55016
#
# Velocity S-wave (km/s) = 3.23562 4.46689 3.90015
# Velocity P-wave (km/s) = 4.87946 6.58308 5.79423
#
# Compressibility (1/GPa) = 0.04005846
#
# Stress axis : x y z
#
# Youngs Moduli (GPa) = 53.69017 80.24668 127.80589
#
# Poissons Ratio (x) = -0.08079 -0.15757
# Poissons Ratio (y) = -0.05405 0.21293
# Poissons Ratio (z) = -0.06619 0.13370
#
# Static dielectric constant tensor:
#      x y z
#    x 4.076160 0.000000 0.132450 
#    y 0.000000 5.173270 0.000000 
#    z 0.132450 0.000000 4.994600 
# 
# 
# High freq. dielectric constant tensor:
#      x y z
#    x 1.984680 0.000000 0.010990 
#    y 0.000000 2.037240 0.000000 
#    z 0.010990 0.000000 2.044840 
# 
# From -- ./inp_files/19503.got.cif
#   From: 2010.06.25/outbox.cif.g09.slc.cpg/sg15_10_cif.got.tgz:19503.got - 2010.06.28 07:06:18.
