data_PCOD8150783
_publ_section_title
;
Structure prediction by ZEFSAII (Michael W. Deem and Ramdas Pophale) SiO2 
 PCOD8150783
Probable space group: C 2/C
;
_chemical_formula_sum "Si O2"
_cell_formula_units_Z 60
_cell_length_a 22.881902
_cell_length_b 7.840868
_cell_length_c 14.848526
_cell_angle_alpha 90.000000
_cell_angle_beta 71.068335
_cell_angle_gamma 90.000000
_cell_volume 2519.925371
_symmetry_space_group_name_H-M "C 2/C"
_symmetry_group_IT_number 15
_symmetry_cell_setting 'monoclinic'
loop_
_space_group_symop_operation_xyz
x,y,z
-x,y,1/2-z
-x,-y,-z
x,-y,1/2+z
1/2+x,1/2+y,z
1/2-x,1/2+y,1/2-z
1/2-x,1/2-y,-z
1/2+x,1/2-y,1/2+z
loop_
_atom_site_type_symbol
_atom_site_label
_atom_site_fract_x
_atom_site_fract_y
_atom_site_fract_z
Si Si1 0.624776 0.368272 0.351725
Si Si2 0.000000 0.391798 0.250000
Si Si3 0.221403 0.637128 0.221977
Si Si4 0.161683 0.891781 0.532356
Si Si5 0.699677 0.986049 0.041793
Si Si6 0.451273 0.973102 0.601085
Si Si7 0.672509 0.862059 0.374089
Si Si8 0.932162 0.065895 0.274621
O O1 0.685043 0.308930 0.266511
O O2 0.642529 0.439524 0.440553
O O3 0.577948 0.212557 0.389635
O O4 0.593272 0.519589 0.311218
O O5 0.007383 0.514867 0.330634
O O6 0.060630 0.270540 0.217043
O O7 0.191133 0.556340 0.147208
O O8 0.294353 0.683838 0.171710
O O9 0.214473 0.511156 0.309399
O O10 0.228981 0.963607 0.518447
O O11 0.161680 0.688446 0.548938
O O12 0.114532 0.989567 0.622667
O O13 0.673816 0.121474 0.982045
O O14 0.500000 0.000000 0.500000
O O15 0.398000 0.119806 0.624169
O O16 0.000000 0.977550 0.250000
#
# Coordination Sequence:
#
# PCOD8150783 Si02
#       8
#     8   4   8   8   8   8   8   8
#     4  11  24  48  69 104 138 184 229 297 347 419
#     4  10  26  44  64 100 124 186 230 278 348 400
#     4  11  24  42  70 102 140 177 234 284 356 415
#     4  11  23  45  72 100 145 179 226 285 357 415
#     4  11  24  42  69 105 138 181 226 291 349 420
#     4  11  25  45  69  98 138 182 237 287 349 412
#     4  11  25  43  67 105 137 185 232 288 354 419
#     4  10  26  46  70  99 137 183 232 285 351 414
#
# _framework density 23.810227999999999
#
# number of rings (size 3 to 8) (size 9 to 14) (size 15 to 20)
#    0.400    0.800    2.667    2.800    6.533    2.667 
#    2.400    0.000    0.000    0.000    0.000    0.000 
#    0.000    0.000    0.000    0.000    0.000    0.000 
#
# Total GULP energy -371948.826587 kJ/mol
# GULP energy per Si atom -12398.294220 kJ/mol
# Density = 2.375604 g / cm^3
# Si number density = 23.810228 Si / 1000 Ang^3
#
#
#
# Elastic Constant Matrix: (Units=GPa)
#
#
# Indices 1 2 3 4 5 6 
#
# 1 124.2835 21.0055 70.2870 0.0000 4.3144 0.0000
# 2 21.0055 16.8341 10.8167 0.0000 -3.9998 0.0000
# 3 70.2870 10.8167 147.6799 0.0000 7.0032 0.0000
# 4 0.0000 0.0000 0.0000 35.6992 0.0000 11.1766
# 5 4.3144 -3.9998 7.0032 0.0000 50.1253 0.0000
# 6 0.0000 0.0000 0.0000 11.1766 0.0000 38.5078
#
#
#
# Elastic Compliance Matrix: (Units=1/GPa)
#
#
# Indices 1 2 3 4 5 6 
#
# 1 0.013415 -0.013684 -0.005311 0.000000 -0.001505 0.000000
# 2 -0.013684 0.077926 0.000457 0.000000 0.007332 0.000000
# 3 -0.005311 0.000457 0.009304 0.000000 -0.000806 0.000000
# 4 0.000000 0.000000 0.000000 0.030812 0.000000 -0.008943
# 5 -0.001505 0.007332 -0.000806 0.000000 0.020777 0.000000
# 6 0.000000 0.000000 0.000000 -0.008943 0.000000 0.028564
#
#
# Mechanical properties :
#
#
# Convention : Reuss Voigt Hill
#
# Bulk Modulus (GPa) = 15.73080 54.77953 35.25517
# Shear Modulus (GPa) = 20.91510 37.31235 29.11372
#
# Velocity S-wave (km/s) = 2.96701 3.96292 3.50056
# Velocity P-wave (km/s) = 4.28470 6.63297 5.58368
#
# Compressibility (1/GPa) = 0.06356955
#
# Stress axis : x y z
#
# Youngs Moduli (GPa) = 74.54560 12.83275 107.48226
#
# Poissons Ratio (x) = 0.17560 0.57084
# Poissons Ratio (y) = 1.02005 -0.04915
# Poissons Ratio (z) = 0.39591 -0.00587
#
# Static dielectric constant tensor:
#      x y z
#    x 4.411280 0.000000 -0.031680 
#    y 0.000000 4.157110 0.000000 
#    z -0.031680 0.000000 4.235960 
# 
# 
# High freq. dielectric constant tensor:
#      x y z
#    x 1.948390 0.000000 0.004240 
#    y 0.000000 1.926960 0.000000 
#    z 0.004240 0.000000 1.952290 
# 
# From -- ./inp_files/172337.got.cif
#   From: 2010.06.25/outbox.cif.g09.slc.cpg/sg15_87_cif.got.tgz:172337.got - 2010.06.28 07:06:18.
