data_PCOD8150400
_publ_section_title
;
Structure prediction by ZEFSAII (Michael W. Deem and Ramdas Pophale) SiO2 
 PCOD8150400
Probable space group: C 2/C
;
_chemical_formula_sum "Si O2"
_cell_formula_units_Z 44
_cell_length_a 8.232038
_cell_length_b 22.736310
_cell_length_c 12.207929
_cell_angle_alpha 90.000000
_cell_angle_beta 108.516223
_cell_angle_gamma 90.000000
_cell_volume 2166.630055
_symmetry_space_group_name_H-M "C 2/C"
_symmetry_group_IT_number 15
_symmetry_cell_setting 'monoclinic'
loop_
_space_group_symop_operation_xyz
x,y,z
-x,y,1/2-z
-x,-y,-z
x,-y,1/2+z
1/2+x,1/2+y,z
1/2-x,1/2+y,1/2-z
1/2-x,1/2-y,-z
1/2+x,1/2-y,1/2+z
loop_
_atom_site_type_symbol
_atom_site_label
_atom_site_fract_x
_atom_site_fract_y
_atom_site_fract_z
Si Si1 0.238343 0.812587 0.050307
Si Si2 0.583282 0.660232 0.149042
Si Si3 0.000000 0.459931 0.250000
Si Si4 0.918163 0.377409 0.421610
Si Si5 0.796455 0.222233 0.712361
Si Si6 0.353483 0.072578 0.142679
O O1 0.388847 0.853211 0.036501
O O2 0.261065 0.804124 0.184081
O O3 0.250000 0.750000 0.000000
O O4 0.056381 0.839021 0.977367
O O5 0.500000 0.660980 0.250000
O O6 0.714209 0.714751 0.167976
O O7 0.676071 0.598449 0.148623
O O8 0.105020 0.420586 0.186517
O O9 0.141113 0.501511 0.340995
O O10 0.779280 0.324556 0.390528
O O11 0.886272 0.413891 0.523593
O O12 0.000000 0.228027 0.750000
O O13 0.500000 0.102159 0.250000
#
# Coordination Sequence:
#
# PCOD8150400 Si02
#       6
#     8   8   4   8   8   8
#     4  12  23  38  66  98 133 179 214 272 345 403
#     4  12  23  41  64 100 140 171 224 275 340 399
#     4  10  24  46  74  94 132 184 228 272 338 394
#     4  12  22  48  69  95 140 175 228 278 337 404
#     4  12  25  39  66 101 135 179 218 278 339 403
#     4  10  25  41  69 100 125 180 227 277 327 393
#
# _framework density 20.308036999999999
#
# number of rings (size 3 to 8) (size 9 to 14) (size 15 to 20)
#    0.545    0.000    5.455    3.273    2.545    1.455 
#    0.000    1.818    0.000    0.000    0.000    0.000 
#    0.000    0.000    0.000    0.000    0.000    0.000 
#
# Total GULP energy -272807.093487 kJ/mol
# GULP energy per Si atom -12400.322431 kJ/mol
# Density = 2.026182 g / cm^3
# Si number density = 20.308037 Si / 1000 Ang^3
#
#
#
# Elastic Constant Matrix: (Units=GPa)
#
#
# Indices 1 2 3 4 5 6 
#
# 1 114.1842 48.4916 20.3514 0.0000 15.7350 0.0000
# 2 48.4916 107.2776 17.7392 0.0000 -3.5744 0.0000
# 3 20.3514 17.7392 81.7514 0.0000 -4.8212 0.0000
# 4 0.0000 0.0000 0.0000 38.2463 0.0000 2.7754
# 5 15.7350 -3.5744 -4.8212 0.0000 41.0963 0.0000
# 6 0.0000 0.0000 0.0000 2.7754 0.0000 31.0480
#
#
#
# Elastic Compliance Matrix: (Units=1/GPa)
#
#
# Indices 1 2 3 4 5 6 
#
# 1 0.012140 -0.005305 -0.002188 0.000000 -0.005366 0.000000
# 2 -0.005305 0.012001 -0.001110 0.000000 0.002945 0.000000
# 3 -0.002188 -0.001110 0.013152 0.000000 0.002284 0.000000
# 4 0.000000 0.000000 0.000000 0.026317 0.000000 -0.002353
# 5 -0.005366 0.002945 0.002284 0.000000 0.026912 0.000000
# 6 0.000000 0.000000 0.000000 -0.002353 0.000000 0.032418
#
#
# Mechanical properties :
#
#
# Convention : Reuss Voigt Hill
#
# Bulk Modulus (GPa) = 49.77803 52.93084 51.35444
# Shear Modulus (GPa) = 34.05047 36.52019 35.28533
#
# Velocity S-wave (km/s) = 4.09919 4.24525 4.17286
# Velocity P-wave (km/s) = 6.85341 7.08167 6.96848
#
# Compressibility (1/GPa) = 0.02008918
#
# Stress axis : x y z
#
# Youngs Moduli (GPa) = 82.37315 83.32627 76.03222
#
# Poissons Ratio (x) = 0.44201 0.16632
# Poissons Ratio (y) = 0.43695 0.08439
# Poissons Ratio (z) = 0.18020 0.09249
#
# Static dielectric constant tensor:
#      x y z
#    x 3.606290 0.000000 -0.004970 
#    y 0.000000 136.790250 0.000000 
#    z -0.004970 0.000000 3.624490 
# 
# 
# High freq. dielectric constant tensor:
#      x y z
#    x 1.789310 0.000000 -0.001800 
#    y 0.000000 1.791620 0.000000 
#    z -0.001800 0.000000 1.808160 
# 
# From -- ./inp_files/79492.got.cif
#   From: 2010.06.25/outbox.cif.g09.slc.cpg/sg15_40_cif.got.tgz:79492.got - 2010.06.28 07:06:18.
