data_PCOD8150303
_publ_section_title
;
Structure prediction by ZEFSAII (Michael W. Deem and Ramdas Pophale) SiO2 
 PCOD8150303
Probable space group: C 2/C
;
_chemical_formula_sum "Si O2"
_cell_formula_units_Z 32
_cell_length_a 16.880763
_cell_length_b 9.412767
_cell_length_c 14.204510
_cell_angle_alpha 90.000000
_cell_angle_beta 144.779353
_cell_angle_gamma 90.000000
_cell_volume 1301.684485
_symmetry_space_group_name_H-M "C 2/C"
_symmetry_group_IT_number 15
_symmetry_cell_setting 'monoclinic'
loop_
_space_group_symop_operation_xyz
x,y,z
-x,y,1/2-z
-x,-y,-z
x,-y,1/2+z
1/2+x,1/2+y,z
1/2-x,1/2+y,1/2-z
1/2-x,1/2-y,-z
1/2+x,1/2-y,1/2+z
loop_
_atom_site_type_symbol
_atom_site_label
_atom_site_fract_x
_atom_site_fract_y
_atom_site_fract_z
Si Si1 0.801790 0.877153 0.267713
Si Si2 0.120500 0.098363 0.303199
Si Si3 0.495127 0.877375 0.571608
Si Si4 0.166312 0.587563 0.831516
O O1 0.774499 0.918845 0.349757
O O2 0.910612 0.751745 0.368883
O O3 0.867754 0.015219 0.283090
O O4 0.663974 0.829392 0.076104
O O5 0.086697 0.262029 0.245210
O O6 0.261589 0.081716 0.497558
O O7 0.000000 0.032226 0.250000
O O8 0.500000 0.000000 0.500000
O O9 0.558886 0.955437 0.725680
#
# Coordination Sequence:
#
# PCOD8150303 Si02
#       4
#     8   8   8   8
#     4  11  25  47  74 105 146 192 244 295 368 428
#     4  11  27  43  73 111 142 193 246 297 360 432
#     4  10  24  45  73 105 141 192 239 298 359 430
#     4  10  24  46  73 102 151 192 241 299 360 432
#
# _framework density 24.583528999999999
#
# number of rings (size 3 to 8) (size 9 to 14) (size 15 to 20)
#    0.000    1.500    0.000    3.000   17.500    2.000 
#    0.000    0.000    0.000    0.000    0.000    0.000 
#    0.000    0.000    0.000    0.000    0.000    0.000 
#
# Total GULP energy -198382.906540 kJ/mol
# GULP energy per Si atom -12398.931659 kJ/mol
# Density = 2.452758 g / cm^3
# Si number density = 24.583529 Si / 1000 Ang^3
#
#
#
# Elastic Constant Matrix: (Units=GPa)
#
#
# Indices 1 2 3 4 5 6 
#
# 1 105.9663 23.2488 -2.2830 0.0000 0.1920 0.0000
# 2 23.2488 86.6887 19.8860 0.0000 -2.0193 0.0000
# 3 -2.2830 19.8860 35.5491 0.0000 10.6778 0.0000
# 4 0.0000 0.0000 0.0000 36.8003 0.0000 -7.8101
# 5 0.1920 -2.0193 10.6778 0.0000 44.8307 0.0000
# 6 0.0000 0.0000 0.0000 -7.8101 0.0000 28.3556
#
#
#
# Elastic Compliance Matrix: (Units=1/GPa)
#
#
# Indices 1 2 3 4 5 6 
#
# 1 0.010250 -0.003419 0.002833 0.000000 -0.000873 0.000000
# 2 -0.003419 0.014649 -0.009280 0.000000 0.002885 0.000000
# 3 0.002833 -0.009280 0.036224 0.000000 -0.009058 0.000000
# 4 0.000000 0.000000 0.000000 0.028861 0.000000 0.007949
# 5 -0.000873 0.002885 -0.009058 0.000000 0.024597 0.000000
# 6 0.000000 0.000000 0.000000 0.007949 0.000000 0.037456
#
#
# Mechanical properties :
#
#
# Convention : Reuss Voigt Hill
#
# Bulk Modulus (GPa) = 24.16073 34.43419 29.29746
# Shear Modulus (GPa) = 26.94461 34.48748 30.71604
#
# Velocity S-wave (km/s) = 3.31425 3.74955 3.53860
# Velocity P-wave (km/s) = 4.94924 5.72564 5.35154
#
# Compressibility (1/GPa) = 0.04138948
#
# Stress axis : x y z
#
# Youngs Moduli (GPa) = 97.56374 68.26612 27.60583
#
# Poissons Ratio (x) = 0.23340 -0.07821
# Poissons Ratio (y) = 0.33357 0.25619
# Poissons Ratio (z) = -0.27639 0.63354
#
# Static dielectric constant tensor:
#      x y z
#    x 4.322220 0.000000 -0.178770 
#    y 0.000000 4.622100 0.000000 
#    z -0.178770 0.000000 6.551940 
# 
# 
# High freq. dielectric constant tensor:
#      x y z
#    x 1.972730 0.000000 0.002390 
#    y 0.000000 1.969540 0.000000 
#    z 0.002390 0.000000 1.989580 
# 
# From -- ./inp_files/214170.got.cif
#   From: 2010.06.25/outbox.cif.g09.slc.cpg/sg15_108_cif.got.tgz:214170.got - 2010.06.28 07:06:18.
