data_PCOD8150540
_publ_section_title
;
Structure prediction by ZEFSAII (Michael W. Deem and Ramdas Pophale) SiO2 
 PCOD8150540
Probable space group: C 2/C
;
_chemical_formula_sum "Si O2"
_cell_formula_units_Z 56
_cell_length_a 5.859773
_cell_length_b 21.054480
_cell_length_c 19.846504
_cell_angle_alpha 90.000000
_cell_angle_beta 72.827290
_cell_angle_gamma 90.000000
_cell_volume 2339.393329
_symmetry_space_group_name_H-M "C 2/C"
_symmetry_group_IT_number 15
_symmetry_cell_setting 'monoclinic'
loop_
_space_group_symop_operation_xyz
x,y,z
-x,y,1/2-z
-x,-y,-z
x,-y,1/2+z
1/2+x,1/2+y,z
1/2-x,1/2+y,1/2-z
1/2-x,1/2-y,-z
1/2+x,1/2-y,1/2+z
loop_
_atom_site_type_symbol
_atom_site_label
_atom_site_fract_x
_atom_site_fract_y
_atom_site_fract_z
Si Si1 0.348339 0.050559 0.824472
Si Si2 0.366450 0.750000 0.383551
Si Si3 0.592005 0.127249 0.420903
Si Si4 0.699546 0.170909 0.179807
Si Si5 0.433809 0.127248 0.579097
Si Si6 0.059160 0.829092 0.320193
Si Si7 0.002719 0.949441 0.824472
O O1 0.500000 0.019119 0.750000
O O2 0.500824 0.067737 0.877914
O O3 0.250593 0.115236 0.801923
O O4 0.138872 1.000000 0.861129
O O5 0.262126 0.686625 0.427504
O O6 0.639146 0.734519 0.338575
O O7 0.382869 0.813376 0.427503
O O8 0.183705 0.765481 0.338575
O O9 0.394430 0.149121 0.384836
O O10 0.458367 0.103940 0.500000
O O11 0.743350 0.067738 0.377914
O O12 0.500000 0.188642 0.250000
O O13 0.854437 0.115237 0.198078
O O14 0.164101 0.149121 0.615163
O O15 0.000000 0.811359 0.250000
O O16 0.000000 0.980881 0.750000
#
# Coordination Sequence:
#
# PCOD8150540 Si02
#       7
#     8   8   8   8   8   8   8
#     4  11  24  44  73  99 132 179 233 288 348 416
#     4  10  25  41  66  98 142 184 230 280 342 416
#     4  11  25  44  67 101 140 179 226 284 353 413
#     4  11  23  43  66 101 137 183 238 284 342 412
#     4  11  25  44  67 101 140 179 226 284 353 413
#     4  11  23  43  66 101 137 183 238 284 342 412
#     4  11  24  44  73  99 132 179 233 288 348 416
#
# _framework density 23.937832
#
# number of rings (size 3 to 8) (size 9 to 14) (size 15 to 20)
#    0.000    1.143    2.857    2.143    0.000   10.857 
#    0.000    1.429    0.000    0.000    0.000    0.000 
#    0.000    0.000    0.000    0.000    0.000    0.000 
#
# Total GULP energy -347224.892841 kJ/mol
# GULP energy per Si atom -12400.889030 kJ/mol
# Density = 2.388335 g / cm^3
# Si number density = 23.937832 Si / 1000 Ang^3
#
#
#
# Elastic Constant Matrix: (Units=GPa)
#
#
# Indices 1 2 3 4 5 6 
#
# 1 136.7079 23.9166 74.3690 0.0000 -0.0962 0.0000
# 2 23.9166 79.1638 19.8843 0.0000 0.2373 0.0000
# 3 74.3690 19.8843 186.2303 0.0000 -2.8219 0.0000
# 4 0.0000 0.0000 0.0000 7.2480 0.0000 3.0497
# 5 -0.0962 0.2373 -2.8219 0.0000 32.1412 0.0000
# 6 0.0000 0.0000 0.0000 3.0497 0.0000 59.0319
#
#
#
# Elastic Compliance Matrix: (Units=1/GPa)
#
#
# Indices 1 2 3 4 5 6 
#
# 1 0.009646 -0.001998 -0.003643 0.000000 -0.000276 0.000000
# 2 -0.001998 0.013396 -0.000635 0.000000 -0.000161 0.000000
# 3 -0.003643 -0.000635 0.006901 0.000000 0.000600 0.000000
# 4 0.000000 0.000000 0.000000 0.141035 0.000000 -0.007286
# 5 -0.000276 -0.000161 0.000600 0.000000 0.031166 0.000000
# 6 0.000000 0.000000 0.000000 -0.007286 0.000000 0.017316
#
#
# Mechanical properties :
#
#
# Convention : Reuss Voigt Hill
#
# Bulk Modulus (GPa) = 57.50052 70.93796 64.21924
# Shear Modulus (GPa) = 21.02528 38.61303 29.81915
#
# Velocity S-wave (km/s) = 2.96688 4.02064 3.53326
# Velocity P-wave (km/s) = 5.98409 7.15910 6.59780
#
# Compressibility (1/GPa) = 0.01739115
#
# Stress axis : x y z
#
# Youngs Moduli (GPa) = 103.67023 74.65091 144.90078
#
# Poissons Ratio (x) = 0.14918 0.52785
# Poissons Ratio (y) = 0.20717 0.09197
# Poissons Ratio (z) = 0.37765 0.04738
#
# Static dielectric constant tensor:
#      x y z
#    x 4.622580 0.000000 0.039290 
#    y 0.000000 4.304230 0.000000 
#    z 0.039290 0.000000 3.955540 
# 
# 
# High freq. dielectric constant tensor:
#      x y z
#    x 1.962740 0.000000 0.002190 
#    y 0.000000 1.956800 0.000000 
#    z 0.002190 0.000000 1.925510 
# 
# From -- ./inp_files/227862.got.cif
#   From: 2010.06.25/outbox.cif.g09.slc.cpg/sg15_114_cif.got.tgz:227862.got - 2010.06.28 07:06:18.
