data_PCOD8150454
_publ_section_title
;
Structure prediction by ZEFSAII (Michael W. Deem and Ramdas Pophale) SiO2 
 PCOD8150454
Probable space group: C 2/C
;
_chemical_formula_sum "Si O2"
_cell_formula_units_Z 36
_cell_length_a 16.715846
_cell_length_b 7.629556
_cell_length_c 13.304076
_cell_angle_alpha 90.000000
_cell_angle_beta 72.325559
_cell_angle_gamma 90.000000
_cell_volume 1616.637804
_symmetry_space_group_name_H-M "C 2/C"
_symmetry_group_IT_number 15
_symmetry_cell_setting 'monoclinic'
loop_
_space_group_symop_operation_xyz
x,y,z
-x,y,1/2-z
-x,-y,-z
x,-y,1/2+z
1/2+x,1/2+y,z
1/2-x,1/2+y,1/2-z
1/2-x,1/2-y,-z
1/2+x,1/2-y,1/2+z
loop_
_atom_site_type_symbol
_atom_site_label
_atom_site_fract_x
_atom_site_fract_y
_atom_site_fract_z
Si Si1 0.309643 0.864985 0.543819
Si Si2 0.500000 0.835083 0.750000
Si Si3 0.785736 0.082091 0.764287
Si Si4 0.824384 0.441980 0.847801
Si Si5 0.447120 0.371249 0.091359
O O1 0.250000 0.750000 0.500000
O O2 0.395739 0.767944 0.542792
O O3 0.259078 0.922732 0.661688
O O4 0.330943 0.032929 0.465440
O O5 0.418069 0.954322 0.766651
O O6 0.487616 0.720801 0.856968
O O7 0.784403 0.253017 0.835348
O O8 0.879832 0.031797 0.690978
O O9 0.730747 0.098331 0.682209
O O10 0.500000 0.500000 0.000000
#
# Coordination Sequence:
#
# PCOD8150454 Si02
#       5
#     8   4   8   8   8
#     4  12  24  45  69 108 133 187 247 285 356 436
#     4  10  24  48  62 104 144 176 238 292 362 414
#     4  11  22  46  71 100 142 186 235 289 357 425
#     4  11  23  44  74  99 145 184 236 297 354 427
#     4  11  26  45  70 103 144 185 238 295 361 421
#
# _framework density 22.268439999999998
#
# number of rings (size 3 to 8) (size 9 to 14) (size 15 to 20)
#    0.000    0.889    6.667    0.667    6.222    2.667 
#    8.000    0.000    0.000    0.000    0.000    0.000 
#    0.000    0.000    0.000    0.000    0.000    0.000 
#
# Total GULP energy -223046.354761 kJ/mol
# GULP energy per Si atom -12391.464153 kJ/mol
# Density = 2.221776 g / cm^3
# Si number density = 22.268440 Si / 1000 Ang^3
#
#
#
# Elastic Constant Matrix: (Units=GPa)
#
#
# Indices 1 2 3 4 5 6 
#
# 1 116.6399 44.4471 35.6140 0.0000 7.5969 0.0000
# 2 44.4471 78.7802 51.8630 0.0000 -3.3654 0.0000
# 3 35.6140 51.8630 147.7116 0.0000 2.3316 0.0000
# 4 0.0000 0.0000 0.0000 38.5413 0.0000 6.4690
# 5 7.5969 -3.3654 2.3316 0.0000 44.2980 0.0000
# 6 0.0000 0.0000 0.0000 6.4690 0.0000 39.4814
#
#
#
# Elastic Compliance Matrix: (Units=1/GPa)
#
#
# Indices 1 2 3 4 5 6 
#
# 1 0.011203 -0.006070 -0.000532 0.000000 -0.002354 0.000000
# 2 -0.006070 0.019908 -0.005571 0.000000 0.002847 0.000000
# 3 -0.000532 -0.005571 0.008867 0.000000 -0.000799 0.000000
# 4 0.000000 0.000000 0.000000 0.026680 0.000000 -0.004371
# 5 -0.002354 0.002847 -0.000799 0.000000 0.023236 0.000000
# 6 0.000000 0.000000 0.000000 -0.004371 0.000000 0.026045
#
#
# Mechanical properties :
#
#
# Convention : Reuss Voigt Hill
#
# Bulk Modulus (GPa) = 63.98263 67.44221 65.71242
# Shear Modulus (GPa) = 34.36526 38.54465 36.45496
#
# Velocity S-wave (km/s) = 3.93265 4.16493 4.05046
# Velocity P-wave (km/s) = 7.02964 7.31305 7.17274
#
# Compressibility (1/GPa) = 0.01562924
#
# Stress axis : x y z
#
# Youngs Moduli (GPa) = 89.26565 50.23199 112.77780
#
# Poissons Ratio (x) = 0.30493 0.06005
# Poissons Ratio (y) = 0.54188 0.62830
# Poissons Ratio (z) = 0.04753 0.27985
#
# Static dielectric constant tensor:
#      x y z
#    x 4.066390 0.000000 0.352230 
#    y 0.000000 3.929880 0.000000 
#    z 0.352230 0.000000 4.680620 
# 
# 
# High freq. dielectric constant tensor:
#      x y z
#    x 1.881800 0.000000 0.016010 
#    y 0.000000 1.858140 0.000000 
#    z 0.016010 0.000000 1.900700 
# 
# From -- ./inp_files/102430.got.cif
#   From: 2010.06.25/outbox.cif.g09.slc.cpg/sg15_52_cif.got.tgz:102430.got - 2010.06.28 07:06:18.
