data_PCOD8150059
_publ_section_title
;
Structure prediction by ZEFSAII (Michael W. Deem and Ramdas Pophale) SiO2 
 PCOD8150059
Probable space group: C 2/C
;
_chemical_formula_sum "Si O2"
_cell_formula_units_Z 52
_cell_length_a 12.341306
_cell_length_b 23.914324
_cell_length_c 9.060994
_cell_angle_alpha 90.000000
_cell_angle_beta 72.658016
_cell_angle_gamma 90.000000
_cell_volume 2552.644908
_symmetry_space_group_name_H-M "C 2/C"
_symmetry_group_IT_number 15
_symmetry_cell_setting 'monoclinic'
loop_
_space_group_symop_operation_xyz
x,y,z
-x,y,1/2-z
-x,-y,-z
x,-y,1/2+z
1/2+x,1/2+y,z
1/2-x,1/2+y,1/2-z
1/2-x,1/2-y,-z
1/2+x,1/2-y,1/2+z
loop_
_atom_site_type_symbol
_atom_site_label
_atom_site_fract_x
_atom_site_fract_y
_atom_site_fract_z
Si Si1 0.500000 0.863255 0.250000
Si Si2 0.000000 0.010842 0.250000
Si Si3 0.500000 0.858836 0.750000
Si Si4 0.327570 0.946995 0.759148
Si Si5 0.600623 0.308583 0.097811
Si Si6 0.897214 0.071983 0.012392
Si Si7 0.140653 0.698222 0.934742
Si Si8 0.906103 0.534332 0.947023
O O1 0.411832 0.824217 0.196346
O O2 0.562381 0.902306 0.106541
O O3 0.054818 0.049647 0.352067
O O4 0.912678 0.970207 0.369966
O O5 0.420154 0.899510 0.688714
O O6 0.578292 0.824142 0.606820
O O7 0.235861 0.921585 0.905557
O O8 0.295369 0.963029 0.602562
O O9 0.377929 0.003482 0.807911
O O10 0.500000 0.288920 0.250000
O O11 0.724126 0.315582 0.126463
O O12 0.555882 0.367029 0.046898
O O13 0.618666 0.264918 0.956164
O O14 0.000000 0.500000 0.000000
#
# Coordination Sequence:
#
# PCOD8150059 Si02
#       8
#     4   4   4   8   8   8   8   8
#     4  12  23  41  64 102 137 169 214 276 330 390
#     4  10  24  44  62  94 126 174 224 264 320 392
#     4  12  19  37  64  90 129 163 212 264 332 392
#     4  12  22  35  59  93 128 171 206 259 332 388
#     4  11  24  46  71  93 126 178 224 268 325 392
#     4  11  23  42  66  91 129 170 220 271 320 384
#     4  11  25  43  70  97 128 170 221 271 331 391
#     4  12  21  35  57  93 138 169 202 256 329 405
#
# _framework density 20.371027000000002
#
# number of rings (size 3 to 8) (size 9 to 14) (size 15 to 20)
#    0.000    0.615    7.692    0.923    0.000    1.846 
#    2.769    0.769    0.000    0.000    0.000    0.000 
#    0.000    0.000    0.000    0.000    0.000    0.000 
#
# Total GULP energy -322089.798897 kJ/mol
# GULP energy per Si atom -12388.069188 kJ/mol
# Density = 2.032466 g / cm^3
# Si number density = 20.371027 Si / 1000 Ang^3
#
#
#
# Elastic Constant Matrix: (Units=GPa)
#
#
# Indices 1 2 3 4 5 6 
#
# 1 85.5836 38.9897 46.7695 0.0000 -4.5341 0.0000
# 2 38.9897 117.0245 33.5786 0.0000 15.0792 0.0000
# 3 46.7695 33.5786 135.6419 0.0000 -0.2079 0.0000
# 4 0.0000 0.0000 0.0000 28.6801 0.0000 -2.2880
# 5 -4.5341 15.0792 -0.2079 0.0000 38.6541 0.0000
# 6 0.0000 0.0000 0.0000 -2.2880 0.0000 24.2189
#
#
#
# Elastic Compliance Matrix: (Units=1/GPa)
#
#
# Indices 1 2 3 4 5 6 
#
# 1 0.016482 -0.004676 -0.004520 0.000000 0.003733 0.000000
# 2 -0.004676 0.011055 -0.001132 0.000000 -0.004867 0.000000
# 3 -0.004520 -0.001132 0.009211 0.000000 -0.000039 0.000000
# 4 0.000000 0.000000 0.000000 0.035132 0.000000 0.003319
# 5 0.003733 -0.004867 -0.000039 0.000000 0.028207 0.000000
# 6 0.000000 0.000000 0.000000 0.003319 0.000000 0.041604
#
#
# Mechanical properties :
#
#
# Convention : Reuss Voigt Hill
#
# Bulk Modulus (GPa) = 62.13789 64.10285 63.12037
# Shear Modulus (GPa) = 29.81328 32.90479 31.35903
#
# Velocity S-wave (km/s) = 3.82974 4.02341 3.92777
# Velocity P-wave (km/s) = 7.07991 7.28833 7.18488
#
# Compressibility (1/GPa) = 0.01609324
#
# Stress axis : x y z
#
# Youngs Moduli (GPa) = 60.67079 90.45691 108.56575
#
# Poissons Ratio (x) = 0.42294 0.49071
# Poissons Ratio (y) = 0.28367 0.12290
# Poissons Ratio (z) = 0.27423 0.10240
#
# Static dielectric constant tensor:
#      x y z
#    x 3.627970 0.000000 -0.301580 
#    y 0.000000 3.802410 0.000000 
#    z -0.301580 0.000000 3.968110 
# 
# 
# High freq. dielectric constant tensor:
#      x y z
#    x 1.770520 0.000000 -0.014740 
#    y 0.000000 1.803740 0.000000 
#    z -0.014740 0.000000 1.818020 
# 
# From -- ./inp_files/33524.got.cif
#   From: 2010.06.25/outbox.cif.g09.slc.cpg/sg15_17_cif.got.tgz:33524.got - 2010.06.28 07:06:18.
