data_PCOD8150583
_publ_section_title
;
Structure prediction by ZEFSAII (Michael W. Deem and Ramdas Pophale) SiO2 
 PCOD8150583
Probable space group: C 2/C
;
_chemical_formula_sum "Si O2"
_cell_formula_units_Z 48
_cell_length_a 23.632954
_cell_length_b 5.059574
_cell_length_c 20.027349
_cell_angle_alpha 90.000000
_cell_angle_beta 111.149097
_cell_angle_gamma 90.000000
_cell_volume 2233.426469
_symmetry_space_group_name_H-M "C 2/C"
_symmetry_group_IT_number 15
_symmetry_cell_setting 'monoclinic'
loop_
_space_group_symop_operation_xyz
x,y,z
-x,y,1/2-z
-x,-y,-z
x,-y,1/2+z
1/2+x,1/2+y,z
1/2-x,1/2+y,1/2-z
1/2-x,1/2-y,-z
1/2+x,1/2-y,1/2+z
loop_
_atom_site_type_symbol
_atom_site_label
_atom_site_fract_x
_atom_site_fract_y
_atom_site_fract_z
Si Si1 0.615626 0.844063 0.797034
Si Si2 0.463804 0.401848 0.048995
Si Si3 0.373627 0.591414 0.406594
Si Si4 0.069328 0.587432 0.132882
Si Si5 0.253272 0.104169 0.205219
Si Si6 0.056245 0.161908 0.324285
O O1 0.575572 0.872730 0.714003
O O2 0.686464 0.873103 0.812416
O O3 0.604576 0.561226 0.824914
O O4 0.592845 0.064003 0.839358
O O5 0.497797 0.132183 0.086335
O O6 0.466647 0.613102 0.110099
O O7 0.500000 0.500000 0.000000
O O8 0.394816 0.357947 0.992732
O O9 0.388421 0.295010 0.388677
O O10 0.302166 0.641716 0.369953
O O11 0.410725 0.791445 0.375099
O O12 0.250307 0.318961 0.262300
O O13 0.000000 0.164249 0.250000
#
# Coordination Sequence:
#
# PCOD8150583 Si02
#       6
#     8   8   8   8   8   8
#     4  12  24  40  66  98 133 167 225 267 329 381
#     4  10  25  43  67  97 132 174 219 270 331 396
#     4  11  22  40  64  98 130 169 219 271 323 373
#     4  11  21  39  66  98 129 164 216 275 318 385
#     4  12  22  40  67  97 132 173 225 270 315 389
#     4  12  26  43  65  96 135 173 212 276 334 394
#
# _framework density 21.491641000000001
#
# number of rings (size 3 to 8) (size 9 to 14) (size 15 to 20)
#    0.000    0.667    5.000    3.000    2.333    2.667 
#    0.000    1.667    0.000    0.000    0.000    0.000 
#    0.000    0.000    0.000    0.000    0.000    0.000 
#
# Total GULP energy -297613.672049 kJ/mol
# GULP energy per Si atom -12400.569669 kJ/mol
# Density = 2.144273 g / cm^3
# Si number density = 21.491641 Si / 1000 Ang^3
#
#
#
# Elastic Constant Matrix: (Units=GPa)
#
#
# Indices 1 2 3 4 5 6 
#
# 1 139.5202 21.7956 50.8490 0.0005 16.8076 -0.0006
# 2 21.7956 59.0422 -8.1425 -0.0029 5.8961 0.0014
# 3 50.8490 -8.1425 107.2492 0.0026 25.9729 -0.0016
# 4 0.0005 -0.0029 0.0026 18.3585 -0.0008 -7.0646
# 5 16.8076 5.8961 25.9729 -0.0008 43.0813 0.0006
# 6 -0.0006 0.0014 -0.0016 -7.0646 0.0006 34.1511
#
#
#
# Elastic Compliance Matrix: (Units=1/GPa)
#
#
# Indices 1 2 3 4 5 6 
#
# 1 0.009605 -0.004180 -0.004804 0.000000 -0.000279 0.000000
# 2 -0.004180 0.019443 0.004341 0.000002 -0.003647 0.000000
# 3 -0.004804 0.004341 0.013608 -0.000001 -0.006924 0.000000
# 4 0.000000 0.000002 -0.000001 0.059182 0.000002 0.012242
# 5 -0.000279 -0.003647 -0.006924 0.000002 0.027994 0.000000
# 6 0.000000 0.000000 0.000000 0.012242 0.000000 0.031814
#
#
# Mechanical properties :
#
#
# Convention : Reuss Voigt Hill
#
# Bulk Modulus (GPa) = 29.96605 48.31286 39.13946
# Shear Modulus (GPa) = 27.46424 35.20547 31.33486
#
# Velocity S-wave (km/s) = 3.57866 4.05174 3.82252
# Velocity P-wave (km/s) = 5.57217 6.66464 6.14274
#
# Compressibility (1/GPa) = 0.03337110
#
# Stress axis : x y z
#
# Youngs Moduli (GPa) = 104.11489 51.43195 73.48612
#
# Poissons Ratio (x) = 0.21500 0.35300
# Poissons Ratio (y) = 0.43522 -0.31903
# Poissons Ratio (z) = 0.50013 -0.22329
#
# Static dielectric constant tensor:
#      x y z
#    x 4.044080 0.000000 0.423460 
#    y 0.000000 4.100780 0.000010 
#    z 0.423460 0.000010 4.370630 
# 
# 
# High freq. dielectric constant tensor:
#      x y z
#    x 1.834960 0.000000 0.011180 
#    y 0.000000 1.859270 0.000000 
#    z 0.011180 0.000000 1.836470 
# 
# From -- ./inp_files/217589.got.cif
#   From: 2010.06.25/outbox.cif.g09.slc.cpg/sg15_109_cif.got.tgz:217589.got - 2010.06.28 07:06:18.
