data_PCOD8150308
_publ_section_title
;
Structure prediction by ZEFSAII (Michael W. Deem and Ramdas Pophale) SiO2 
 PCOD8150308
Probable space group: C 2/C
;
_chemical_formula_sum "Si O2"
_cell_formula_units_Z 36
_cell_length_a 7.431622
_cell_length_b 21.352051
_cell_length_c 9.301879
_cell_angle_alpha 90.000000
_cell_angle_beta 108.099985
_cell_angle_gamma 90.000000
_cell_volume 1402.985692
_symmetry_space_group_name_H-M "C 2/C"
_symmetry_group_IT_number 15
_symmetry_cell_setting 'monoclinic'
loop_
_space_group_symop_operation_xyz
x,y,z
-x,y,1/2-z
-x,-y,-z
x,-y,1/2+z
1/2+x,1/2+y,z
1/2-x,1/2+y,1/2-z
1/2-x,1/2-y,-z
1/2+x,1/2-y,1/2+z
loop_
_atom_site_type_symbol
_atom_site_label
_atom_site_fract_x
_atom_site_fract_y
_atom_site_fract_z
Si Si1 0.392338 0.362983 0.395630
Si Si2 0.500000 0.748289 0.750000
Si Si3 0.782352 0.082218 0.150770
Si Si4 0.144752 0.448394 0.156309
Si Si5 0.674491 0.863230 0.915378
O O1 0.358568 0.295609 0.309873
O O2 0.272080 0.370944 0.511492
O O3 0.331009 0.416271 0.268250
O O4 0.611950 0.371252 0.482168
O O5 0.616032 0.790431 0.893651
O O6 0.653925 0.112240 0.245413
O O7 0.000000 0.074569 0.250000
O O8 0.701830 0.013281 0.093247
O O9 0.000000 0.458557 0.250000
O O10 0.056966 0.404429 0.005227
#
# Coordination Sequence:
#
# PCOD8150308 Si02
#       5
#     8   4   8   8   8
#     4  11  24  48  73 104 142 192 235 288 355 421
#     4  12  26  46  76 100 146 190 248 286 336 426
#     4  10  24  45  75 108 141 185 234 292 365 424
#     4  12  26  44  76 111 143 180 236 297 362 420
#     4  11  25  47  73 105 145 191 233 295 351 419
#
# _framework density 25.659565000000001
#
# number of rings (size 3 to 8) (size 9 to 14) (size 15 to 20)
#    0.000    0.889    2.222    3.333    4.667    6.222 
#    0.000    0.000    0.000    0.000    0.000    0.000 
#    0.000    0.000    0.000    0.000    0.000    0.000 
#
# Total GULP energy -223211.066315 kJ/mol
# GULP energy per Si atom -12400.614795 kJ/mol
# Density = 2.560116 g / cm^3
# Si number density = 25.659565 Si / 1000 Ang^3
#
#
#
# Elastic Constant Matrix: (Units=GPa)
#
#
# Indices 1 2 3 4 5 6 
#
# 1 87.2741 66.9754 58.1803 0.0000 -29.8672 0.0000
# 2 66.9754 200.5639 84.6453 0.0000 -23.1297 0.0000
# 3 58.1803 84.6453 178.7151 0.0000 -35.4581 0.0000
# 4 0.0000 0.0000 0.0000 65.1293 0.0000 -0.6550
# 5 -29.8672 -23.1297 -35.4581 0.0000 47.3961 0.0000
# 6 0.0000 0.0000 0.0000 -0.6550 0.0000 26.7056
#
#
#
# Elastic Compliance Matrix: (Units=1/GPa)
#
#
# Indices 1 2 3 4 5 6 
#
# 1 0.019364 -0.004437 -0.002596 0.000000 0.008095 0.000000
# 2 -0.004437 0.007287 -0.002180 0.000000 -0.000871 0.000000
# 3 -0.002596 -0.002180 0.008147 0.000000 0.003395 0.000000
# 4 0.000000 0.000000 0.000000 0.015358 0.000000 0.000377
# 5 0.008095 -0.000871 0.003395 0.000000 0.028315 0.000000
# 6 0.000000 0.000000 0.000000 0.000377 0.000000 0.037455
#
#
# Mechanical properties :
#
#
# Convention : Reuss Voigt Hill
#
# Bulk Modulus (GPa) = 61.08046 98.46167 79.77107
# Shear Modulus (GPa) = 35.76302 44.96300 40.36301
#
# Velocity S-wave (km/s) = 3.73735 4.19058 3.97043
# Velocity P-wave (km/s) = 6.51763 7.86576 7.22322
#
# Compressibility (1/GPa) = 0.01637185
#
# Stress axis : x y z
#
# Youngs Moduli (GPa) = 51.64114 137.22759 122.74965
#
# Poissons Ratio (x) = 0.60890 0.31870
# Poissons Ratio (y) = 0.22914 0.26755
# Poissons Ratio (z) = 0.13408 0.29911
#
# Static dielectric constant tensor:
#      x y z
#    x 4.939020 0.000000 0.009960 
#    y 0.000000 4.587890 0.000000 
#    z 0.009960 0.000000 5.380470 
# 
# 
# High freq. dielectric constant tensor:
#      x y z
#    x 2.053730 0.000000 0.018770 
#    y 0.000000 2.012860 0.000000 
#    z 0.018770 0.000000 2.060640 
# 
# From -- ./inp_files/22516.got.cif
#   From: 2010.06.25/outbox.cif.g09.slc.cpg/sg15_12_cif.got.tgz:22516.got - 2010.06.28 07:06:18.
