data_PCOD8150717
_publ_section_title
;
Structure prediction by ZEFSAII (Michael W. Deem and Ramdas Pophale) SiO2 
 PCOD8150717
Probable space group: C 2/C
;
_chemical_formula_sum "Si O2"
_cell_formula_units_Z 56
_cell_length_a 16.697535
_cell_length_b 5.620942
_cell_length_c 27.951896
_cell_angle_alpha 90.000000
_cell_angle_beta 70.179041
_cell_angle_gamma 90.000000
_cell_volume 2468.028110
_symmetry_space_group_name_H-M "C 2/C"
_symmetry_group_IT_number 15
_symmetry_cell_setting 'monoclinic'
loop_
_space_group_symop_operation_xyz
x,y,z
-x,y,1/2-z
-x,-y,-z
x,-y,1/2+z
1/2+x,1/2+y,z
1/2-x,1/2+y,1/2-z
1/2-x,1/2-y,-z
1/2+x,1/2-y,1/2+z
loop_
_atom_site_type_symbol
_atom_site_label
_atom_site_fract_x
_atom_site_fract_y
_atom_site_fract_z
Si Si1 0.915117 0.068737 0.946578
Si Si2 0.203365 0.832387 0.461688
Si Si3 0.000989 0.680219 0.629399
Si Si4 0.844082 0.387255 0.884389
Si Si5 0.140388 0.775238 0.769687
Si Si6 0.681545 0.229175 0.215300
Si Si7 0.943673 0.407610 0.554521
O O1 0.847978 0.230035 0.931487
O O2 0.009096 0.171146 0.936453
O O3 0.928726 0.843322 0.910133
O O4 0.870617 0.015174 0.006537
O O5 0.250000 0.750000 0.500000
O O6 0.268791 0.926498 0.409301
O O7 0.152729 0.624714 0.444089
O O8 0.943793 0.801079 0.681197
O O9 0.938533 0.581707 0.600862
O O10 0.060668 0.486908 0.643146
O O11 0.819564 0.248102 0.841548
O O12 0.222044 0.772978 0.786825
O O13 0.137480 0.523229 0.740750
O O14 0.137428 0.022553 0.740555
O O15 0.000000 0.500000 0.500000
#
# Coordination Sequence:
#
# PCOD8150717 Si02
#       7
#     8   8   8   8   8   8   8
#     4  11  24  44  64  98 143 182 232 280 352 430
#     4  12  23  43  68 100 146 182 229 293 345 423
#     4  11  25  45  68 100 138 183 233 290 357 431
#     4  11  26  43  68 104 137 187 236 293 358 425
#     4  10  25  47  75 102 141 183 236 302 360 429
#     4  10  25  48  73 106 136 182 245 297 360 427
#     4  11  24  42  67  99 138 184 236 283 351 428
#
# _framework density 22.690182
#
# number of rings (size 3 to 8) (size 9 to 14) (size 15 to 20)
#    0.000    1.143    2.857    1.714    8.000    4.000 
#    0.000    0.000    0.000    0.000    0.000    0.000 
#    0.000    0.000    0.000    0.000    0.000    0.000 
#
# Total GULP energy -347035.590653 kJ/mol
# GULP energy per Si atom -12394.128238 kJ/mol
# Density = 2.263854 g / cm^3
# Si number density = 22.690182 Si / 1000 Ang^3
#
#
#
# Elastic Constant Matrix: (Units=GPa)
#
#
# Indices 1 2 3 4 5 6 
#
# 1 88.3535 23.5853 34.7094 0.0003 -5.5971 0.0039
# 2 23.5853 107.0347 31.7387 0.0040 -7.8986 0.0070
# 3 34.7094 31.7387 109.1413 -0.0001 -20.0803 0.0006
# 4 0.0003 0.0040 -0.0001 38.1024 0.0006 -1.1110
# 5 -5.5971 -7.8986 -20.0803 0.0006 30.3638 0.0012
# 6 0.0039 0.0070 0.0006 -1.1110 0.0012 25.7749
#
#
#
# Elastic Compliance Matrix: (Units=1/GPa)
#
#
# Indices 1 2 3 4 5 6 
#
# 1 0.013261 -0.001840 -0.003780 0.000000 -0.000534 -0.000001
# 2 -0.001840 0.010497 -0.002308 -0.000001 0.000865 -0.000003
# 3 -0.003780 -0.002308 0.012293 0.000000 0.006832 0.000001
# 4 0.000000 -0.000001 0.000000 0.026278 -0.000001 0.001133
# 5 -0.000534 0.000865 0.006832 -0.000001 0.037579 -0.000002
# 6 -0.000001 -0.000003 0.000001 0.001133 -0.000002 0.038846
#
#
# Mechanical properties :
#
#
# Convention : Reuss Voigt Hill
#
# Bulk Modulus (GPa) = 49.52318 53.84402 51.68360
# Shear Modulus (GPa) = 30.99014 33.14797 32.06905
#
# Velocity S-wave (km/s) = 3.69968 3.82631 3.76353
# Velocity P-wave (km/s) = 6.33430 6.58046 6.45855
#
# Compressibility (1/GPa) = 0.02019256
#
# Stress axis : x y z
#
# Youngs Moduli (GPa) = 75.41076 95.26966 81.34794
#
# Poissons Ratio (x) = 0.17534 0.30752
# Poissons Ratio (y) = 0.13879 0.18775
# Poissons Ratio (z) = 0.28508 0.21988
#
# Static dielectric constant tensor:
#      x y z
#    x 4.362240 0.000000 0.133880 
#    y 0.000000 4.378860 0.000000 
#    z 0.133880 0.000000 4.039430 
# 
# 
# High freq. dielectric constant tensor:
#      x y z
#    x 1.905370 0.000000 0.007340 
#    y 0.000000 1.894420 0.000000 
#    z 0.007340 0.000000 1.891540 
# 
# From -- ./inp_files/297709.got.cif
#   From: 2010.06.25/outbox.cif.g09.slc.cpg/sg15_149_cif.got.tgz:297709.got - 2010.06.28 07:06:18.
