data_PCOD8150205
_publ_section_title
;
Structure prediction by ZEFSAII (Michael W. Deem and Ramdas Pophale) SiO2 
 PCOD8150205
Probable space group: C 2/C
;
_chemical_formula_sum "Si O2"
_cell_formula_units_Z 48
_cell_length_a 8.560495
_cell_length_b 30.128588
_cell_length_c 8.946551
_cell_angle_alpha 90.000000
_cell_angle_beta 88.325628
_cell_angle_gamma 90.000000
_cell_volume 2306.470095
_symmetry_space_group_name_H-M "C 2/C"
_symmetry_group_IT_number 15
_symmetry_cell_setting 'monoclinic'
loop_
_space_group_symop_operation_xyz
x,y,z
-x,y,1/2-z
-x,-y,-z
x,-y,1/2+z
1/2+x,1/2+y,z
1/2-x,1/2+y,1/2-z
1/2-x,1/2-y,-z
1/2+x,1/2-y,1/2+z
loop_
_atom_site_type_symbol
_atom_site_label
_atom_site_fract_x
_atom_site_fract_y
_atom_site_fract_z
Si Si1 0.793419 0.300802 0.504792
Si Si2 0.500000 0.843469 0.250000
Si Si3 0.404067 0.466952 0.106334
Si Si4 0.692473 0.115319 0.997829
Si Si5 0.609495 0.023279 0.111673
Si Si6 0.500000 0.834831 0.750000
Si Si7 0.465688 0.369638 0.076570
O O1 0.750000 0.250000 0.500000
O O2 0.641405 0.331693 0.492274
O O3 0.912478 0.311719 0.368274
O O4 0.872976 0.305827 0.665055
O O5 0.376792 0.874626 0.165466
O O6 0.500000 0.457490 0.250000
O O7 0.238782 0.487646 0.159184
O O8 0.383686 0.417260 0.038883
O O9 0.500000 0.500000 0.000000
O O10 0.867198 0.133690 0.009833
O O11 0.697879 0.062839 0.024778
O O12 0.584974 0.135127 0.127599
O O13 0.500000 0.039891 0.250000
O O14 0.500000 0.000000 0.000000
O O15 0.500000 0.361532 0.250000
#
# Coordination Sequence:
#
# PCOD8150205 Si02
#       7
#     8   4   8   8   8   4   8
#     4  11  26  46  73 102 136 177 227 284 353 418
#     4  10  24  44  73  96 138 176 225 282 342 422
#     4  11  24  42  62  94 130 173 225 278 325 396
#     4  11  23  45  66 101 137 182 229 281 347 411
#     4  12  27  40  64  98 139 183 231 280 340 405
#     4  10  26  44  67 104 138 168 225 290 344 406
#     4  11  24  43  71  97 134 182 233 277 344 415
#
# _framework density 20.811021
#
# number of rings (size 3 to 8) (size 9 to 14) (size 15 to 20)
#    0.000    1.000    4.167    1.000    9.333    3.333 
#    0.000    3.333    0.000    0.000    0.000    0.000 
#    0.000    0.000    0.000    0.000    0.000    0.000 
#
# Total GULP energy -297620.639033 kJ/mol
# GULP energy per Si atom -12400.859960 kJ/mol
# Density = 2.076365 g / cm^3
# Si number density = 20.811021 Si / 1000 Ang^3
#
#
#
# Elastic Constant Matrix: (Units=GPa)
#
#
# Indices 1 2 3 4 5 6 
#
# 1 137.6378 61.6825 26.9657 0.0000 14.0723 0.0000
# 2 61.6825 152.9330 34.5468 0.0000 21.3627 0.0000
# 3 26.9657 34.5468 86.0470 0.0000 16.5203 0.0000
# 4 0.0000 0.0000 0.0000 21.7004 0.0000 1.3394
# 5 14.0723 21.3627 16.5203 0.0000 37.9128 0.0000
# 6 0.0000 0.0000 0.0000 1.3394 0.0000 35.0467
#
#
#
# Elastic Compliance Matrix: (Units=1/GPa)
#
#
# Indices 1 2 3 4 5 6 
#
# 1 0.009073 -0.003216 -0.001368 0.000000 -0.000959 0.000000
# 2 -0.003216 0.008669 -0.001925 0.000000 -0.002852 0.000000
# 3 -0.001368 -0.001925 0.013660 0.000000 -0.004360 0.000000
# 4 0.000000 0.000000 0.000000 0.046191 0.000000 -0.001765
# 5 -0.000959 -0.002852 -0.004360 0.000000 0.030239 0.000000
# 6 0.000000 0.000000 0.000000 -0.001765 0.000000 0.028601
#
#
# Mechanical properties :
#
#
# Convention : Reuss Voigt Hill
#
# Bulk Modulus (GPa) = 54.39535 69.22309 61.80922
# Shear Modulus (GPa) = 32.13779 35.82685 33.98232
#
# Velocity S-wave (km/s) = 3.93398 4.15364 4.04530
# Velocity P-wave (km/s) = 6.84320 7.50590 7.18220
#
# Compressibility (1/GPa) = 0.01838393
#
# Stress axis : x y z
#
# Youngs Moduli (GPa) = 110.21786 115.34856 73.20559
#
# Poissons Ratio (x) = 0.37101 0.10013
# Poissons Ratio (y) = 0.35451 0.14093
# Poissons Ratio (z) = 0.15075 0.22205
#
# Static dielectric constant tensor:
#      x y z
#    x 3.927560 0.000000 0.170410 
#    y 0.000000 3.354810 0.000000 
#    z 0.170410 0.000000 3.669320 
# 
# 
# High freq. dielectric constant tensor:
#      x y z
#    x 1.833400 0.000000 -0.003950 
#    y 0.000000 1.810020 0.000000 
#    z -0.003950 0.000000 1.818330 
# 
# From -- ./inp_files/26167.got.cif
#   From: 2010.06.25/outbox.cif.g09.slc.cpg/sg15_14_cif.got.tgz:26167.got - 2010.06.28 07:06:18.
