data_PCOD8150035
_publ_section_title
;
Structure prediction by ZEFSAII (Michael W. Deem and Ramdas Pophale) SiO2 
 PCOD8150035
Probable space group: C 2/C
;
_chemical_formula_sum "Si O2"
_cell_formula_units_Z 44
_cell_length_a 12.008774
_cell_length_b 30.159055
_cell_length_c 5.421723
_cell_angle_alpha 90.000000
_cell_angle_beta 95.822579
_cell_angle_gamma 90.000000
_cell_volume 1953.472571
_symmetry_space_group_name_H-M "C 2/C"
_symmetry_group_IT_number 15
_symmetry_cell_setting 'monoclinic'
loop_
_space_group_symop_operation_xyz
x,y,z
-x,y,1/2-z
-x,-y,-z
x,-y,1/2+z
1/2+x,1/2+y,z
1/2-x,1/2+y,1/2-z
1/2-x,1/2-y,-z
1/2+x,1/2-y,1/2+z
loop_
_atom_site_type_symbol
_atom_site_label
_atom_site_fract_x
_atom_site_fract_y
_atom_site_fract_z
Si Si1 0.372674 0.983236 0.926311
Si Si2 0.679486 0.722668 0.677710
Si Si3 0.694551 0.112382 0.049680
Si Si4 0.566140 0.637036 0.516190
Si Si5 0.856446 0.310023 0.583720
Si Si6 0.000000 0.648686 0.750000
O O1 0.353121 0.932400 0.836832
O O2 0.315500 0.009650 0.683118
O O3 0.500000 0.000000 0.000000
O O4 0.750000 0.750000 0.500000
O O5 0.589980 0.689955 0.531528
O O6 0.619640 0.759850 0.827303
O O7 0.760328 0.690610 0.853091
O O8 0.687321 0.154935 0.226132
O O9 0.820243 0.108058 0.975842
O O10 0.610778 0.119315 0.801388
O O11 0.500000 0.622334 0.750000
O O12 0.500000 0.627009 0.250000
O O13 0.977468 0.322629 0.492591
#
# Coordination Sequence:
#
# PCOD8150035 Si02
#       6
#     8   8   8   8   8   4
#     4  10  24  43  72 110 145 184 220 298 388 468
#     4  11  23  46  65  97 146 200 266 305 373 423
#     4  12  26  46  72 108 150 186 252 302 388 465
#     4  12  28  48  73 101 146 209 255 311 354 441
#     4  11  24  41  67 102 145 198 246 312 379 442
#     4  12  24  40  70 102 140 196 236 324 384 434
#
# _framework density 22.523990999999999
#
# number of rings (size 3 to 8) (size 9 to 14) (size 15 to 20)
#    0.000    0.727    3.636    2.727   10.182    2.909 
#    1.636    0.000    0.000    3.273    0.000    0.000 
#    0.000    0.000    0.000    0.000    0.000    0.000 
#
# Total GULP energy -272650.854852 kJ/mol
# GULP energy per Si atom -12393.220675 kJ/mol
# Density = 2.247272 g / cm^3
# Si number density = 22.523991 Si / 1000 Ang^3
#
#
#
# Elastic Constant Matrix: (Units=GPa)
#
#
# Indices 1 2 3 4 5 6 
#
# 1 134.6330 32.0669 44.3974 0.0000 -1.6750 0.0000
# 2 32.0669 97.4147 17.2645 0.0000 8.3095 0.0000
# 3 44.3974 17.2645 136.9332 0.0000 -0.7469 0.0000
# 4 0.0000 0.0000 0.0000 24.7131 0.0000 -4.6847
# 5 -1.6750 8.3095 -0.7469 0.0000 38.2438 0.0000
# 6 0.0000 0.0000 0.0000 -4.6847 0.0000 28.1879
#
#
#
# Elastic Compliance Matrix: (Units=1/GPa)
#
#
# Indices 1 2 3 4 5 6 
#
# 1 0.008889 -0.002549 -0.002556 0.000000 0.000893 0.000000
# 2 -0.002549 0.011439 -0.000630 0.000000 -0.002609 0.000000
# 3 -0.002556 -0.000630 0.008212 0.000000 0.000185 0.000000
# 4 0.000000 0.000000 0.000000 0.041781 0.000000 0.006944
# 5 0.000893 -0.002609 0.000185 0.000000 0.026758 0.000000
# 6 0.000000 0.000000 0.000000 0.006944 0.000000 0.036630
#
#
# Mechanical properties :
#
#
# Convention : Reuss Voigt Hill
#
# Bulk Modulus (GPa) = 58.58331 61.82651 60.20491
# Shear Modulus (GPa) = 33.14168 36.57909 34.86039
#
# Velocity S-wave (km/s) = 3.84004 4.03427 3.93835
# Velocity P-wave (km/s) = 6.76217 7.01493 6.88971
#
# Compressibility (1/GPa) = 0.01706971
#
# Stress axis : x y z
#
# Youngs Moduli (GPa) = 112.50295 87.42213 121.77488
#
# Poissons Ratio (x) = 0.22286 0.31122
# Poissons Ratio (y) = 0.28679 0.07671
# Poissons Ratio (z) = 0.28752 0.05507
#
# Static dielectric constant tensor:
#      x y z
#    x 4.149680 0.000000 -0.747210 
#    y 0.000000 4.117100 0.000000 
#    z -0.747210 0.000000 8.104670 
# 
# 
# High freq. dielectric constant tensor:
#      x y z
#    x 1.871780 0.000000 -0.002920 
#    y 0.000000 1.867380 0.000000 
#    z -0.002920 0.000000 1.909910 
# 
# From -- ./inp_files/5878.got.cif
#   From: 2010.06.25/outbox.cif.g09.slc.cpg/sg15_3_cif.got.tgz:5878.got - 2010.06.28 07:06:18.
