data_PCOD8150874
_publ_section_title
;
Structure prediction by ZEFSAII (Michael W. Deem and Ramdas Pophale) SiO2 
 PCOD8150874
Probable space group: C 2/C
;
_chemical_formula_sum "Si O2"
_cell_formula_units_Z 56
_cell_length_a 16.689955
_cell_length_b 21.795704
_cell_length_c 8.504685
_cell_angle_alpha 90.000000
_cell_angle_beta 119.595773
_cell_angle_gamma 90.000000
_cell_volume 2690.106991
_symmetry_space_group_name_H-M "C 2/C"
_symmetry_group_IT_number 15
_symmetry_cell_setting 'monoclinic'
loop_
_space_group_symop_operation_xyz
x,y,z
-x,y,1/2-z
-x,-y,-z
x,-y,1/2+z
1/2+x,1/2+y,z
1/2-x,1/2+y,1/2-z
1/2-x,1/2-y,-z
1/2+x,1/2-y,1/2+z
loop_
_atom_site_type_symbol
_atom_site_label
_atom_site_fract_x
_atom_site_fract_y
_atom_site_fract_z
Si Si1 0.653899 0.212714 0.414244
Si Si2 0.097610 0.946257 0.391763
Si Si3 0.714606 0.921423 0.060622
Si Si4 0.000000 0.176031 0.250000
Si Si5 0.000000 0.623362 0.750000
Si Si6 0.134681 0.926386 0.791554
Si Si7 0.506904 0.225065 0.011232
Si Si8 0.321579 0.951617 0.113298
O O1 0.750000 0.250000 0.500000
O O2 0.667950 0.141951 0.470040
O O3 0.584293 0.240778 0.475814
O O4 0.601041 0.215120 0.198045
O O5 0.175635 0.914842 0.360218
O O6 0.117970 0.937399 0.593003
O O7 0.000000 0.915674 0.250000
O O8 0.092518 0.018803 0.354048
O O9 0.696959 0.938961 0.222709
O O10 0.674379 0.975012 0.909599
O O11 0.089826 0.136514 0.302100
O O12 0.027337 0.216747 0.424359
O O13 0.013857 0.664390 0.609263
O O14 0.914234 0.578904 0.643352
O O15 0.243063 0.921348 0.928810
#
# Coordination Sequence:
#
# PCOD8150874 Si02
#       8
#     8   8   8   4   4   8   8   8
#     4  11  26  48  73  97 139 183 230 289 345 403
#     4  11  23  40  67 104 146 180 217 283 355 425
#     4  11  25  44  69 107 140 177 233 286 352 422
#     4  11  26  42  70 100 134 185 230 276 342 413
#     4  11  24  46  74  94 142 181 232 296 354 393
#     4  11  24  41  67 103 145 181 223 281 349 422
#     4  10  26  48  67 102 131 180 243 284 332 419
#     4  11  25  43  69 107 140 180 227 288 358 413
#
# _framework density 20.817017
#
# number of rings (size 3 to 8) (size 9 to 14) (size 15 to 20)
#    0.000    1.143    2.143    3.857   10.000    1.714 
#    0.000    2.857    0.000    0.000    0.000    0.000 
#    0.000    0.000    0.000    0.000    0.000    0.000 
#
# Total GULP energy -347281.882522 kJ/mol
# GULP energy per Si atom -12402.924376 kJ/mol
# Density = 2.076964 g / cm^3
# Si number density = 20.817017 Si / 1000 Ang^3
#
#
#
# Elastic Constant Matrix: (Units=GPa)
#
#
# Indices 1 2 3 4 5 6 
#
# 1 122.1885 39.4320 65.6019 0.0000 11.2884 0.0000
# 2 39.4320 94.6986 60.5126 0.0000 -3.6006 0.0000
# 3 65.6019 60.5126 153.4549 0.0000 3.3528 0.0000
# 4 0.0000 0.0000 0.0000 -10.0526 0.0000 26.6832
# 5 11.2884 -3.6006 3.3528 0.0000 40.7200 0.0000
# 6 0.0000 0.0000 0.0000 26.6832 0.0000 17.8714
#
#
#
# Elastic Compliance Matrix: (Units=1/GPa)
#
#
# Indices 1 2 3 4 5 6 
#
# 1 0.011280 -0.002370 -0.003822 0.000000 -0.003022 0.000000
# 2 -0.002370 0.014735 -0.004849 0.000000 0.002359 0.000000
# 3 -0.003822 -0.004849 0.010067 0.000000 -0.000198 0.000000
# 4 0.000000 0.000000 0.000000 -0.020043 0.000000 0.029926
# 5 -0.003022 0.002359 -0.000198 0.000000 0.025621 0.000000
# 6 0.000000 0.000000 0.000000 0.029926 0.000000 0.011274
#
#
# Mechanical properties :
#
#
# Convention : Reuss Voigt Hill
#
# Bulk Modulus (GPa) = 71.42467 77.93720 74.68094
# Shear Modulus (GPa) = 62.75083 23.36079 43.05581
#
# Velocity S-wave (km/s) = 5.49631 3.35356 4.55279
# Velocity P-wave (km/s) = 8.64086 7.24676 7.97433
#
# Compressibility (1/GPa) = 0.01400077
#
# Stress axis : x y z
#
# Youngs Moduli (GPa) = 88.65417 67.86697 99.33716
#
# Poissons Ratio (x) = 0.16083 0.37963
# Poissons Ratio (y) = 0.21009 0.48168
# Poissons Ratio (z) = 0.33880 0.32908
#
# Static dielectric constant tensor:
#      x y z
#    x 3.959160 0.000000 0.011080 
#    y 0.000000 3.895340 0.000000 
#    z 0.011080 0.000000 3.950340 
# 
# 
# High freq. dielectric constant tensor:
#      x y z
#    x 1.828470 0.000000 -0.002890 
#    y 0.000000 1.814000 0.000000 
#    z -0.002890 0.000000 1.827260 
# 
# From -- ./inp_files/50385.got.cif
#   From: 2010.06.25/outbox.cif.g09.slc.cpg/sg15_26_cif.got.tgz:50385.got - 2010.06.28 07:06:18.
