data_PCOD8150341
_publ_section_title
;
Structure prediction by ZEFSAII (Michael W. Deem and Ramdas Pophale) SiO2 
 PCOD8150341
Probable space group: C 2/C
;
_chemical_formula_sum "Si O2"
_cell_formula_units_Z 52
_cell_length_a 11.458616
_cell_length_b 13.226902
_cell_length_c 17.605487
_cell_angle_alpha 90.000000
_cell_angle_beta 67.105970
_cell_angle_gamma 90.000000
_cell_volume 2458.128066
_symmetry_space_group_name_H-M "C 2/C"
_symmetry_group_IT_number 15
_symmetry_cell_setting 'monoclinic'
loop_
_space_group_symop_operation_xyz
x,y,z
-x,y,1/2-z
-x,-y,-z
x,-y,1/2+z
1/2+x,1/2+y,z
1/2-x,1/2+y,1/2-z
1/2-x,1/2-y,-z
1/2+x,1/2-y,1/2+z
loop_
_atom_site_type_symbol
_atom_site_label
_atom_site_fract_x
_atom_site_fract_y
_atom_site_fract_z
Si Si1 0.802270 0.206102 0.630292
Si Si2 0.601238 0.562247 0.019682
Si Si3 0.356360 0.108152 0.702663
Si Si4 0.929897 0.294039 0.898919
Si Si5 0.000000 0.563661 0.250000
Si Si6 0.955372 0.206505 0.339871
Si Si7 0.750546 0.608713 0.565497
O O1 0.817826 0.123690 0.561097
O O2 0.758564 0.154422 0.719714
O O3 0.695243 0.280292 0.625662
O O4 0.926722 0.271434 0.613727
O O5 0.517815 0.634023 0.095995
O O6 0.695685 0.492790 0.043343
O O7 0.500000 0.500000 0.000000
O O8 0.473346 0.186433 0.668535
O O9 0.307088 0.080341 0.632359
O O10 0.400489 0.004306 0.729609
O O11 0.922115 0.366094 0.827755
O O12 0.860810 0.189838 0.896153
O O13 0.863501 0.348487 0.986010
O O14 0.000000 0.153961 0.250000
#
# Coordination Sequence:
#
# PCOD8150341 Si02
#       7
#     8   8   8   8   4   8   8
#     4  11  22  47  70  97 139 177 225 279 339 401
#     4  12  25  44  70 100 137 182 227 276 337 406
#     4  11  24  46  70  99 136 174 229 283 340 405
#     4  11  25  45  70  99 140 181 219 286 337 398
#     4  12  24  46  70 102 132 178 226 280 346 402
#     4  10  24  46  69 100 134 180 223 285 339 400
#     4  11  26  45  67 102 138 179 228 274 338 408
#
# _framework density 21.154309000000001
#
# number of rings (size 3 to 8) (size 9 to 14) (size 15 to 20)
#    0.000    0.923    3.846    3.231    4.308    1.846 
#    4.154    0.000    0.000    0.000    0.000    0.000 
#    0.000    0.000    0.000    0.000    0.000    0.000 
#
# Total GULP energy -322548.630760 kJ/mol
# GULP energy per Si atom -12405.716568 kJ/mol
# Density = 2.110616 g / cm^3
# Si number density = 21.154309 Si / 1000 Ang^3
#
#
#
# Elastic Constant Matrix: (Units=GPa)
#
#
# Indices 1 2 3 4 5 6 
#
# 1 136.2358 56.0802 73.2319 0.0000 4.1535 0.0000
# 2 56.0802 117.9560 68.4050 0.0000 3.5200 0.0000
# 3 73.2319 68.4050 140.7642 0.0000 14.0908 0.0000
# 4 0.0000 0.0000 0.0000 52.2912 0.0000 16.3409
# 5 4.1535 3.5200 14.0908 0.0000 43.3675 0.0000
# 6 0.0000 0.0000 0.0000 16.3409 0.0000 19.5024
#
#
#
# Elastic Compliance Matrix: (Units=1/GPa)
#
#
# Indices 1 2 3 4 5 6 
#
# 1 0.010747 -0.002576 -0.004401 0.000000 0.000610 0.000000
# 2 -0.002576 0.012459 -0.004794 0.000000 0.000793 0.000000
# 3 -0.004401 -0.004794 0.012033 0.000000 -0.003099 0.000000
# 4 0.000000 0.000000 0.000000 0.025907 0.000000 -0.021707
# 5 0.000610 0.000793 -0.003099 0.000000 0.023943 0.000000
# 6 0.000000 0.000000 0.000000 -0.021707 0.000000 0.069464
#
#
# Mechanical properties :
#
#
# Convention : Reuss Voigt Hill
#
# Bulk Modulus (GPa) = 85.47662 87.82116 86.64889
# Shear Modulus (GPa) = 27.47352 36.18148 31.82750
#
# Velocity S-wave (km/s) = 3.60769 4.14014 3.88305
# Velocity P-wave (km/s) = 7.60578 8.02863 7.82006
#
# Compressibility (1/GPa) = 0.01169911
#
# Stress axis : x y z
#
# Youngs Moduli (GPa) = 93.04539 80.26549 83.10372
#
# Poissons Ratio (x) = 0.20676 0.36570
# Poissons Ratio (y) = 0.23968 0.39837
# Poissons Ratio (z) = 0.40945 0.38476
#
# Static dielectric constant tensor:
#      x y z
#    x 3.797000 0.000000 0.052380 
#    y 0.000000 3.747720 0.000000 
#    z 0.052380 0.000000 4.091170 
# 
# 
# High freq. dielectric constant tensor:
#      x y z
#    x 1.834470 0.000000 0.002900 
#    y 0.000000 1.831930 0.000000 
#    z 0.002900 0.000000 1.850770 
# 
# From -- ./inp_files/144164.got.cif
#   From: 2010.06.25/outbox.cif.g09.slc.cpg/sg15_73_cif.got.tgz:144164.got - 2010.06.28 07:06:18.
