data_PCOD8150923
_publ_section_title
;
Structure prediction by ZEFSAII (Michael W. Deem and Ramdas Pophale) SiO2 
 PCOD8150923
Probable space group: C 2/C
;
_chemical_formula_sum "Si O2"
_cell_formula_units_Z 32
_cell_length_a 5.064005
_cell_length_b 17.325731
_cell_length_c 14.863397
_cell_angle_alpha 90.000000
_cell_angle_beta 95.469073
_cell_angle_gamma 90.000000
_cell_volume 1298.142167
_symmetry_space_group_name_H-M "C 2/C"
_symmetry_group_IT_number 15
_symmetry_cell_setting 'monoclinic'
loop_
_space_group_symop_operation_xyz
x,y,z
-x,y,1/2-z
-x,-y,-z
x,-y,1/2+z
1/2+x,1/2+y,z
1/2-x,1/2+y,1/2-z
1/2-x,1/2-y,-z
1/2+x,1/2-y,1/2+z
loop_
_atom_site_type_symbol
_atom_site_label
_atom_site_fract_x
_atom_site_fract_y
_atom_site_fract_z
Si Si1 0.000000 0.628494 0.750000
Si Si2 0.000000 0.236243 0.750000
Si Si3 0.380478 0.067089 0.934296
Si Si4 0.511457 0.462601 0.649202
Si Si5 0.997373 0.634258 0.106871
O O1 0.250359 0.682858 0.752703
O O2 0.979135 0.576617 0.658670
O O3 0.043173 0.287002 0.840855
O O4 0.073811 0.039411 0.910482
O O5 0.414686 0.144126 0.997702
O O6 0.500000 0.000000 0.000000
O O7 0.500000 0.492502 0.750000
O O8 0.804206 0.432800 0.638167
O O9 0.300344 0.393050 0.628239
#
# Coordination Sequence:
#
# PCOD8150923 Si02
#       5
#     4   4   8   8   8
#     4  12  30  47  70 109 142 192 234 302 348 426
#     4  12  26  47  74  99 152 194 244 274 348 440
#     4  10  27  45  74 106 146 177 242 303 366 413
#     4  11  21  39  75 105 140 178 237 295 361 408
#     4  11  23  45  71 106 136 197 230 287 350 428
#
# _framework density 24.650611999999999
#
# number of rings (size 3 to 8) (size 9 to 14) (size 15 to 20)
#    0.000    1.000    2.500    2.250    8.750    6.000 
#    0.000    0.000    0.000    0.000    0.000    0.000 
#    0.000    0.000    0.000    0.000    0.000    0.000 
#
# Total GULP energy -198237.998036 kJ/mol
# GULP energy per Si atom -12389.874877 kJ/mol
# Density = 2.459451 g / cm^3
# Si number density = 24.650612 Si / 1000 Ang^3
#
#
#
# Elastic Constant Matrix: (Units=GPa)
#
#
# Indices 1 2 3 4 5 6 
#
# 1 98.0018 36.8786 26.7851 0.0000 0.6660 0.0000
# 2 36.8786 101.9442 63.5338 0.0000 6.3039 0.0000
# 3 26.7851 63.5338 213.8028 0.0000 -5.5369 0.0000
# 4 0.0000 0.0000 0.0000 47.1993 0.0000 0.5345
# 5 0.6660 6.3039 -5.5369 0.0000 38.3980 0.0000
# 6 0.0000 0.0000 0.0000 0.5345 0.0000 38.7119
#
#
#
# Elastic Compliance Matrix: (Units=1/GPa)
#
#
# Indices 1 2 3 4 5 6 
#
# 1 0.011831 -0.004161 -0.000234 0.000000 0.000444 0.000000
# 2 -0.004161 0.013747 -0.003634 0.000000 -0.002709 0.000000
# 3 -0.000234 -0.003634 0.005824 0.000000 0.001440 0.000000
# 4 0.000000 0.000000 0.000000 0.021190 0.000000 -0.000293
# 5 0.000444 -0.002709 0.001440 0.000000 0.026688 0.000000
# 6 0.000000 0.000000 0.000000 -0.000293 0.000000 0.025836
#
#
# Mechanical properties :
#
#
# Convention : Reuss Voigt Hill
#
# Bulk Modulus (GPa) = 65.17749 74.23821 69.70785
# Shear Modulus (GPa) = 39.59208 43.96527 41.77867
#
# Velocity S-wave (km/s) = 4.01200 4.22778 4.12130
# Velocity P-wave (km/s) = 6.92528 7.34940 7.14049
#
# Compressibility (1/GPa) = 0.01534272
#
# Stress axis : x y z
#
# Youngs Moduli (GPa) = 84.52505 72.74376 171.71325
#
# Poissons Ratio (x) = 0.30272 0.04019
# Poissons Ratio (y) = 0.35175 0.62398
# Poissons Ratio (z) = 0.01978 0.26434
#
# Static dielectric constant tensor:
#      x y z
#    x 4.601080 0.000000 -0.001640 
#    y 0.000000 4.358590 0.000000 
#    z -0.001640 0.000000 6.617590 
# 
# 
# High freq. dielectric constant tensor:
#      x y z
#    x 1.993960 0.000000 0.009640 
#    y 0.000000 1.952380 0.000000 
#    z 0.009640 0.000000 2.010390 
# 
# From -- ./inp_files/128192.got.cif
#   From: 2010.06.25/outbox.cif.g09.slc.cpg/sg15_65_cif.got.tgz:128192.got - 2010.06.28 07:06:18.
