data_PCOD8150500
_publ_section_title
;
Structure prediction by ZEFSAII (Michael W. Deem and Ramdas Pophale) SiO2 
 PCOD8150500
Probable space group: C 2/C
;
_chemical_formula_sum "Si O2"
_cell_formula_units_Z 36
_cell_length_a 14.542117
_cell_length_b 11.887563
_cell_length_c 10.479414
_cell_angle_alpha 90.000000
_cell_angle_beta 51.895383
_cell_angle_gamma 90.000000
_cell_volume 1425.505492
_symmetry_space_group_name_H-M "C 2/C"
_symmetry_group_IT_number 15
_symmetry_cell_setting 'monoclinic'
loop_
_space_group_symop_operation_xyz
x,y,z
-x,y,1/2-z
-x,-y,-z
x,-y,1/2+z
1/2+x,1/2+y,z
1/2-x,1/2+y,1/2-z
1/2-x,1/2-y,-z
1/2+x,1/2-y,1/2+z
loop_
_atom_site_type_symbol
_atom_site_label
_atom_site_fract_x
_atom_site_fract_y
_atom_site_fract_z
Si Si1 0.500000 0.023891 0.750000
Si Si2 0.761505 0.574680 0.860250
Si Si3 0.045025 0.801591 0.573623
Si Si4 0.923364 0.882250 0.440448
Si Si5 0.418264 0.859983 0.020107
O O1 0.499918 0.944526 0.625904
O O2 0.376487 0.089855 0.851163
O O3 0.802077 0.580846 0.676587
O O4 0.684745 0.685666 0.952996
O O5 0.691675 0.460391 0.953622
O O6 0.000000 0.837422 0.750000
O O7 0.997830 0.893047 0.508955
O O8 0.000974 0.676975 0.571386
O O9 0.883273 0.750358 0.466699
O O10 0.000000 0.913451 0.250000
#
# Coordination Sequence:
#
# PCOD8150500 Si02
#       5
#     4   8   8   8   8
#     4  12  28  46  74 112 154 202 250 316 378 452
#     4  12  27  44  77 109 156 191 260 310 380 449
#     4  10  25  48  75 108 149 200 250 311 379 446
#     4  10  24  48  81 109 148 203 258 305 374 456
#     4  10  26  47  72 111 149 198 252 308 380 437
#
# _framework density 25.254199
#
# number of rings (size 3 to 8) (size 9 to 14) (size 15 to 20)
#    1.333    0.000    1.111    2.000   10.889    1.778 
#    0.000    0.000    0.000    0.000    0.000    0.000 
#    0.000    0.000    0.000    0.000    0.000    0.000 
#
# Total GULP energy -223054.353564 kJ/mol
# GULP energy per Si atom -12391.908531 kJ/mol
# Density = 2.519672 g / cm^3
# Si number density = 25.254199 Si / 1000 Ang^3
#
#
#
# Elastic Constant Matrix: (Units=GPa)
#
#
# Indices 1 2 3 4 5 6 
#
# 1 131.9219 23.7655 77.7268 0.0000 -6.2469 0.0000
# 2 23.7655 90.1339 55.7851 0.0000 -17.5079 0.0000
# 3 77.7268 55.7851 215.8117 0.0000 0.6425 0.0000
# 4 0.0000 0.0000 0.0000 31.5794 0.0000 -17.0424
# 5 -6.2469 -17.5079 0.6425 0.0000 55.5614 0.0000
# 6 0.0000 0.0000 0.0000 -17.0424 0.0000 7.6819
#
#
#
# Elastic Compliance Matrix: (Units=1/GPa)
#
#
# Indices 1 2 3 4 5 6 
#
# 1 0.009696 -0.000223 -0.003438 0.000000 0.001060 0.000000
# 2 -0.000223 0.014272 -0.003622 0.000000 0.004514 0.000000
# 3 -0.003438 -0.003622 0.006813 0.000000 -0.001607 0.000000
# 4 0.000000 0.000000 0.000000 -0.160533 0.000000 -0.356144
# 5 0.001060 0.004514 -0.001607 0.000000 0.019558 0.000000
# 6 0.000000 0.000000 0.000000 -0.356144 0.000000 -0.659933
#
#
# Mechanical properties :
#
#
# Convention : Reuss Voigt Hill
#
# Bulk Modulus (GPa) = 61.67134 83.60247 72.63691
# Shear Modulus (GPa) = -6.66528 37.67055 15.50264
#
# Velocity S-wave (km/s) = -1.62635 3.86638 2.48032
# Velocity P-wave (km/s) = 4.57674 7.28753 6.08501
#
# Compressibility (1/GPa) = 0.01621499
#
# Stress axis : x y z
#
# Youngs Moduli (GPa) = 103.13534 70.06655 146.78136
#
# Poissons Ratio (x) = 0.01563 0.50457
# Poissons Ratio (y) = 0.02301 0.53168
# Poissons Ratio (z) = 0.35454 0.25380
#
# Static dielectric constant tensor:
#      x y z
#    x 4.355770 0.000000 0.164440 
#    y 0.000000 4.466990 0.000000 
#    z 0.164440 0.000000 4.627480 
# 
# 
# High freq. dielectric constant tensor:
#      x y z
#    x 1.998410 0.000000 0.011620 
#    y 0.000000 2.016450 0.000000 
#    z 0.011620 0.000000 2.021650 
# 
# From -- ./inp_files/96783.got.cif
#   From: 2010.06.25/outbox.cif.g09.slc.cpg/sg15_49_cif.got.tgz:96783.got - 2010.06.28 07:06:18.
