data_PCOD8150074
_publ_section_title
;
Structure prediction by ZEFSAII (Michael W. Deem and Ramdas Pophale) SiO2 
 PCOD8150074
Probable space group: C 2/C
;
_chemical_formula_sum "Si O2"
_cell_formula_units_Z 48
_cell_length_a 8.512999
_cell_length_b 11.808789
_cell_length_c 22.265453
_cell_angle_alpha 90.000000
_cell_angle_beta 80.059203
_cell_angle_gamma 90.000000
_cell_volume 2204.701651
_symmetry_space_group_name_H-M "C 2/C"
_symmetry_group_IT_number 15
_symmetry_cell_setting 'monoclinic'
loop_
_space_group_symop_operation_xyz
x,y,z
-x,y,1/2-z
-x,-y,-z
x,-y,1/2+z
1/2+x,1/2+y,z
1/2-x,1/2+y,1/2-z
1/2-x,1/2-y,-z
1/2+x,1/2-y,1/2+z
loop_
_atom_site_type_symbol
_atom_site_label
_atom_site_fract_x
_atom_site_fract_y
_atom_site_fract_z
Si Si1 0.000000 0.474154 0.750000
Si Si2 0.802299 0.875522 0.683100
Si Si3 0.682216 0.117703 0.830701
Si Si4 0.083215 0.808881 0.497506
Si Si5 0.627168 0.094189 0.975187
Si Si6 0.500000 0.471321 0.250000
Si Si7 0.639784 0.471124 0.938703
O O1 0.854661 0.387743 0.767016
O O2 0.957342 0.551199 0.695175
O O3 0.861597 0.748572 0.673221
O O4 0.751609 0.932161 0.623227
O O5 0.946043 0.948925 0.699490
O O6 0.674801 0.087443 0.901695
O O7 0.855269 0.101165 0.787976
O O8 0.250000 0.750000 0.500000
O O9 0.946135 0.714890 0.499256
O O10 0.026971 0.898907 0.552890
O O11 0.110720 0.892358 0.437891
O O12 0.783130 0.068925 0.003493
O O13 0.500000 0.000000 0.000000
#
# Coordination Sequence:
#
# PCOD8150074 Si02
#       7
#     4   8   8   8   8   4   8
#     4  10  24  44  64  96 122 174 220 266 318 386
#     4  11  23  44  68  92 132 168 219 268 324 384
#     4  11  24  44  67  91 134 166 221 269 324 383
#     4  11  24  42  62  96 133 169 214 258 325 395
#     4  12  24  42  67 101 135 172 210 270 336 396
#     4  10  26  42  68  96 120 178 224 268 316 384
#     4  11  25  41  67  98 132 172 213 265 334 391
#
# _framework density 21.771650999999999
#
# number of rings (size 3 to 8) (size 9 to 14) (size 15 to 20)
#    0.000    1.000    3.333    2.500    4.667    0.000 
#    0.000    6.667    0.000    0.000    0.000    0.000 
#    0.000    0.000    0.000    0.000    0.000    0.000 
#
# Total GULP energy -297378.448370 kJ/mol
# GULP energy per Si atom -12390.768682 kJ/mol
# Density = 2.172210 g / cm^3
# Si number density = 21.771651 Si / 1000 Ang^3
#
#
#
# Elastic Constant Matrix: (Units=GPa)
#
#
# Indices 1 2 3 4 5 6 
#
# 1 76.3084 23.2506 23.9526 0.0000 -0.2067 0.0000
# 2 23.2506 135.1297 42.2118 0.0000 -4.9194 0.0000
# 3 23.9526 42.2118 106.4888 0.0000 12.4215 0.0000
# 4 0.0000 0.0000 0.0000 17.5101 0.0000 18.6655
# 5 -0.2067 -4.9194 12.4215 0.0000 35.5713 0.0000
# 6 0.0000 0.0000 0.0000 18.6655 0.0000 -8.5948
#
#
#
# Elastic Compliance Matrix: (Units=1/GPa)
#
#
# Indices 1 2 3 4 5 6 
#
# 1 0.014447 -0.001612 -0.002705 0.000000 0.000806 0.000000
# 2 -0.001612 0.008833 -0.003420 0.000000 0.002406 0.000000
# 3 -0.002705 -0.003420 0.011896 0.000000 -0.004643 0.000000
# 4 0.000000 0.000000 0.000000 0.017228 0.000000 0.037414
# 5 0.000806 0.002406 -0.004643 0.000000 0.030071 0.000000
# 6 0.000000 0.000000 0.000000 0.037414 0.000000 -0.035098
#
#
# Mechanical properties :
#
#
# Convention : Reuss Voigt Hill
#
# Bulk Modulus (GPa) = 50.74978 55.19520 52.97249
# Shear Modulus (GPa) = 72.02737 24.13145 48.07941
#
# Velocity S-wave (km/s) = 5.75803 3.33286 4.70441
# Velocity P-wave (km/s) = 8.21993 6.34173 7.34114
#
# Compressibility (1/GPa) = 0.01970452
#
# Stress axis : x y z
#
# Youngs Moduli (GPa) = 69.21893 113.20599 84.06056
#
# Poissons Ratio (x) = 0.18243 0.22736
# Poissons Ratio (y) = 0.11155 0.28747
# Poissons Ratio (z) = 0.18722 0.38714
#
# Static dielectric constant tensor:
#      x y z
#    x 4.115270 0.000000 -0.039140 
#    y 0.000000 4.236940 0.000000 
#    z -0.039140 0.000000 3.998250 
# 
# 
# High freq. dielectric constant tensor:
#      x y z
#    x 1.859030 0.000000 -0.016970 
#    y 0.000000 1.874530 0.000000 
#    z -0.016970 0.000000 1.849920 
# 
# From -- ./inp_files/263123.got.cif
#   From: 2010.06.25/outbox.cif.g09.slc.cpg/sg15_132_cif.got.tgz:263123.got - 2010.06.28 07:06:18.
