data_PCOD8150819
_publ_section_title
;
Structure prediction by ZEFSAII (Michael W. Deem and Ramdas Pophale) SiO2 
 PCOD8150819
Probable space group: C 2/C
;
_chemical_formula_sum "Si O2"
_cell_formula_units_Z 64
_cell_length_a 26.361689
_cell_length_b 14.601367
_cell_length_c 12.709777
_cell_angle_alpha 90.000000
_cell_angle_beta 38.353893
_cell_angle_gamma 90.000000
_cell_volume 3035.696237
_symmetry_space_group_name_H-M "C 2/C"
_symmetry_group_IT_number 15
_symmetry_cell_setting 'monoclinic'
loop_
_space_group_symop_operation_xyz
x,y,z
-x,y,1/2-z
-x,-y,-z
x,-y,1/2+z
1/2+x,1/2+y,z
1/2-x,1/2+y,1/2-z
1/2-x,1/2-y,-z
1/2+x,1/2-y,1/2+z
loop_
_atom_site_type_symbol
_atom_site_label
_atom_site_fract_x
_atom_site_fract_y
_atom_site_fract_z
Si Si1 0.375900 0.957220 0.228233
Si Si2 0.003911 0.808581 0.121620
Si Si3 0.801597 0.019856 0.011209
Si Si4 0.902592 0.854631 0.925526
Si Si5 0.337502 0.610243 0.164004
Si Si6 0.486151 0.898317 0.650903
Si Si7 0.115889 0.924641 0.318436
Si Si8 0.191220 0.692658 0.522219
O O1 0.287556 0.979007 0.325429
O O2 0.371554 0.871033 0.313006
O O3 0.408421 0.045758 0.237052
O O4 0.432599 0.931748 0.038767
O O5 0.960617 0.887196 0.123308
O O6 0.000000 0.837906 0.250000
O O7 0.966229 0.708567 0.162432
O O8 0.099867 0.804180 0.931450
O O9 0.820238 0.092707 0.070200
O O10 0.865521 0.934982 0.913048
O O11 0.808316 0.072695 0.887892
O O12 0.866033 0.756984 0.953895
O O13 0.000000 0.855403 0.750000
O O14 0.873839 0.863268 0.094020
O O15 0.390098 0.528410 0.130628
O O16 0.250412 0.628055 0.357901
O O17 0.500000 0.917816 0.750000
O O18 0.250000 0.750000 0.500000
#
# Coordination Sequence:
#
# PCOD8150819 Si02
#       8
#     8   8   8   8   8   8   8   8
#     4  11  24  46  74  94 142 179 229 286 343 410
#     4  11  23  43  68 100 139 181 229 281 344 408
#     4  11  24  44  68 104 134 181 226 282 355 407
#     4  11  28  42  69 106 138 175 230 288 342 413
#     4  11  24  40  71  97 135 184 227 282 348 413
#     4  10  26  45  70 101 132 187 231 281 339 421
#     4  11  24  42  67 102 137 173 229 289 341 405
#     4  12  24  46  70 101 134 182 230 284 347 408
#
# _framework density 21.082477999999998
#
# number of rings (size 3 to 8) (size 9 to 14) (size 15 to 20)
#    0.000    1.000    3.750    1.125   10.500    1.500 
#    2.250    1.250    0.000    0.000    0.000    0.000 
#    0.000    0.000    0.000    0.000    0.000    0.000 
#
# Total GULP energy -396707.285110 kJ/mol
# GULP energy per Si atom -12397.102660 kJ/mol
# Density = 2.103449 g / cm^3
# Si number density = 21.082478 Si / 1000 Ang^3
#
#
#
# Elastic Constant Matrix: (Units=GPa)
#
#
# Indices 1 2 3 4 5 6 
#
# 1 112.0605 65.5880 60.4499 0.0000 0.1445 0.0000
# 2 65.5880 111.6459 53.4102 0.0000 0.9080 0.0000
# 3 60.4499 53.4102 115.2930 0.0000 4.6450 0.0000
# 4 0.0000 0.0000 0.0000 25.2306 0.0000 -4.5816
# 5 0.1445 0.9080 4.6450 0.0000 44.6067 0.0000
# 6 0.0000 0.0000 0.0000 -4.5816 0.0000 30.0934
#
#
#
# Elastic Compliance Matrix: (Units=1/GPa)
#
#
# Indices 1 2 3 4 5 6 
#
# 1 0.015615 -0.006744 -0.005088 0.000000 0.000616 0.000000
# 2 -0.006744 0.014425 -0.003148 0.000000 0.000056 0.000000
# 3 -0.005088 -0.003148 0.012850 0.000000 -0.001258 0.000000
# 4 0.000000 0.000000 0.000000 0.040761 0.000000 0.006206
# 5 0.000616 0.000056 -0.001258 0.000000 0.022546 0.000000
# 6 0.000000 0.000000 0.000000 0.006206 0.000000 0.034175
#
#
# Mechanical properties :
#
#
# Convention : Reuss Voigt Hill
#
# Bulk Modulus (GPa) = 77.34509 77.54397 77.44453
# Shear Modulus (GPa) = 28.63002 30.62290 29.62646
#
# Velocity S-wave (km/s) = 3.68910 3.81534 3.75275
# Velocity P-wave (km/s) = 7.41030 7.50135 7.45596
#
# Compressibility (1/GPa) = 0.01292907
#
# Stress axis : x y z
#
# Youngs Moduli (GPa) = 64.04198 69.32571 77.81966
#
# Poissons Ratio (x) = 0.46755 0.39591
# Poissons Ratio (y) = 0.43192 0.24501
# Poissons Ratio (z) = 0.32582 0.21827
#
# Static dielectric constant tensor:
#      x y z
#    x 3.827130 0.000000 0.129960 
#    y 0.000000 3.854420 0.000000 
#    z 0.129960 0.000000 4.093780 
# 
# 
# High freq. dielectric constant tensor:
#      x y z
#    x 1.825230 0.000000 0.010120 
#    y 0.000000 1.824590 0.000000 
#    z 0.010120 0.000000 1.841580 
# 
# From -- ./inp_files/123490.got.cif
#   From: 2010.06.25/outbox.cif.g09.slc.cpg/sg15_62_cif.got.tgz:123490.got - 2010.06.28 07:06:18.
