data_PCOD8150061
_publ_section_title
;
Structure prediction by ZEFSAII (Michael W. Deem and Ramdas Pophale) SiO2 
 PCOD8150061
Probable space group: C 2/C
;
_chemical_formula_sum "Si O2"
_cell_formula_units_Z 52
_cell_length_a 25.091442
_cell_length_b 11.516488
_cell_length_c 9.070012
_cell_angle_alpha 90.000000
_cell_angle_beta 116.583244
_cell_angle_gamma 90.000000
_cell_volume 2343.848618
_symmetry_space_group_name_H-M "C 2/C"
_symmetry_group_IT_number 15
_symmetry_cell_setting 'monoclinic'
loop_
_space_group_symop_operation_xyz
x,y,z
-x,y,1/2-z
-x,-y,-z
x,-y,1/2+z
1/2+x,1/2+y,z
1/2-x,1/2+y,1/2-z
1/2-x,1/2-y,-z
1/2+x,1/2-y,1/2+z
loop_
_atom_site_type_symbol
_atom_site_label
_atom_site_fract_x
_atom_site_fract_y
_atom_site_fract_z
Si Si1 0.079287 0.554950 0.094832
Si Si2 0.636750 0.739328 0.795609
Si Si3 0.841663 0.110413 0.166023
Si Si4 0.282488 0.417363 0.276183
Si Si5 0.847468 0.668473 0.862872
Si Si6 0.955456 0.957235 0.322809
Si Si7 0.500000 0.017027 0.750000
O O1 0.133013 0.641382 0.198544
O O2 0.099983 0.422191 0.103054
O O3 0.033552 0.565263 0.174547
O O4 0.046944 0.594425 0.902232
O O5 0.697219 0.678816 0.817462
O O6 0.580788 0.658778 0.680524
O O7 0.639065 0.759162 0.972955
O O8 0.844749 0.243378 0.222580
O O9 0.802864 0.042586 0.241063
O O10 0.907806 0.058311 0.227652
O O11 0.809903 0.105710 0.969770
O O12 0.211631 0.409145 0.196503
O O13 0.000000 0.924363 0.250000
O O14 0.000000 0.000000 0.500000
#
# Coordination Sequence:
#
# PCOD8150061 Si02
#       7
#     8   8   8   8   8   8   4
#     4  11  25  44  69 101 138 184 236 276 360 415
#     4  11  25  45  68 105 137 181 235 286 349 422
#     4  11  25  46  65 109 135 179 241 288 350 425
#     4  11  26  44  73  98 143 179 230 299 348 416
#     4  12  26  44  74  99 141 189 231 289 352 421
#     4  11  23  43  71  96 132 178 223 286 347 405
#     4  10  24  44  62  94 140 178 218 288 324 418
#
# _framework density 22.185732999999999
#
# number of rings (size 3 to 8) (size 9 to 14) (size 15 to 20)
#    0.000    0.923    1.538    5.538    7.538    2.462 
#    2.769    0.000    0.000    0.000    0.000    0.000 
#    0.000    0.000    0.000    0.000    0.000    0.000 
#
# Total GULP energy -322422.103049 kJ/mol
# GULP energy per Si atom -12400.850117 kJ/mol
# Density = 2.213524 g / cm^3
# Si number density = 22.185733 Si / 1000 Ang^3
#
#
#
# Elastic Constant Matrix: (Units=GPa)
#
#
# Indices 1 2 3 4 5 6 
#
# 1 90.5218 29.0391 21.1223 0.0000 3.2866 0.0000
# 2 29.0391 90.9891 25.8405 0.0000 -5.5983 0.0000
# 3 21.1223 25.8405 133.7834 0.0000 -8.3330 0.0000
# 4 0.0000 0.0000 0.0000 34.4335 0.0000 0.1163
# 5 3.2866 -5.5983 -8.3330 0.0000 37.2805 0.0000
# 6 0.0000 0.0000 0.0000 0.1163 0.0000 25.2760
#
#
#
# Elastic Compliance Matrix: (Units=1/GPa)
#
#
# Indices 1 2 3 4 5 6 
#
# 1 0.012652 -0.003765 -0.001395 0.000000 -0.001992 0.000000
# 2 -0.003765 0.012807 -0.001763 0.000000 0.001861 0.000000
# 3 -0.001395 -0.001763 0.008140 0.000000 0.001678 0.000000
# 4 0.000000 0.000000 0.000000 0.029042 0.000000 -0.000134
# 5 -0.001992 0.001861 0.001678 0.000000 0.027654 0.000000
# 6 0.000000 0.000000 0.000000 -0.000134 0.000000 0.039564
#
#
# Mechanical properties :
#
#
# Convention : Reuss Voigt Hill
#
# Bulk Modulus (GPa) = 50.62154 51.92199 51.27177
# Shear Modulus (GPa) = 33.26922 35.35084 34.31003
#
# Velocity S-wave (km/s) = 3.87664 3.99608 3.93681
# Velocity P-wave (km/s) = 6.55015 6.68922 6.62005
#
# Compressibility (1/GPa) = 0.01975444
#
# Stress axis : x y z
#
# Youngs Moduli (GPa) = 79.03593 78.08178 122.84928
#
# Poissons Ratio (x) = 0.29394 0.17133
# Poissons Ratio (y) = 0.29754 0.21664
# Poissons Ratio (z) = 0.11022 0.13769
#
# Static dielectric constant tensor:
#      x y z
#    x 4.160060 0.000000 0.051980 
#    y 0.000000 3.700020 0.000000 
#    z 0.051980 0.000000 4.162450 
# 
# 
# High freq. dielectric constant tensor:
#      x y z
#    x 1.881830 0.000000 -0.000720 
#    y 0.000000 1.863190 0.000000 
#    z -0.000720 0.000000 1.890110 
# 
# From -- ./inp_files/65594.got.cif
#   From: 2010.06.25/outbox.cif.g09.slc.cpg/sg15_33_cif.got.tgz:65594.got - 2010.06.28 07:06:18.
