data_PCOD8150430
_publ_section_title
;
Structure prediction by ZEFSAII (Michael W. Deem and Ramdas Pophale) SiO2 
 PCOD8150430
Probable space group: C 2/C
;
_chemical_formula_sum "Si O2"
_cell_formula_units_Z 32
_cell_length_a 9.990807
_cell_length_b 22.684908
_cell_length_c 5.454498
_cell_angle_alpha 90.000000
_cell_angle_beta 90.470079
_cell_angle_gamma 90.000000
_cell_volume 1236.168753
_symmetry_space_group_name_H-M "C 2/C"
_symmetry_group_IT_number 15
_symmetry_cell_setting 'monoclinic'
loop_
_space_group_symop_operation_xyz
x,y,z
-x,y,1/2-z
-x,-y,-z
x,-y,1/2+z
1/2+x,1/2+y,z
1/2-x,1/2+y,1/2-z
1/2-x,1/2-y,-z
1/2+x,1/2-y,1/2+z
loop_
_atom_site_type_symbol
_atom_site_label
_atom_site_fract_x
_atom_site_fract_y
_atom_site_fract_z
Si Si1 0.500000 0.251131 0.250000
Si Si2 0.276943 0.528722 0.387843
Si Si3 0.883845 0.344233 0.059113
Si Si4 0.372936 0.638791 0.623526
Si Si5 0.000000 0.445095 0.750000
O O1 0.385480 0.209920 0.366853
O O2 0.575080 0.295009 0.449156
O O3 0.335595 0.501832 0.136383
O O4 0.317127 0.598553 0.399410
O O5 0.114230 0.518639 0.401745
O O6 0.741094 0.351752 0.177425
O O7 0.000000 0.329081 0.250000
O O8 0.911763 0.406197 0.931861
O O9 0.500000 0.605266 0.750000
#
# Coordination Sequence:
#
# PCOD8150430 Si02
#       5
#     4   8   8   8   4
#     4   9  24  44  72 106 146 194 244 293 378 434
#     4  12  26  47  77 107 149 199 254 310 373 434
#     4  11  21  44  75 105 145 188 243 307 364 450
#     4  10  24  47  68 111 148 193 243 303 372 445
#     4  11  24  44  74 110 144 184 254 311 370 428
#
# _framework density 25.886431999999999
#
# number of rings (size 3 to 8) (size 9 to 14) (size 15 to 20)
#    0.750    0.500    2.500    3.000    0.000    2.000 
#    9.000    3.750    0.000    0.000    0.000    0.000 
#    0.000    0.000    0.000    0.000    0.000    0.000 
#
# Total GULP energy -198260.468749 kJ/mol
# GULP energy per Si atom -12391.279297 kJ/mol
# Density = 2.582751 g / cm^3
# Si number density = 25.886432 Si / 1000 Ang^3
#
#
#
# Elastic Constant Matrix: (Units=GPa)
#
#
# Indices 1 2 3 4 5 6 
#
# 1 106.8795 22.0831 18.4717 0.0000 0.4498 0.0000
# 2 22.0831 143.3465 56.0514 0.0000 2.2222 0.0000
# 3 18.4717 56.0514 111.3839 0.0000 3.6592 0.0000
# 4 0.0000 0.0000 0.0000 10.6143 0.0000 2.3592
# 5 0.4498 2.2222 3.6592 0.0000 34.5843 0.0000
# 6 0.0000 0.0000 0.0000 2.3592 0.0000 17.9484
#
#
#
# Elastic Compliance Matrix: (Units=1/GPa)
#
#
# Indices 1 2 3 4 5 6 
#
# 1 0.009766 -0.001085 -0.001076 0.000000 0.000056 0.000000
# 2 -0.001085 0.008806 -0.004248 0.000000 -0.000102 0.000000
# 3 -0.001076 -0.004248 0.011324 0.000000 -0.000911 0.000000
# 4 0.000000 0.000000 0.000000 0.097048 0.000000 -0.012756
# 5 0.000056 -0.000102 -0.000911 0.000000 0.029017 0.000000
# 6 0.000000 0.000000 0.000000 -0.012756 0.000000 0.057392
#
#
# Mechanical properties :
#
#
# Convention : Reuss Voigt Hill
#
# Bulk Modulus (GPa) = 58.55110 61.64694 60.09902
# Shear Modulus (GPa) = 21.56444 30.29630 25.93037
#
# Velocity S-wave (km/s) = 2.88937 3.42476 3.16839
# Velocity P-wave (km/s) = 5.81368 6.28528 6.05407
#
# Compressibility (1/GPa) = 0.01707910
#
# Stress axis : x y z
#
# Youngs Moduli (GPa) = 102.39486 113.56010 88.30784
#
# Poissons Ratio (x) = 0.12319 0.09498
# Poissons Ratio (y) = 0.11108 0.37514
# Poissons Ratio (z) = 0.11013 0.48242
#
# Static dielectric constant tensor:
#      x y z
#    x 4.548830 0.000000 0.253500 
#    y 0.000000 4.792140 0.000000 
#    z 0.253500 0.000000 3.865960 
# 
# 
# High freq. dielectric constant tensor:
#      x y z
#    x 2.038550 0.000000 0.002290 
#    y 0.000000 2.048520 0.000000 
#    z 0.002290 0.000000 2.010010 
# 
# From -- ./inp_files/2668.got.cif
#   From: 2010.06.25/outbox.cif.g09.slc.cpg/sg15_2_cif.got.tgz:2668.got - 2010.06.28 07:06:18.
