data_PCOD8150710
_publ_section_title
;
Structure prediction by ZEFSAII (Michael W. Deem and Ramdas Pophale) SiO2 
 PCOD8150710
Probable space group: C 2/C
;
_chemical_formula_sum "Si O2"
_cell_formula_units_Z 64
_cell_length_a 29.662346
_cell_length_b 8.701708
_cell_length_c 14.163380
_cell_angle_alpha 90.000000
_cell_angle_beta 54.556794
_cell_angle_gamma 90.000000
_cell_volume 2978.308543
_symmetry_space_group_name_H-M "C 2/C"
_symmetry_group_IT_number 15
_symmetry_cell_setting 'monoclinic'
loop_
_space_group_symop_operation_xyz
x,y,z
-x,y,1/2-z
-x,-y,-z
x,-y,1/2+z
1/2+x,1/2+y,z
1/2-x,1/2+y,1/2-z
1/2-x,1/2-y,-z
1/2+x,1/2-y,1/2+z
loop_
_atom_site_type_symbol
_atom_site_label
_atom_site_fract_x
_atom_site_fract_y
_atom_site_fract_z
Si Si1 0.317365 0.530136 0.121622
Si Si2 0.166061 0.919407 0.111058
Si Si3 0.273040 0.906113 0.514080
Si Si4 0.413245 0.489488 0.636322
Si Si5 0.707039 0.814219 0.805361
Si Si6 0.984006 0.470182 0.661237
Si Si7 0.144411 0.587964 0.203566
Si Si8 0.991413 0.248049 0.490827
O O1 0.370671 0.586633 0.114741
O O2 0.298064 0.368430 0.187279
O O3 0.268171 0.652181 0.191003
O O4 0.335973 0.515499 0.991514
O O5 0.115220 0.995218 0.227740
O O6 0.158264 0.736528 0.123301
O O7 0.224571 0.967811 0.086212
O O8 0.250000 0.750000 0.500000
O O9 0.301894 0.884320 0.580203
O O10 0.318375 0.953007 0.382805
O O11 0.433030 0.658332 0.575014
O O12 0.463769 0.377283 0.591132
O O13 0.660298 0.884133 0.793540
O O14 0.918169 0.470028 0.726845
O O15 0.011331 0.628891 0.591051
O O16 0.000000 0.442657 0.750000
O O17 0.008189 0.331110 0.568652
#
# Coordination Sequence:
#
# PCOD8150710 Si02
#       8
#     8   8   8   8   8   8   8   8
#     4  12  26  39  72  99 141 184 231 274 346 412
#     4  12  24  44  65 103 138 182 227 280 345 408
#     4  12  25  42  68 108 143 182 237 273 338 427
#     4  11  24  46  72 100 137 183 229 293 339 406
#     4  12  23  44  66 101 144 187 224 281 343 414
#     4  11  26  48  71 103 136 180 231 290 351 412
#     4  12  26  45  69  99 146 183 223 289 351 416
#     4  10  25  47  72 101 135 176 241 287 344 410
#
# _framework density 21.488707000000002
#
# number of rings (size 3 to 8) (size 9 to 14) (size 15 to 20)
#    0.000    0.500    6.250    0.375    5.250    5.000 
#    0.000    2.500    0.000    0.000    0.000    0.000 
#    0.000    0.000    0.000    0.000    0.000    0.000 
#
# Total GULP energy -396952.300543 kJ/mol
# GULP energy per Si atom -12404.759392 kJ/mol
# Density = 2.143980 g / cm^3
# Si number density = 21.488707 Si / 1000 Ang^3
#
#
#
# Elastic Constant Matrix: (Units=GPa)
#
#
# Indices 1 2 3 4 5 6 
#
# 1 105.8599 16.5268 50.7308 0.0000 15.5898 0.0000
# 2 16.5268 60.7425 36.6969 -0.0001 4.7180 0.0000
# 3 50.7308 36.6969 132.6521 0.0000 10.6813 0.0000
# 4 0.0000 -0.0001 0.0000 33.4478 0.0000 -1.2840
# 5 15.5898 4.7180 10.6813 0.0000 40.6026 0.0000
# 6 0.0000 0.0000 0.0000 -1.2840 0.0000 24.4553
#
#
#
# Elastic Compliance Matrix: (Units=1/GPa)
#
#
# Indices 1 2 3 4 5 6 
#
# 1 0.012041 -0.000473 -0.004195 0.000000 -0.003465 0.000000
# 2 -0.000473 0.019816 -0.005241 0.000000 -0.000742 0.000000
# 3 -0.004195 -0.005241 0.010639 0.000000 -0.000579 0.000000
# 4 0.000000 0.000000 0.000000 0.029958 0.000000 0.001573
# 5 -0.003465 -0.000742 -0.000579 0.000000 0.026198 0.000000
# 6 0.000000 0.000000 0.000000 0.001573 0.000000 0.040974
#
#
# Mechanical properties :
#
#
# Convention : Reuss Voigt Hill
#
# Bulk Modulus (GPa) = 44.09559 56.35150 50.22355
# Shear Modulus (GPa) = 29.93969 32.72115 31.33042
#
# Velocity S-wave (km/s) = 3.73671 3.90643 3.82251
# Velocity P-wave (km/s) = 6.25957 6.82844 6.55019
#
# Compressibility (1/GPa) = 0.02267800
#
# Stress axis : x y z
#
# Youngs Moduli (GPa) = 83.05046 50.46520 93.98963
#
# Poissons Ratio (x) = 0.02385 0.39430
# Poissons Ratio (y) = 0.03924 0.49263
# Poissons Ratio (z) = 0.34841 0.26450
#
# Static dielectric constant tensor:
#      x y z
#    x 3.857050 0.000000 0.006710 
#    y 0.000000 4.001290 0.000000 
#    z 0.006710 0.000000 4.076410 
# 
# 
# High freq. dielectric constant tensor:
#      x y z
#    x 1.835010 0.000000 0.000580 
#    y 0.000000 1.849880 0.000000 
#    z 0.000580 0.000000 1.861590 
# 
# From -- ./inp_files/181133.got.cif
#   From: 2010.06.25/outbox.cif.g09.slc.cpg/sg15_91_cif.got.tgz:181133.got - 2010.06.28 07:06:18.
