data_PCOD8150223
_publ_section_title
;
Structure prediction by ZEFSAII (Michael W. Deem and Ramdas Pophale) SiO2 
 PCOD8150223
Probable space group: C 2/C
;
_chemical_formula_sum "Si O2"
_cell_formula_units_Z 60
_cell_length_a 24.165214
_cell_length_b 10.977095
_cell_length_c 18.097112
_cell_angle_alpha 90.000000
_cell_angle_beta 38.041149
_cell_angle_gamma 90.000000
_cell_volume 2958.204850
_symmetry_space_group_name_H-M "C 2/C"
_symmetry_group_IT_number 15
_symmetry_cell_setting 'monoclinic'
loop_
_space_group_symop_operation_xyz
x,y,z
-x,y,1/2-z
-x,-y,-z
x,-y,1/2+z
1/2+x,1/2+y,z
1/2-x,1/2+y,1/2-z
1/2-x,1/2-y,-z
1/2+x,1/2-y,1/2+z
loop_
_atom_site_type_symbol
_atom_site_label
_atom_site_fract_x
_atom_site_fract_y
_atom_site_fract_z
Si Si1 0.650706 0.179382 0.843777
Si Si2 0.726489 0.895426 0.525054
Si Si3 0.386612 0.454105 0.265902
Si Si4 0.850944 0.219969 0.667816
Si Si5 0.614135 0.956920 0.778678
Si Si6 0.579496 0.894206 0.573382
Si Si7 0.000000 0.195389 0.750000
Si Si8 0.520718 0.619746 0.432628
O O1 0.754174 0.221309 0.730822
O O2 0.590219 0.298697 0.904533
O O3 0.625905 0.088202 0.803413
O O4 0.628236 0.117339 0.944456
O O5 0.750000 0.750000 0.500000
O O6 0.814223 0.970356 0.407033
O O7 0.698519 0.931794 0.636945
O O8 0.652332 0.959347 0.548664
O O9 0.347511 0.378421 0.237584
O O10 0.467068 0.379236 0.215239
O O11 0.430293 0.583403 0.195614
O O12 0.882262 0.352163 0.663385
O O13 0.924585 0.187585 0.526885
O O14 0.519311 0.953423 0.833219
O O15 0.575314 0.773572 0.629140
O O16 0.500000 0.500000 0.500000
#
# Coordination Sequence:
#
# PCOD8150223 Si02
#       8
#     8   8   8   8   8   8   4   8
#     4  12  26  40  68 100 137 178 225 282 353 415
#     4  12  20  38  66 100 132 164 231 290 346 398
#     4  11  22  39  63  97 130 172 227 280 339 408
#     4  11  22  40  64  98 134 175 225 283 337 400
#     4  12  24  40  64 103 134 171 228 289 350 400
#     4  12  19  38  63  95 132 167 220 293 337 392
#     4  12  20  36  66  92 122 172 222 284 336 388
#     4  10  24  45  62  93 140 178 223 274 344 420
#
# _framework density 20.282571000000001
#
# number of rings (size 3 to 8) (size 9 to 14) (size 15 to 20)
#    0.000    0.533    8.000    1.200    3.733    1.067 
#    0.000    0.667    2.933    0.000    0.000    0.000 
#    0.000    0.000    0.000    0.000    0.000    0.000 
#
# Total GULP energy -371644.761544 kJ/mol
# GULP energy per Si atom -12388.158718 kJ/mol
# Density = 2.023641 g / cm^3
# Si number density = 20.282571 Si / 1000 Ang^3
#
#
#
# Elastic Constant Matrix: (Units=GPa)
#
#
# Indices 1 2 3 4 5 6 
#
# 1 77.9987 29.6482 25.6635 0.0000 -13.0001 0.0000
# 2 29.6482 68.3605 35.3437 0.0002 -1.1569 -0.0001
# 3 25.6635 35.3437 140.2282 0.0000 -11.2857 0.0000
# 4 0.0000 0.0002 0.0000 39.2611 0.0000 7.3762
# 5 -13.0001 -1.1569 -11.2857 0.0000 36.3018 0.0000
# 6 0.0000 -0.0001 0.0000 7.3762 0.0000 17.3679
#
#
#
# Elastic Compliance Matrix: (Units=1/GPa)
#
#
# Indices 1 2 3 4 5 6 
#
# 1 0.016539 -0.006602 -0.000926 0.000000 0.005425 0.000000
# 2 -0.006602 0.019479 -0.003940 0.000000 -0.002969 0.000000
# 3 -0.000926 -0.003940 0.008469 0.000000 0.002176 0.000000
# 4 0.000000 0.000000 0.000000 0.027679 0.000000 -0.011755
# 5 0.005425 -0.002969 0.002176 0.000000 0.030071 0.000000
# 6 0.000000 0.000000 0.000000 -0.011755 0.000000 0.062570
#
#
# Mechanical properties :
#
#
# Convention : Reuss Voigt Hill
#
# Bulk Modulus (GPa) = 46.40503 51.98868 49.19686
# Shear Modulus (GPa) = 25.65055 31.64830 28.64943
#
# Velocity S-wave (km/s) = 3.56006 3.95444 3.76242
# Velocity P-wave (km/s) = 6.31092 6.82187 6.57136
#
# Compressibility (1/GPa) = 0.02154939
#
# Stress axis : x y z
#
# Youngs Moduli (GPa) = 60.46225 51.33809 118.07897
#
# Poissons Ratio (x) = 0.33896 0.10936
# Poissons Ratio (y) = 0.39920 0.46524
# Poissons Ratio (z) = 0.05600 0.20228
#
# Static dielectric constant tensor:
#      x y z
#    x 3.733820 0.000000 -0.140560 
#    y 0.000000 3.573140 0.000000 
#    z -0.140560 0.000000 4.145300 
# 
# 
# High freq. dielectric constant tensor:
#      x y z
#    x 1.786970 0.000000 -0.016500 
#    y 0.000000 1.750850 0.000000 
#    z -0.016500 0.000000 1.815790 
# 
# From -- ./inp_files/219291.got.cif
#   From: 2010.06.25/outbox.cif.g09.slc.cpg/sg15_110_cif.got.tgz:219291.got - 2010.06.28 07:06:18.
