data_PCOD8150218
_publ_section_title
;
Structure prediction by ZEFSAII (Michael W. Deem and Ramdas Pophale) SiO2 
 PCOD8150218
Probable space group: C 2/C
;
_chemical_formula_sum "Si O2"
_cell_formula_units_Z 44
_cell_length_a 8.891757
_cell_length_b 24.641867
_cell_length_c 12.143232
_cell_angle_alpha 90.000000
_cell_angle_beta 46.705031
_cell_angle_gamma 90.000000
_cell_volume 1936.543312
_symmetry_space_group_name_H-M "C 2/C"
_symmetry_group_IT_number 15
_symmetry_cell_setting 'monoclinic'
loop_
_space_group_symop_operation_xyz
x,y,z
-x,y,1/2-z
-x,-y,-z
x,-y,1/2+z
1/2+x,1/2+y,z
1/2-x,1/2+y,1/2-z
1/2-x,1/2-y,-z
1/2+x,1/2-y,1/2+z
loop_
_atom_site_type_symbol
_atom_site_label
_atom_site_fract_x
_atom_site_fract_y
_atom_site_fract_z
Si Si1 0.281009 0.910633 0.864399
Si Si2 0.572570 0.405703 0.591826
Si Si3 0.108769 0.678203 0.507173
Si Si4 0.773565 0.108520 0.865769
Si Si5 0.000000 0.240835 0.250000
Si Si6 0.714654 0.968803 0.188291
O O1 0.500000 0.879610 0.750000
O O2 0.114348 0.874753 0.879713
O O3 0.299523 0.966801 0.784514
O O4 0.228382 0.922871 0.017238
O O5 0.500000 0.422834 0.750000
O O6 0.776265 0.369082 0.483160
O O7 0.613650 0.457972 0.493343
O O8 0.293106 0.703884 0.339419
O O9 0.912533 0.652651 0.542000
O O10 0.015329 0.723101 0.634013
O O11 0.759854 0.063175 0.778325
O O12 0.000000 0.137834 0.750000
O O13 0.500000 0.946107 0.250000
#
# Coordination Sequence:
#
# PCOD8150218 Si02
#       6
#     8   8   8   8   4   8
#     4  11  27  39  62 101 142 186 232 283 329 380
#     4  12  23  40  69  95 135 179 227 281 330 410
#     4  11  23  46  72 102 124 178 225 279 355 418
#     4  12  25  44  68  99 144 183 228 287 337 394
#     4  10  24  44  80  96 128 162 234 282 346 450
#     4  11  24  41  63  95 137 194 233 271 316 402
#
# _framework density 22.720896
#
# number of rings (size 3 to 8) (size 9 to 14) (size 15 to 20)
#    0.000    0.727    4.545    2.727    2.545    1.455 
#    0.000    0.909    0.000    0.000    0.000    0.000 
#    0.000    0.000    0.000    0.000    0.000    0.000 
#
# Total GULP energy -272566.808401 kJ/mol
# GULP energy per Si atom -12389.400382 kJ/mol
# Density = 2.266918 g / cm^3
# Si number density = 22.720896 Si / 1000 Ang^3
#
#
#
# Elastic Constant Matrix: (Units=GPa)
#
#
# Indices 1 2 3 4 5 6 
#
# 1 175.6349 24.1228 62.4104 0.0000 -16.2409 0.0000
# 2 24.1228 66.2052 22.8968 0.0000 0.5623 0.0000
# 3 62.4104 22.8968 133.6629 0.0000 3.9133 0.0000
# 4 0.0000 0.0000 0.0000 29.3991 0.0000 0.9472
# 5 -16.2409 0.5623 3.9133 0.0000 58.2416 0.0000
# 6 0.0000 0.0000 0.0000 0.9472 0.0000 11.0318
#
#
#
# Elastic Compliance Matrix: (Units=1/GPa)
#
#
# Indices 1 2 3 4 5 6 
#
# 1 0.007247 -0.001559 -0.003182 0.000000 0.002250 0.000000
# 2 -0.001559 0.016391 -0.002067 0.000000 -0.000454 0.000000
# 3 -0.003182 -0.002067 0.009365 0.000000 -0.001497 0.000000
# 4 0.000000 0.000000 0.000000 0.034109 0.000000 -0.002929
# 5 0.002250 -0.000454 -0.001497 0.000000 0.017902 0.000000
# 6 0.000000 0.000000 0.000000 -0.002929 0.000000 0.090898
#
#
# Mechanical properties :
#
#
# Convention : Reuss Voigt Hill
#
# Bulk Modulus (GPa) = 51.58071 66.04035 58.81053
# Shear Modulus (GPa) = 25.51141 37.47270 31.49205
#
# Velocity S-wave (km/s) = 3.35448 4.06552 3.72699
# Velocity P-wave (km/s) = 6.14447 7.15310 6.66789
#
# Compressibility (1/GPa) = 0.01938709
#
# Stress axis : x y z
#
# Youngs Moduli (GPa) = 137.99542 61.00847 106.77694
#
# Poissons Ratio (x) = 0.09511 0.33981
# Poissons Ratio (y) = 0.21512 0.22067
# Poissons Ratio (z) = 0.43916 0.12608
#
# Static dielectric constant tensor:
#      x y z
#    x 4.679420 0.000000 -0.493850 
#    y 0.000000 3.711210 0.000000 
#    z -0.493850 0.000000 4.425550 
# 
# 
# High freq. dielectric constant tensor:
#      x y z
#    x 1.915370 0.000000 -0.023030 
#    y 0.000000 1.851390 0.000000 
#    z -0.023030 0.000000 1.918940 
# 
# From -- ./inp_files/25608.got.cif
#   From: 2010.06.25/outbox.cif.g09.slc.cpg/sg15_13_cif.got.tgz:25608.got - 2010.06.28 07:06:18.
