data_PCOD8150679
_publ_section_title
;
Structure prediction by ZEFSAII (Michael W. Deem and Ramdas Pophale) SiO2 
 PCOD8150679
Probable space group: C 2/C
;
_chemical_formula_sum "Si O2"
_cell_formula_units_Z 52
_cell_length_a 10.113371
_cell_length_b 30.139429
_cell_length_c 9.165884
_cell_angle_alpha 90.000000
_cell_angle_beta 122.744232
_cell_angle_gamma 90.000000
_cell_volume 2349.901058
_symmetry_space_group_name_H-M "C 2/C"
_symmetry_group_IT_number 15
_symmetry_cell_setting 'monoclinic'
loop_
_space_group_symop_operation_xyz
x,y,z
-x,y,1/2-z
-x,-y,-z
x,-y,1/2+z
1/2+x,1/2+y,z
1/2-x,1/2+y,1/2-z
1/2-x,1/2-y,-z
1/2+x,1/2-y,1/2+z
loop_
_atom_site_type_symbol
_atom_site_label
_atom_site_fract_x
_atom_site_fract_y
_atom_site_fract_z
Si Si1 0.306109 0.055594 0.231932
Si Si2 0.156782 0.291313 0.019178
Si Si3 0.541889 0.581942 0.436312
Si Si4 0.923295 0.757696 0.553763
Si Si5 0.649126 0.025811 0.924379
Si Si6 0.500000 0.135070 0.250000
Si Si7 0.407942 0.334460 0.347406
O O1 0.365411 0.029295 0.410123
O O2 0.393178 0.103298 0.287930
O O3 0.118605 0.059910 0.105138
O O4 0.352407 0.026392 0.118642
O O5 0.244396 0.309774 0.214704
O O6 0.982810 0.277075 0.966717
O O7 0.250000 0.250000 0.000000
O O8 0.131612 0.333838 0.901979
O O9 0.500000 0.601490 0.250000
O O10 0.683805 0.547025 0.519709
O O11 0.603413 0.617091 0.591703
O O12 0.750000 0.750000 0.500000
O O13 0.977976 0.805043 0.520382
O O14 0.000000 0.749227 0.750000
O O15 0.500000 0.048545 0.750000
O O16 0.500000 0.334477 0.250000
#
# Coordination Sequence:
#
# PCOD8150679 Si02
#       7
#     8   8   8   8   8   4   8
#     4  11  25  46  72 108 142 195 232 301 356 431
#     4  12  26  47  73 104 141 194 246 299 370 439
#     4  10  25  46  69 107 145 188 237 297 359 430
#     4  12  26  45  69 102 140 185 238 302 370 431
#     4  11  24  45  75 103 149 186 240 288 364 430
#     4  12  28  44  74 104 152 184 246 300 364 422
#     4  12  24  43  73 100 139 186 247 296 357 434
#
# _framework density 22.128592000000001
#
# number of rings (size 3 to 8) (size 9 to 14) (size 15 to 20)
#    0.000    0.615    3.846    3.231    2.154    3.692 
#    0.000    0.000    0.000    0.000    0.000    0.000 
#    0.000    0.000    0.000    0.000    0.000    0.000 
#
# Total GULP energy -322097.103960 kJ/mol
# GULP energy per Si atom -12388.350152 kJ/mol
# Density = 2.207823 g / cm^3
# Si number density = 22.128592 Si / 1000 Ang^3
#
#
#
# Elastic Constant Matrix: (Units=GPa)
#
#
# Indices 1 2 3 4 5 6 
#
# 1 132.0346 50.3862 45.5517 0.0000 3.6440 0.0000
# 2 50.3862 135.5405 59.8848 0.0000 -9.8779 0.0000
# 3 45.5517 59.8848 94.9016 0.0000 3.9666 0.0000
# 4 0.0000 0.0000 0.0000 47.0030 0.0000 -4.5102
# 5 3.6440 -9.8779 3.9666 0.0000 45.1368 0.0000
# 6 0.0000 0.0000 0.0000 -4.5102 0.0000 35.2198
#
#
#
# Elastic Compliance Matrix: (Units=1/GPa)
#
#
# Indices 1 2 3 4 5 6 
#
# 1 0.009531 -0.002235 -0.003124 0.000000 -0.000984 0.000000
# 2 -0.002235 0.011124 -0.006078 0.000000 0.003149 0.000000
# 3 -0.003124 -0.006078 0.015976 0.000000 -0.002482 0.000000
# 4 0.000000 0.000000 0.000000 0.021540 0.000000 0.002758
# 5 -0.000984 0.003149 -0.002482 0.000000 0.023142 0.000000
# 6 0.000000 0.000000 0.000000 0.002758 0.000000 0.028746
#
#
# Mechanical properties :
#
#
# Convention : Reuss Voigt Hill
#
# Bulk Modulus (GPa) = 72.68750 74.90246 73.79498
# Shear Modulus (GPa) = 36.35901 39.24885 37.80393
#
# Velocity S-wave (km/s) = 4.05789 4.21607 4.13773
# Velocity P-wave (km/s) = 7.40772 7.59095 7.49990
#
# Compressibility (1/GPa) = 0.01375752
#
# Stress axis : x y z
#
# Youngs Moduli (GPa) = 104.91608 89.89902 62.59526
#
# Poissons Ratio (x) = 0.20091 0.19552
# Poissons Ratio (y) = 0.23448 0.38046
# Poissons Ratio (z) = 0.32771 0.54642
#
# Static dielectric constant tensor:
#      x y z
#    x 4.246810 0.000000 0.017740 
#    y 0.000000 3.884090 0.000000 
#    z 0.017740 0.000000 4.265080 
# 
# 
# High freq. dielectric constant tensor:
#      x y z
#    x 1.890440 0.000000 0.005680 
#    y 0.000000 1.864140 0.000000 
#    z 0.005680 0.000000 1.881660 
# 
# From -- ./inp_files/34440.got.cif
#   From: 2010.06.25/outbox.cif.g09.slc.cpg/sg15_18_cif.got.tgz:34440.got - 2010.06.28 07:06:18.
