data_PCOD8150466
_publ_section_title
;
Structure prediction by ZEFSAII (Michael W. Deem and Ramdas Pophale) SiO2 
 PCOD8150466
Probable space group: C 2/C
;
_chemical_formula_sum "Si O2"
_cell_formula_units_Z 36
_cell_length_a 19.326872
_cell_length_b 7.723919
_cell_length_c 21.610945
_cell_angle_alpha 90.000000
_cell_angle_beta 152.413092
_cell_angle_gamma 90.000000
_cell_volume 1493.969563
_symmetry_space_group_name_H-M "C 2/C"
_symmetry_group_IT_number 15
_symmetry_cell_setting 'monoclinic'
loop_
_space_group_symop_operation_xyz
x,y,z
-x,y,1/2-z
-x,-y,-z
x,-y,1/2+z
1/2+x,1/2+y,z
1/2-x,1/2+y,1/2-z
1/2-x,1/2-y,-z
1/2+x,1/2-y,1/2+z
loop_
_atom_site_type_symbol
_atom_site_label
_atom_site_fract_x
_atom_site_fract_y
_atom_site_fract_z
Si Si1 0.445744 0.202653 0.582663
Si Si2 0.062592 0.342847 0.995641
Si Si3 0.721945 0.522474 0.097995
Si Si4 0.243592 0.689368 0.762781
Si Si5 0.000000 0.556465 0.750000
O O1 0.323115 0.337338 0.464492
O O2 0.610271 0.280259 0.696681
O O3 0.427890 0.018314 0.534408
O O4 0.423068 0.178977 0.637874
O O5 0.183361 0.354680 0.146806
O O6 0.111200 0.178374 0.992369
O O7 0.894174 0.305268 0.885785
O O8 0.727540 0.496105 0.177682
O O9 0.882122 0.564527 0.193819
#
# Coordination Sequence:
#
# PCOD8150466 Si02
#       5
#     8   8   8   8   4
#     4  11  25  43  70  98 141 184 230 286 339 412
#     4  12  26  43  70 107 140 180 232 282 360 410
#     4  11  25  43  70  98 141 184 230 286 339 412
#     4  11  23  42  68 106 141 176 224 285 349 419
#     4  10  24  48  66  98 136 186 242 280 336 406
#
# _framework density 24.096876999999999
#
# number of rings (size 3 to 8) (size 9 to 14) (size 15 to 20)
#    0.000    0.889    2.222    4.667    6.222    2.667 
#    0.000    2.222    0.000    0.000    0.000    0.000 
#    0.000    0.000    0.000    0.000    0.000    0.000 
#
# Total GULP energy -223058.744200 kJ/mol
# GULP energy per Si atom -12392.152456 kJ/mol
# Density = 2.404203 g / cm^3
# Si number density = 24.096877 Si / 1000 Ang^3
#
#
#
# Elastic Constant Matrix: (Units=GPa)
#
#
# Indices 1 2 3 4 5 6 
#
# 1 104.1541 49.8382 22.6222 -0.0002 -8.3800 0.0000
# 2 49.8382 133.2939 43.1619 -0.0002 8.4426 0.0000
# 3 22.6222 43.1619 99.2364 -0.0011 -1.4386 -0.0002
# 4 -0.0002 -0.0002 -0.0011 23.3938 -0.0004 6.6575
# 5 -8.3800 8.4426 -1.4386 -0.0004 36.6798 0.0000
# 6 0.0000 0.0000 -0.0002 6.6575 0.0000 16.0647
#
#
#
# Elastic Compliance Matrix: (Units=1/GPa)
#
#
# Indices 1 2 3 4 5 6 
#
# 1 0.012266 -0.004587 -0.000745 0.000000 0.003829 0.000000
# 2 -0.004587 0.010622 -0.003627 0.000000 -0.003635 0.000000
# 3 -0.000745 -0.003627 0.011841 0.000001 0.001129 0.000000
# 4 0.000000 0.000000 0.000001 0.048462 0.000001 -0.020083
# 5 0.003829 -0.003635 0.001129 0.000001 0.029019 0.000000
# 6 0.000000 0.000000 0.000000 -0.020083 0.000000 0.070571
#
#
# Mechanical properties :
#
#
# Convention : Reuss Voigt Hill
#
# Bulk Modulus (GPa) = 59.49036 63.10322 61.29679
# Shear Modulus (GPa) = 24.23613 29.96515 27.10064
#
# Velocity S-wave (km/s) = 3.17484 3.53020 3.35722
# Velocity P-wave (km/s) = 6.17908 6.54680 6.36560
#
# Compressibility (1/GPa) = 0.01680945
#
# Stress axis : x y z
#
# Youngs Moduli (GPa) = 81.52441 94.14304 84.45417
#
# Poissons Ratio (x) = 0.43188 0.06296
# Poissons Ratio (y) = 0.37399 0.30631
# Poissons Ratio (z) = 0.06077 0.34145
#
# Static dielectric constant tensor:
#      x y z
#    x 4.437410 0.000000 -0.087800 
#    y 0.000000 4.293210 0.000000 
#    z -0.087800 0.000000 4.690290 
# 
# 
# High freq. dielectric constant tensor:
#      x y z
#    x 1.948690 0.000000 -0.001340 
#    y 0.000000 1.943230 0.000000 
#    z -0.001340 0.000000 1.977500 
# 
# From -- ./inp_files/247915.got.cif
#   From: 2010.06.25/outbox.cif.g09.slc.cpg/sg15_124_cif.got.tgz:247915.got - 2010.06.28 07:06:18.
