data_PCOD8150897
_publ_section_title
;
Structure prediction by ZEFSAII (Michael W. Deem and Ramdas Pophale) SiO2 
 PCOD8150897
Probable space group: C 2/C
;
_chemical_formula_sum "Si O2"
_cell_formula_units_Z 40
_cell_length_a 11.610689
_cell_length_b 19.842652
_cell_length_c 13.170466
_cell_angle_alpha 90.000000
_cell_angle_beta 148.394801
_cell_angle_gamma 90.000000
_cell_volume 1590.166153
_symmetry_space_group_name_H-M "C 2/C"
_symmetry_group_IT_number 15
_symmetry_cell_setting 'monoclinic'
loop_
_space_group_symop_operation_xyz
x,y,z
-x,y,1/2-z
-x,-y,-z
x,-y,1/2+z
1/2+x,1/2+y,z
1/2-x,1/2+y,1/2-z
1/2-x,1/2-y,-z
1/2+x,1/2-y,1/2+z
loop_
_atom_site_type_symbol
_atom_site_label
_atom_site_fract_x
_atom_site_fract_y
_atom_site_fract_z
Si Si1 0.304914 0.036037 0.907433
Si Si2 0.500000 0.431334 0.750000
Si Si3 0.263283 0.688212 0.295965
Si Si4 0.124334 0.332477 0.139153
Si Si5 0.000000 0.600251 0.250000
Si Si6 0.772750 0.178562 0.961211
O O1 0.238283 0.102763 0.794472
O O2 0.107461 0.982548 0.749976
O O3 0.370279 0.053903 0.072480
O O4 0.500000 0.000000 0.000000
O O5 0.695245 0.385163 0.941629
O O6 0.234787 0.768314 0.293372
O O7 0.183663 0.647422 0.334544
O O8 0.515888 0.676872 0.455676
O O9 0.118255 0.665568 0.090661
O O10 0.079446 0.330756 0.229567
O O11 0.750000 0.250000 0.000000
#
# Coordination Sequence:
#
# PCOD8150897 Si02
#       6
#     8   4   8   8   4   8
#     4  11  28  49  73 113 157 205 257 309 393 472
#     4  12  28  47  77 110 146 208 256 304 398 468
#     4  11  24  48  74 115 148 195 262 316 387 451
#     4  11  25  46  76 107 156 197 250 321 385 451
#     4  10  26  49  79 108 164 200 254 330 374 460
#     4  12  28  48  77 110 153 194 261 329 385 454
#
# _framework density 25.154603999999999
#
# number of rings (size 3 to 8) (size 9 to 14) (size 15 to 20)
#    0.000    0.800    2.000    3.600    8.400    5.600 
#    0.000    0.000    0.000    0.000    0.000    0.000 
#    0.000    0.000    0.000    0.000    0.000    0.000 
#
# Total GULP energy -248003.580506 kJ/mol
# GULP energy per Si atom -12400.179025 kJ/mol
# Density = 2.509735 g / cm^3
# Si number density = 25.154604 Si / 1000 Ang^3
#
#
#
# Elastic Constant Matrix: (Units=GPa)
#
#
# Indices 1 2 3 4 5 6 
#
# 1 144.9877 61.3433 26.5959 0.0000 -14.0771 0.0000
# 2 61.3433 194.3901 33.5149 0.0000 -2.0963 -0.0001
# 3 26.5959 33.5149 58.8780 0.0003 -15.5460 0.0002
# 4 0.0000 0.0000 0.0003 43.5310 0.0001 7.5593
# 5 -14.0771 -2.0963 -15.5460 0.0001 55.1616 0.0001
# 6 0.0000 -0.0001 0.0002 7.5593 0.0001 54.5759
#
#
#
# Elastic Compliance Matrix: (Units=1/GPa)
#
#
# Indices 1 2 3 4 5 6 
#
# 1 0.008385 -0.002266 -0.002113 0.000000 0.001458 0.000000
# 2 -0.002266 0.006346 -0.002893 0.000000 -0.001152 0.000000
# 3 -0.002113 -0.002893 0.020975 0.000000 0.005262 0.000000
# 4 0.000000 0.000000 0.000000 0.023538 0.000000 -0.003260
# 5 0.001458 -0.001152 0.005262 0.000000 0.019940 0.000000
# 6 0.000000 0.000000 0.000000 -0.003260 0.000000 0.018775
#
#
# Mechanical properties :
#
#
# Convention : Reuss Voigt Hill
#
# Bulk Modulus (GPa) = 47.25382 71.24044 59.24713
# Shear Modulus (GPa) = 41.82158 49.10716 45.46437
#
# Velocity S-wave (km/s) = 4.08190 4.42318 4.25596
# Velocity P-wave (km/s) = 6.40640 7.38028 6.91052
#
# Compressibility (1/GPa) = 0.02116231
#
# Stress axis : x y z
#
# Youngs Moduli (GPa) = 119.26026 157.58650 47.67657
#
# Poissons Ratio (x) = 0.35710 0.10072
# Poissons Ratio (y) = 0.27025 0.13792
# Poissons Ratio (z) = 0.25196 0.45587
#
# Static dielectric constant tensor:
#      x y z
#    x 4.816000 0.000000 -0.061850 
#    y 0.000000 5.450110 0.000000 
#    z -0.061850 0.000000 4.728410 
# 
# 
# High freq. dielectric constant tensor:
#      x y z
#    x 2.013250 0.000000 0.010110 
#    y 0.000000 2.020260 0.000000 
#    z 0.010110 0.000000 2.010390 
# 
# From -- ./inp_files/200484.got.cif
#   From: 2010.06.25/outbox.cif.g09.slc.cpg/sg15_101_cif.got.tgz:200484.got - 2010.06.28 07:06:18.
