data_PCOD8150282
_publ_section_title
;
Structure prediction by ZEFSAII (Michael W. Deem and Ramdas Pophale) SiO2 
 PCOD8150282
Probable space group: C 2/C
;
_chemical_formula_sum "Si O2"
_cell_formula_units_Z 56
_cell_length_a 13.429113
_cell_length_b 14.622760
_cell_length_c 12.291962
_cell_angle_alpha 90.000000
_cell_angle_beta 94.112821
_cell_angle_gamma 90.000000
_cell_volume 2407.565070
_symmetry_space_group_name_H-M "C 2/C"
_symmetry_group_IT_number 15
_symmetry_cell_setting 'monoclinic'
loop_
_space_group_symop_operation_xyz
x,y,z
-x,y,1/2-z
-x,-y,-z
x,-y,1/2+z
1/2+x,1/2+y,z
1/2-x,1/2+y,1/2-z
1/2-x,1/2-y,-z
1/2+x,1/2-y,1/2+z
loop_
_atom_site_type_symbol
_atom_site_label
_atom_site_fract_x
_atom_site_fract_y
_atom_site_fract_z
Si Si1 0.784874 0.295282 0.298569
Si Si2 0.289753 0.473597 0.302945
Si Si3 0.850847 0.551241 0.517811
Si Si4 0.553943 0.125809 0.548115
Si Si5 0.569957 0.251300 0.360323
Si Si6 0.043548 0.095653 0.535894
Si Si7 0.810002 0.137419 0.140284
O O1 0.766801 0.401937 0.276833
O O2 0.884793 0.296417 0.380765
O O3 0.688203 0.251337 0.347578
O O4 0.806046 0.238530 0.190746
O O5 0.218448 0.498836 0.398377
O O6 0.385609 0.419387 0.354914
O O7 0.321629 0.563027 0.238028
O O8 0.892602 0.472343 0.443216
O O9 0.789687 0.620598 0.436729
O O10 0.940334 0.609610 0.581825
O O11 0.545801 0.158472 0.422566
O O12 0.500000 0.251110 0.250000
O O13 0.545117 0.338147 0.434329
O O14 0.096848 0.137119 0.433956
O O15 0.000000 0.000000 0.500000
#
# Coordination Sequence:
#
# PCOD8150282 Si02
#       7
#     8   8   8   8   8   8   8
#     4  12  25  44  73 102 142 184 237 293 356 422
#     4  11  24  46  71 101 143 182 236 291 359 418
#     4  10  24  45  70  97 142 184 231 290 354 419
#     4  11  25  45  69 105 136 183 237 288 347 429
#     4  12  25  45  70 101 140 184 234 291 358 418
#     4  11  27  44  72 101 145 185 237 291 355 427
#     4  11  25  47  72 105 141 189 235 293 359 422
#
# _framework density 23.260017000000001
#
# number of rings (size 3 to 8) (size 9 to 14) (size 15 to 20)
#    0.000    0.857    2.857    3.000    6.000    1.714 
#    0.000    0.000    0.000    0.000    0.000    0.000 
#    0.000    0.000    0.000    0.000    0.000    0.000 
#
# Total GULP energy -347259.109533 kJ/mol
# GULP energy per Si atom -12402.111055 kJ/mol
# Density = 2.320708 g / cm^3
# Si number density = 23.260017 Si / 1000 Ang^3
#
#
#
# Elastic Constant Matrix: (Units=GPa)
#
#
# Indices 1 2 3 4 5 6 
#
# 1 100.0477 12.3419 35.8647 0.0000 5.9003 0.0000
# 2 12.3419 60.9497 12.4128 0.0000 11.1838 0.0000
# 3 35.8647 12.4128 91.6388 0.0000 8.2283 0.0000
# 4 0.0000 0.0000 0.0000 50.2298 0.0000 -3.5960
# 5 5.9003 11.1838 8.2283 0.0000 24.3576 0.0000
# 6 0.0000 0.0000 0.0000 -3.5960 0.0000 27.4383
#
#
#
# Elastic Compliance Matrix: (Units=1/GPa)
#
#
# Indices 1 2 3 4 5 6 
#
# 1 0.011768 -0.001357 -0.004354 0.000000 -0.000757 0.000000
# 2 -0.001357 0.018346 -0.001265 0.000000 -0.007668 0.000000
# 3 -0.004354 -0.001265 0.013036 0.000000 -0.002768 0.000000
# 4 0.000000 0.000000 0.000000 0.020097 0.000000 0.002634
# 5 -0.000757 -0.007668 -0.002768 0.000000 0.045694 0.000000
# 6 0.000000 0.000000 0.000000 0.002634 0.000000 0.036791
#
#
# Mechanical properties :
#
#
# Convention : Reuss Voigt Hill
#
# Bulk Modulus (GPa) = 34.24940 41.54165 37.89552
# Shear Modulus (GPa) = 29.51272 33.20624 31.35948
#
# Velocity S-wave (km/s) = 3.56591 3.78247 3.67579
# Velocity P-wave (km/s) = 5.63124 6.08067 5.86027
#
# Compressibility (1/GPa) = 0.02919759
#
# Stress axis : x y z
#
# Youngs Moduli (GPa) = 84.97578 54.50635 76.70869
#
# Poissons Ratio (x) = 0.07399 0.33398
# Poissons Ratio (y) = 0.11535 0.09706
# Poissons Ratio (z) = 0.36997 0.06897
#
# Static dielectric constant tensor:
#      x y z
#    x 4.156020 0.000000 -0.349410 
#    y 0.000000 3.972800 0.000000 
#    z -0.349410 0.000000 3.836980 
# 
# 
# High freq. dielectric constant tensor:
#      x y z
#    x 1.930050 0.000000 0.000420 
#    y 0.000000 1.920870 0.000000 
#    z 0.000420 0.000000 1.920120 
# 
# From -- ./inp_files/97014.got.cif
#   From: 2010.06.25/outbox.cif.g09.slc.cpg/sg15_49_cif.got.tgz:97014.got - 2010.06.28 07:06:18.
