data_PCOD8150263
_publ_section_title
;
Structure prediction by ZEFSAII (Michael W. Deem and Ramdas Pophale) SiO2 
 PCOD8150263
Probable space group: C 2/C
;
_chemical_formula_sum "Si O2"
_cell_formula_units_Z 64
_cell_length_a 22.045007
_cell_length_b 11.856248
_cell_length_c 10.651894
_cell_angle_alpha 90.000000
_cell_angle_beta 97.960970
_cell_angle_gamma 90.000000
_cell_volume 2757.265601
_symmetry_space_group_name_H-M "C 2/C"
_symmetry_group_IT_number 15
_symmetry_cell_setting 'monoclinic'
loop_
_space_group_symop_operation_xyz
x,y,z
-x,y,1/2-z
-x,-y,-z
x,-y,1/2+z
1/2+x,1/2+y,z
1/2-x,1/2+y,1/2-z
1/2-x,1/2-y,-z
1/2+x,1/2-y,1/2+z
loop_
_atom_site_type_symbol
_atom_site_label
_atom_site_fract_x
_atom_site_fract_y
_atom_site_fract_z
Si Si1 0.080272 0.342436 0.163590
Si Si2 0.761700 0.117513 0.519725
Si Si3 0.897663 0.102635 0.930534
Si Si4 0.347207 0.966867 0.916038
Si Si5 0.781133 0.241016 0.875244
Si Si6 0.320791 0.679050 0.306602
Si Si7 0.447353 0.821914 0.063514
Si Si8 0.129014 0.009914 0.831736
O O1 0.118202 0.459591 0.180228
O O2 0.123793 0.248015 0.111646
O O3 0.065207 0.292923 0.295716
O O4 0.018109 0.358723 0.065776
O O5 0.750000 0.250000 0.500000
O O6 0.793183 0.086213 0.394527
O O7 0.813824 0.096063 0.639364
O O8 0.700763 0.044006 0.520339
O O9 0.826465 0.136134 0.895859
O O10 0.914846 0.050204 0.797452
O O11 0.937681 0.213089 0.971889
O O12 0.906660 0.009643 0.045272
O O13 0.314160 0.858921 0.846795
O O14 0.401528 0.923983 0.021714
O O15 0.728996 0.225794 0.753031
O O16 0.750000 0.250000 0.000000
O O17 0.343208 0.613040 0.190264
#
# Coordination Sequence:
#
# PCOD8150263 Si02
#       8
#     8   8   8   8   8   8   8   8
#     4  11  23  43  69  94 132 186 233 287 336 422
#     4  12  24  39  62 102 138 175 209 281 356 420
#     4  11  23  42  68  95 133 178 231 289 340 418
#     4  11  23  39  66  99 135 176 220 286 347 417
#     4  11  21  38  61  98 137 180 215 267 348 420
#     4  12  22  38  65  95 138 172 225 277 340 418
#     4  10  24  45  69  93 132 185 240 280 352 412
#     4  12  23  40  67  96 134 177 225 278 354 418
#
# _framework density 23.211402
#
# number of rings (size 3 to 8) (size 9 to 14) (size 15 to 20)
#    0.000    0.750    6.250    1.875    1.750    0.000 
#    0.000    0.625    2.750    0.000    0.000    0.000 
#    0.000    0.000    0.000    0.000    0.000    0.000 
#
# Total GULP energy -396551.714871 kJ/mol
# GULP energy per Si atom -12392.241090 kJ/mol
# Density = 2.315857 g / cm^3
# Si number density = 23.211402 Si / 1000 Ang^3
#
#
#
# Elastic Constant Matrix: (Units=GPa)
#
#
# Indices 1 2 3 4 5 6 
#
# 1 98.9677 31.5995 36.2741 0.0000 15.7826 0.0000
# 2 31.5995 101.6481 28.7509 0.0000 5.9907 0.0000
# 3 36.2741 28.7509 116.8016 0.0000 4.3015 0.0000
# 4 0.0000 0.0000 0.0000 42.6349 0.0000 0.5489
# 5 15.7826 5.9907 4.3015 0.0000 25.0345 0.0000
# 6 0.0000 0.0000 0.0000 0.5489 0.0000 30.3095
#
#
#
# Elastic Compliance Matrix: (Units=1/GPa)
#
#
# Indices 1 2 3 4 5 6 
#
# 1 0.013312 -0.002817 -0.003177 0.000000 -0.007172 0.000000
# 2 -0.002817 0.011281 -0.001880 0.000000 -0.000600 0.000000
# 3 -0.003177 -0.001880 0.009984 0.000000 0.000737 0.000000
# 4 0.000000 0.000000 0.000000 0.023460 0.000000 -0.000425
# 5 -0.007172 -0.000600 0.000737 0.000000 0.044484 0.000000
# 6 0.000000 0.000000 0.000000 -0.000425 0.000000 0.033001
#
#
# Mechanical properties :
#
#
# Convention : Reuss Voigt Hill
#
# Bulk Modulus (GPa) = 53.10873 56.74069 54.92471
# Shear Modulus (GPa) = 31.73713 34.31530 33.02622
#
# Velocity S-wave (km/s) = 3.70172 3.84914 3.77615
# Velocity P-wave (km/s) = 6.41876 6.65228 6.53656
#
# Compressibility (1/GPa) = 0.01882930
#
# Stress axis : x y z
#
# Youngs Moduli (GPa) = 75.12098 88.64706 100.16413
#
# Poissons Ratio (x) = 0.24973 0.31818
# Poissons Ratio (y) = 0.21162 0.18829
# Poissons Ratio (z) = 0.23863 0.16664
#
# Static dielectric constant tensor:
#      x y z
#    x 4.332000 0.000000 -0.015080 
#    y 0.000000 4.117930 0.000000 
#    z -0.015080 0.000000 4.405810 
# 
# 
# High freq. dielectric constant tensor:
#      x y z
#    x 1.899930 0.000000 0.005220 
#    y 0.000000 1.920140 0.000000 
#    z 0.005220 0.000000 1.913450 
# 
# From -- ./inp_files/118024.got.cif
#   From: 2010.06.25/outbox.cif.g09.slc.cpg/sg15_60_cif.got.tgz:118024.got - 2010.06.28 07:06:18.
