data_PCOD8150991
_publ_section_title
;
Structure prediction by ZEFSAII (Michael W. Deem and Ramdas Pophale) SiO2 
 PCOD8150991
Probable space group: C 2/C
;
_chemical_formula_sum "Si O2"
_cell_formula_units_Z 52
_cell_length_a 10.336626
_cell_length_b 20.198794
_cell_length_c 13.553527
_cell_angle_alpha 90.000000
_cell_angle_beta 58.000494
_cell_angle_gamma 90.000000
_cell_volume 2399.823995
_symmetry_space_group_name_H-M "C 2/C"
_symmetry_group_IT_number 15
_symmetry_cell_setting 'monoclinic'
loop_
_space_group_symop_operation_xyz
x,y,z
-x,y,1/2-z
-x,-y,-z
x,-y,1/2+z
1/2+x,1/2+y,z
1/2-x,1/2+y,1/2-z
1/2-x,1/2-y,-z
1/2+x,1/2-y,1/2+z
loop_
_atom_site_type_symbol
_atom_site_label
_atom_site_fract_x
_atom_site_fract_y
_atom_site_fract_z
Si Si1 0.957795 0.424165 0.029201
Si Si2 0.532505 0.362526 0.888790
Si Si3 0.000000 0.240310 0.250000
Si Si4 0.819602 0.350028 0.433162
Si Si5 0.204318 0.544081 0.709063
Si Si6 0.016479 0.009911 0.635422
Si Si7 0.272795 0.924689 0.919927
O O1 0.834141 0.428391 0.167103
O O2 0.097179 0.373648 0.998881
O O3 0.892759 0.395296 0.950896
O O4 0.000000 0.500000 0.000000
O O5 0.594209 0.307446 0.786778
O O6 0.524017 0.432926 0.839277
O O7 0.658364 0.367218 0.926569
O O8 0.361754 0.340785 0.988652
O O9 0.117465 0.281795 0.136535
O O10 0.872130 0.407996 0.338453
O O11 0.388624 0.546131 0.620121
O O12 0.152290 0.468042 0.700714
O O13 0.000000 0.041116 0.750000
O O14 0.180687 0.021002 0.522275
#
# Coordination Sequence:
#
# PCOD8150991 Si02
#       7
#     8   8   4   8   8   8   8
#     4  12  23  36  61  96 132 164 201 265 327 384
#     4  11  23  42  61  91 121 167 223 259 308 382
#     4  12  26  42  66  88 128 178 220 270 304 388
#     4  12  23  41  63  89 126 168 218 258 318 383
#     4  11  20  36  60  91 128 160 203 256 325 382
#     4  11  18  34  64  94 126 155 199 266 327 371
#     4  11  22  38  64  97 128 162 202 272 330 376
#
# _framework density 21.668254999999998
#
# number of rings (size 3 to 8) (size 9 to 14) (size 15 to 20)
#    0.000    0.615    8.462    1.385    0.000    0.000 
#    0.000    0.769    0.000    1.846    0.000    0.000 
#    0.000    0.000    0.000    0.000    0.000    0.000 
#
# Total GULP energy -322122.162588 kJ/mol
# GULP energy per Si atom -12389.313946 kJ/mol
# Density = 2.161894 g / cm^3
# Si number density = 21.668255 Si / 1000 Ang^3
#
#
#
# Elastic Constant Matrix: (Units=GPa)
#
#
# Indices 1 2 3 4 5 6 
#
# 1 144.2506 48.2665 28.3246 0.0000 29.3090 0.0000
# 2 48.2665 91.8963 15.6150 0.0000 13.6746 0.0000
# 3 28.3246 15.6150 39.5917 0.0000 18.9888 0.0000
# 4 0.0000 0.0000 0.0000 34.2121 0.0000 8.5658
# 5 29.3090 13.6746 18.9888 0.0000 36.1319 0.0000
# 6 0.0000 0.0000 0.0000 8.5658 0.0000 23.7546
#
#
#
# Elastic Compliance Matrix: (Units=1/GPa)
#
#
# Indices 1 2 3 4 5 6 
#
# 1 0.009849 -0.003913 -0.003184 0.000000 -0.004835 0.000000
# 2 -0.003913 0.013414 -0.002111 0.000000 -0.000794 0.000000
# 3 -0.003184 -0.002111 0.035760 0.000000 -0.015412 0.000000
# 4 0.000000 0.000000 0.000000 0.032130 0.000000 -0.011586
# 5 -0.004835 -0.000794 -0.015412 0.000000 0.039998 0.000000
# 6 0.000000 0.000000 0.000000 -0.011586 0.000000 0.046275
#
#
# Mechanical properties :
#
#
# Convention : Reuss Voigt Hill
#
# Bulk Modulus (GPa) = 24.62563 51.12787 37.87675
# Shear Modulus (GPa) = 23.88041 31.05521 27.46781
#
# Velocity S-wave (km/s) = 3.32338 3.78989 3.56427
# Velocity P-wave (km/s) = 5.11038 6.54201 5.87001
#
# Compressibility (1/GPa) = 0.04060809
#
# Stress axis : x y z
#
# Youngs Moduli (GPa) = 101.53147 74.55161 27.96428
#
# Poissons Ratio (x) = 0.29168 0.08904
# Poissons Ratio (y) = 0.39724 0.05902
# Poissons Ratio (z) = 0.32329 0.15735
#
# Static dielectric constant tensor:
#      x y z
#    x 4.335610 0.000000 0.429590 
#    y 0.000000 3.667440 0.000000 
#    z 0.429590 0.000000 4.372740 
# 
# 
# High freq. dielectric constant tensor:
#      x y z
#    x 1.861000 0.000000 0.007110 
#    y 0.000000 1.803280 0.000000 
#    z 0.007110 0.000000 1.858260 
# 
# From -- ./inp_files/146640.got.cif
#   From: 2010.06.25/outbox.cif.g09.slc.cpg/sg15_74_cif.got.tgz:146640.got - 2010.06.28 07:06:18.
