data_PCOD8150106
_publ_section_title
;
Structure prediction by ZEFSAII (Michael W. Deem and Ramdas Pophale) SiO2 
 PCOD8150106
Probable space group: C 2/C
;
_chemical_formula_sum "Si O2"
_cell_formula_units_Z 32
_cell_length_a 13.351551
_cell_length_b 6.520133
_cell_length_c 15.826777
_cell_angle_alpha 90.000000
_cell_angle_beta 60.783312
_cell_angle_gamma 90.000000
_cell_volume 1202.500916
_symmetry_space_group_name_H-M "C 2/C"
_symmetry_group_IT_number 15
_symmetry_cell_setting 'monoclinic'
loop_
_space_group_symop_operation_xyz
x,y,z
-x,y,1/2-z
-x,-y,-z
x,-y,1/2+z
1/2+x,1/2+y,z
1/2-x,1/2+y,1/2-z
1/2-x,1/2-y,-z
1/2+x,1/2-y,1/2+z
loop_
_atom_site_type_symbol
_atom_site_label
_atom_site_fract_x
_atom_site_fract_y
_atom_site_fract_z
Si Si1 0.649296 0.336702 0.984742
Si Si2 0.724895 0.676564 0.834597
Si Si3 0.589413 0.946402 0.372375
Si Si4 0.923666 0.158616 0.356883
O O1 0.693799 0.455861 0.883966
O O2 0.580002 0.143049 0.972918
O O3 0.750000 0.250000 0.000000
O O4 0.570586 0.490377 0.071433
O O5 0.797256 0.647833 0.719795
O O6 0.795076 0.800759 0.878289
O O7 0.608676 0.807989 0.864682
O O8 0.477477 0.876469 0.365934
O O9 0.000000 0.066546 0.250000
#
# Coordination Sequence:
#
# PCOD8150106 Si02
#       4
#     8   8   8   8
#     4  12  24  43  72 102 138 186 230 290 359 421
#     4  11  23  46  69  98 142 182 236 290 356 423
#     4  11  23  44  70  99 137 188 230 293 357 417
#     4  10  24  44  67 102 141 180 239 289 346 426
#
# _framework density 26.611205999999999
#
# number of rings (size 3 to 8) (size 9 to 14) (size 15 to 20)
#    0.000    1.000    5.000    1.500    0.000    1.000 
#    4.500    1.250    0.000    0.000    0.000    0.000 
#    0.000    0.000    0.000    0.000    0.000    0.000 
#
# Total GULP energy -198440.347988 kJ/mol
# GULP energy per Si atom -12402.521749 kJ/mol
# Density = 2.655064 g / cm^3
# Si number density = 26.611206 Si / 1000 Ang^3
#
#
#
# Elastic Constant Matrix: (Units=GPa)
#
#
# Indices 1 2 3 4 5 6 
#
# 1 60.8596 25.2042 -9.4638 0.0001 9.2899 0.0003
# 2 25.2042 105.2856 0.2023 0.0002 11.5028 0.0008
# 3 -9.4638 0.2023 76.9156 0.0000 16.2584 0.0000
# 4 0.0001 0.0002 0.0000 37.4210 0.0000 15.7892
# 5 9.2899 11.5028 16.2584 0.0000 30.5948 0.0001
# 6 0.0003 0.0008 0.0000 15.7892 0.0001 55.5345
#
#
#
# Elastic Compliance Matrix: (Units=1/GPa)
#
#
# Indices 1 2 3 4 5 6 
#
# 1 0.019673 -0.004008 0.003802 0.000000 -0.006487 0.000000
# 2 -0.004008 0.010772 0.000087 0.000000 -0.002879 0.000000
# 3 0.003802 0.000087 0.015456 0.000000 -0.009401 0.000000
# 4 0.000000 0.000000 0.000000 0.030366 0.000000 -0.008633
# 5 -0.006487 -0.002879 -0.009401 0.000000 0.040733 0.000000
# 6 0.000000 0.000000 0.000000 -0.008633 0.000000 0.020461
#
#
# Mechanical properties :
#
#
# Convention : Reuss Voigt Hill
#
# Bulk Modulus (GPa) = 21.89933 30.54956 26.22444
# Shear Modulus (GPa) = 32.69708 39.85127 36.27417
#
# Velocity S-wave (km/s) = 3.50908 3.87400 3.69605
# Velocity P-wave (km/s) = 4.96643 5.61386 5.30004
#
# Compressibility (1/GPa) = 0.04566349
#
# Stress axis : x y z
#
# Youngs Moduli (GPa) = 50.83213 92.83473 64.69971
#
# Poissons Ratio (x) = 0.37208 -0.24601
# Poissons Ratio (y) = 0.20373 -0.00564
# Poissons Ratio (z) = -0.19328 -0.00809
#
# Static dielectric constant tensor:
#      x y z
#    x 4.614960 0.000000 0.073800 
#    y 0.000000 4.907800 0.000000 
#    z 0.073800 0.000000 5.023850 
# 
# 
# High freq. dielectric constant tensor:
#      x y z
#    x 2.058630 0.000000 0.000730 
#    y 0.000000 2.070900 0.000000 
#    z 0.000730 0.000000 2.089840 
# 
# From -- ./inp_files/201805.got.cif
#   From: 2010.06.25/outbox.cif.g09.slc.cpg/sg15_101_cif.got.tgz:201805.got - 2010.06.28 07:06:18.
