data_PCOD8150137
_publ_section_title
;
Structure prediction by ZEFSAII (Michael W. Deem and Ramdas Pophale) SiO2 
 PCOD8150137
Probable space group: C 2/C
;
_chemical_formula_sum "Si O2"
_cell_formula_units_Z 52
_cell_length_a 12.056328
_cell_length_b 18.269574
_cell_length_c 11.921782
_cell_angle_alpha 90.000000
_cell_angle_beta 70.342720
_cell_angle_gamma 90.000000
_cell_volume 2472.903641
_symmetry_space_group_name_H-M "C 2/C"
_symmetry_group_IT_number 15
_symmetry_cell_setting 'monoclinic'
loop_
_space_group_symop_operation_xyz
x,y,z
-x,y,1/2-z
-x,-y,-z
x,-y,1/2+z
1/2+x,1/2+y,z
1/2-x,1/2+y,1/2-z
1/2-x,1/2-y,-z
1/2+x,1/2-y,1/2+z
loop_
_atom_site_type_symbol
_atom_site_label
_atom_site_fract_x
_atom_site_fract_y
_atom_site_fract_z
Si Si1 0.132951 0.416265 0.006547
Si Si2 0.137347 0.423273 0.422818
Si Si3 0.000000 0.144848 0.250000
Si Si4 0.225824 0.869925 0.334184
Si Si5 0.248948 0.297360 0.810693
Si Si6 0.992423 0.914207 0.512925
Si Si7 0.751022 0.328314 0.938829
O O1 0.161870 0.490922 0.931137
O O2 0.179462 0.349206 0.918202
O O3 0.196700 0.416498 0.104644
O O4 0.994070 0.408723 0.076427
O O5 0.232062 0.391390 0.303849
O O6 0.153563 0.380147 0.533816
O O7 0.888862 0.195114 0.264115
O O8 0.972893 0.097244 0.369044
O O9 0.231548 0.784509 0.356599
O O10 0.088576 0.885713 0.393042
O O11 0.201969 0.314055 0.702168
O O12 0.872102 0.873067 0.520053
O O13 0.000000 0.000000 0.500000
O O14 0.750000 0.250000 0.000000
#
# Coordination Sequence:
#
# PCOD8150137 Si02
#       7
#     8   8   4   8   8   8   8
#     4  11  26  45  72 101 133 185 230 285 341 412
#     4  11  27  46  68 100 144 178 230 280 347 420
#     4  10  24  44  68  98 138 176 226 288 342 404
#     4  12  25  44  74 101 134 180 234 287 337 410
#     4  11  25  43  74 100 136 180 231 286 343 408
#     4  11  26  43  73 102 138 182 232 285 351 415
#     4  11  25  47  66 102 146 185 220 286 353 416
#
# _framework density 21.027913000000002
#
# number of rings (size 3 to 8) (size 9 to 14) (size 15 to 20)
#    0.000    0.923    3.077    1.846   10.769    1.231 
#    0.000    0.000    0.000    0.000    0.000    0.000 
#    0.000    0.000    0.000    0.000    0.000    0.000 
#
# Total GULP energy -322447.986091 kJ/mol
# GULP energy per Si atom -12401.845619 kJ/mol
# Density = 2.098005 g / cm^3
# Si number density = 21.027913 Si / 1000 Ang^3
#
#
#
# Elastic Constant Matrix: (Units=GPa)
#
#
# Indices 1 2 3 4 5 6 
#
# 1 62.7606 25.4225 4.7818 0.0000 3.0040 0.0000
# 2 25.4225 138.9960 18.9177 0.0000 -11.7255 0.0000
# 3 4.7818 18.9177 73.5115 0.0000 -3.1544 0.0000
# 4 0.0000 0.0000 0.0000 36.1437 0.0000 1.4480
# 5 3.0040 -11.7255 -3.1544 0.0000 36.7379 0.0000
# 6 0.0000 0.0000 0.0000 1.4480 0.0000 31.6050
#
#
#
# Elastic Compliance Matrix: (Units=1/GPa)
#
#
# Indices 1 2 3 4 5 6 
#
# 1 0.017441 -0.003352 -0.000381 0.000000 -0.002529 0.000000
# 2 -0.003352 0.008285 -0.001795 0.000000 0.002764 0.000000
# 3 -0.000381 -0.001795 0.014119 0.000000 0.000670 0.000000
# 4 0.000000 0.000000 0.000000 0.027718 0.000000 -0.001270
# 5 -0.002529 0.002764 0.000670 0.000000 0.028366 0.000000
# 6 0.000000 0.000000 0.000000 -0.001270 0.000000 0.031699
#
#
# Mechanical properties :
#
#
# Convention : Reuss Voigt Hill
#
# Bulk Modulus (GPa) = 34.73424 41.50135 38.11780
# Shear Modulus (GPa) = 33.71996 35.97373 34.84684
#
# Velocity S-wave (km/s) = 4.00882 4.14062 4.07525
# Velocity P-wave (km/s) = 6.16291 6.52984 6.34903
#
# Compressibility (1/GPa) = 0.02879004
#
# Stress axis : x y z
#
# Youngs Moduli (GPa) = 57.33557 120.70005 70.82715
#
# Poissons Ratio (x) = 0.40453 0.02695
# Poissons Ratio (y) = 0.19216 0.12717
# Poissons Ratio (z) = 0.02182 0.21671
#
# Static dielectric constant tensor:
#      x y z
#    x 3.960680 0.000000 0.352660 
#    y 0.000000 3.947820 0.000000 
#    z 0.352660 0.000000 4.240550 
# 
# 
# High freq. dielectric constant tensor:
#      x y z
#    x 1.830490 0.000000 0.004730 
#    y 0.000000 1.839740 0.000000 
#    z 0.004730 0.000000 1.833700 
# 
# From -- ./inp_files/88839.got.cif
#   From: 2010.06.25/outbox.cif.g09.slc.cpg/sg15_45_cif.got.tgz:88839.got - 2010.06.28 07:06:18.
