data_PCOD8150827
_publ_section_title
;
Structure prediction by ZEFSAII (Michael W. Deem and Ramdas Pophale) SiO2 
 PCOD8150827
Probable space group: C 2/C
;
_chemical_formula_sum "Si O2"
_cell_formula_units_Z 36
_cell_length_a 21.724496
_cell_length_b 5.025081
_cell_length_c 16.352155
_cell_angle_alpha 90.000000
_cell_angle_beta 118.974874
_cell_angle_gamma 90.000000
_cell_volume 1561.681785
_symmetry_space_group_name_H-M "C 2/C"
_symmetry_group_IT_number 15
_symmetry_cell_setting 'monoclinic'
loop_
_space_group_symop_operation_xyz
x,y,z
-x,y,1/2-z
-x,-y,-z
x,-y,1/2+z
1/2+x,1/2+y,z
1/2-x,1/2+y,1/2-z
1/2-x,1/2-y,-z
1/2+x,1/2-y,1/2+z
loop_
_atom_site_type_symbol
_atom_site_label
_atom_site_fract_x
_atom_site_fract_y
_atom_site_fract_z
Si Si1 0.624913 0.076371 0.228756
Si Si2 0.000000 0.237046 0.750000
Si Si3 0.607621 0.477494 0.933911
Si Si4 0.300163 0.430208 0.659137
Si Si5 0.135295 0.515683 0.553319
O O1 0.555822 0.072945 0.241057
O O2 0.663163 0.361633 0.255999
O O3 0.601814 0.013643 0.121527
O O4 0.679308 0.863148 0.298927
O O5 0.036752 0.044217 0.839383
O O6 0.675040 0.482243 0.917585
O O7 0.597402 0.187396 0.966868
O O8 0.621653 0.686641 0.014870
O O9 0.217289 0.452279 0.610697
#
# Coordination Sequence:
#
# PCOD8150827 Si02
#       5
#     8   4   8   8   8
#     4  11  24  41  67  90 129 166 202 255 305 374
#     4  10  26  46  60  88 126 176 210 242 318 366
#     4  11  24  40  65  90 129 164 204 258 303 372
#     4  11  22  42  65  95 128 163 198 252 322 371
#     4  12  23  40  66 100 121 157 211 262 307 358
#
# _framework density 23.052071999999999
#
# number of rings (size 3 to 8) (size 9 to 14) (size 15 to 20)
#    0.000    0.889    0.000    8.000    0.000    9.778 
#    0.000    0.000    0.000    0.000    0.000    0.000 
#    0.000    0.000    0.000    0.000    0.000    0.000 
#
# Total GULP energy -223375.865380 kJ/mol
# GULP energy per Si atom -12409.770299 kJ/mol
# Density = 2.299960 g / cm^3
# Si number density = 23.052072 Si / 1000 Ang^3
#
#
#
# Elastic Constant Matrix: (Units=GPa)
#
#
# Indices 1 2 3 4 5 6 
#
# 1 60.8684 13.9490 35.6019 -0.0003 12.6092 0.0000
# 2 13.9490 70.1520 2.3955 -0.0009 -7.1917 0.0004
# 3 35.6019 2.3955 101.7547 -0.0001 -17.1961 0.0000
# 4 -0.0003 -0.0009 -0.0001 37.1953 0.0000 -9.5712
# 5 12.6092 -7.1917 -17.1961 0.0000 41.5003 0.0000
# 6 0.0000 0.0004 0.0000 -9.5712 0.0000 19.8031
#
#
#
# Elastic Compliance Matrix: (Units=1/GPa)
#
#
# Indices 1 2 3 4 5 6 
#
# 1 0.028148 -0.006694 -0.012186 0.000000 -0.014762 0.000000
# 2 -0.006694 0.016105 0.002988 0.000000 0.006063 0.000000
# 3 -0.012186 0.002988 0.015843 0.000000 0.010785 0.000000
# 4 0.000000 0.000000 0.000000 0.030704 0.000000 0.014840
# 5 -0.014762 0.006063 0.010785 0.000000 0.034101 0.000000
# 6 0.000000 0.000000 0.000000 0.014840 0.000000 0.057669
#
#
# Mechanical properties :
#
#
# Convention : Reuss Voigt Hill
#
# Bulk Modulus (GPa) = 35.31998 37.40756 36.36377
# Shear Modulus (GPa) = 22.34208 31.75498 27.04853
#
# Velocity S-wave (km/s) = 3.11658 3.71554 3.42916
# Velocity P-wave (km/s) = 5.32032 5.88809 5.61139
#
# Compressibility (1/GPa) = 0.02831259
#
# Stress axis : x y z
#
# Youngs Moduli (GPa) = 35.52612 62.09119 63.11804
#
# Poissons Ratio (x) = 0.41565 0.76913
# Poissons Ratio (y) = 0.23782 -0.18857
# Poissons Ratio (z) = 0.43291 -0.18550
#
# Static dielectric constant tensor:
#      x y z
#    x 4.159150 0.000000 -0.167450 
#    y 0.000000 4.229390 0.000000 
#    z -0.167450 0.000000 4.234260 
# 
# 
# High freq. dielectric constant tensor:
#      x y z
#    x 1.907130 0.000000 -0.006970 
#    y 0.000000 1.922550 0.000000 
#    z -0.006970 0.000000 1.920360 
# 
# From -- ./inp_files/208171.got.cif
#   From: 2010.06.25/outbox.cif.g09.slc.cpg/sg15_105_cif.got.tgz:208171.got - 2010.06.28 07:06:18.
