data_PCOD8150570
_publ_section_title
;
Structure prediction by ZEFSAII (Michael W. Deem and Ramdas Pophale) SiO2 
 PCOD8150570
Probable space group: C 2/C
;
_chemical_formula_sum "Si O2"
_cell_formula_units_Z 32
_cell_length_a 7.363126
_cell_length_b 18.649176
_cell_length_c 12.186800
_cell_angle_alpha 90.000000
_cell_angle_beta 123.966946
_cell_angle_gamma 90.000000
_cell_volume 1387.888787
_symmetry_space_group_name_H-M "C 2/C"
_symmetry_group_IT_number 15
_symmetry_cell_setting 'monoclinic'
loop_
_space_group_symop_operation_xyz
x,y,z
-x,y,1/2-z
-x,-y,-z
x,-y,1/2+z
1/2+x,1/2+y,z
1/2-x,1/2+y,1/2-z
1/2-x,1/2-y,-z
1/2+x,1/2-y,1/2+z
loop_
_atom_site_type_symbol
_atom_site_label
_atom_site_fract_x
_atom_site_fract_y
_atom_site_fract_z
Si Si1 0.500000 0.455288 0.750000
Si Si2 0.620043 0.782144 0.184617
Si Si3 0.000000 0.677524 0.250000
Si Si4 0.426691 0.118735 0.455240
Si Si5 0.179966 0.562248 0.725065
O O1 0.326823 0.404821 0.629495
O O2 0.381523 0.507182 0.798713
O O3 0.500000 0.747247 0.250000
O O4 0.784419 0.725729 0.187854
O O5 0.747822 0.854466 0.271387
O O6 0.447901 0.806337 0.031082
O O7 0.019197 0.627583 0.363389
O O8 0.574690 0.058875 0.566677
O O9 0.000000 0.535431 0.750000
#
# Coordination Sequence:
#
# PCOD8150570 Si02
#       5
#     4   8   4   8   8
#     4  12  23  44  68  94 137 170 208 276 322 370
#     4   9  22  47  67  95 129 169 220 266 319 383
#     4  12  23  44  66  96 137 168 210 272 322 380
#     4  10  25  43  63 104 127 169 223 253 329 392
#     4   9  22  47  66  97 128 168 221 265 320 385
#
# _framework density 23.056602999999999
#
# number of rings (size 3 to 8) (size 9 to 14) (size 15 to 20)
#    1.500    0.500    0.000    2.250    3.500    2.000 
#    9.000    0.000    0.000    0.000    0.000    0.000 
#    0.000    0.000    0.000    0.000    0.000    0.000 
#
# Total GULP energy -198233.160389 kJ/mol
# GULP energy per Si atom -12389.572524 kJ/mol
# Density = 2.300412 g / cm^3
# Si number density = 23.056603 Si / 1000 Ang^3
#
#
#
# Elastic Constant Matrix: (Units=GPa)
#
#
# Indices 1 2 3 4 5 6 
#
# 1 179.8970 63.8249 70.0544 0.0000 -18.3173 0.0000
# 2 63.8249 64.3038 35.7640 0.0000 -2.2214 0.0000
# 3 70.0544 35.7640 115.3332 0.0000 -24.1092 0.0000
# 4 0.0000 0.0000 0.0000 -45.4841 0.0000 71.5990
# 5 -18.3173 -2.2214 -24.1092 0.0000 43.7128 0.0000
# 6 0.0000 0.0000 0.0000 71.5990 0.0000 -50.7298
#
#
#
# Elastic Compliance Matrix: (Units=1/GPa)
#
#
# Indices 1 2 3 4 5 6 
#
# 1 0.009763 -0.007922 -0.003055 0.000000 0.002004 0.000000
# 2 -0.007922 0.025476 -0.003969 0.000000 -0.004214 0.000000
# 3 -0.003055 -0.003969 0.012939 0.000000 0.005654 0.000000
# 4 0.000000 0.000000 0.000000 0.017996 0.000000 0.025399
# 5 0.002004 -0.004214 0.005654 0.000000 0.026621 0.000000
# 6 0.000000 0.000000 0.000000 0.025399 0.000000 0.016135
#
#
# Mechanical properties :
#
#
# Convention : Reuss Voigt Hill
#
# Bulk Modulus (GPa) = 54.68538 77.64673 66.16605
# Shear Modulus (GPa) = 34.50286 2.15916 18.33101
#
# Velocity S-wave (km/s) = 3.87258 0.96876 2.82271
# Velocity P-wave (km/s) = 6.61553 5.91616 6.27560
#
# Compressibility (1/GPa) = 0.01828642
#
# Stress axis : x y z
#
# Youngs Moduli (GPa) = 102.42834 39.25249 77.28754
#
# Poissons Ratio (x) = 0.31096 0.23609
# Poissons Ratio (y) = 0.81145 0.30675
# Poissons Ratio (z) = 0.31288 0.15579
#
# Static dielectric constant tensor:
#      x y z
#    x 3.957990 0.000000 -0.125830 
#    y 0.000000 4.040450 0.000000 
#    z -0.125830 0.000000 3.958300 
# 
# 
# High freq. dielectric constant tensor:
#      x y z
#    x 1.903030 0.000000 -0.013760 
#    y 0.000000 1.916800 0.000000 
#    z -0.013760 0.000000 1.889900 
# 
# From -- ./inp_files/72778.got.cif
#   From: 2010.06.25/outbox.cif.g09.slc.cpg/sg15_37_cif.got.tgz:72778.got - 2010.06.28 07:06:18.
