data_PCOD8150750
_publ_section_title
;
Structure prediction by ZEFSAII (Michael W. Deem and Ramdas Pophale) SiO2 
 PCOD8150750
Probable space group: C 2/C
;
_chemical_formula_sum "Si O2"
_cell_formula_units_Z 48
_cell_length_a 12.427739
_cell_length_b 22.809014
_cell_length_c 8.427074
_cell_angle_alpha 90.000000
_cell_angle_beta 110.909381
_cell_angle_gamma 90.000000
_cell_volume 2231.465756
_symmetry_space_group_name_H-M "C 2/C"
_symmetry_group_IT_number 15
_symmetry_cell_setting 'monoclinic'
loop_
_space_group_symop_operation_xyz
x,y,z
-x,y,1/2-z
-x,-y,-z
x,-y,1/2+z
1/2+x,1/2+y,z
1/2-x,1/2+y,1/2-z
1/2-x,1/2-y,-z
1/2+x,1/2-y,1/2+z
loop_
_atom_site_type_symbol
_atom_site_label
_atom_site_fract_x
_atom_site_fract_y
_atom_site_fract_z
Si Si1 0.798463 0.576708 0.174380
Si Si2 0.209711 0.312585 0.420108
Si Si3 0.882014 0.468332 0.394359
Si Si4 0.500000 0.125103 0.750000
Si Si5 0.152303 0.267004 0.071144
Si Si6 0.500000 0.163822 0.250000
Si Si7 0.620862 0.350671 0.745709
O O1 0.802024 0.516993 0.274507
O O2 0.900167 0.622715 0.272255
O O3 0.674415 0.605973 0.141708
O O4 0.810820 0.559854 0.998533
O O5 0.250000 0.250000 0.500000
O O6 0.079322 0.332229 0.401880
O O7 0.208745 0.313238 0.225971
O O8 0.297763 0.355489 0.555318
O O9 0.000000 0.500000 0.500000
O O10 0.908663 0.414861 0.292783
O O11 0.106603 0.212546 0.152862
O O12 0.250000 0.250000 0.000000
O O13 0.048057 0.295804 0.917729
O O14 0.500000 0.372900 0.750000
#
# Coordination Sequence:
#
# PCOD8150750 Si02
#       7
#     8   8   8   4   8   4   8
#     4  12  25  43  69 106 139 185 236 311 370 420
#     4  10  26  40  68 100 139 190 232 287 352 435
#     4  12  22  40  71 109 139 171 238 309 380 416
#     4  12  23  40  76 108 142 179 226 308 374 426
#     4  11  25  40  67 104 138 188 236 291 362 433
#     4  12  23  40  72 108 150 167 228 308 370 430
#     4  11  27  48  66  95 150 202 244 285 354 445
#
# _framework density 21.510522999999999
#
# number of rings (size 3 to 8) (size 9 to 14) (size 15 to 20)
#    0.000    0.667    5.000    2.000    9.333    0.000 
#    0.000    0.833    0.000    0.000    0.000    0.000 
#    0.000    0.000    0.000    0.000    0.000    0.000 
#
# Total GULP energy -297399.425811 kJ/mol
# GULP energy per Si atom -12391.642742 kJ/mol
# Density = 2.146156 g / cm^3
# Si number density = 21.510523 Si / 1000 Ang^3
#
#
#
# Elastic Constant Matrix: (Units=GPa)
#
#
# Indices 1 2 3 4 5 6 
#
# 1 156.1243 66.8936 52.6781 0.0000 -9.0275 0.0000
# 2 66.8936 127.5846 55.8084 0.0000 -0.7024 0.0000
# 3 52.6781 55.8084 149.0579 0.0000 -3.5411 0.0000
# 4 0.0000 0.0000 0.0000 49.8787 0.0000 6.7004
# 5 -9.0275 -0.7024 -3.5411 0.0000 42.5593 0.0000
# 6 0.0000 0.0000 0.0000 6.7004 0.0000 41.3121
#
#
#
# Elastic Compliance Matrix: (Units=1/GPa)
#
#
# Indices 1 2 3 4 5 6 
#
# 1 0.008686 -0.003850 -0.001589 0.000000 0.001647 0.000000
# 2 -0.003850 0.011080 -0.002809 0.000000 -0.000867 0.000000
# 3 -0.001589 -0.002809 0.008329 0.000000 0.000310 0.000000
# 4 0.000000 0.000000 0.000000 0.020495 0.000000 -0.003324
# 5 0.001647 -0.000867 0.000310 0.000000 0.023857 0.000000
# 6 0.000000 0.000000 0.000000 -0.003324 0.000000 0.024745
#
#
# Mechanical properties :
#
#
# Convention : Reuss Voigt Hill
#
# Bulk Modulus (GPa) = 86.20435 87.05858 86.63146
# Shear Modulus (GPa) = 42.53308 43.90913 43.22110
#
# Velocity S-wave (km/s) = 4.45152 4.52296 4.48738
# Velocity P-wave (km/s) = 8.15989 8.23630 8.19819
#
# Compressibility (1/GPa) = 0.01160034
#
# Stress axis : x y z
#
# Youngs Moduli (GPa) = 115.12557 90.25054 120.05802
#
# Poissons Ratio (x) = 0.34747 0.19079
# Poissons Ratio (y) = 0.44324 0.33718
# Poissons Ratio (z) = 0.18295 0.25347
#
# Static dielectric constant tensor:
#      x y z
#    x 3.793670 0.000000 -0.004960 
#    y 0.000000 4.554970 0.000000 
#    z -0.004960 0.000000 4.583630 
# 
# 
# High freq. dielectric constant tensor:
#      x y z
#    x 1.823540 0.000000 -0.017790 
#    y 0.000000 1.849060 0.000000 
#    z -0.017790 0.000000 1.853180 
# 
# From -- ./inp_files/32698.got.cif
#   From: 2010.06.25/outbox.cif.g09.slc.cpg/sg15_17_cif.got.tgz:32698.got - 2010.06.28 07:06:18.
