data_PCOD8150289
_publ_section_title
;
Structure prediction by ZEFSAII (Michael W. Deem and Ramdas Pophale) SiO2 
 PCOD8150289
Probable space group: C 2/C
;
_chemical_formula_sum "Si O2"
_cell_formula_units_Z 44
_cell_length_a 7.946263
_cell_length_b 26.443992
_cell_length_c 11.577657
_cell_angle_alpha 90.000000
_cell_angle_beta 119.795060
_cell_angle_gamma 90.000000
_cell_volume 2111.224563
_symmetry_space_group_name_H-M "C 2/C"
_symmetry_group_IT_number 15
_symmetry_cell_setting 'monoclinic'
loop_
_space_group_symop_operation_xyz
x,y,z
-x,y,1/2-z
-x,-y,-z
x,-y,1/2+z
1/2+x,1/2+y,z
1/2-x,1/2+y,1/2-z
1/2-x,1/2-y,-z
1/2+x,1/2-y,1/2+z
loop_
_atom_site_type_symbol
_atom_site_label
_atom_site_fract_x
_atom_site_fract_y
_atom_site_fract_z
Si Si1 0.834974 0.145639 0.914247
Si Si2 0.376464 0.313142 0.813249
Si Si3 0.000000 0.283747 0.250000
Si Si4 0.500000 0.607049 0.750000
Si Si5 0.625273 0.949943 0.406918
Si Si6 0.000000 0.634769 0.250000
Si Si7 0.327117 0.940249 0.508932
O O1 0.649950 0.181570 0.872017
O O2 0.866293 0.141364 0.786851
O O3 0.798334 0.090890 0.960573
O O4 0.025888 0.170426 0.033573
O O5 0.500000 0.338312 0.750000
O O6 0.385930 0.252001 0.803066
O O7 0.152640 0.330323 0.732667
O O8 0.371117 0.571832 0.624055
O O9 0.500000 0.941398 0.250000
O O10 0.504045 0.941368 0.480985
O O11 0.708804 0.006594 0.438487
O O12 0.126099 0.601269 0.379519
#
# Coordination Sequence:
#
# PCOD8150289 Si02
#       7
#     8   8   4   4   8   4   8
#     4  12  22  46  68  98 135 180 227 282 343 408
#     4  10  25  43  68 101 132 183 225 286 346 399
#     4  10  24  45  71  96 134 170 236 286 344 408
#     4  12  24  41  67 100 136 177 225 276 336 410
#     4  11  22  42  69  92 135 185 220 277 344 400
#     4  12  22  46  70  98 148 173 231 288 334 416
#     4  11  24  42  66 101 135 178 229 274 340 409
#
# _framework density 20.840985
#
# number of rings (size 3 to 8) (size 9 to 14) (size 15 to 20)
#    0.545    0.364    5.455    1.636    0.000    1.455 
#    8.182    1.818    0.000    0.000    0.000    0.000 
#    0.000    0.000    0.000    0.000    0.000    0.000 
#
# Total GULP energy -272838.164947 kJ/mol
# GULP energy per Si atom -12401.734770 kJ/mol
# Density = 2.079355 g / cm^3
# Si number density = 20.840985 Si / 1000 Ang^3
#
#
#
# Elastic Constant Matrix: (Units=GPa)
#
#
# Indices 1 2 3 4 5 6 
#
# 1 104.8762 54.8468 18.6630 0.0000 0.4400 0.0000
# 2 54.8468 127.7893 28.3960 0.0000 3.4656 0.0000
# 3 18.6630 28.3960 72.7738 0.0000 11.1449 0.0000
# 4 0.0000 0.0000 0.0000 19.3543 0.0000 0.8153
# 5 0.4400 3.4656 11.1449 0.0000 39.0803 0.0000
# 6 0.0000 0.0000 0.0000 0.8153 0.0000 15.5721
#
#
#
# Elastic Compliance Matrix: (Units=1/GPa)
#
#
# Indices 1 2 3 4 5 6 
#
# 1 0.012408 -0.005052 -0.001316 0.000000 0.000683 0.000000
# 2 -0.005052 0.010627 -0.002839 0.000000 -0.000076 0.000000
# 3 -0.001316 -0.002839 0.015837 0.000000 -0.004250 0.000000
# 4 0.000000 0.000000 0.000000 0.051782 0.000000 -0.002711
# 5 0.000683 -0.000076 -0.004250 0.000000 0.026799 0.000000
# 6 0.000000 0.000000 0.000000 -0.002711 0.000000 0.064359
#
#
# Mechanical properties :
#
#
# Convention : Reuss Voigt Hill
#
# Bulk Modulus (GPa) = 48.87882 56.58344 52.73113
# Shear Modulus (GPa) = 24.14920 28.37023 26.25972
#
# Velocity S-wave (km/s) = 3.40771 3.69354 3.55350
# Velocity P-wave (km/s) = 6.24400 6.73786 6.49562
#
# Compressibility (1/GPa) = 0.02045876
#
# Stress axis : x y z
#
# Youngs Moduli (GPa) = 80.59188 94.10383 63.14200
#
# Poissons Ratio (x) = 0.47539 0.08307
# Poissons Ratio (y) = 0.40713 0.17928
# Poissons Ratio (z) = 0.10603 0.26719
#
# Static dielectric constant tensor:
#      x y z
#    x 3.758060 0.000000 -0.128400 
#    y 0.000000 3.852150 0.000000 
#    z -0.128400 0.000000 3.678260 
# 
# 
# High freq. dielectric constant tensor:
#      x y z
#    x 1.813200 0.000000 -0.000440 
#    y 0.000000 1.818280 0.000000 
#    z -0.000440 0.000000 1.814940 
# 
# From -- ./inp_files/80017.got.cif
#   From: 2010.06.25/outbox.cif.g09.slc.cpg/sg15_41_cif.got.tgz:80017.got - 2010.06.28 07:06:18.
