data_PCOD8150913
_publ_section_title
;
Structure prediction by ZEFSAII (Michael W. Deem and Ramdas Pophale) SiO2 
 PCOD8150913
Probable space group: C 2/C
;
_chemical_formula_sum "Si O2"
_cell_formula_units_Z 32
_cell_length_a 12.400401
_cell_length_b 19.069653
_cell_length_c 12.983788
_cell_angle_alpha 90.000000
_cell_angle_beta 23.637159
_cell_angle_gamma 90.000000
_cell_volume 1231.013582
_symmetry_space_group_name_H-M "C 2/C"
_symmetry_group_IT_number 15
_symmetry_cell_setting 'monoclinic'
loop_
_space_group_symop_operation_xyz
x,y,z
-x,y,1/2-z
-x,-y,-z
x,-y,1/2+z
1/2+x,1/2+y,z
1/2-x,1/2+y,1/2-z
1/2-x,1/2-y,-z
1/2+x,1/2-y,1/2+z
loop_
_atom_site_type_symbol
_atom_site_label
_atom_site_fract_x
_atom_site_fract_y
_atom_site_fract_z
Si Si1 0.094276 0.422607 0.949784
Si Si2 0.769787 0.901262 0.574853
Si Si3 0.500000 0.704647 0.750000
Si Si4 0.106997 0.293663 0.270530
Si Si5 0.000000 0.024461 0.250000
O O1 0.235298 0.392253 0.725675
O O2 0.301374 0.425076 0.862877
O O3 0.000000 0.500000 0.000000
O O4 0.869079 0.367965 0.187797
O O5 0.500000 0.876809 0.750000
O O6 0.022994 0.849897 0.325935
O O7 0.842335 0.979401 0.474159
O O8 0.750000 0.750000 0.500000
O O9 0.000000 0.308807 0.250000
O O10 0.897657 0.243030 0.514254
#
# Coordination Sequence:
#
# PCOD8150913 Si02
#       5
#     8   8   4   8   4
#     4  12  27  46  84 117 158 212 271 338 402 477
#     4  11  24  47  71 112 154 199 261 325 406 471
#     4  11  24  46  76 106 154 207 262 326 390 491
#     4  10  26  51  78 113 161 211 264 333 409 483
#     4  11  26  46  74 110 160 197 260 332 404 467
#
# _framework density 25.994838000000001
#
# number of rings (size 3 to 8) (size 9 to 14) (size 15 to 20)
#    0.000    1.000    3.750    0.750    8.750    4.000 
#    0.000    0.000    0.000    0.000    0.000    0.000 
#    0.000    0.000    0.000    0.000    0.000    0.000 
#
# Total GULP energy -198247.171787 kJ/mol
# GULP energy per Si atom -12390.448237 kJ/mol
# Density = 2.593567 g / cm^3
# Si number density = 25.994838 Si / 1000 Ang^3
#
#
#
# Elastic Constant Matrix: (Units=GPa)
#
#
# Indices 1 2 3 4 5 6 
#
# 1 93.6483 35.1788 30.1592 0.3194 16.1480 0.2989
# 2 35.1788 155.2232 71.8573 -0.1887 27.1246 0.3100
# 3 30.1592 71.8573 163.9531 -0.1386 27.0044 0.4055
# 4 0.3194 -0.1887 -0.1386 20.7646 -0.0041 -14.0756
# 5 16.1480 27.1246 27.0044 -0.0041 44.3940 -0.2159
# 6 0.2989 0.3100 0.4055 -14.0756 -0.2159 7.8202
#
#
#
# Elastic Compliance Matrix: (Units=1/GPa)
#
#
# Indices 1 2 3 4 5 6 
#
# 1 0.012126 -0.001824 -0.000998 0.002228 -0.002672 0.003597
# 2 -0.001824 0.008757 -0.003035 0.000217 -0.002840 0.000192
# 3 -0.000998 -0.003035 0.008051 0.000839 -0.002674 0.001177
# 4 0.002228 0.000217 0.000839 -0.217967 -0.003383 -0.392552
# 5 -0.002672 -0.002840 -0.002674 -0.003383 0.026835 -0.004994
# 6 0.003597 0.000192 0.001177 -0.392552 -0.004994 -0.579028
#
#
# Mechanical properties :
#
#
# Convention : Reuss Voigt Hill
#
# Bulk Modulus (GPa) = 58.07021 76.35723 67.21372
# Shear Modulus (GPa) = -6.90826 32.97103 13.03139
#
# Velocity S-wave (km/s) = -1.63197 3.56528 2.24142
# Velocity P-wave (km/s) = 4.34011 6.81073 5.71063
#
# Compressibility (1/GPa) = 0.01722053
#
# Stress axis : x y z
#
# Youngs Moduli (GPa) = 82.46448 114.19734 124.20217
#
# Poissons Ratio (x) = 0.20826 0.12400
# Poissons Ratio (y) = 0.15039 0.37695
# Poissons Ratio (z) = 0.08233 0.34659
#
# Static dielectric constant tensor:
#      x y z
#    x 4.433740 -0.000750 0.478140 
#    y -0.000750 5.205200 0.003880 
#    z 0.478140 0.003880 4.789770 
# 
# 
# High freq. dielectric constant tensor:
#      x y z
#    x 2.022880 -0.000080 0.024400 
#    y -0.000080 2.055540 0.000160 
#    z 0.024400 0.000160 2.055670 
# 
# From -- ./inp_files/89287.got.cif
#   From: 2010.06.25/outbox.cif.g09.slc.cpg/sg15_45_cif.got.tgz:89287.got - 2010.06.28 07:06:18.
