data_PCOD8150885
_publ_section_title
;
Structure prediction by ZEFSAII (Michael W. Deem and Ramdas Pophale) SiO2 
 PCOD8150885
Probable space group: C 2/C
;
_chemical_formula_sum "Si O2"
_cell_formula_units_Z 48
_cell_length_a 9.351815
_cell_length_b 25.910303
_cell_length_c 15.616957
_cell_angle_alpha 90.000000
_cell_angle_beta 144.994011
_cell_angle_gamma 90.000000
_cell_volume 2170.805630
_symmetry_space_group_name_H-M "C 2/C"
_symmetry_group_IT_number 15
_symmetry_cell_setting 'monoclinic'
loop_
_space_group_symop_operation_xyz
x,y,z
-x,y,1/2-z
-x,-y,-z
x,-y,1/2+z
1/2+x,1/2+y,z
1/2-x,1/2+y,1/2-z
1/2-x,1/2-y,-z
1/2+x,1/2-y,1/2+z
loop_
_atom_site_type_symbol
_atom_site_label
_atom_site_fract_x
_atom_site_fract_y
_atom_site_fract_z
Si Si1 0.359226 0.071114 0.262678
Si Si2 0.301365 0.392188 0.506528
Si Si3 0.991764 0.633400 0.020932
Si Si4 0.341520 0.767825 0.795698
Si Si5 0.000000 0.472659 0.250000
Si Si6 0.000000 0.189152 0.750000
Si Si7 0.341968 0.716938 0.966722
O O1 0.500000 0.097275 0.250000
O O2 0.530739 0.082026 0.431033
O O3 0.333311 0.009615 0.230492
O O4 0.092741 0.095346 0.154468
O O5 0.258057 0.342133 0.427451
O O6 0.197128 0.378561 0.549436
O O7 0.167259 0.439480 0.395224
O O8 0.060671 0.677628 0.123439
O O9 0.734143 0.650804 0.851046
O O10 0.537680 0.726782 0.850975
O O11 0.142079 0.777673 0.621962
O O12 0.229437 0.739288 0.824101
O O13 0.250000 0.750000 0.000000
#
# Coordination Sequence:
#
# PCOD8150885 Si02
#       7
#     8   8   8   8   4   4   8
#     4  10  26  48  74 102 141 187 244 307 380 433
#     4  12  25  47  77 106 146 188 246 302 374 448
#     4  12  26  44  72 106 143 203 242 301 370 436
#     4  12  25  42  65 106 151 201 242 291 362 439
#     4  10  28  47  78 110 134 193 246 320 380 426
#     4  12  28  43  66 112 162 191 252 298 358 450
#     4  12  25  40  71 107 151 191 245 295 362 449
#
# _framework density 22.111606999999999
#
# number of rings (size 3 to 8) (size 9 to 14) (size 15 to 20)
#    0.500    0.000    5.000    2.000    8.167    0.667 
#    0.000    0.000    0.000    0.000    0.000    0.000 
#    0.000    0.000    0.000    0.000    0.000    0.000 
#
# Total GULP energy -297384.080249 kJ/mol
# GULP energy per Si atom -12391.003344 kJ/mol
# Density = 2.206128 g / cm^3
# Si number density = 22.111607 Si / 1000 Ang^3
#
#
#
# Elastic Constant Matrix: (Units=GPa)
#
#
# Indices 1 2 3 4 5 6 
#
# 1 136.2712 48.6397 44.7821 0.0000 -1.3630 0.0000
# 2 48.6397 131.2660 37.2366 0.0000 -5.6096 0.0000
# 3 44.7821 37.2366 84.2593 0.0000 -4.4798 0.0000
# 4 0.0000 0.0000 0.0000 48.9155 0.0000 -5.4912
# 5 -1.3630 -5.6096 -4.4798 0.0000 37.6696 0.0000
# 6 0.0000 0.0000 0.0000 -5.4912 0.0000 36.1272
#
#
#
# Elastic Compliance Matrix: (Units=1/GPa)
#
#
# Indices 1 2 3 4 5 6 
#
# 1 0.009513 -0.002406 -0.004019 0.000000 -0.000492 0.000000
# 2 -0.002406 0.009345 -0.002800 0.000000 0.000972 0.000000
# 3 -0.004019 -0.002800 0.015308 0.000000 0.001258 0.000000
# 4 0.000000 0.000000 0.000000 0.020798 0.000000 0.003161
# 5 -0.000492 0.000972 0.001258 0.000000 0.026823 0.000000
# 6 0.000000 0.000000 0.000000 0.003161 0.000000 0.028160
#
#
# Mechanical properties :
#
#
# Convention : Reuss Voigt Hill
#
# Bulk Modulus (GPa) = 63.62269 68.12370 65.87320
# Shear Modulus (GPa) = 37.41508 39.28501 38.35004
#
# Velocity S-wave (km/s) = 4.11798 4.21963 4.16911
# Velocity P-wave (km/s) = 7.17260 7.39028 7.28226
#
# Compressibility (1/GPa) = 0.01571766
#
# Stress axis : x y z
#
# Youngs Moduli (GPa) = 105.12141 107.00558 65.32472
#
# Poissons Ratio (x) = 0.25745 0.26253
# Poissons Ratio (y) = 0.25291 0.18288
# Poissons Ratio (z) = 0.42246 0.29957
#
# Static dielectric constant tensor:
#      x y z
#    x 3.944860 0.000000 0.003120 
#    y 0.000000 4.142120 0.000000 
#    z 0.003120 0.000000 4.232600 
# 
# 
# High freq. dielectric constant tensor:
#      x y z
#    x 1.875420 0.000000 -0.005180 
#    y 0.000000 1.869500 0.000000 
#    z -0.005180 0.000000 1.868980 
# 
# From -- ./inp_files/115137.got.cif
#   From: 2010.06.25/outbox.cif.g09.slc.cpg/sg15_58_cif.got.tgz:115137.got - 2010.06.28 07:06:18.
