data_PCOD8150502
_publ_section_title
;
Structure prediction by ZEFSAII (Michael W. Deem and Ramdas Pophale) SiO2 
 PCOD8150502
Probable space group: C 2/C
;
_chemical_formula_sum "Si O2"
_cell_formula_units_Z 48
_cell_length_a 14.803960
_cell_length_b 19.019682
_cell_length_c 11.571399
_cell_angle_alpha 90.000000
_cell_angle_beta 40.177222
_cell_angle_gamma 90.000000
_cell_volume 2101.988861
_symmetry_space_group_name_H-M "C 2/C"
_symmetry_group_IT_number 15
_symmetry_cell_setting 'monoclinic'
loop_
_space_group_symop_operation_xyz
x,y,z
-x,y,1/2-z
-x,-y,-z
x,-y,1/2+z
1/2+x,1/2+y,z
1/2-x,1/2+y,1/2-z
1/2-x,1/2-y,-z
1/2+x,1/2-y,1/2+z
loop_
_atom_site_type_symbol
_atom_site_label
_atom_site_fract_x
_atom_site_fract_y
_atom_site_fract_z
Si Si1 0.500000 0.459535 0.250000
Si Si2 0.796859 0.078177 0.508656
Si Si3 0.340121 0.708076 0.321827
Si Si4 0.561673 0.883826 0.574087
Si Si5 0.574967 0.225317 0.449403
Si Si6 0.000000 0.520077 0.750000
Si Si7 0.363589 0.368630 0.201405
O O1 0.362720 0.503422 0.415812
O O2 0.478009 0.414971 0.155088
O O3 0.865900 0.130608 0.347158
O O4 0.629496 0.071259 0.653976
O O5 0.831481 0.103760 0.603791
O O6 0.250000 0.750000 0.500000
O O7 0.237046 0.705504 0.312384
O O8 0.486843 0.746428 0.147712
O O9 0.500000 0.847552 0.750000
O O10 0.495132 0.845933 0.528113
O O11 0.726056 0.870790 0.413522
O O12 0.529703 0.968312 0.610251
O O13 0.574308 0.290005 0.360703
#
# Coordination Sequence:
#
# PCOD8150502 Si02
#       7
#     4   8   8   8   8   4   8
#     4  12  26  49  69 102 146 196 238 298 358 442
#     4  12  26  46  74 106 150 185 243 299 365 445
#     4  12  26  44  71 109 147 183 240 298 371 426
#     4  10  24  49  67 106 144 183 250 291 366 430
#     4  12  25  45  76 107 145 194 236 309 361 432
#     4  10  26  47  73 102 146 196 230 304 356 442
#     4  12  26  46  73 107 142 192 246 297 368 432
#
# _framework density 22.835515000000001
#
# number of rings (size 3 to 8) (size 9 to 14) (size 15 to 20)
#    0.500    0.000    5.000    2.000    5.833    5.333 
#    0.000    0.000    0.000    0.000    0.000    0.000 
#    0.000    0.000    0.000    0.000    0.000    0.000 
#
# Total GULP energy -297547.583151 kJ/mol
# GULP energy per Si atom -12397.815965 kJ/mol
# Density = 2.278354 g / cm^3
# Si number density = 22.835515 Si / 1000 Ang^3
#
#
#
# Elastic Constant Matrix: (Units=GPa)
#
#
# Indices 1 2 3 4 5 6 
#
# 1 117.1275 46.6221 15.6921 -0.0005 -6.9812 0.0003
# 2 46.6221 92.2428 8.2328 -0.0010 11.2351 0.0008
# 3 15.6921 8.2328 101.5759 -0.0011 0.1626 0.0012
# 4 -0.0005 -0.0010 -0.0011 36.1268 0.0006 5.6447
# 5 -6.9812 11.2351 0.1626 0.0006 36.4492 -0.0005
# 6 0.0003 0.0008 0.0012 5.6447 -0.0005 42.5515
#
#
#
# Elastic Compliance Matrix: (Units=1/GPa)
#
#
# Indices 1 2 3 4 5 6 
#
# 1 0.011397 -0.006144 -0.001269 0.000000 0.004082 0.000000
# 2 -0.006144 0.014661 -0.000230 0.000000 -0.005695 0.000000
# 3 -0.001269 -0.000230 0.010060 0.000000 -0.000217 0.000000
# 4 0.000000 0.000000 0.000000 0.028266 -0.000001 -0.003750
# 5 0.004082 -0.005695 -0.000217 -0.000001 0.029974 0.000001
# 6 0.000000 0.000000 0.000000 -0.003750 0.000001 0.023998
#
#
# Mechanical properties :
#
#
# Convention : Reuss Voigt Hill
#
# Bulk Modulus (GPa) = 48.00638 50.22669 49.11654
# Shear Modulus (GPa) = 35.56553 39.05210 37.30882
#
# Velocity S-wave (km/s) = 3.95076 4.13988 4.04642
# Velocity P-wave (km/s) = 6.47145 6.70031 6.58687
#
# Compressibility (1/GPa) = 0.02083056
#
# Stress axis : x y z
#
# Youngs Moduli (GPa) = 87.74444 68.21030 99.40450
#
# Poissons Ratio (x) = 0.41910 0.12616
# Poissons Ratio (y) = 0.53912 0.02286
# Poissons Ratio (z) = 0.11136 0.01568
#
# Static dielectric constant tensor:
#      x y z
#    x 3.872710 -0.000050 -0.276440 
#    y -0.000050 7.446970 0.000030 
#    z -0.276440 0.000030 4.227560 
# 
# 
# High freq. dielectric constant tensor:
#      x y z
#    x 1.901020 0.000000 -0.015020 
#    y 0.000000 1.903470 0.000000 
#    z -0.015020 0.000000 1.909390 
# 
# From -- ./inp_files/100028.got.cif
#   From: 2010.06.25/outbox.cif.g09.slc.cpg/sg15_51_cif.got.tgz:100028.got - 2010.06.28 07:06:18.
