data_PCOD8150090
_publ_section_title
;
Structure prediction by ZEFSAII (Michael W. Deem and Ramdas Pophale) SiO2 
 PCOD8150090
Probable space group: C 2/C
;
_chemical_formula_sum "Si O2"
_cell_formula_units_Z 36
_cell_length_a 20.436715
_cell_length_b 16.518680
_cell_length_c 12.809245
_cell_angle_alpha 90.000000
_cell_angle_beta 22.574897
_cell_angle_gamma 90.000000
_cell_volume 1660.036606
_symmetry_space_group_name_H-M "C 2/C"
_symmetry_group_IT_number 15
_symmetry_cell_setting 'monoclinic'
loop_
_space_group_symop_operation_xyz
x,y,z
-x,y,1/2-z
-x,-y,-z
x,-y,1/2+z
1/2+x,1/2+y,z
1/2-x,1/2+y,1/2-z
1/2-x,1/2-y,-z
1/2+x,1/2-y,1/2+z
loop_
_atom_site_type_symbol
_atom_site_label
_atom_site_fract_x
_atom_site_fract_y
_atom_site_fract_z
Si Si1 0.000000 0.774540 0.250000
Si Si2 0.203758 0.356754 0.950313
Si Si3 0.290194 0.113001 0.287091
Si Si4 0.308122 0.444418 0.006118
Si Si5 0.122014 0.695373 0.862248
O O1 0.842225 0.832228 0.451773
O O2 0.944934 0.716589 0.425000
O O3 0.268680 0.397099 0.746535
O O4 0.277932 0.410132 0.934831
O O5 0.290257 0.268336 0.829447
O O6 0.000000 0.350397 0.250000
O O7 0.306852 0.025276 0.315363
O O8 0.467644 0.161090 0.020455
O O9 0.500000 0.470162 0.750000
O O10 0.257128 0.378131 0.168754
#
# Coordination Sequence:
#
# PCOD8150090 Si02
#       5
#     4   8   8   8   8
#     4  10  24  44  66 100 138 174 232 272 338 402
#     4  11  25  44  73 101 138 174 229 281 333 405
#     4  11  24  47  66 100 139 179 223 283 333 404
#     4  12  26  44  71 102 137 177 230 278 338 399
#     4  11  24  42  72  97 134 182 222 276 337 399
#
# _framework density 21.686267000000001
#
# number of rings (size 3 to 8) (size 9 to 14) (size 15 to 20)
#    0.000    0.889    3.333    2.667    6.222    2.667 
#    0.000    0.000    0.000    0.000    0.000    0.000 
#    0.000    0.000    0.000    0.000    0.000    0.000 
#
# Total GULP energy -223196.398717 kJ/mol
# GULP energy per Si atom -12399.799929 kJ/mol
# Density = 2.163691 g / cm^3
# Si number density = 21.686267 Si / 1000 Ang^3
#
#
#
# Elastic Constant Matrix: (Units=GPa)
#
#
# Indices 1 2 3 4 5 6 
#
# 1 105.4803 53.1074 34.9961 0.0046 10.8173 -0.0020
# 2 53.1074 131.7058 24.3043 -0.0021 7.9469 -0.0045
# 3 34.9961 24.3043 78.7541 -0.0016 -1.9523 -0.0042
# 4 0.0046 -0.0021 -0.0016 24.7435 -0.0035 -1.2644
# 5 10.8173 7.9469 -1.9523 -0.0035 45.3933 0.0013
# 6 -0.0020 -0.0045 -0.0042 -1.2644 0.0013 26.1991
#
#
#
# Elastic Compliance Matrix: (Units=1/GPa)
#
#
# Indices 1 2 3 4 5 6 
#
# 1 0.013550 -0.004433 -0.004719 -0.000004 -0.002656 -0.000001
# 2 -0.004433 0.009607 -0.001012 0.000002 -0.000669 0.000001
# 3 -0.004719 -0.001012 0.015155 0.000002 0.001954 0.000002
# 4 -0.000004 0.000002 0.000002 0.040515 0.000004 0.001955
# 5 -0.002656 -0.000669 0.001954 0.000004 0.022864 -0.000001
# 6 -0.000001 0.000001 0.000002 0.001955 -0.000001 0.038264
#
#
# Mechanical properties :
#
#
# Convention : Reuss Voigt Hill
#
# Bulk Modulus (GPa) = 55.59978 60.08397 57.84187
# Shear Modulus (GPa) = 30.07022 32.83601 31.45312
#
# Velocity S-wave (km/s) = 3.72775 3.89541 3.81250
# Velocity P-wave (km/s) = 6.64997 6.92809 6.79045
#
# Compressibility (1/GPa) = 0.01798568
#
# Stress axis : x y z
#
# Youngs Moduli (GPa) = 73.79865 104.08914 65.98266
#
# Poissons Ratio (x) = 0.46140 0.31139
# Poissons Ratio (y) = 0.32713 0.06675
# Poissons Ratio (z) = 0.34827 0.10530
#
# Static dielectric constant tensor:
#      x y z
#    x 3.724640 -0.000010 0.076850 
#    y -0.000010 3.930720 0.000020 
#    z 0.076850 0.000020 4.215330 
# 
# 
# High freq. dielectric constant tensor:
#      x y z
#    x 1.838330 0.000000 0.007070 
#    y 0.000000 1.858500 0.000000 
#    z 0.007070 0.000000 1.875050 
# 
# From -- ./inp_files/28805.got.cif
#   From: 2010.06.25/outbox.cif.g09.slc.cpg/sg15_15_cif.got.tgz:28805.got - 2010.06.28 07:06:18.
