data_PCOD8150810
_publ_section_title
;
Structure prediction by ZEFSAII (Michael W. Deem and Ramdas Pophale) SiO2 
 PCOD8150810
Probable space group: C 2/C
;
_chemical_formula_sum "Si O2"
_cell_formula_units_Z 44
_cell_length_a 15.735563
_cell_length_b 8.577818
_cell_length_c 14.611050
_cell_angle_alpha 90.000000
_cell_angle_beta 82.448899
_cell_angle_gamma 90.000000
_cell_volume 1955.050305
_symmetry_space_group_name_H-M "C 2/C"
_symmetry_group_IT_number 15
_symmetry_cell_setting 'monoclinic'
loop_
_space_group_symop_operation_xyz
x,y,z
-x,y,1/2-z
-x,-y,-z
x,-y,1/2+z
1/2+x,1/2+y,z
1/2-x,1/2+y,1/2-z
1/2-x,1/2-y,-z
1/2+x,1/2-y,1/2+z
loop_
_atom_site_type_symbol
_atom_site_label
_atom_site_fract_x
_atom_site_fract_y
_atom_site_fract_z
Si Si1 0.723310 0.514759 0.774247
Si Si2 0.893789 0.093771 0.876150
Si Si3 0.643790 0.791355 0.318062
Si Si4 0.916264 0.395795 0.984566
Si Si5 0.257901 0.574800 0.527063
Si Si6 0.000000 0.886958 0.750000
O O1 0.650642 0.585966 0.717866
O O2 0.721897 0.330630 0.795821
O O3 0.817495 0.542551 0.717294
O O4 0.710284 0.593213 0.874109
O O5 0.927420 0.265605 0.902367
O O6 0.827168 0.022076 0.958485
O O7 0.978705 0.988329 0.845072
O O8 0.606928 0.793731 0.424258
O O9 0.575353 0.733596 0.255901
O O10 0.836706 0.501596 0.966653
O O11 0.000000 0.500000 0.000000
O O12 0.250000 0.750000 0.500000
#
# Coordination Sequence:
#
# PCOD8150810 Si02
#       6
#     8   8   8   8   8   4
#     4  11  23  44  78  97 141 189 250 297 362 436
#     4  11  24  51  71 104 146 196 244 302 370 441
#     4  11  24  47  68 106 139 189 238 307 364 437
#     4  12  28  47  71 108 153 194 246 308 373 440
#     4  12  25  45  75 106 140 196 252 297 367 447
#     4  10  26  44  74 106 148 184 244 302 374 436
#
# _framework density 22.505815999999999
#
# number of rings (size 3 to 8) (size 9 to 14) (size 15 to 20)
#    0.000    0.727    3.636    3.818    5.091    3.636 
#    3.273    0.000    0.000    0.000    0.000    0.000 
#    0.000    0.000    0.000    0.000    0.000    0.000 
#
# Total GULP energy -272556.226585 kJ/mol
# GULP energy per Si atom -12388.919390 kJ/mol
# Density = 2.245459 g / cm^3
# Si number density = 22.505816 Si / 1000 Ang^3
#
#
#
# Elastic Constant Matrix: (Units=GPa)
#
#
# Indices 1 2 3 4 5 6 
#
# 1 96.8732 49.0471 32.0547 0.0000 -11.1181 0.0000
# 2 49.0471 111.0964 28.4117 0.0000 6.5943 0.0000
# 3 32.0547 28.4117 126.5139 0.0000 13.0279 0.0000
# 4 0.0000 0.0000 0.0000 40.0289 0.0000 -4.0686
# 5 -11.1181 6.5943 13.0279 0.0000 29.6871 0.0000
# 6 0.0000 0.0000 0.0000 -4.0686 0.0000 29.2804
#
#
#
# Elastic Compliance Matrix: (Units=1/GPa)
#
#
# Indices 1 2 3 4 5 6 
#
# 1 0.015852 -0.006648 -0.003442 0.000000 0.008924 0.000000
# 2 -0.006648 0.012381 -0.000583 0.000000 -0.004984 0.000000
# 3 -0.003442 -0.000583 0.009454 0.000000 -0.005309 0.000000
# 4 0.000000 0.000000 0.000000 0.025340 0.000000 0.003521
# 5 0.008924 -0.004984 -0.005309 0.000000 0.040463 0.000000
# 6 0.000000 0.000000 0.000000 0.003521 0.000000 0.034642
#
#
# Mechanical properties :
#
#
# Convention : Reuss Voigt Hill
#
# Bulk Modulus (GPa) = 61.19640 61.50116 61.34878
# Shear Modulus (GPa) = 30.31690 34.79728 32.55709
#
# Velocity S-wave (km/s) = 3.67423 3.93637 3.80756
# Velocity P-wave (km/s) = 6.72684 6.93153 6.82995
#
# Compressibility (1/GPa) = 0.01634083
#
# Stress axis : x y z
#
# Youngs Moduli (GPa) = 63.08464 80.76970 105.77493
#
# Poissons Ratio (x) = 0.53692 0.36412
# Poissons Ratio (y) = 0.41936 0.06166
# Poissons Ratio (z) = 0.21716 0.04708
#
# Static dielectric constant tensor:
#      x y z
#    x 4.380440 0.000000 -0.066130 
#    y 0.000000 4.257890 0.000000 
#    z -0.066130 0.000000 4.244540 
# 
# 
# High freq. dielectric constant tensor:
#      x y z
#    x 1.886900 0.000000 0.002800 
#    y 0.000000 1.893640 0.000000 
#    z 0.002800 0.000000 1.899370 
# 
# From -- ./inp_files/159284.got.cif
#   From: 2010.06.25/outbox.cif.g09.slc.cpg/sg15_80_cif.got.tgz:159284.got - 2010.06.28 07:06:18.
