data_PCOD8150626
_publ_section_title
;
Structure prediction by ZEFSAII (Michael W. Deem and Ramdas Pophale) SiO2 
 PCOD8150626
Probable space group: C 2/C
;
_chemical_formula_sum "Si O2"
_cell_formula_units_Z 60
_cell_length_a 9.832209
_cell_length_b 22.253711
_cell_length_c 20.727887
_cell_angle_alpha 90.000000
_cell_angle_beta 38.776544
_cell_angle_gamma 90.000000
_cell_volume 2840.405774
_symmetry_space_group_name_H-M "C 2/C"
_symmetry_group_IT_number 15
_symmetry_cell_setting 'monoclinic'
loop_
_space_group_symop_operation_xyz
x,y,z
-x,y,1/2-z
-x,-y,-z
x,-y,1/2+z
1/2+x,1/2+y,z
1/2-x,1/2+y,1/2-z
1/2-x,1/2-y,-z
1/2+x,1/2-y,1/2+z
loop_
_atom_site_type_symbol
_atom_site_label
_atom_site_fract_x
_atom_site_fract_y
_atom_site_fract_z
Si Si1 0.514094 0.032688 0.092392
Si Si2 0.500000 0.371649 0.250000
Si Si3 0.272807 0.355474 0.205507
Si Si4 0.932771 0.941620 0.703747
Si Si5 0.478729 0.531159 0.938415
Si Si6 0.306130 0.195761 0.892276
Si Si7 0.538693 0.914571 0.448336
Si Si8 0.831868 0.172590 0.423825
O O1 0.326430 0.053599 0.210723
O O2 0.522996 0.959466 0.087713
O O3 0.445687 0.056567 0.047620
O O4 0.741517 0.062379 0.029894
O O5 0.407379 0.336653 0.220645
O O6 0.300177 0.410278 0.351342
O O7 0.336446 0.421784 0.153336
O O8 0.320285 0.310074 0.129096
O O9 0.015673 0.349402 0.317274
O O10 0.000000 0.965060 0.750000
O O11 0.997740 0.872702 0.669932
O O12 0.048499 0.980660 0.606379
O O13 0.500000 0.500000 0.000000
O O14 0.376963 0.264912 0.871637
O O15 0.133170 0.180077 0.012081
O O16 0.418873 0.850156 0.488583
#
# Coordination Sequence:
#
# PCOD8150626 Si02
#       8
#     8   4   8   8   8   8   8   8
#     4  11  23  36  60 100 132 169 219 279 345 413
#     4  12  22  38  68  98 132 178 218 292 338 412
#     4  11  24  40  70  98 136 178 233 280 343 422
#     4  12  24  38  69 100 127 174 226 288 337 407
#     4  12  26  42  63  96 145 182 221 285 357 419
#     4  10  25  44  71 101 129 186 239 283 333 416
#     4  11  21  38  65  98 133 168 223 279 346 406
#     4  11  22  45  72  96 136 177 240 288 335 411
#
# _framework density 21.123742
#
# number of rings (size 3 to 8) (size 9 to 14) (size 15 to 20)
#    0.000    0.800    5.333    2.400    3.733    1.600 
#    0.000    0.667    2.933    0.000    0.000    0.000 
#    0.000    0.000    0.000    0.000    0.000    0.000 
#
# Total GULP energy -371678.532283 kJ/mol
# GULP energy per Si atom -12389.284409 kJ/mol
# Density = 2.107566 g / cm^3
# Si number density = 21.123742 Si / 1000 Ang^3
#
#
#
# Elastic Constant Matrix: (Units=GPa)
#
#
# Indices 1 2 3 4 5 6 
#
# 1 127.9168 42.9094 44.2916 -0.0003 28.2617 -0.0028
# 2 42.9094 98.9542 45.7640 0.0008 1.1735 -0.0034
# 3 44.2916 45.7640 115.1543 -0.0035 -7.9801 0.0007
# 4 -0.0003 0.0008 -0.0035 33.5293 0.0018 2.0437
# 5 28.2617 1.1735 -7.9801 0.0018 46.0087 0.0006
# 6 -0.0028 -0.0034 0.0007 2.0437 0.0006 20.5440
#
#
#
# Elastic Compliance Matrix: (Units=1/GPa)
#
#
# Indices 1 2 3 4 5 6 
#
# 1 0.012035 -0.003342 -0.003854 0.000000 -0.007976 0.000001
# 2 -0.003342 0.013373 -0.003958 -0.000001 0.001025 0.000002
# 3 -0.003854 -0.003958 0.012055 0.000001 0.004559 -0.000002
# 4 0.000000 -0.000001 0.000001 0.030007 -0.000001 -0.002985
# 5 -0.007976 0.001025 0.004559 -0.000001 0.027399 -0.000002
# 6 0.000001 0.000002 -0.000002 -0.002985 -0.000002 0.048973
#
#
# Mechanical properties :
#
#
# Convention : Reuss Voigt Hill
#
# Bulk Modulus (GPa) = 65.98088 67.55059 66.76574
# Shear Modulus (GPa) = 29.20524 33.95375 31.57950
#
# Velocity S-wave (km/s) = 3.72234 4.01356 3.87069
# Velocity P-wave (km/s) = 7.05533 7.31615 7.18692
#
# Compressibility (1/GPa) = 0.01515591
#
# Stress axis : x y z
#
# Youngs Moduli (GPa) = 83.08968 74.77570 82.95143
#
# Poissons Ratio (x) = 0.24990 0.31967
# Poissons Ratio (y) = 0.27769 0.32835
# Poissons Ratio (z) = 0.32020 0.29598
#
# Static dielectric constant tensor:
#      x y z
#    x 3.861200 0.000000 0.190490 
#    y 0.000000 3.597460 0.000000 
#    z 0.190490 0.000000 4.024120 
# 
# 
# High freq. dielectric constant tensor:
#      x y z
#    x 1.815360 0.000000 0.014680 
#    y 0.000000 1.799100 0.000000 
#    z 0.014680 0.000000 1.851560 
# 
# From -- ./inp_files/234554.got.cif
#   From: 2010.06.25/outbox.cif.g09.slc.cpg/sg15_118_cif.got.tgz:234554.got - 2010.06.28 07:06:18.
