data_PCOD8150448
_publ_section_title
;
Structure prediction by ZEFSAII (Michael W. Deem and Ramdas Pophale) SiO2 
 PCOD8150448
Probable space group: C 2/C
;
_chemical_formula_sum "Si O2"
_cell_formula_units_Z 64
_cell_length_a 20.146223
_cell_length_b 27.977619
_cell_length_c 9.370708
_cell_angle_alpha 90.000000
_cell_angle_beta 145.799761
_cell_angle_gamma 90.000000
_cell_volume 2968.794943
_symmetry_space_group_name_H-M "C 2/C"
_symmetry_group_IT_number 15
_symmetry_cell_setting 'monoclinic'
loop_
_space_group_symop_operation_xyz
x,y,z
-x,y,1/2-z
-x,-y,-z
x,-y,1/2+z
1/2+x,1/2+y,z
1/2-x,1/2+y,1/2-z
1/2-x,1/2-y,-z
1/2+x,1/2-y,1/2+z
loop_
_atom_site_type_symbol
_atom_site_label
_atom_site_fract_x
_atom_site_fract_y
_atom_site_fract_z
Si Si1 0.968376 0.781020 0.543575
Si Si2 0.159752 0.033452 0.169761
Si Si3 0.603368 0.551294 0.750695
Si Si4 0.881110 0.602476 0.619663
Si Si5 0.608766 0.252971 0.547484
Si Si6 0.830416 0.309482 0.836745
Si Si7 0.279604 0.645986 0.619562
Si Si8 0.893133 0.357811 0.452477
O O1 0.942825 0.724586 0.520099
O O2 0.858122 0.807326 0.279708
O O3 0.082780 0.783012 0.645191
O O4 0.000000 0.805733 0.750000
O O5 0.274491 0.064711 0.413583
O O6 0.171214 0.979729 0.251448
O O7 0.143601 0.029359 0.972388
O O8 0.038361 0.053700 0.023265
O O9 0.641849 0.605758 0.813045
O O10 0.844844 0.653233 0.489972
O O11 0.906807 0.610673 0.833524
O O12 0.000000 0.583566 0.750000
O O13 0.500000 0.259789 0.250000
O O14 0.721358 0.274811 0.672111
O O15 0.626112 0.197765 0.617384
O O16 0.821470 0.338237 0.671987
O O17 0.223733 0.626653 0.667094
O O18 0.000000 0.367843 0.750000
#
# Coordination Sequence:
#
# PCOD8150448 Si02
#       8
#     8   8   8   8   8   8   8   8
#     4  12  26  39  59  97 138 181 230 288 335 404
#     4  10  24  48  77 103 138 172 224 284 359 409
#     4  10  24  47  75 107 134 173 219 292 353 415
#     4  12  26  45  72 101 138 187 230 278 342 420
#     4  11  22  39  63  89 133 187 235 281 340 392
#     4  12  23  43  66  93 139 186 234 282 337 408
#     4  12  24  42  68  99 135 176 231 283 349 406
#     4  11  25  42  64  98 139 186 231 281 335 401
#
# _framework density 21.557566999999999
#
# number of rings (size 3 to 8) (size 9 to 14) (size 15 to 20)
#    0.000    0.750    3.750    4.500    5.250    1.000 
#    2.250    1.250    0.000    0.000    0.000    0.000 
#    0.000    0.000    0.000    0.000    0.000    0.000 
#
# Total GULP energy -396793.883344 kJ/mol
# GULP energy per Si atom -12399.808854 kJ/mol
# Density = 2.150850 g / cm^3
# Si number density = 21.557567 Si / 1000 Ang^3
#
#
#
# Elastic Constant Matrix: (Units=GPa)
#
#
# Indices 1 2 3 4 5 6 
#
# 1 139.4391 30.5358 40.2472 0.0000 -7.9255 0.0000
# 2 30.5358 79.2592 39.8404 0.0000 1.4807 0.0000
# 3 40.2472 39.8404 92.7167 0.0000 -7.1409 0.0000
# 4 0.0000 0.0000 0.0000 25.8776 0.0000 2.6208
# 5 -7.9255 1.4807 -7.1409 0.0000 38.5365 0.0000
# 6 0.0000 0.0000 0.0000 2.6208 0.0000 41.2033
#
#
#
# Elastic Compliance Matrix: (Units=1/GPa)
#
#
# Indices 1 2 3 4 5 6 
#
# 1 0.008456 -0.001897 -0.002755 0.000000 0.001301 0.000000
# 2 -0.001897 0.016661 -0.006508 0.000000 -0.002236 0.000000
# 3 -0.002755 -0.006508 0.014967 0.000000 0.002457 0.000000
# 4 0.000000 0.000000 0.000000 0.038894 0.000000 -0.002474
# 5 0.001301 -0.002236 0.002457 0.000000 0.026758 0.000000
# 6 0.000000 0.000000 0.000000 -0.002474 0.000000 0.024427
#
#
# Mechanical properties :
#
#
# Convention : Reuss Voigt Hill
#
# Bulk Modulus (GPa) = 56.29488 59.18462 57.73975
# Shear Modulus (GPa) = 31.56453 34.50960 33.03707
#
# Velocity S-wave (km/s) = 3.83063 4.00535 3.91897
# Velocity P-wave (km/s) = 6.76280 6.99316 6.87894
#
# Compressibility (1/GPa) = 0.01776360
#
# Stress axis : x y z
#
# Youngs Moduli (GPa) = 118.25476 60.02127 66.81279
#
# Poissons Ratio (x) = 0.11388 0.18409
# Poissons Ratio (y) = 0.22436 0.43480
# Poissons Ratio (z) = 0.32583 0.39061
#
# Static dielectric constant tensor:
#      x y z
#    x 4.381280 0.000000 -0.049590 
#    y 0.000000 3.595880 0.000000 
#    z -0.049590 0.000000 3.945410 
# 
# 
# High freq. dielectric constant tensor:
#      x y z
#    x 1.866680 0.000000 -0.003850 
#    y 0.000000 1.820180 0.000000 
#    z -0.003850 0.000000 1.850910 
# 
# From -- ./inp_files/52870.got.cif
#   From: 2010.06.25/outbox.cif.g09.slc.cpg/sg15_27_cif.got.tgz:52870.got - 2010.06.28 07:06:18.
