data_PCOD8150850
_publ_section_title
;
Structure prediction by ZEFSAII (Michael W. Deem and Ramdas Pophale) SiO2 
 PCOD8150850
Probable space group: C 2/C
;
_chemical_formula_sum "Si O2"
_cell_formula_units_Z 44
_cell_length_a 13.181712
_cell_length_b 19.314606
_cell_length_c 7.978951
_cell_angle_alpha 90.000000
_cell_angle_beta 109.208464
_cell_angle_gamma 90.000000
_cell_volume 1918.342883
_symmetry_space_group_name_H-M "C 2/C"
_symmetry_group_IT_number 15
_symmetry_cell_setting 'monoclinic'
loop_
_space_group_symop_operation_xyz
x,y,z
-x,y,1/2-z
-x,-y,-z
x,-y,1/2+z
1/2+x,1/2+y,z
1/2-x,1/2+y,1/2-z
1/2-x,1/2-y,-z
1/2+x,1/2-y,1/2+z
loop_
_atom_site_type_symbol
_atom_site_label
_atom_site_fract_x
_atom_site_fract_y
_atom_site_fract_z
Si Si1 0.530877 0.194367 0.088586
Si Si2 0.439959 0.934747 0.389134
Si Si3 0.257207 0.889623 0.752126
Si Si4 0.000000 0.082187 0.750000
Si Si5 0.032212 0.167206 0.088467
Si Si6 0.232119 0.021845 0.914954
O O1 0.500000 0.227950 0.250000
O O2 0.650369 0.164434 0.154390
O O3 0.449918 0.131419 0.014132
O O4 0.512274 0.254239 0.941580
O O5 0.500000 0.916472 0.250000
O O6 0.311761 0.948872 0.311061
O O7 0.500000 0.000000 0.500000
O O8 0.160437 0.839119 0.647096
O O9 0.276513 0.944956 0.611497
O O10 0.240111 0.937675 0.908478
O O11 0.106639 0.036197 0.819447
O O12 0.019847 0.126021 0.593450
O O13 0.000000 0.134786 0.250000
#
# Coordination Sequence:
#
# PCOD8150850 Si02
#       6
#     8   8   8   4   8   8
#     4  12  24  45  69 100 143 185 239 298 359 427
#     4  12  23  39  68 104 139 183 238 303 365 421
#     4  11  26  43  73 105 140 187 235 300 361 427
#     4  10  26  46  74 102 148 194 230 304 354 432
#     4  11  27  47  69 103 141 194 242 285 357 439
#     4  11  24  43  69 108 138 187 234 297 369 416
#
# _framework density 22.936463
#
# number of rings (size 3 to 8) (size 9 to 14) (size 15 to 20)
#    0.000    0.727    4.545    2.182    3.818    4.364 
#    0.000    0.000    0.000    0.000    0.000    0.000 
#    0.000    0.000    0.000    0.000    0.000    0.000 
#
# Total GULP energy -272650.400983 kJ/mol
# GULP energy per Si atom -12393.200045 kJ/mol
# Density = 2.288426 g / cm^3
# Si number density = 22.936463 Si / 1000 Ang^3
#
#
#
# Elastic Constant Matrix: (Units=GPa)
#
#
# Indices 1 2 3 4 5 6 
#
# 1 126.6042 38.4153 37.0255 0.0000 9.8350 0.0000
# 2 38.4153 96.5045 39.2416 0.0000 5.3339 0.0000
# 3 37.0255 39.2416 98.2586 0.0000 -11.9152 0.0000
# 4 0.0000 0.0000 0.0000 29.6339 0.0000 5.5148
# 5 9.8350 5.3339 -11.9152 0.0000 38.6318 0.0000
# 6 0.0000 0.0000 0.0000 5.5148 0.0000 29.0334
#
#
#
# Elastic Compliance Matrix: (Units=1/GPa)
#
#
# Indices 1 2 3 4 5 6 
#
# 1 0.009790 -0.002475 -0.003077 0.000000 -0.003100 0.000000
# 2 -0.002475 0.013431 -0.004758 0.000000 -0.002692 0.000000
# 3 -0.003077 -0.004758 0.013932 0.000000 0.005737 0.000000
# 4 0.000000 0.000000 0.000000 0.034982 0.000000 -0.006645
# 5 -0.003100 -0.002692 0.005737 0.000000 0.028816 0.000000
# 6 0.000000 0.000000 0.000000 -0.006645 0.000000 0.035705
#
#
# Mechanical properties :
#
#
# Convention : Reuss Voigt Hill
#
# Bulk Modulus (GPa) = 60.47767 61.19245 60.83506
# Shear Modulus (GPa) = 30.71524 33.23882 31.97703
#
# Velocity S-wave (km/s) = 3.66340 3.81093 3.73789
# Velocity P-wave (km/s) = 6.65723 6.78979 6.72384
#
# Compressibility (1/GPa) = 0.01653503
#
# Stress axis : x y z
#
# Youngs Moduli (GPa) = 102.14415 74.45598 71.77525
#
# Poissons Ratio (x) = 0.18426 0.22082
# Poissons Ratio (y) = 0.25278 0.34149
# Poissons Ratio (z) = 0.31426 0.35424
#
# Static dielectric constant tensor:
#      x y z
#    x 4.214460 0.000000 -0.133240 
#    y 0.000000 3.987940 0.000000 
#    z -0.133240 0.000000 4.405860 
# 
# 
# High freq. dielectric constant tensor:
#      x y z
#    x 1.909750 0.000000 0.002120 
#    y 0.000000 1.900240 0.000000 
#    z 0.002120 0.000000 1.913280 
# 
# From -- ./inp_files/31028.got.cif
#   From: 2010.06.25/outbox.cif.g09.slc.cpg/sg15_16_cif.got.tgz:31028.got - 2010.06.28 07:06:18.
