data_PCOD8150854
_publ_section_title
;
Structure prediction by ZEFSAII (Michael W. Deem and Ramdas Pophale) SiO2 
 PCOD8150854
Probable space group: C 2/C
;
_chemical_formula_sum "Si O2"
_cell_formula_units_Z 28
_cell_length_a 11.460328
_cell_length_b 8.680479
_cell_length_c 12.659716
_cell_angle_alpha 90.000000
_cell_angle_beta 130.084089
_cell_angle_gamma 90.000000
_cell_volume 963.569494
_symmetry_space_group_name_H-M "C 2/C"
_symmetry_group_IT_number 15
_symmetry_cell_setting 'monoclinic'
loop_
_space_group_symop_operation_xyz
x,y,z
-x,y,1/2-z
-x,-y,-z
x,-y,1/2+z
1/2+x,1/2+y,z
1/2-x,1/2+y,1/2-z
1/2-x,1/2-y,-z
1/2+x,1/2-y,1/2+z
loop_
_atom_site_type_symbol
_atom_site_label
_atom_site_fract_x
_atom_site_fract_y
_atom_site_fract_z
Si Si1 0.000000 0.109278 0.750000
Si Si2 0.862774 0.874900 0.833961
Si Si3 0.152872 0.406612 0.892237
Si Si4 0.148535 0.674080 0.030453
O O1 0.866941 0.217529 0.617851
O O2 0.940202 0.005733 0.809456
O O3 0.720076 0.799237 0.687959
O O4 0.798289 0.951988 0.903613
O O5 0.978696 0.739142 0.931046
O O6 0.000000 0.476396 0.750000
O O7 0.157621 0.489952 0.009288
O O8 0.250000 0.750000 0.000000
#
# Coordination Sequence:
#
# PCOD8150854 Si02
#       4
#     4   8   8   8
#     4  10  26  46  74 118 154 198 260 318 390 452
#     4  12  27  53  79 113 161 206 256 329 383 466
#     4  10  28  48  75 118 155 200 261 317 392 463
#     4  12  26  51  82 113 157 209 260 315 398 464
#
# _framework density 29.058620999999999
#
# number of rings (size 3 to 8) (size 9 to 14) (size 15 to 20)
#    0.857    0.000    2.857    1.714    8.000    5.714 
#    0.000    2.857    0.000    0.000    0.000    0.000 
#    0.000    0.000    0.000    0.000    0.000    0.000 
#
# Total GULP energy -173660.174497 kJ/mol
# GULP energy per Si atom -12404.298178 kJ/mol
# Density = 2.899248 g / cm^3
# Si number density = 29.058621 Si / 1000 Ang^3
#
#
#
# Elastic Constant Matrix: (Units=GPa)
#
#
# Indices 1 2 3 4 5 6 
#
# 1 180.5265 53.1638 43.6486 0.0000 5.7319 0.0000
# 2 53.1638 134.7121 55.1834 0.0000 21.3824 0.0000
# 3 43.6486 55.1834 178.7952 0.0000 16.1893 0.0000
# 4 0.0000 0.0000 0.0000 35.6353 0.0000 -1.3921
# 5 5.7319 21.3824 16.1893 0.0000 30.0836 0.0000
# 6 0.0000 0.0000 0.0000 -1.3921 0.0000 32.4188
#
#
#
# Elastic Compliance Matrix: (Units=1/GPa)
#
#
# Indices 1 2 3 4 5 6 
#
# 1 0.006412 -0.002290 -0.000941 0.000000 0.000912 0.000000
# 2 -0.002290 0.010051 -0.002035 0.000000 -0.005613 0.000000
# 3 -0.000941 -0.002035 0.006627 0.000000 -0.001940 0.000000
# 4 0.000000 0.000000 0.000000 0.028109 0.000000 0.001207
# 5 0.000912 -0.005613 -0.001940 0.000000 0.038100 0.000000
# 6 0.000000 0.000000 0.000000 0.001207 0.000000 0.030898
#
#
# Mechanical properties :
#
#
# Convention : Reuss Voigt Hill
#
# Bulk Modulus (GPa) = 79.63058 88.66950 84.15004
# Shear Modulus (GPa) = 37.05998 42.43007 39.74502
#
# Velocity S-wave (km/s) = 3.57508 3.82534 3.70233
# Velocity P-wave (km/s) = 6.67117 7.07752 6.87735
#
# Compressibility (1/GPa) = 0.01255799
#
# Stress axis : x y z
#
# Youngs Moduli (GPa) = 155.95001 99.48816 150.90771
#
# Poissons Ratio (x) = 0.22781 0.14205
# Poissons Ratio (y) = 0.35710 0.30711
# Poissons Ratio (z) = 0.14679 0.20246
#
# Static dielectric constant tensor:
#      x y z
#    x 5.352950 0.000000 0.320290 
#    y 0.000000 5.385870 0.000000 
#    z 0.320290 0.000000 6.017500 
# 
# 
# High freq. dielectric constant tensor:
#      x y z
#    x 2.189660 0.000000 0.016150 
#    y 0.000000 2.187070 0.000000 
#    z 0.016150 0.000000 2.207430 
# 
# From -- ./inp_files/140855.got.cif
#   From: 2010.06.25/outbox.cif.g09.slc.cpg/sg15_71_cif.got.tgz:140855.got - 2010.06.28 07:06:18.
