data_PCOD8150025
_publ_section_title
;
Structure prediction by ZEFSAII (Michael W. Deem and Ramdas Pophale) SiO2 
 PCOD8150025
Probable space group: C 2/C
;
_chemical_formula_sum "Si O2"
_cell_formula_units_Z 60
_cell_length_a 27.692747
_cell_length_b 10.852253
_cell_length_c 18.355587
_cell_angle_alpha 90.000000
_cell_angle_beta 151.008151
_cell_angle_gamma 90.000000
_cell_volume 2673.708000
_symmetry_space_group_name_H-M "C 2/C"
_symmetry_group_IT_number 15
_symmetry_cell_setting 'monoclinic'
loop_
_space_group_symop_operation_xyz
x,y,z
-x,y,1/2-z
-x,-y,-z
x,-y,1/2+z
1/2+x,1/2+y,z
1/2-x,1/2+y,1/2-z
1/2-x,1/2-y,-z
1/2+x,1/2-y,1/2+z
loop_
_atom_site_type_symbol
_atom_site_label
_atom_site_fract_x
_atom_site_fract_y
_atom_site_fract_z
Si Si1 0.642718 0.688450 0.865420
Si Si2 0.000000 0.376934 0.750000
Si Si3 0.528297 0.987973 0.427995
Si Si4 0.407798 0.797379 0.079114
Si Si5 0.347452 0.066042 0.776808
Si Si6 0.293102 0.309424 0.630556
Si Si7 0.958881 0.986030 0.363517
Si Si8 0.368625 0.489669 0.522614
O O1 0.577999 0.798352 0.808887
O O2 0.605031 0.639211 0.736046
O O3 0.625827 0.571359 0.897105
O O4 0.750000 0.750000 0.000000
O O5 0.946555 0.458215 0.618152
O O6 0.592344 0.063764 0.569382
O O7 0.562737 0.843047 0.464381
O O8 0.412265 0.996959 0.297810
O O9 0.500000 0.840039 0.250000
O O10 0.390540 0.652774 0.068158
O O11 0.305833 0.871043 0.965394
O O12 0.331274 0.207439 0.736841
O O13 0.244666 0.993648 0.653842
O O14 0.250000 0.250000 0.500000
O O15 0.385407 0.402515 0.742320
O O16 0.000000 0.000000 0.500000
O O17 0.055254 0.970152 0.439220
#
# Coordination Sequence:
#
# PCOD8150025 Si02
#       8
#     8   4   8   8   8   8   8   8
#     4  12  27  48  74 102 148 206 250 309 380 464
#     4  12  26  44  70  98 144 192 238 298 376 468
#     4  11  24  43  68 106 146 184 244 300 387 442
#     4  11  22  41  75 105 136 184 247 306 361 442
#     4  10  24  43  71 105 145 185 235 318 369 446
#     4  11  24  42  74 104 141 187 248 301 371 441
#     4  12  27  45  73 109 150 191 257 312 382 452
#     4  11  23  49  73 101 144 193 251 306 377 448
#
# _framework density 22.440745
#
# number of rings (size 3 to 8) (size 9 to 14) (size 15 to 20)
#    0.000    0.800    2.000    5.600    5.600    0.000 
#    4.800    0.000    0.000    0.000    0.000    0.000 
#    0.000    0.000    0.000    0.000    0.000    0.000 
#
# Total GULP energy -371658.482367 kJ/mol
# GULP energy per Si atom -12388.616079 kJ/mol
# Density = 2.238967 g / cm^3
# Si number density = 22.440745 Si / 1000 Ang^3
#
#
#
# Elastic Constant Matrix: (Units=GPa)
#
#
# Indices 1 2 3 4 5 6 
#
# 1 123.4469 48.0888 81.9548 0.0000 -5.3673 0.0000
# 2 48.0888 90.1843 51.0106 0.0000 -8.0883 0.0000
# 3 81.9548 51.0106 152.7716 0.0000 14.5374 0.0000
# 4 0.0000 0.0000 0.0000 31.9820 0.0000 6.2714
# 5 -5.3673 -8.0883 14.5374 0.0000 37.3216 0.0000
# 6 0.0000 0.0000 0.0000 6.2714 0.0000 34.7813
#
#
#
# Elastic Compliance Matrix: (Units=1/GPa)
#
#
# Indices 1 2 3 4 5 6 
#
# 1 0.014099 -0.003290 -0.006843 0.000000 0.003980 0.000000
# 2 -0.003290 0.015368 -0.003779 0.000000 0.004329 0.000000
# 3 -0.006843 -0.003779 0.012099 0.000000 -0.006516 0.000000
# 4 0.000000 0.000000 0.000000 0.032414 0.000000 -0.005844
# 5 0.003980 0.004329 -0.006516 0.000000 0.030843 0.000000
# 6 0.000000 0.000000 0.000000 -0.005844 0.000000 0.029805
#
#
# Mechanical properties :
#
#
# Convention : Reuss Voigt Hill
#
# Bulk Modulus (GPa) = 72.77220 80.94569 76.85895
# Shear Modulus (GPa) = 29.93455 33.17354 31.55404
#
# Velocity S-wave (km/s) = 3.65627 3.84900 3.75387
# Velocity P-wave (km/s) = 7.09390 7.47678 7.28786
#
# Compressibility (1/GPa) = 0.01374151
#
# Stress axis : x y z
#
# Youngs Moduli (GPa) = 70.92904 65.06940 82.65424
#
# Poissons Ratio (x) = 0.21408 0.56564
# Poissons Ratio (y) = 0.23335 0.31231
# Poissons Ratio (z) = 0.48540 0.24587
#
# Static dielectric constant tensor:
#      x y z
#    x 4.309140 0.000000 0.342960 
#    y 0.000000 4.165090 0.000000 
#    z 0.342960 0.000000 4.357050 
# 
# 
# High freq. dielectric constant tensor:
#      x y z
#    x 1.892130 0.000000 0.020360 
#    y 0.000000 1.883010 0.000000 
#    z 0.020360 0.000000 1.894430 
# 
# From -- ./inp_files/222578.got.cif
#   From: 2010.06.25/outbox.cif.g09.slc.cpg/sg15_112_cif.got.tgz:222578.got - 2010.06.28 07:06:18.
