data_PCOD8150185
_publ_section_title
;
Structure prediction by ZEFSAII (Michael W. Deem and Ramdas Pophale) SiO2 
 PCOD8150185
Probable space group: C 2/C
;
_chemical_formula_sum "Si O2"
_cell_formula_units_Z 56
_cell_length_a 16.841760
_cell_length_b 28.610689
_cell_length_c 8.663155
_cell_angle_alpha 90.000000
_cell_angle_beta 39.516125
_cell_angle_gamma 90.000000
_cell_volume 2656.137967
_symmetry_space_group_name_H-M "C 2/C"
_symmetry_group_IT_number 15
_symmetry_cell_setting 'monoclinic'
loop_
_space_group_symop_operation_xyz
x,y,z
-x,y,1/2-z
-x,-y,-z
x,-y,1/2+z
1/2+x,1/2+y,z
1/2-x,1/2+y,1/2-z
1/2-x,1/2-y,-z
1/2+x,1/2-y,1/2+z
loop_
_atom_site_type_symbol
_atom_site_label
_atom_site_fract_x
_atom_site_fract_y
_atom_site_fract_z
Si Si1 0.617676 0.966290 0.807464
Si Si2 0.869002 0.245029 0.209122
Si Si3 0.601321 0.349349 0.982965
Si Si4 0.518663 0.569827 0.388472
Si Si5 0.500000 0.803350 0.250000
Si Si6 0.500000 0.200320 0.250000
Si Si7 0.793027 0.996125 0.297546
Si Si8 0.131328 0.360736 0.815340
O O1 0.671650 0.972851 0.555966
O O2 0.573783 0.912895 0.898869
O O3 0.736890 0.977848 0.734244
O O4 0.500000 0.000000 0.000000
O O5 0.750000 0.250000 0.500000
O O6 0.875093 0.189739 0.181069
O O7 0.976963 0.268705 0.143801
O O8 0.891063 0.269736 0.005921
O O9 0.545441 0.394244 0.983453
O O10 0.719208 0.362657 0.912861
O O11 0.500000 0.328281 0.250000
O O12 0.500000 0.594549 0.250000
O O13 0.634647 0.533878 0.204847
O O14 0.389168 0.544412 0.614818
O O15 0.394790 0.837463 0.477339
O O16 0.424127 0.167876 0.244791
#
# Coordination Sequence:
#
# PCOD8150185 Si02
#       8
#     8   8   8   8   4   4   8   8
#     4  12  26  43  68  97 139 181 230 277 335 406
#     4  11  23  46  71 103 136 179 225 288 347 418
#     4  12  25  44  72 104 137 178 232 283 345 413
#     4  11  24  44  69  99 137 179 223 286 341 404
#     4  10  24  44  71  98 138 179 220 280 360 404
#     4  10  26  48  71  98 142 183 230 288 354 408
#     4  11  24  45  67  97 134 180 226 282 341 397
#     4  11  25  46  68 101 137 183 230 285 342 414
#
# _framework density 21.083241999999998
#
# number of rings (size 3 to 8) (size 9 to 14) (size 15 to 20)
#    0.000    0.857    5.000    1.286    5.000    1.714 
#    2.571    0.000    0.000    0.000    0.000    0.000 
#    0.000    0.000    0.000    0.000    0.000    0.000 
#
# Total GULP energy -346879.361691 kJ/mol
# GULP energy per Si atom -12388.548632 kJ/mol
# Density = 2.103526 g / cm^3
# Si number density = 21.083242 Si / 1000 Ang^3
#
#
#
# Elastic Constant Matrix: (Units=GPa)
#
#
# Indices 1 2 3 4 5 6 
#
# 1 96.1313 42.1835 41.5623 0.0000 0.4288 0.0000
# 2 42.1835 117.3278 39.8097 0.0000 0.5468 0.0000
# 3 41.5623 39.8097 114.6932 0.0000 -2.8629 0.0000
# 4 0.0000 0.0000 0.0000 28.5657 0.0000 0.3791
# 5 0.4288 0.5468 -2.8629 0.0000 32.8401 0.0000
# 6 0.0000 0.0000 0.0000 0.3791 0.0000 29.8413
#
#
#
# Elastic Compliance Matrix: (Units=1/GPa)
#
#
# Indices 1 2 3 4 5 6 
#
# 1 0.013588 -0.003637 -0.003672 0.000000 -0.000437 0.000000
# 2 -0.003637 0.010641 -0.002384 0.000000 -0.000338 0.000000
# 3 -0.003672 -0.002384 0.010903 0.000000 0.001038 0.000000
# 4 0.000000 0.000000 0.000000 0.035013 0.000000 -0.000445
# 5 -0.000437 -0.000338 0.001038 0.000000 0.030552 0.000000
# 6 0.000000 0.000000 0.000000 -0.000445 0.000000 0.033516
#
#
# Mechanical properties :
#
#
# Convention : Reuss Voigt Hill
#
# Bulk Modulus (GPa) = 63.51132 63.91817 63.71474
# Shear Modulus (GPa) = 31.47619 31.88921 31.68270
#
# Velocity S-wave (km/s) = 3.86806 3.89336 3.88073
# Velocity P-wave (km/s) = 7.08087 7.11293 7.09692
#
# Compressibility (1/GPa) = 0.01574523
#
# Stress axis : x y z
#
# Youngs Moduli (GPa) = 73.59272 93.97323 91.71696
#
# Poissons Ratio (x) = 0.34181 0.33683
# Poissons Ratio (y) = 0.26768 0.21864
# Poissons Ratio (z) = 0.27027 0.22402
#
# Static dielectric constant tensor:
#      x y z
#    x 4.340870 0.000000 0.928660 
#    y 0.000000 4.196360 0.000000 
#    z 0.928660 0.000000 5.345630 
# 
# 
# High freq. dielectric constant tensor:
#      x y z
#    x 1.826760 0.000000 0.006040 
#    y 0.000000 1.830900 0.000000 
#    z 0.006040 0.000000 1.838160 
# 
# From -- ./inp_files/52319.got.cif
#   From: 2010.06.25/outbox.cif.g09.slc.cpg/sg15_27_cif.got.tgz:52319.got - 2010.06.28 07:06:18.
