data_PCOD8150069
_publ_section_title
;
Structure prediction by ZEFSAII (Michael W. Deem and Ramdas Pophale) SiO2 
 PCOD8150069
Probable space group: C 2/C
;
_chemical_formula_sum "Si O2"
_cell_formula_units_Z 60
_cell_length_a 20.579388
_cell_length_b 19.149057
_cell_length_c 8.091412
_cell_angle_alpha 90.000000
_cell_angle_beta 108.147858
_cell_angle_gamma 90.000000
_cell_volume 3030.014707
_symmetry_space_group_name_H-M "C 2/C"
_symmetry_group_IT_number 15
_symmetry_cell_setting 'monoclinic'
loop_
_space_group_symop_operation_xyz
x,y,z
-x,y,1/2-z
-x,-y,-z
x,-y,1/2+z
1/2+x,1/2+y,z
1/2-x,1/2+y,1/2-z
1/2-x,1/2-y,-z
1/2+x,1/2-y,1/2+z
loop_
_atom_site_type_symbol
_atom_site_label
_atom_site_fract_x
_atom_site_fract_y
_atom_site_fract_z
Si Si1 0.348176 0.796287 0.652913
Si Si2 0.975105 0.572837 0.545723
Si Si3 0.673479 0.935061 0.663413
Si Si4 0.229452 0.167283 0.837242
Si Si5 0.357185 0.556675 0.535575
Si Si6 0.754397 0.552223 0.600878
Si Si7 0.449140 0.464978 0.835696
Si Si8 0.000000 0.331650 0.750000
O O1 0.329338 0.868827 0.721963
O O2 0.301528 0.798447 0.451165
O O3 0.324224 0.729758 0.742760
O O4 0.429494 0.787220 0.682477
O O5 0.894383 0.564575 0.499349
O O6 0.997726 0.626430 0.420660
O O7 0.000000 0.593700 0.750000
O O8 0.000000 0.500000 0.500000
O O9 0.735505 0.930302 0.583441
O O10 0.682482 0.005968 0.777233
O O11 0.194518 0.116264 0.944802
O O12 0.246058 0.125616 0.685246
O O13 0.314662 0.490964 0.433955
O O14 0.408319 0.528400 0.715373
O O15 0.398699 0.584202 0.404961
O O16 0.500000 0.422763 0.750000
O O17 0.500000 0.500000 0.000000
#
# Coordination Sequence:
#
# PCOD8150069 Si02
#       8
#     8   8   8   8   8   8   8   4
#     4  10  24  45  60  89 124 172 212 252 318 390
#     4  11  22  34  59  95 126 166 210 260 322 383
#     4  11  22  36  59  92 128 158 204 261 317 367
#     4  11  23  39  66  90 123 165 213 253 316 386
#     4  11  18  35  58  91 118 154 202 257 311 367
#     4  12  21  35  64  93 123 156 203 266 313 368
#     4   9  19  33  53  84 123 153 192 251 314 361
#     4  10  24  44  64  84 136 170 216 266 320 394
#
# _framework density 19.801883
#
# number of rings (size 3 to 8) (size 9 to 14) (size 15 to 20)
#    0.000    1.333    4.667    0.800    5.600    0.533 
#    3.600    0.000    0.000    0.800    0.000    0.000 
#    0.000    0.000    0.000    0.000    0.000    0.000 
#
# Total GULP energy -371665.782168 kJ/mol
# GULP energy per Si atom -12388.859406 kJ/mol
# Density = 1.975681 g / cm^3
# Si number density = 19.801883 Si / 1000 Ang^3
#
#
#
# Elastic Constant Matrix: (Units=GPa)
#
#
# Indices 1 2 3 4 5 6 
#
# 1 110.3091 19.2541 32.2939 0.0000 4.7699 0.0000
# 2 19.2541 66.8545 3.6073 0.0000 10.8524 0.0000
# 3 32.2939 3.6073 83.4949 0.0000 9.7128 0.0000
# 4 0.0000 0.0000 0.0000 20.2790 0.0000 -3.5175
# 5 4.7699 10.8524 9.7128 0.0000 47.6879 0.0000
# 6 0.0000 0.0000 0.0000 -3.5175 0.0000 28.8637
#
#
#
# Elastic Compliance Matrix: (Units=1/GPa)
#
#
# Indices 1 2 3 4 5 6 
#
# 1 0.010757 -0.002947 -0.004083 0.000000 0.000426 0.000000
# 2 -0.002947 0.016345 0.000852 0.000000 -0.003598 0.000000
# 3 -0.004083 0.000852 0.013822 0.000000 -0.002601 0.000000
# 4 0.000000 0.000000 0.000000 0.050377 0.000000 0.006139
# 5 0.000426 -0.003598 -0.002601 0.000000 0.022276 0.000000
# 6 0.000000 0.000000 0.000000 0.006139 0.000000 0.035394
#
#
# Mechanical properties :
#
#
# Convention : Reuss Voigt Hill
#
# Bulk Modulus (GPa) = 35.00384 41.21880 38.11132
# Shear Modulus (GPa) = 29.26605 33.06633 31.16619
#
# Velocity S-wave (km/s) = 3.84857 4.09082 3.97155
# Velocity P-wave (km/s) = 6.12079 6.57068 6.34972
#
# Compressibility (1/GPa) = 0.02856829
#
# Stress axis : x y z
#
# Youngs Moduli (GPa) = 92.96622 61.18200 72.35065
#
# Poissons Ratio (x) = 0.18029 0.29538
# Poissons Ratio (y) = 0.27395 -0.06166
# Poissons Ratio (z) = 0.37955 -0.05214
#
# Static dielectric constant tensor:
#      x y z
#    x 7.067170 0.000000 -0.861460 
#    y 0.000000 3.264130 0.000000 
#    z -0.861460 0.000000 4.145430 
# 
# 
# High freq. dielectric constant tensor:
#      x y z
#    x 1.796520 0.000000 0.005050 
#    y 0.000000 1.729600 0.000000 
#    z 0.005050 0.000000 1.779890 
# 
# From -- ./inp_files/56673.got.cif
#   From: 2010.06.25/outbox.cif.g09.slc.cpg/sg15_29_cif.got.tgz:56673.got - 2010.06.28 07:06:18.
