data_PCOD8150254
_publ_section_title
;
Structure prediction by ZEFSAII (Michael W. Deem and Ramdas Pophale) SiO2 
 PCOD8150254
Probable space group: C 2/C
;
_chemical_formula_sum "Si O2"
_cell_formula_units_Z 44
_cell_length_a 20.833513
_cell_length_b 10.321237
_cell_length_c 11.061479
_cell_angle_alpha 90.000000
_cell_angle_beta 125.732500
_cell_angle_gamma 90.000000
_cell_volume 1930.772192
_symmetry_space_group_name_H-M "C 2/C"
_symmetry_group_IT_number 15
_symmetry_cell_setting 'monoclinic'
loop_
_space_group_symop_operation_xyz
x,y,z
-x,y,1/2-z
-x,-y,-z
x,-y,1/2+z
1/2+x,1/2+y,z
1/2-x,1/2+y,1/2-z
1/2-x,1/2-y,-z
1/2+x,1/2-y,1/2+z
loop_
_atom_site_type_symbol
_atom_site_label
_atom_site_fract_x
_atom_site_fract_y
_atom_site_fract_z
Si Si1 0.717790 0.465782 0.707681
Si Si2 0.505360 0.150469 0.993969
Si Si3 0.000000 0.216406 0.250000
Si Si4 0.870159 0.011323 0.136145
Si Si5 0.832327 0.683418 0.888537
Si Si6 0.917468 0.731092 0.202979
O O1 0.674890 0.523772 0.541884
O O2 0.681629 0.500090 0.799058
O O3 0.800065 0.547568 0.800258
O O4 0.724050 0.308412 0.703377
O O5 0.529407 0.189671 0.886872
O O6 0.420568 0.214361 0.936138
O O7 0.581955 0.200419 0.154202
O O8 0.500000 0.000000 0.000000
O O9 0.926790 0.132827 0.215829
O O10 0.922398 0.883542 0.185373
O O11 0.842648 0.671452 0.047045
O O12 0.000000 0.666586 0.250000
#
# Coordination Sequence:
#
# PCOD8150254 Si02
#       6
#     8   8   4   8   8   8
#     4  11  25  44  67 103 143 192 234 282 352 428
#     4  11  25  43  69 104 137 179 230 291 356 412
#     4  12  24  42  74 108 132 172 240 306 346 402
#     4  11  23  42  72 103 137 179 236 295 353 412
#     4  10  24  45  68  97 142 185 229 284 350 422
#     4   9  20  40  68  95 132 177 222 283 352 409
#
# _framework density 22.788810999999999
#
# number of rings (size 3 to 8) (size 9 to 14) (size 15 to 20)
#    0.000    1.455    2.727    1.091    3.818    9.455 
#    0.000    0.000    0.000    0.000    0.000    0.000 
#    0.000    0.000    0.000    0.000    0.000    0.000 
#
# Total GULP energy -272547.968844 kJ/mol
# GULP energy per Si atom -12388.544038 kJ/mol
# Density = 2.273694 g / cm^3
# Si number density = 22.788811 Si / 1000 Ang^3
#
#
#
# Elastic Constant Matrix: (Units=GPa)
#
#
# Indices 1 2 3 4 5 6 
#
# 1 43.6697 -0.9945 36.1485 0.0000 -11.5063 0.0000
# 2 -0.9945 123.9856 78.9056 0.0000 10.9287 0.0000
# 3 36.1485 78.9056 199.8315 0.0000 -25.5376 0.0000
# 4 0.0000 0.0000 0.0000 34.7702 0.0000 14.9235
# 5 -11.5063 10.9287 -25.5376 0.0000 36.9971 0.0000
# 6 0.0000 0.0000 0.0000 14.9235 0.0000 19.2879
#
#
#
# Elastic Compliance Matrix: (Units=1/GPa)
#
#
# Indices 1 2 3 4 5 6 
#
# 1 0.029228 0.004024 -0.006434 0.000000 0.003460 0.000000
# 2 0.004024 0.013095 -0.006836 0.000000 -0.007335 0.000000
# 3 -0.006434 -0.006836 0.009728 0.000000 0.006733 0.000000
# 4 0.000000 0.000000 0.000000 0.043060 0.000000 -0.033316
# 5 0.003460 -0.007335 0.006733 0.000000 0.034920 0.000000
# 6 0.000000 0.000000 0.000000 -0.033316 0.000000 0.077624
#
#
# Mechanical properties :
#
#
# Convention : Reuss Voigt Hill
#
# Bulk Modulus (GPa) = 29.79801 66.17843 47.98822
# Shear Modulus (GPa) = 21.06753 35.10619 28.08686
#
# Velocity S-wave (km/s) = 3.04381 3.92918 3.51448
# Velocity P-wave (km/s) = 5.04550 7.04894 6.12963
#
# Compressibility (1/GPa) = 0.03355928
#
# Stress axis : x y z
#
# Youngs Moduli (GPa) = 34.21323 76.36661 102.79848
#
# Poissons Ratio (x) = -0.30731 0.66141
# Poissons Ratio (y) = -0.13768 0.70272
# Poissons Ratio (z) = 0.22013 0.52204
#
# Static dielectric constant tensor:
#      x y z
#    x 3.904600 0.000000 -0.164860 
#    y 0.000000 3.911340 0.000000 
#    z -0.164860 0.000000 4.610230 
# 
# 
# High freq. dielectric constant tensor:
#      x y z
#    x 1.873830 0.000000 -0.013540 
#    y 0.000000 1.897770 0.000000 
#    z -0.013540 0.000000 1.922870 
# 
# From -- ./inp_files/122116.got.cif
#   From: 2010.06.25/outbox.cif.g09.slc.cpg/sg15_62_cif.got.tgz:122116.got - 2010.06.28 07:06:18.
