data_PCOD8150663
_publ_section_title
;
Structure prediction by ZEFSAII (Michael W. Deem and Ramdas Pophale) SiO2 
 PCOD8150663
Probable space group: C 2/C
;
_chemical_formula_sum "Si O2"
_cell_formula_units_Z 44
_cell_length_a 14.186044
_cell_length_b 17.093784
_cell_length_c 22.414926
_cell_angle_alpha 90.000000
_cell_angle_beta 158.707511
_cell_angle_gamma 90.000000
_cell_volume 1973.776008
_symmetry_space_group_name_H-M "C 2/C"
_symmetry_group_IT_number 15
_symmetry_cell_setting 'monoclinic'
loop_
_space_group_symop_operation_xyz
x,y,z
-x,y,1/2-z
-x,-y,-z
x,-y,1/2+z
1/2+x,1/2+y,z
1/2-x,1/2+y,1/2-z
1/2-x,1/2-y,-z
1/2+x,1/2-y,1/2+z
loop_
_atom_site_type_symbol
_atom_site_label
_atom_site_fract_x
_atom_site_fract_y
_atom_site_fract_z
Si Si1 0.723031 0.674055 0.114458
Si Si2 0.912789 0.351412 0.448982
Si Si3 0.869440 0.954119 0.369170
Si Si4 0.000000 0.036358 0.750000
Si Si5 0.835306 0.410632 0.016857
Si Si6 0.354621 0.606373 0.300435
O O1 0.667273 0.765122 0.079103
O O2 0.705658 0.645474 0.172149
O O3 0.000000 0.654489 0.250000
O O4 0.515635 0.629073 0.949825
O O5 0.662637 0.407694 0.301444
O O6 0.036615 0.352610 0.456159
O O7 0.116681 0.381511 0.616929
O O8 0.899665 0.012110 0.330653
O O9 0.560679 0.939167 0.195340
O O10 0.000000 0.000000 0.500000
O O11 0.798635 0.983826 0.594588
O O12 0.621684 0.361313 0.928482
#
# Coordination Sequence:
#
# PCOD8150663 Si02
#       6
#     8   8   8   4   8   8
#     4  11  28  48  70 104 145 190 238 298 363 425
#     4  12  25  46  72 112 143 186 237 297 367 419
#     4  10  25  45  72 103 141 194 241 286 352 426
#     4  12  22  44  74 106 144 184 238 294 354 424
#     4  12  24  45  72 108 142 187 245 291 350 432
#     4  11  25  46  74 102 144 193 237 294 355 432
#
# _framework density 22.292294999999999
#
# number of rings (size 3 to 8) (size 9 to 14) (size 15 to 20)
#    0.000    0.727    4.545    1.636    7.636    5.091 
#    3.273    0.000    0.000    0.000    0.000    0.000 
#    0.000    0.000    0.000    0.000    0.000    0.000 
#
# Total GULP energy -272747.378984 kJ/mol
# GULP energy per Si atom -12397.608136 kJ/mol
# Density = 2.224156 g / cm^3
# Si number density = 22.292295 Si / 1000 Ang^3
#
#
#
# Elastic Constant Matrix: (Units=GPa)
#
#
# Indices 1 2 3 4 5 6 
#
# 1 129.1075 27.2656 45.4914 -0.0038 25.2182 -0.0086
# 2 27.2656 102.1285 57.1842 0.1464 3.5297 0.0334
# 3 45.4914 57.1842 168.7676 0.3057 5.6347 0.0917
# 4 -0.0038 0.1464 0.3057 21.5477 -0.0651 -14.1960
# 5 25.2182 3.5297 5.6347 -0.0651 44.8377 -0.0231
# 6 -0.0086 0.0334 0.0917 -14.1960 -0.0231 5.3362
#
#
#
# Elastic Compliance Matrix: (Units=1/GPa)
#
#
# Indices 1 2 3 4 5 6 
#
# 1 0.009727 -0.001293 -0.002013 -0.000063 -0.005116 -0.000132
# 2 -0.001293 0.012265 -0.003815 0.000049 0.000241 0.000118
# 3 -0.002013 -0.003815 0.007745 0.000207 0.000460 0.000440
# 4 -0.000063 0.000049 0.000207 -0.061650 -0.000168 -0.164014
# 5 -0.005116 0.000241 0.000460 -0.000168 0.025103 -0.000357
# 6 -0.000132 0.000118 0.000440 -0.164014 -0.000357 -0.248939
#
#
# Mechanical properties :
#
#
# Convention : Reuss Voigt Hill
#
# Bulk Modulus (GPa) = 64.54040 73.32068 68.93054
# Shear Modulus (GPa) = -21.15570 32.34848 5.59639
#
# Velocity S-wave (km/s) = -3.08395 3.81347 1.58616
# Velocity P-wave (km/s) = 4.04150 7.23547 5.86028
#
# Compressibility (1/GPa) = 0.01549417
#
# Stress axis : x y z
#
# Youngs Moduli (GPa) = 102.80560 81.53529 129.12052
#
# Poissons Ratio (x) = 0.10541 0.25990
# Poissons Ratio (y) = 0.13291 0.49265
# Poissons Ratio (z) = 0.20694 0.31109
#
# Static dielectric constant tensor:
#      x y z
#    x 4.110020 -0.000040 0.107320 
#    y -0.000040 4.343130 -0.000200 
#    z 0.107320 -0.000200 4.399280 
# 
# 
# High freq. dielectric constant tensor:
#      x y z
#    x 1.879910 0.000000 0.003720 
#    y 0.000000 1.871490 -0.000020 
#    z 0.003720 -0.000020 1.898720 
# 
# From -- ./inp_files/274893.got.cif
#   From: 2010.06.25/outbox.cif.g09.slc.cpg/sg15_138_cif.got.tgz:274893.got - 2010.06.28 07:06:18.
