data_PCOD8150115
_publ_section_title
;
Structure prediction by ZEFSAII (Michael W. Deem and Ramdas Pophale) SiO2 
 PCOD8150115
Probable space group: C 2/C
;
_chemical_formula_sum "Si O2"
_cell_formula_units_Z 44
_cell_length_a 31.164458
_cell_length_b 13.242033
_cell_length_c 14.794079
_cell_angle_alpha 90.000000
_cell_angle_beta 19.771601
_cell_angle_gamma 90.000000
_cell_volume 2065.226169
_symmetry_space_group_name_H-M "C 2/C"
_symmetry_group_IT_number 15
_symmetry_cell_setting 'monoclinic'
loop_
_space_group_symop_operation_xyz
x,y,z
-x,y,1/2-z
-x,-y,-z
x,-y,1/2+z
1/2+x,1/2+y,z
1/2-x,1/2+y,1/2-z
1/2-x,1/2-y,-z
1/2+x,1/2-y,1/2+z
loop_
_atom_site_type_symbol
_atom_site_label
_atom_site_fract_x
_atom_site_fract_y
_atom_site_fract_z
Si Si1 0.500000 0.855257 0.750000
Si Si2 0.506985 0.898947 0.425789
Si Si3 0.491437 0.725378 0.599689
Si Si4 0.862646 0.037484 0.795779
Si Si5 0.772925 0.917735 0.820371
Si Si6 0.799574 0.512540 0.222404
O O1 0.446129 0.784808 0.777921
O O2 0.615353 0.921001 0.482644
O O3 0.507734 0.801336 0.485791
O O4 0.388321 0.901719 0.592187
O O5 0.500000 0.000000 0.500000
O O6 0.629824 0.882929 0.120269
O O7 0.374188 0.653071 0.804879
O O8 0.623301 0.665471 0.356507
O O9 0.784163 0.019895 0.859236
O O10 0.797426 0.974015 0.007171
O O11 0.000000 0.000000 0.500000
O O12 0.786505 0.942477 0.687509
#
# Coordination Sequence:
#
# PCOD8150115 Si02
#       6
#     4   8   8   8   8   8
#     4  12  22  42  68 104 128 176 224 278 340 400
#     4  12  21  42  65  98 132 180 225 277 336 395
#     4  11  24  41  68  98 137 179 227 271 338 416
#     4  10  24  44  67  98 136 182 218 276 344 403
#     4  11  22  44  68  97 138 179 220 283 340 393
#     4  12  23  42  70  96 136 174 227 280 337 399
#
# _framework density 21.305171999999999
#
# number of rings (size 3 to 8) (size 9 to 14) (size 15 to 20)
#    0.000    0.727    5.455    1.636    0.000    4.364 
#    3.273    0.000    8.000    0.000    0.000    0.000 
#    0.000    0.000    0.000    0.000    0.000    0.000 
#
# Total GULP energy -272677.283956 kJ/mol
# GULP energy per Si atom -12394.421998 kJ/mol
# Density = 2.125668 g / cm^3
# Si number density = 21.305172 Si / 1000 Ang^3
#
#
#
# Elastic Constant Matrix: (Units=GPa)
#
#
# Indices 1 2 3 4 5 6 
#
# 1 186.3468 61.4774 48.6352 0.0000 -2.6257 0.0000
# 2 61.4774 103.1011 33.7497 0.0000 -6.9281 0.0000
# 3 48.6352 33.7497 128.2217 0.0000 16.7890 0.0000
# 4 0.0000 0.0000 0.0000 14.5171 0.0000 -6.7028
# 5 -2.6257 -6.9281 16.7890 0.0000 28.1695 0.0000
# 6 0.0000 0.0000 0.0000 -6.7028 0.0000 47.0414
#
#
#
# Elastic Compliance Matrix: (Units=1/GPa)
#
#
# Indices 1 2 3 4 5 6 
#
# 1 0.007025 -0.003522 -0.001855 0.000000 0.000894 0.000000
# 2 -0.003522 0.012969 -0.002660 0.000000 0.004447 0.000000
# 3 -0.001855 -0.002660 0.010099 0.000000 -0.006846 0.000000
# 4 0.000000 0.000000 0.000000 0.073735 0.000000 0.010506
# 5 0.000894 0.004447 -0.006846 0.000000 0.040757 0.000000
# 6 0.000000 0.000000 0.000000 0.010506 0.000000 0.022755
#
#
# Mechanical properties :
#
#
# Convention : Reuss Voigt Hill
#
# Bulk Modulus (GPa) = 71.32693 78.37712 74.85203
# Shear Modulus (GPa) = 26.58373 36.19942 31.39158
#
# Velocity S-wave (km/s) = 3.53620 4.12647 3.84269
# Velocity P-wave (km/s) = 7.08691 7.71825 7.40931
#
# Compressibility (1/GPa) = 0.01401995
#
# Stress axis : x y z
#
# Youngs Moduli (GPa) = 142.35315 77.10934 99.01932
#
# Poissons Ratio (x) = 0.27154 0.18365
# Poissons Ratio (y) = 0.50130 0.26339
# Poissons Ratio (z) = 0.26402 0.20511
#
# Static dielectric constant tensor:
#      x y z
#    x 4.590190 0.000000 -0.166110 
#    y 0.000000 4.104390 0.000000 
#    z -0.166110 0.000000 4.106630 
# 
# 
# High freq. dielectric constant tensor:
#      x y z
#    x 1.855480 0.000000 0.007130 
#    y 0.000000 1.814370 0.000000 
#    z 0.007130 0.000000 1.848210 
# 
# From -- ./inp_files/182260.got.cif
#   From: 2010.06.25/outbox.cif.g09.slc.cpg/sg15_92_cif.got.tgz:182260.got - 2010.06.28 07:06:18.
