data_PCOD8150597
_publ_section_title
;
Structure prediction by ZEFSAII (Michael W. Deem and Ramdas Pophale) SiO2 
 PCOD8150597
Probable space group: C 2/C
;
_chemical_formula_sum "Si O2"
_cell_formula_units_Z 44
_cell_length_a 8.958390
_cell_length_b 12.549729
_cell_length_c 19.298669
_cell_angle_alpha 90.000000
_cell_angle_beta 62.301768
_cell_angle_gamma 90.000000
_cell_volume 1921.034202
_symmetry_space_group_name_H-M "C 2/C"
_symmetry_group_IT_number 15
_symmetry_cell_setting 'monoclinic'
loop_
_space_group_symop_operation_xyz
x,y,z
-x,y,1/2-z
-x,-y,-z
x,-y,1/2+z
1/2+x,1/2+y,z
1/2-x,1/2+y,1/2-z
1/2-x,1/2-y,-z
1/2+x,1/2-y,1/2+z
loop_
_atom_site_type_symbol
_atom_site_label
_atom_site_fract_x
_atom_site_fract_y
_atom_site_fract_z
Si Si1 0.852214 0.687623 0.035742
Si Si2 0.511378 0.333737 0.673931
Si Si3 0.500000 0.100385 0.250000
Si Si4 0.786042 0.031726 0.731331
Si Si5 0.996128 0.223162 0.865258
Si Si6 0.645715 0.847816 0.384981
O O1 0.704398 0.633831 0.112713
O O2 0.968564 0.759370 0.061223
O O3 0.750000 0.750000 0.000000
O O4 0.988877 0.612209 0.967016
O O5 0.500000 0.269869 0.750000
O O6 0.434453 0.448187 0.707094
O O7 0.412188 0.263088 0.639175
O O8 0.475449 0.171118 0.186654
O O9 0.342160 0.021683 0.295363
O O10 0.861126 0.142224 0.690068
O O11 0.686350 0.056361 0.824142
O O12 0.808876 0.177703 0.896300
#
# Coordination Sequence:
#
# PCOD8150597 Si02
#       6
#     8   8   4   8   8   8
#     4  10  25  43  73 103 146 193 235 305 372 424
#     4  11  22  43  69 104 140 187 245 297 348 442
#     4  12  26  44  72 116 138 192 250 310 348 426
#     4  12  24  41  77 101 142 190 248 290 367 428
#     4  12  23  48  70 105 149 189 247 303 355 439
#     4  11  23  44  69 105 146 188 238 302 367 425
#
# _framework density 22.904326999999999
#
# number of rings (size 3 to 8) (size 9 to 14) (size 15 to 20)
#    0.000    0.727    3.636    3.818    6.364    0.000 
#    0.000   13.636    0.000    0.000    0.000    0.000 
#    0.000    0.000    0.000    0.000    0.000    0.000 
#
# Total GULP energy -272614.525717 kJ/mol
# GULP energy per Si atom -12391.569351 kJ/mol
# Density = 2.285220 g / cm^3
# Si number density = 22.904327 Si / 1000 Ang^3
#
#
#
# Elastic Constant Matrix: (Units=GPa)
#
#
# Indices 1 2 3 4 5 6 
#
# 1 114.7966 68.0873 60.7528 0.0000 -0.0953 0.0000
# 2 68.0873 93.9774 41.4939 0.0000 -11.7628 0.0000
# 3 60.7528 41.4939 142.6631 0.0000 -22.0032 0.0000
# 4 0.0000 0.0000 0.0000 8.3706 0.0000 -1.4868
# 5 -0.0953 -11.7628 -22.0032 0.0000 61.1448 0.0000
# 6 0.0000 0.0000 0.0000 -1.4868 0.0000 33.6358
#
#
#
# Elastic Compliance Matrix: (Units=1/GPa)
#
#
# Indices 1 2 3 4 5 6 
#
# 1 0.018137 -0.011424 -0.005014 0.000000 -0.003974 0.000000
# 2 -0.011424 0.019479 -0.000239 0.000000 0.003644 0.000000
# 3 -0.005014 -0.000239 0.009747 0.000000 0.003454 0.000000
# 4 0.000000 0.000000 0.000000 0.120411 0.000000 0.005322
# 5 -0.003974 0.003644 0.003454 0.000000 0.018292 0.000000
# 6 0.000000 0.000000 0.000000 0.005322 0.000000 0.029966
#
#
# Mechanical properties :
#
#
# Convention : Reuss Voigt Hill
#
# Bulk Modulus (GPa) = 71.37834 76.90057 74.13946
# Shear Modulus (GPa) = 19.68090 32.70378 26.19234
#
# Velocity S-wave (km/s) = 2.93450 3.78278 3.38532
# Velocity P-wave (km/s) = 6.53553 7.26132 6.90796
#
# Compressibility (1/GPa) = 0.01400985
#
# Stress axis : x y z
#
# Youngs Moduli (GPa) = 55.13659 51.33737 102.59884
#
# Poissons Ratio (x) = 0.58647 0.51440
# Poissons Ratio (y) = 0.62987 0.02449
# Poissons Ratio (z) = 0.27644 0.01225
#
# Static dielectric constant tensor:
#      x y z
#    x 4.694820 0.000000 -0.083940 
#    y 0.000000 3.777900 0.000000 
#    z -0.083940 0.000000 4.833160 
# 
# 
# High freq. dielectric constant tensor:
#      x y z
#    x 1.938020 0.000000 -0.008880 
#    y 0.000000 1.879430 0.000000 
#    z -0.008880 0.000000 1.904950 
# 
# From -- ./inp_files/188772.got.cif
#   From: 2010.06.25/outbox.cif.g09.slc.cpg/sg15_95_cif.got.tgz:188772.got - 2010.06.28 07:06:18.
