data_PCOD8150128
_publ_section_title
;
Structure prediction by ZEFSAII (Michael W. Deem and Ramdas Pophale) SiO2 
 PCOD8150128
Probable space group: C 2/C
;
_chemical_formula_sum "Si O2"
_cell_formula_units_Z 52
_cell_length_a 6.356087
_cell_length_b 22.214423
_cell_length_c 20.690601
_cell_angle_alpha 90.000000
_cell_angle_beta 126.174900
_cell_angle_gamma 90.000000
_cell_volume 2358.247232
_symmetry_space_group_name_H-M "C 2/C"
_symmetry_group_IT_number 15
_symmetry_cell_setting 'monoclinic'
loop_
_space_group_symop_operation_xyz
x,y,z
-x,y,1/2-z
-x,-y,-z
x,-y,1/2+z
1/2+x,1/2+y,z
1/2-x,1/2+y,1/2-z
1/2-x,1/2-y,-z
1/2+x,1/2-y,1/2+z
loop_
_atom_site_type_symbol
_atom_site_label
_atom_site_fract_x
_atom_site_fract_y
_atom_site_fract_z
Si Si1 0.918665 0.096227 0.368209
Si Si2 0.498716 0.716178 0.930196
Si Si3 0.500000 0.468375 0.750000
Si Si4 0.021453 0.220193 0.178317
Si Si5 0.699006 0.670967 0.833456
Si Si6 0.045000 0.492788 0.329771
Si Si7 0.234830 0.608003 0.950977
O O1 0.984108 0.071230 0.310418
O O2 0.863301 0.166612 0.345481
O O3 0.165169 0.087592 0.460628
O O4 0.667897 0.060446 0.350822
O O5 0.535686 0.696507 0.863412
O O6 0.437593 0.657337 0.961696
O O7 0.269002 0.764182 0.897836
O O8 0.750000 0.750000 0.000000
O O9 0.759335 0.507270 0.809595
O O10 0.204838 0.276515 0.197222
O O11 0.000000 0.203981 0.250000
O O12 0.500000 0.633946 0.750000
O O13 0.938774 0.631475 0.902452
O O14 0.238358 0.449140 0.403673
O O15 0.000000 0.466690 0.250000
#
# Coordination Sequence:
#
# PCOD8150128 Si02
#       7
#     8   8   4   8   8   8   8
#     4  11  23  44  66 100 131 181 225 280 338 395
#     4  11  24  43  65 102 136 173 216 278 338 404
#     4  10  24  44  68  96 132 168 228 278 332 402
#     4  11  22  41  67  97 134 174 224 277 336 414
#     4  11  24  39  67 102 132 179 223 273 346 407
#     4  10  25  44  67  96 134 178 229 277 333 401
#     4  11  26  42  70  98 139 175 227 280 333 407
#
# _framework density 22.050274000000002
#
# number of rings (size 3 to 8) (size 9 to 14) (size 15 to 20)
#    0.000    1.231    2.308    2.308    3.231    9.846 
#    2.769    0.000    0.000    0.000    0.000    0.000 
#    0.000    0.000    0.000    0.000    0.000    0.000 
#
# Total GULP energy -322343.342541 kJ/mol
# GULP energy per Si atom -12397.820867 kJ/mol
# Density = 2.200009 g / cm^3
# Si number density = 22.050274 Si / 1000 Ang^3
#
#
#
# Elastic Constant Matrix: (Units=GPa)
#
#
# Indices 1 2 3 4 5 6 
#
# 1 93.7405 30.5569 21.4428 0.0000 15.8557 0.0000
# 2 30.5569 96.1722 32.2562 0.0000 9.3946 0.0000
# 3 21.4428 32.2562 145.1508 0.0000 9.3074 0.0000
# 4 0.0000 0.0000 0.0000 36.3109 0.0000 5.1437
# 5 15.8557 9.3946 9.3074 0.0000 31.2579 0.0000
# 6 0.0000 0.0000 0.0000 5.1437 0.0000 14.7154
#
#
#
# Elastic Compliance Matrix: (Units=1/GPa)
#
#
# Indices 1 2 3 4 5 6 
#
# 1 0.012818 -0.003281 -0.000827 0.000000 -0.005270 0.000000
# 2 -0.003281 0.012300 -0.002160 0.000000 -0.001390 0.000000
# 3 -0.000827 -0.002160 0.007567 0.000000 -0.001185 0.000000
# 4 0.000000 0.000000 0.000000 0.028975 0.000000 -0.010128
# 5 -0.005270 -0.001390 -0.001185 0.000000 0.035436 0.000000
# 6 0.000000 0.000000 0.000000 -0.010128 0.000000 0.071496
#
#
# Mechanical properties :
#
#
# Convention : Reuss Voigt Hill
#
# Bulk Modulus (GPa) = 49.62355 55.95282 52.78819
# Shear Modulus (GPa) = 26.61801 33.17733 29.89767
#
# Velocity S-wave (km/s) = 3.47818 3.88315 3.68623
# Velocity P-wave (km/s) = 6.21964 6.74799 6.48919
#
# Compressibility (1/GPa) = 0.02015172
#
# Stress axis : x y z
#
# Youngs Moduli (GPa) = 78.01815 81.29767 132.14537
#
# Poissons Ratio (x) = 0.26670 0.10923
# Poissons Ratio (y) = 0.25594 0.28540
# Poissons Ratio (z) = 0.06449 0.17558
#
# Static dielectric constant tensor:
#      x y z
#    x 4.134830 0.000000 0.044750 
#    y 0.000000 3.934360 0.000000 
#    z 0.044750 0.000000 4.216280 
# 
# 
# High freq. dielectric constant tensor:
#      x y z
#    x 1.868200 0.000000 0.003540 
#    y 0.000000 1.859290 0.000000 
#    z 0.003540 0.000000 1.885780 
# 
# From -- ./inp_files/228209.got.cif
#   From: 2010.06.25/outbox.cif.g09.slc.cpg/sg15_115_cif.got.tgz:228209.got - 2010.06.28 07:06:18.
