data_PCOD8150505
_publ_section_title
;
Structure prediction by ZEFSAII (Michael W. Deem and Ramdas Pophale) SiO2 
 PCOD8150505
Probable space group: C 2/C
;
_chemical_formula_sum "Si O2"
_cell_formula_units_Z 56
_cell_length_a 22.260778
_cell_length_b 17.055776
_cell_length_c 19.491087
_cell_angle_alpha 90.000000
_cell_angle_beta 160.754981
_cell_angle_gamma 90.000000
_cell_volume 2439.194190
_symmetry_space_group_name_H-M "C 2/C"
_symmetry_group_IT_number 15
_symmetry_cell_setting 'monoclinic'
loop_
_space_group_symop_operation_xyz
x,y,z
-x,y,1/2-z
-x,-y,-z
x,-y,1/2+z
1/2+x,1/2+y,z
1/2-x,1/2+y,1/2-z
1/2-x,1/2-y,-z
1/2+x,1/2-y,1/2+z
loop_
_atom_site_type_symbol
_atom_site_label
_atom_site_fract_x
_atom_site_fract_y
_atom_site_fract_z
Si Si1 0.145424 0.321992 0.547154
Si Si2 0.000000 0.883271 0.250000
Si Si3 0.867448 0.560813 0.818887
Si Si4 0.047052 0.165996 0.516100
Si Si5 0.086162 0.796222 0.207919
Si Si6 0.024791 0.351607 0.853400
Si Si7 0.500000 0.870252 0.250000
Si Si8 0.689256 0.003613 0.380503
O O1 0.141118 0.235457 0.574254
O O2 0.084761 0.317076 0.401671
O O3 0.003535 0.374816 0.435235
O O4 0.351926 0.356855 0.771982
O O5 0.982013 0.832192 0.161563
O O6 0.174315 0.939086 0.432654
O O7 0.701543 0.597308 0.684765
O O8 0.753868 0.519246 0.635056
O O9 0.000000 0.500000 0.000000
O O10 0.986595 0.189022 0.528322
O O11 0.109206 0.702349 0.244491
O O12 0.278734 0.835526 0.405123
O O13 0.994758 0.444727 0.826559
O O14 0.000000 0.320158 0.750000
O O15 0.659855 0.926143 0.393414
#
# Coordination Sequence:
#
# PCOD8150505 Si02
#       8
#     8   4   8   8   8   8   4   8
#     4  11  26  49  76 110 143 193 250 299 377 434
#     4  12  24  41  63 104 130 186 236 282 362 436
#     4  11  27  48  71 109 147 193 242 305 370 437
#     4  12  26  49  74 108 147 194 245 305 366 445
#     4  12  25  39  68  97 137 181 238 288 352 439
#     4  12  21  41  62  95 136 180 229 290 351 431
#     4  10  24  49  71 102 142 184 240 312 360 436
#     4  11  24  42  67  96 140 178 232 296 361 426
#
# _framework density 22.958400999999999
#
# number of rings (size 3 to 8) (size 9 to 14) (size 15 to 20)
#    0.000    0.571    4.286    3.000    6.000    2.286 
#    0.000    0.000    0.000    0.000    0.000    0.000 
#    0.000    0.000    0.000    0.000    0.000    0.000 
#
# Total GULP energy -347043.828406 kJ/mol
# GULP energy per Si atom -12394.422443 kJ/mol
# Density = 2.290615 g / cm^3
# Si number density = 22.958401 Si / 1000 Ang^3
#
#
#
# Elastic Constant Matrix: (Units=GPa)
#
#
# Indices 1 2 3 4 5 6 
#
# 1 140.3160 38.3170 35.4267 -0.0077 -26.2081 -0.0058
# 2 38.3170 70.1901 23.2406 -0.0224 -8.2839 0.0004
# 3 35.4267 23.2406 105.5373 0.0030 0.0225 -0.0001
# 4 -0.0077 -0.0224 0.0030 35.1052 -0.0090 1.0458
# 5 -26.2081 -8.2839 0.0225 -0.0090 42.7504 -0.0089
# 6 -0.0058 0.0004 -0.0001 1.0458 -0.0089 35.5816
#
#
#
# Elastic Compliance Matrix: (Units=1/GPa)
#
#
# Indices 1 2 3 4 5 6 
#
# 1 0.009789 -0.003923 -0.002423 0.000001 0.005242 0.000003
# 2 -0.003923 0.017329 -0.002499 0.000011 0.000954 -0.000001
# 3 -0.002423 -0.002499 0.010840 -0.000004 -0.001976 -0.000001
# 4 0.000001 0.000011 -0.000004 0.028511 0.000009 -0.000838
# 5 0.005242 0.000954 -0.001976 0.000009 0.026791 0.000007
# 6 0.000003 -0.000001 -0.000001 -0.000838 0.000007 0.028129
#
#
# Mechanical properties :
#
#
# Convention : Reuss Voigt Hill
#
# Bulk Modulus (GPa) = 49.34274 56.66800 53.00537
# Shear Modulus (GPa) = 34.28544 37.29140 35.78842
#
# Velocity S-wave (km/s) = 3.86861 4.03464 3.95250
# Velocity P-wave (km/s) = 6.44156 6.81475 6.63079
#
# Compressibility (1/GPa) = 0.02026641
#
# Stress axis : x y z
#
# Youngs Moduli (GPa) = 102.15614 57.70785 92.25466
#
# Poissons Ratio (x) = 0.22637 0.22355
# Poissons Ratio (y) = 0.40073 0.23058
# Poissons Ratio (z) = 0.24755 0.14423
#
# Static dielectric constant tensor:
#      x y z
#    x 4.258630 0.000010 -0.205970 
#    y 0.000010 4.368830 -0.000070 
#    z -0.205970 -0.000070 4.272410 
# 
# 
# High freq. dielectric constant tensor:
#      x y z
#    x 1.913380 0.000000 -0.006580 
#    y 0.000000 1.900450 -0.000010 
#    z -0.006580 -0.000010 1.908390 
# 
# From -- ./inp_files/255949.got.cif
#   From: 2010.06.25/outbox.cif.g09.slc.cpg/sg15_128_cif.got.tgz:255949.got - 2010.06.28 07:06:18.
