data_PCOD8150239
_publ_section_title
;
Structure prediction by ZEFSAII (Michael W. Deem and Ramdas Pophale) SiO2 
 PCOD8150239
Probable space group: C 2/C
;
_chemical_formula_sum "Si O2"
_cell_formula_units_Z 60
_cell_length_a 8.351586
_cell_length_b 11.518592
_cell_length_c 29.881008
_cell_angle_alpha 90.000000
_cell_angle_beta 106.817603
_cell_angle_gamma 90.000000
_cell_volume 2751.567646
_symmetry_space_group_name_H-M "C 2/C"
_symmetry_group_IT_number 15
_symmetry_cell_setting 'monoclinic'
loop_
_space_group_symop_operation_xyz
x,y,z
-x,y,1/2-z
-x,-y,-z
x,-y,1/2+z
1/2+x,1/2+y,z
1/2-x,1/2+y,1/2-z
1/2-x,1/2-y,-z
1/2+x,1/2-y,1/2+z
loop_
_atom_site_type_symbol
_atom_site_label
_atom_site_fract_x
_atom_site_fract_y
_atom_site_fract_z
Si Si1 0.500000 0.377995 0.750000
Si Si2 0.172970 0.465944 0.236394
Si Si3 0.260444 0.088096 0.462029
Si Si4 0.278212 0.790361 0.190963
Si Si5 0.441363 0.944947 0.139345
Si Si6 0.049343 0.665635 0.108410
Si Si7 0.800567 0.825822 0.045888
Si Si8 0.461983 0.804147 0.055097
O O1 0.667746 0.446807 0.748110
O O2 0.557521 0.293068 0.795413
O O3 0.246842 0.343386 0.261281
O O4 0.120787 0.448071 0.179982
O O5 0.000000 0.503241 0.250000
O O6 0.325935 0.102210 0.416409
O O7 0.406383 0.108796 0.510438
O O8 0.111332 0.177304 0.459969
O O9 0.181712 0.961586 0.463555
O O10 0.299862 0.907300 0.163013
O O11 0.128861 0.711644 0.160916
O O12 0.413621 0.846380 0.100040
O O13 0.413421 0.069964 0.113505
O O14 0.975155 0.777699 0.077945
O O15 0.661678 0.803439 0.072185
O O16 0.750000 0.750000 0.000000
#
# Coordination Sequence:
#
# PCOD8150239 Si02
#       8
#     4   8   8   8   8   8   8   8
#     4  12  22  48  78  90 144 190 216 294 366 400
#     4  10  24  45  67 105 136 176 232 287 346 423
#     4  11  24  44  66  95 137 177 232 274 339 414
#     4  11  24  45  68 102 137 177 227 292 345 410
#     4  11  21  42  69  93 134 175 222 280 342 403
#     4  12  24  42  70  99 132 178 228 278 338 416
#     4  12  25  42  66 100 137 179 226 284 339 404
#     4  11  23  42  68  96 132 187 219 282 346 403
#
# _framework density 21.805751999999998
#
# number of rings (size 3 to 8) (size 9 to 14) (size 15 to 20)
#    0.000    0.800    7.333    1.200    0.000    3.733 
#    6.000    0.000    0.000    0.000    0.000    0.000 
#    0.000    0.000    0.000    0.000    0.000    0.000 
#
# Total GULP energy -371654.989382 kJ/mol
# GULP energy per Si atom -12388.499646 kJ/mol
# Density = 2.175612 g / cm^3
# Si number density = 21.805752 Si / 1000 Ang^3
#
#
#
# Elastic Constant Matrix: (Units=GPa)
#
#
# Indices 1 2 3 4 5 6 
#
# 1 52.9488 31.8643 8.9258 0.0000 6.5144 0.0000
# 2 31.8643 158.1158 46.3619 0.0000 5.1465 0.0000
# 3 8.9258 46.3619 98.9274 0.0000 9.4823 0.0000
# 4 0.0000 0.0000 0.0000 36.6033 0.0000 4.4073
# 5 6.5144 5.1465 9.4823 0.0000 23.6668 0.0000
# 6 0.0000 0.0000 0.0000 4.4073 0.0000 31.5526
#
#
#
# Elastic Compliance Matrix: (Units=1/GPa)
#
#
# Indices 1 2 3 4 5 6 
#
# 1 0.022130 -0.004464 0.000609 0.000000 -0.005365 0.000000
# 2 -0.004464 0.008234 -0.003538 0.000000 0.000856 0.000000
# 3 0.000609 -0.003538 0.012119 0.000000 -0.004254 0.000000
# 4 0.000000 0.000000 0.000000 0.027787 0.000000 -0.003881
# 5 -0.005365 0.000856 -0.004254 0.000000 0.045248 0.000000
# 6 0.000000 0.000000 0.000000 -0.003881 0.000000 0.032235
#
#
# Mechanical properties :
#
#
# Convention : Reuss Voigt Hill
#
# Bulk Modulus (GPa) = 36.10357 53.81068 44.95713
# Shear Modulus (GPa) = 29.10862 33.22055 31.16459
#
# Velocity S-wave (km/s) = 3.65760 3.90741 3.78457
# Velocity P-wave (km/s) = 5.86773 6.71476 6.30548
#
# Compressibility (1/GPa) = 0.02769809
#
# Stress axis : x y z
#
# Youngs Moduli (GPa) = 45.18809 121.45422 82.51359
#
# Poissons Ratio (x) = 0.54215 -0.05029
# Poissons Ratio (y) = 0.20171 0.29192
# Poissons Ratio (z) = -0.02754 0.42969
#
# Static dielectric constant tensor:
#      x y z
#    x 3.473120 0.000000 -0.191940 
#    y 0.000000 4.087470 0.000000 
#    z -0.191940 0.000000 4.137820 
# 
# 
# High freq. dielectric constant tensor:
#      x y z
#    x 1.821980 0.000000 0.008230 
#    y 0.000000 1.869370 0.000000 
#    z 0.008230 0.000000 1.872690 
# 
# From -- ./inp_files/307176.got.cif
#   From: 2010.06.25/outbox.cif.g09.slc.cpg/sg15_154_cif.got.tgz:307176.got - 2010.06.28 07:06:18.
