data_PCOD8150189
_publ_section_title
;
Structure prediction by ZEFSAII (Michael W. Deem and Ramdas Pophale) SiO2 
 PCOD8150189
Probable space group: C 2/C
;
_chemical_formula_sum "Si O2"
_cell_formula_units_Z 44
_cell_length_a 7.897715
_cell_length_b 28.269146
_cell_length_c 9.009129
_cell_angle_alpha 90.000000
_cell_angle_beta 65.886934
_cell_angle_gamma 90.000000
_cell_volume 1835.881005
_symmetry_space_group_name_H-M "C 2/C"
_symmetry_group_IT_number 15
_symmetry_cell_setting 'monoclinic'
loop_
_space_group_symop_operation_xyz
x,y,z
-x,y,1/2-z
-x,-y,-z
x,-y,1/2+z
1/2+x,1/2+y,z
1/2-x,1/2+y,1/2-z
1/2-x,1/2-y,-z
1/2+x,1/2-y,1/2+z
loop_
_atom_site_type_symbol
_atom_site_label
_atom_site_fract_x
_atom_site_fract_y
_atom_site_fract_z
Si Si1 0.782657 0.156014 0.327199
Si Si2 0.204533 0.447506 0.978295
Si Si3 0.276899 0.038855 0.699519
Si Si4 0.978239 0.718780 0.581260
Si Si5 0.500000 0.614155 0.750000
Si Si6 0.343024 0.684737 0.998861
O O1 0.750450 0.103038 0.393902
O O2 0.668317 0.193510 0.464655
O O3 0.721596 0.163306 0.177735
O O4 0.000000 0.169325 0.250000
O O5 0.280036 0.486883 0.837341
O O6 0.295714 0.456646 0.105430
O O7 0.989021 0.452438 0.088976
O O8 0.176211 0.081417 0.652936
O O9 0.796016 0.689497 0.593440
O O10 0.954051 0.768203 0.504161
O O11 0.000000 0.724796 0.750000
O O12 0.494885 0.647962 0.606478
#
# Coordination Sequence:
#
# PCOD8150189 Si02
#       6
#     8   8   8   8   4   8
#     4  12  27  46  76 113 148 196 253 305 370 440
#     4  10  24  47  70 106 146 197 238 300 368 448
#     4  10  24  44  72 102 147 192 244 300 368 431
#     4  11  28  51  78 105 153 199 245 306 370 442
#     4  12  26  44  76 110 138 192 246 312 362 442
#     4  11  28  47  75 109 149 194 251 303 371 438
#
# _framework density 23.966695000000001
#
# number of rings (size 3 to 8) (size 9 to 14) (size 15 to 20)
#    0.000    1.091    0.000    3.273   16.545    2.182 
#    3.273    0.000    0.000    0.000    0.000    0.000 
#    0.000    0.000    0.000    0.000    0.000    0.000 
#
# Total GULP energy -272671.981950 kJ/mol
# GULP energy per Si atom -12394.180998 kJ/mol
# Density = 2.391215 g / cm^3
# Si number density = 23.966695 Si / 1000 Ang^3
#
#
#
# Elastic Constant Matrix: (Units=GPa)
#
#
# Indices 1 2 3 4 5 6 
#
# 1 88.2923 56.3692 35.0566 0.0000 16.4668 0.0000
# 2 56.3692 190.7966 100.3553 0.0000 -0.0227 0.0000
# 3 35.0566 100.3553 115.3335 0.0000 9.1223 0.0000
# 4 0.0000 0.0000 0.0000 56.6551 0.0000 -2.7185
# 5 16.4668 -0.0227 9.1223 0.0000 33.1868 0.0000
# 6 0.0000 0.0000 0.0000 -2.7185 0.0000 23.8654
#
#
#
# Elastic Compliance Matrix: (Units=1/GPa)
#
#
# Indices 1 2 3 4 5 6 
#
# 1 0.015761 -0.004537 -0.000229 0.000000 -0.007760 0.000000
# 2 -0.004537 0.011156 -0.008696 0.000000 0.004649 0.000000
# 3 -0.000229 -0.008696 0.016660 0.000000 -0.004472 0.000000
# 4 0.000000 0.000000 0.000000 0.017748 0.000000 0.002022
# 5 -0.007760 0.004649 -0.004472 0.000000 0.035215 0.000000
# 6 0.000000 0.000000 0.000000 0.002022 0.000000 0.042132
#
#
# Mechanical properties :
#
#
# Convention : Reuss Voigt Hill
#
# Bulk Modulus (GPa) = 60.04766 86.44274 73.24520
# Shear Modulus (GPa) = 29.21464 36.25087 32.73275
#
# Velocity S-wave (km/s) = 3.49516 3.89337 3.69963
# Velocity P-wave (km/s) = 6.43407 7.50715 6.99123
#
# Compressibility (1/GPa) = 0.01665344
#
# Stress axis : x y z
#
# Youngs Moduli (GPa) = 63.44855 89.63844 60.02245
#
# Poissons Ratio (x) = 0.40666 0.01376
# Poissons Ratio (y) = 0.28785 0.52195
# Poissons Ratio (z) = 0.01455 0.77948
#
# Static dielectric constant tensor:
#      x y z
#    x 4.431540 0.000000 0.302130 
#    y 0.000000 4.477730 0.000000 
#    z 0.302130 0.000000 4.660480 
# 
# 
# High freq. dielectric constant tensor:
#      x y z
#    x 1.947840 0.000000 0.003070 
#    y 0.000000 1.968220 0.000000 
#    z 0.003070 0.000000 1.961930 
# 
# From -- ./inp_files/25973.got.cif
#   From: 2010.06.25/outbox.cif.g09.slc.cpg/sg15_13_cif.got.tgz:25973.got - 2010.06.28 07:06:18.
