data_PCOD8150886
_publ_section_title
;
Structure prediction by ZEFSAII (Michael W. Deem and Ramdas Pophale) SiO2 
 PCOD8150886
Probable space group: C 2/C
;
_chemical_formula_sum "Si O2"
_cell_formula_units_Z 36
_cell_length_a 19.956432
_cell_length_b 5.537247
_cell_length_c 21.167238
_cell_angle_alpha 90.000000
_cell_angle_beta 137.819134
_cell_angle_gamma 90.000000
_cell_volume 1570.614648
_symmetry_space_group_name_H-M "C 2/C"
_symmetry_group_IT_number 15
_symmetry_cell_setting 'monoclinic'
loop_
_space_group_symop_operation_xyz
x,y,z
-x,y,1/2-z
-x,-y,-z
x,-y,1/2+z
1/2+x,1/2+y,z
1/2-x,1/2+y,1/2-z
1/2-x,1/2-y,-z
1/2+x,1/2-y,1/2+z
loop_
_atom_site_type_symbol
_atom_site_label
_atom_site_fract_x
_atom_site_fract_y
_atom_site_fract_z
Si Si1 0.070782 0.853997 0.004016
Si Si2 0.138604 0.838585 0.435243
Si Si3 0.525740 0.974916 0.158251
Si Si4 0.308385 0.195034 0.298919
Si Si5 0.500000 0.644038 0.250000
O O1 0.148983 0.703403 0.100354
O O2 0.990833 0.682164 0.915405
O O3 0.132043 0.014439 0.996324
O O4 0.000000 0.000000 0.000000
O O5 0.250000 0.750000 0.500000
O O6 0.078768 0.591793 0.397118
O O7 0.089131 0.990012 0.343622
O O8 0.608188 0.175481 0.198140
O O9 0.558503 0.806862 0.239472
O O10 0.255469 0.449711 0.248347
#
# Coordination Sequence:
#
# PCOD8150886 Si02
#       5
#     8   8   8   8   4
#     4  11  24  49  76 106 153 201 256 322 398 464
#     4  11  26  48  79 111 153 208 260 320 398 478
#     4  11  25  49  73 103 157 197 260 326 388 474
#     4  12  28  45  77 118 149 202 260 329 393 467
#     4  10  26  48  74 108 154 204 256 318 398 466
#
# _framework density 22.920964000000001
#
# number of rings (size 3 to 8) (size 9 to 14) (size 15 to 20)
#    0.000    0.889    2.222    2.667    6.222    8.889 
#    0.000    0.000    0.000    0.000    0.000    0.000 
#    0.000    0.000    0.000    0.000    0.000    0.000 
#
# Total GULP energy -223166.508694 kJ/mol
# GULP energy per Si atom -12398.139372 kJ/mol
# Density = 2.286879 g / cm^3
# Si number density = 22.920964 Si / 1000 Ang^3
#
#
#
# Elastic Constant Matrix: (Units=GPa)
#
#
# Indices 1 2 3 4 5 6 
#
# 1 154.0817 68.9623 84.6414 0.0004 10.3598 0.0059
# 2 68.9623 136.3459 64.4758 0.0022 -3.6108 0.0129
# 3 84.6414 64.4758 138.9433 -0.0002 -20.8707 0.0015
# 4 0.0004 0.0022 -0.0002 4.3207 -0.0001 4.0717
# 5 10.3598 -3.6108 -20.8707 -0.0001 48.0129 0.0001
# 6 0.0059 0.0129 0.0015 4.0717 0.0001 52.4853
#
#
#
# Elastic Compliance Matrix: (Units=1/GPa)
#
#
# Indices 1 2 3 4 5 6 
#
# 1 0.011908 -0.002995 -0.006723 0.000000 -0.005717 0.000000
# 2 -0.002995 0.010223 -0.002896 -0.000003 0.000156 -0.000002
# 3 -0.006723 -0.002896 0.013717 0.000002 0.007196 0.000001
# 4 0.000000 -0.000003 0.000002 0.249696 0.000001 -0.019371
# 5 -0.005717 0.000156 0.007196 0.000001 0.025201 0.000000
# 6 0.000000 -0.000002 0.000001 -0.019371 0.000000 0.020556
#
#
# Mechanical properties :
#
#
# Convention : Reuss Voigt Hill
#
# Bulk Modulus (GPa) = 94.15953 96.16998 95.16476
# Shear Modulus (GPa) = 13.88623 35.04988 24.46806
#
# Velocity S-wave (km/s) = 2.46403 3.91469 3.27080
# Velocity P-wave (km/s) = 7.01887 7.90452 7.47482
#
# Compressibility (1/GPa) = 0.01062027
#
# Stress axis : x y z
#
# Youngs Moduli (GPa) = 83.97564 97.82159 72.90041
#
# Poissons Ratio (x) = 0.29300 0.49012
# Poissons Ratio (y) = 0.25152 0.21110
# Poissons Ratio (z) = 0.56458 0.28326
#
# Static dielectric constant tensor:
#      x y z
#    x 4.034340 0.000000 -0.209350 
#    y 0.000000 4.477710 0.000000 
#    z -0.209350 0.000000 4.568990 
# 
# 
# High freq. dielectric constant tensor:
#      x y z
#    x 1.910340 0.000000 -0.012720 
#    y 0.000000 1.925240 0.000000 
#    z -0.012720 0.000000 1.912700 
# 
# From -- ./inp_files/165065.got.cif
#   From: 2010.06.25/outbox.cif.g09.slc.cpg/sg15_83_cif.got.tgz:165065.got - 2010.06.28 07:06:18.
