data_PCOD8150376
_publ_section_title
;
Structure prediction by ZEFSAII (Michael W. Deem and Ramdas Pophale) SiO2 
 PCOD8150376
Probable space group: C 2/C
;
_chemical_formula_sum "Si O2"
_cell_formula_units_Z 28
_cell_length_a 15.136742
_cell_length_b 14.598568
_cell_length_c 7.919243
_cell_angle_alpha 90.000000
_cell_angle_beta 139.786533
_cell_angle_gamma 90.000000
_cell_volume 1129.834618
_symmetry_space_group_name_H-M "C 2/C"
_symmetry_group_IT_number 15
_symmetry_cell_setting 'monoclinic'
loop_
_space_group_symop_operation_xyz
x,y,z
-x,y,1/2-z
-x,-y,-z
x,-y,1/2+z
1/2+x,1/2+y,z
1/2-x,1/2+y,1/2-z
1/2-x,1/2-y,-z
1/2+x,1/2-y,1/2+z
loop_
_atom_site_type_symbol
_atom_site_label
_atom_site_fract_x
_atom_site_fract_y
_atom_site_fract_z
Si Si1 0.742821 0.278514 0.183232
Si Si2 0.643082 0.450953 0.188659
Si Si3 0.803094 0.591819 0.226378
Si Si4 0.000000 0.639409 0.250000
O O1 0.643266 0.367351 0.054200
O O2 0.671285 0.193155 0.167980
O O3 0.886542 0.298452 0.488267
O O4 0.750000 0.250000 0.000000
O O5 0.770237 0.518861 0.325617
O O6 0.669571 0.410462 0.412186
O O7 0.500000 0.500000 0.000000
O O8 0.934405 0.572822 0.297665
#
# Coordination Sequence:
#
# PCOD8150376 Si02
#       4
#     8   8   8   4
#     4  11  26  47  73 111 151 203 253 317 391 446
#     4  11  24  45  73 110 152 198 257 310 382 466
#     4  11  25  44  72 109 150 199 249 315 385 442
#     4  10  24  46  72 100 156 194 254 304 382 460
#
# _framework density 24.782388000000001
#
# number of rings (size 3 to 8) (size 9 to 14) (size 15 to 20)
#    0.000    1.143    0.000    6.000    8.000    5.714 
#    0.000    0.000    0.000    0.000    0.000    0.000 
#    0.000    0.000    0.000    0.000    0.000    0.000 
#
# Total GULP energy -173455.892578 kJ/mol
# GULP energy per Si atom -12389.706613 kJ/mol
# Density = 2.472598 g / cm^3
# Si number density = 24.782388 Si / 1000 Ang^3
#
#
#
# Elastic Constant Matrix: (Units=GPa)
#
#
# Indices 1 2 3 4 5 6 
#
# 1 168.3718 79.6432 50.2175 0.0000 12.6579 0.0000
# 2 79.6432 177.5619 16.0492 0.0000 10.7475 0.0000
# 3 50.2175 16.0492 73.2294 0.0000 -10.1097 0.0000
# 4 0.0000 0.0000 0.0000 36.0386 0.0000 0.7592
# 5 12.6579 10.7475 -10.1097 0.0000 39.2649 0.0000
# 6 0.0000 0.0000 0.0000 0.7592 0.0000 52.1297
#
#
#
# Elastic Compliance Matrix: (Units=1/GPa)
#
#
# Indices 1 2 3 4 5 6 
#
# 1 0.009883 -0.003609 -0.006522 0.000000 -0.003877 0.000000
# 2 -0.003609 0.007214 0.000810 0.000000 -0.000603 0.000000
# 3 -0.006522 0.000810 0.018881 0.000000 0.006742 0.000000
# 4 0.000000 0.000000 0.000000 0.027757 0.000000 -0.000404
# 5 -0.003877 -0.000603 0.006742 0.000000 0.028619 0.000000
# 6 0.000000 0.000000 0.000000 -0.000404 0.000000 0.019189
#
#
# Mechanical properties :
#
#
# Convention : Reuss Voigt Hill
#
# Bulk Modulus (GPa) = 57.67662 78.99812 68.33737
# Shear Modulus (GPa) = 36.77542 43.70352 40.23947
#
# Velocity S-wave (km/s) = 3.85636 4.20395 4.03390
# Velocity P-wave (km/s) = 6.56906 7.45052 7.02363
#
# Compressibility (1/GPa) = 0.01733805
#
# Stress axis : x y z
#
# Youngs Moduli (GPa) = 101.18614 138.62581 52.96315
#
# Poissons Ratio (x) = 0.50025 0.34540
# Poissons Ratio (y) = 0.36515 -0.04293
# Poissons Ratio (z) = 0.65989 -0.11236
#
# Static dielectric constant tensor:
#      x y z
#    x 4.813050 0.000000 -0.254380 
#    y 0.000000 4.801170 0.000000 
#    z -0.254380 0.000000 4.495970 
# 
# 
# High freq. dielectric constant tensor:
#      x y z
#    x 2.009060 0.000000 -0.011890 
#    y 0.000000 1.987060 0.000000 
#    z -0.011890 0.000000 1.974340 
# 
# From -- ./inp_files/27736.got.cif
#   From: 2010.06.25/outbox.cif.g09.slc.cpg/sg15_14_cif.got.tgz:27736.got - 2010.06.28 07:06:18.
