data_PCOD8150628
_publ_section_title
;
Structure prediction by ZEFSAII (Michael W. Deem and Ramdas Pophale) SiO2 
 PCOD8150628
Probable space group: C 2/C
;
_chemical_formula_sum "Si O2"
_cell_formula_units_Z 40
_cell_length_a 28.923226
_cell_length_b 7.996290
_cell_length_c 20.849859
_cell_angle_alpha 90.000000
_cell_angle_beta 159.590981
_cell_angle_gamma 90.000000
_cell_volume 1681.569125
_symmetry_space_group_name_H-M "C 2/C"
_symmetry_group_IT_number 15
_symmetry_cell_setting 'monoclinic'
loop_
_space_group_symop_operation_xyz
x,y,z
-x,y,1/2-z
-x,-y,-z
x,-y,1/2+z
1/2+x,1/2+y,z
1/2-x,1/2+y,1/2-z
1/2-x,1/2-y,-z
1/2+x,1/2-y,1/2+z
loop_
_atom_site_type_symbol
_atom_site_label
_atom_site_fract_x
_atom_site_fract_y
_atom_site_fract_z
Si Si1 0.013505 0.012959 0.337709
Si Si2 0.739774 0.380310 0.429224
Si Si3 0.719192 0.728325 0.153937
Si Si4 0.389729 0.157205 0.678013
Si Si5 0.444021 0.025462 0.496873
O O1 0.010759 0.214062 0.320193
O O2 0.000000 0.922717 0.250000
O O3 0.895192 0.979763 0.233211
O O4 0.146524 0.947500 0.543665
O O5 0.750000 0.250000 0.500000
O O6 0.726940 0.302311 0.342570
O O7 0.866696 0.507776 0.596137
O O8 0.621735 0.856578 0.061849
O O9 0.838657 0.678857 0.356963
O O10 0.250000 0.250000 0.500000
O O11 0.427998 0.070064 0.794638
O O12 0.500000 0.000000 0.500000
#
# Coordination Sequence:
#
# PCOD8150628 Si02
#       5
#     8   8   8   8   8
#     4  11  23  40  71 103 142 181 241 300 370 433
#     4  11  22  44  70 107 140 184 245 307 363 439
#     4  12  26  45  74 105 152 196 248 307 378 437
#     4  10  25  44  71 104 140 186 243 306 369 441
#     4  12  28  48  72 105 151 196 248 306 376 447
#
# _framework density 23.787307999999999
#
# number of rings (size 3 to 8) (size 9 to 14) (size 15 to 20)
#    0.000    0.800    2.000    4.800    5.600    3.200 
#    0.000    7.000    0.000    0.000    0.000    0.000 
#    0.000    0.000    0.000    0.000    0.000    0.000 
#
# Total GULP energy -247879.847259 kJ/mol
# GULP energy per Si atom -12393.992363 kJ/mol
# Density = 2.373317 g / cm^3
# Si number density = 23.787308 Si / 1000 Ang^3
#
#
#
# Elastic Constant Matrix: (Units=GPa)
#
#
# Indices 1 2 3 4 5 6 
#
# 1 93.8994 18.4993 11.4463 0.0000 7.7830 0.0000
# 2 18.4993 122.0756 39.8590 0.0000 2.2777 0.0000
# 3 11.4463 39.8590 122.0206 0.0000 -13.0639 0.0000
# 4 0.0000 0.0000 0.0000 53.2394 0.0000 0.6966
# 5 7.7830 2.2777 -13.0639 0.0000 29.4450 0.0000
# 6 0.0000 0.0000 0.0000 0.6966 0.0000 29.9928
#
#
#
# Elastic Compliance Matrix: (Units=1/GPa)
#
#
# Indices 1 2 3 4 5 6 
#
# 1 0.011307 -0.001331 -0.000981 0.000000 -0.003321 0.000000
# 2 -0.001331 0.009457 -0.003155 0.000000 -0.001779 0.000000
# 3 -0.000981 -0.003155 0.009839 0.000000 0.004869 0.000000
# 4 0.000000 0.000000 0.000000 0.018789 0.000000 -0.000436
# 5 -0.003321 -0.001779 0.004869 0.000000 0.037137 0.000000
# 6 0.000000 0.000000 0.000000 -0.000436 0.000000 0.033351
#
#
# Mechanical properties :
#
#
# Convention : Reuss Voigt Hill
#
# Bulk Modulus (GPa) = 50.84329 53.06720 51.95524
# Shear Modulus (GPa) = 36.39792 40.41484 38.40638
#
# Velocity S-wave (km/s) = 3.91594 4.12638 4.02254
# Velocity P-wave (km/s) = 6.47045 6.71268 6.59268
#
# Compressibility (1/GPa) = 0.01966828
#
# Stress axis : x y z
#
# Youngs Moduli (GPa) = 88.44207 105.74637 101.63447
#
# Poissons Ratio (x) = 0.14075 0.09975
# Poissons Ratio (y) = 0.11772 0.32063
# Poissons Ratio (z) = 0.08680 0.33360
#
# Static dielectric constant tensor:
#      x y z
#    x -3.227750 0.000000 13.803910 
#    y 0.000000 4.750330 0.000000 
#    z 13.803910 0.000000 -19.281520 
# 
# 
# High freq. dielectric constant tensor:
#      x y z
#    x 1.939900 0.000000 -0.003160 
#    y 0.000000 1.957720 0.000000 
#    z -0.003160 0.000000 1.947130 
# 
# From -- ./inp_files/259055.got.cif
#   From: 2010.06.25/outbox.cif.g09.slc.cpg/sg15_130_cif.got.tgz:259055.got - 2010.06.28 07:06:18.
