data_PCOD8150639
_publ_section_title
;
Structure prediction by ZEFSAII (Michael W. Deem and Ramdas Pophale) SiO2 
 PCOD8150639
Probable space group: C 2/C
;
_chemical_formula_sum "Si O2"
_cell_formula_units_Z 56
_cell_length_a 11.398564
_cell_length_b 32.015891
_cell_length_c 15.117810
_cell_angle_alpha 90.000000
_cell_angle_beta 28.857554
_cell_angle_gamma 90.000000
_cell_volume 2662.700067
_symmetry_space_group_name_H-M "C 2/C"
_symmetry_group_IT_number 15
_symmetry_cell_setting 'monoclinic'
loop_
_space_group_symop_operation_xyz
x,y,z
-x,y,1/2-z
-x,-y,-z
x,-y,1/2+z
1/2+x,1/2+y,z
1/2-x,1/2+y,1/2-z
1/2-x,1/2-y,-z
1/2+x,1/2-y,1/2+z
loop_
_atom_site_type_symbol
_atom_site_label
_atom_site_fract_x
_atom_site_fract_y
_atom_site_fract_z
Si Si1 0.572894 0.446537 0.868692
Si Si2 0.780356 0.622743 0.965458
Si Si3 0.488075 0.849194 0.495432
Si Si4 0.961381 0.960767 0.409743
Si Si5 0.951251 0.196741 0.145247
Si Si6 0.372284 0.070598 0.521467
Si Si7 0.150555 0.288846 0.235828
O O1 0.437513 0.489239 0.931817
O O2 0.852453 0.445496 0.655089
O O3 0.429879 0.409683 0.915873
O O4 0.557848 0.438894 0.983097
O O5 0.000000 0.618861 0.750000
O O6 0.875649 0.616212 0.002138
O O7 0.654896 0.668634 0.059075
O O8 0.304758 0.827034 0.685323
O O9 0.654621 0.878735 0.447623
O O10 0.615674 0.814087 0.350164
O O11 0.743835 0.941890 0.495460
O O12 0.225739 0.951761 0.196029
O O13 0.927698 0.241012 0.208446
O O14 0.060051 0.205445 0.974993
O O15 0.000000 0.307345 0.250000
#
# Coordination Sequence:
#
# PCOD8150639 Si02
#       7
#     8   8   8   8   8   8   8
#     4  11  24  43  67  89 127 163 210 260 315 372
#     4  12  23  37  58  93 130 169 209 257 312 376
#     4  12  23  36  57  91 128 166 208 252 314 379
#     4  10  25  45  65  95 120 162 213 263 312 370
#     4  12  22  36  55  87 130 172 208 253 314 374
#     4  11  24  42  67  91 127 165 209 255 315 375
#     4  12  22  33  56  86 129 171 208 253 309 381
#
# _framework density 21.031283999999999
#
# number of rings (size 3 to 8) (size 9 to 14) (size 15 to 20)
#    0.000    0.571    5.714    3.429    0.000    5.714 
#    0.000    0.000    0.000    0.000    0.000    9.000 
#    0.000    0.000    0.000    0.000    0.000    0.000 
#
# Total GULP energy -346929.332600 kJ/mol
# GULP energy per Si atom -12390.333307 kJ/mol
# Density = 2.098342 g / cm^3
# Si number density = 21.031284 Si / 1000 Ang^3
#
#
#
# Elastic Constant Matrix: (Units=GPa)
#
#
# Indices 1 2 3 4 5 6 
#
# 1 69.6117 64.0603 45.3280 0.0000 -5.0428 0.0000
# 2 64.0603 106.7288 32.9511 0.0000 1.3819 0.0000
# 3 45.3280 32.9511 135.9505 0.0000 5.6208 -0.0003
# 4 0.0000 0.0000 0.0000 30.0413 0.0000 1.9572
# 5 -5.0428 1.3819 5.6208 0.0000 22.6593 0.0001
# 6 0.0000 0.0000 -0.0003 1.9572 0.0001 17.8836
#
#
#
# Elastic Compliance Matrix: (Units=1/GPa)
#
#
# Indices 1 2 3 4 5 6 
#
# 1 0.041961 -0.022557 -0.009059 0.000000 0.012961 0.000000
# 2 -0.022557 0.022253 0.002416 0.000000 -0.006976 0.000000
# 3 -0.009059 0.002416 0.009982 0.000000 -0.004640 0.000000
# 4 0.000000 0.000000 0.000000 0.033527 0.000000 -0.003669
# 5 0.012961 -0.006976 -0.004640 0.000000 0.048593 0.000000
# 6 0.000000 0.000000 0.000000 -0.003669 0.000000 0.056319
#
#
# Mechanical properties :
#
#
# Convention : Reuss Voigt Hill
#
# Bulk Modulus (GPa) = 63.30708 66.32999 64.81854
# Shear Modulus (GPa) = 18.09626 25.44694 21.77160
#
# Velocity S-wave (km/s) = 2.93652 3.48222 3.22094
# Velocity P-wave (km/s) = 6.45478 6.91194 6.68727
#
# Compressibility (1/GPa) = 0.01579602
#
# Stress axis : x y z
#
# Youngs Moduli (GPa) = 23.83163 44.93792 100.17600
#
# Poissons Ratio (x) = 1.01365 0.90751
# Poissons Ratio (y) = 0.53756 -0.24198
# Poissons Ratio (z) = 0.21589 -0.10855
#
# Static dielectric constant tensor:
#      x y z
#    x 3.373830 0.000000 0.138020 
#    y 0.000000 3.953570 0.000000 
#    z 0.138020 0.000000 4.369630 
# 
# 
# High freq. dielectric constant tensor:
#      x y z
#    x 1.767390 0.000000 0.016660 
#    y 0.000000 1.839400 0.000000 
#    z 0.016660 0.000000 1.857830 
# 
# From -- ./inp_files/149262.got.cif
#   From: 2010.06.25/outbox.cif.g09.slc.cpg/sg15_75_cif.got.tgz:149262.got - 2010.06.28 07:06:18.
