data_PCOD8150028
_publ_section_title
;
Structure prediction by ZEFSAII (Michael W. Deem and Ramdas Pophale) SiO2 
 PCOD8150028
Probable space group: C 2/C
;
_chemical_formula_sum "Si O2"
_cell_formula_units_Z 40
_cell_length_a 14.709155
_cell_length_b 8.687797
_cell_length_c 14.683424
_cell_angle_alpha 90.000000
_cell_angle_beta 79.525748
_cell_angle_gamma 90.000000
_cell_volume 1845.130034
_symmetry_space_group_name_H-M "C 2/C"
_symmetry_group_IT_number 15
_symmetry_cell_setting 'monoclinic'
loop_
_space_group_symop_operation_xyz
x,y,z
-x,y,1/2-z
-x,-y,-z
x,-y,1/2+z
1/2+x,1/2+y,z
1/2-x,1/2+y,1/2-z
1/2-x,1/2-y,-z
1/2+x,1/2-y,1/2+z
loop_
_atom_site_type_symbol
_atom_site_label
_atom_site_fract_x
_atom_site_fract_y
_atom_site_fract_z
Si Si1 0.252812 0.768832 0.649489
Si Si2 0.050693 0.826200 0.331187
Si Si3 0.078849 0.814161 0.802718
Si Si4 0.756682 0.499300 0.989165
Si Si5 0.100562 0.756132 0.997930
O O1 0.350868 0.756556 0.681256
O O2 0.179183 0.787765 0.742529
O O3 0.229383 0.619372 0.594403
O O4 0.250190 0.920125 0.588031
O O5 0.000000 0.765316 0.250000
O O6 0.993539 0.778825 0.430380
O O7 0.061617 0.008180 0.326394
O O8 0.073456 0.721038 0.898358
O O9 0.000000 0.748864 0.750000
O O10 0.843518 0.385721 0.970033
O O11 0.660732 0.411251 0.991745
#
# Coordination Sequence:
#
# PCOD8150028 Si02
#       5
#     8   8   8   8   8
#     4  11  25  44  68 102 139 180 223 286 340 404
#     4  11  25  43  71  99 135 178 233 276 342 406
#     4  11  25  43  71  97 136 182 230 273 343 408
#     4  10  24  43  71  96 142 177 230 277 343 398
#     4  11  24  45  71  99 134 184 227 281 335 411
#
# _framework density 21.678687
#
# number of rings (size 3 to 8) (size 9 to 14) (size 15 to 20)
#    0.000    1.200    2.000    3.000   14.000    0.800 
#    0.000    0.000    0.000    0.000    0.000    0.000 
#    0.000    0.000    0.000    0.000    0.000    0.000 
#
# Total GULP energy -248156.264425 kJ/mol
# GULP energy per Si atom -12407.813221 kJ/mol
# Density = 2.162935 g / cm^3
# Si number density = 21.678687 Si / 1000 Ang^3
#
#
#
# Elastic Constant Matrix: (Units=GPa)
#
#
# Indices 1 2 3 4 5 6 
#
# 1 156.8743 13.9822 68.0515 0.0000 -3.4349 0.0000
# 2 13.9822 51.6381 10.7305 0.0000 -4.6760 0.0000
# 3 68.0515 10.7305 152.7769 0.0000 -12.4955 0.0000
# 4 0.0000 0.0000 0.0000 -11.7185 0.0000 -20.5276
# 5 -3.4349 -4.6760 -12.4955 0.0000 52.9962 0.0000
# 6 0.0000 0.0000 0.0000 -20.5276 0.0000 13.3603
#
#
#
# Elastic Compliance Matrix: (Units=1/GPa)
#
#
# Indices 1 2 3 4 5 6 
#
# 1 0.008016 -0.001482 -0.003502 0.000000 -0.000437 0.000000
# 2 -0.001482 0.020034 -0.000622 0.000000 0.001525 0.000000
# 3 -0.003502 -0.000622 0.008286 0.000000 0.001672 0.000000
# 4 0.000000 0.000000 0.000000 -0.023117 0.000000 -0.035518
# 5 -0.000437 0.001525 0.001672 0.000000 0.019370 0.000000
# 6 0.000000 0.000000 0.000000 -0.035518 0.000000 0.020276
#
#
# Mechanical properties :
#
#
# Convention : Reuss Voigt Hill
#
# Bulk Modulus (GPa) = 39.80426 60.75752 50.28089
# Shear Modulus (GPa) = 69.00946 28.82926 48.91936
#
# Velocity S-wave (km/s) = 5.64818 3.65066 4.75548
# Velocity P-wave (km/s) = 7.80620 6.77178 7.30732
#
# Compressibility (1/GPa) = 0.02512294
#
# Stress axis : x y z
#
# Youngs Moduli (GPa) = 124.74423 49.91437 120.68574
#
# Poissons Ratio (x) = 0.07399 0.42269
# Poissons Ratio (y) = 0.18492 0.07508
# Poissons Ratio (z) = 0.43690 0.03105
#
# Static dielectric constant tensor:
#      x y z
#    x 4.139500 0.000000 0.261650 
#    y 0.000000 6.290610 0.000000 
#    z 0.261650 0.000000 4.014900 
# 
# 
# High freq. dielectric constant tensor:
#      x y z
#    x 1.867190 0.000000 0.007550 
#    y 0.000000 1.843280 0.000000 
#    z 0.007550 0.000000 1.863240 
# 
# From -- ./inp_files/150533.got.cif
#   From: 2010.06.25/outbox.cif.g09.slc.cpg/sg15_76_cif.got.tgz:150533.got - 2010.06.28 07:06:18.
