data_PCOD8150949
_publ_section_title
;
Structure prediction by ZEFSAII (Michael W. Deem and Ramdas Pophale) SiO2 
 PCOD8150949
Probable space group: C 2/C
;
_chemical_formula_sum "Si O2"
_cell_formula_units_Z 48
_cell_length_a 9.604144
_cell_length_b 15.347663
_cell_length_c 23.244491
_cell_angle_alpha 90.000000
_cell_angle_beta 55.381240
_cell_angle_gamma 90.000000
_cell_volume 2819.646202
_symmetry_space_group_name_H-M "C 2/C"
_symmetry_group_IT_number 15
_symmetry_cell_setting 'monoclinic'
loop_
_space_group_symop_operation_xyz
x,y,z
-x,y,1/2-z
-x,-y,-z
x,-y,1/2+z
1/2+x,1/2+y,z
1/2-x,1/2+y,1/2-z
1/2-x,1/2-y,-z
1/2+x,1/2-y,1/2+z
loop_
_atom_site_type_symbol
_atom_site_label
_atom_site_fract_x
_atom_site_fract_y
_atom_site_fract_z
Si Si1 0.751859 0.555704 0.424527
Si Si2 0.742140 0.758659 0.595055
Si Si3 0.480512 0.773497 0.552980
Si Si4 0.425433 0.964672 0.576720
Si Si5 0.388569 0.588055 0.831183
Si Si6 0.046685 0.910999 0.416787
O O1 0.752138 0.641799 0.382993
O O2 0.691890 0.478291 0.398257
O O3 0.626334 0.573303 0.507460
O O4 0.933921 0.529263 0.406524
O O5 0.619875 0.766871 0.569533
O O6 0.678582 0.688142 0.656474
O O7 0.925890 0.725526 0.530811
O O8 0.371564 0.862291 0.582684
O O9 0.373553 0.684214 0.586025
O O10 0.500000 0.000000 0.500000
O O11 0.263374 0.019226 0.633317
O O12 0.500000 0.567424 0.750000
O O13 0.504187 0.577135 0.860082
#
# Coordination Sequence:
#
# PCOD8150949 Si02
#       6
#     8   8   8   8   8   8
#     4   9  17  31  57  78  99 127 170 218 247 292
#     4   8  14  29  49  74  93 128 171 200 241 293
#     4   8  14  27  52  72  98 127 162 209 245 289
#     4  11  17  31  52  78 100 131 177 211 245 296
#     4  11  21  33  50  74 105 135 166 210 259 305
#     4   9  17  33  51  78 104 129 163 209 262 295
#
# _framework density 17.023413000000001
#
# number of rings (size 3 to 8) (size 9 to 14) (size 15 to 20)
#    0.000    2.667    3.333    2.000    0.000    0.000 
#    0.000    8.333    0.000    0.000    0.000    0.000 
#    0.000    0.000    0.000    0.000    0.000    0.000 
#
# Total GULP energy -297359.782138 kJ/mol
# GULP energy per Si atom -12389.990922 kJ/mol
# Density = 1.698467 g / cm^3
# Si number density = 17.023413 Si / 1000 Ang^3
#
#
#
# Elastic Constant Matrix: (Units=GPa)
#
#
# Indices 1 2 3 4 5 6 
#
# 1 60.4968 63.6067 35.4789 0.0001 -0.4473 -0.0001
# 2 63.6067 185.3630 54.7427 0.0000 -6.4215 0.0000
# 3 35.4789 54.7427 89.4826 0.0001 -4.0147 -0.0001
# 4 0.0001 0.0000 0.0001 16.4838 -0.0001 -1.3615
# 5 -0.4473 -6.4215 -4.0147 -0.0001 15.2604 0.0001
# 6 -0.0001 0.0000 -0.0001 -1.3615 0.0001 30.4515
#
#
#
# Elastic Compliance Matrix: (Units=1/GPa)
#
#
# Indices 1 2 3 4 5 6 
#
# 1 0.028957 -0.008102 -0.006718 0.000000 -0.004328 0.000000
# 2 -0.008102 0.008897 -0.002098 0.000000 0.002954 0.000000
# 3 -0.006718 -0.002098 0.015254 0.000000 0.002933 0.000000
# 4 0.000000 0.000000 0.000000 0.060890 0.000000 0.002722
# 5 -0.004328 0.002954 0.002933 0.000000 0.067417 0.000000
# 6 0.000000 0.000000 0.000000 0.002722 0.000000 0.032961
#
#
# Mechanical properties :
#
#
# Convention : Reuss Voigt Hill
#
# Bulk Modulus (GPa) = 51.89251 71.44434 61.66842
# Shear Modulus (GPa) = 19.63583 24.54010 22.08796
#
# Velocity S-wave (km/s) = 3.39995 3.80089 3.60600
# Velocity P-wave (km/s) = 6.77953 7.83082 7.32406
#
# Compressibility (1/GPa) = 0.01927060
#
# Stress axis : x y z
#
# Youngs Moduli (GPa) = 34.53450 112.39779 65.55563
#
# Poissons Ratio (x) = 0.91066 0.44044
# Poissons Ratio (y) = 0.27980 0.13753
# Poissons Ratio (z) = 0.23202 0.23580
#
# Static dielectric constant tensor:
#      x y z
#    x 2.915480 0.000000 -0.029740 
#    y 0.000000 4.150270 0.000000 
#    z -0.029740 0.000000 2.781780 
# 
# 
# High freq. dielectric constant tensor:
#      x y z
#    x 1.624760 0.000000 0.003460 
#    y 0.000000 1.686190 0.000000 
#    z 0.003460 0.000000 1.610270 
# 
# From -- ./inp_files/264942.got.cif
#   From: 2010.06.25/outbox.cif.g09.slc.cpg/sg15_133_cif.got.tgz:264942.got - 2010.06.28 07:06:18.
