data_PCOD8150912
_publ_section_title
;
Structure prediction by ZEFSAII (Michael W. Deem and Ramdas Pophale) SiO2 
 PCOD8150912
Probable space group: C 2/C
;
_chemical_formula_sum "Si O2"
_cell_formula_units_Z 44
_cell_length_a 28.928773
_cell_length_b 7.139314
_cell_length_c 8.640652
_cell_angle_alpha 90.000000
_cell_angle_beta 106.753359
_cell_angle_gamma 90.000000
_cell_volume 1708.820701
_symmetry_space_group_name_H-M "C 2/C"
_symmetry_group_IT_number 15
_symmetry_cell_setting 'monoclinic'
loop_
_space_group_symop_operation_xyz
x,y,z
-x,y,1/2-z
-x,-y,-z
x,-y,1/2+z
1/2+x,1/2+y,z
1/2-x,1/2+y,1/2-z
1/2-x,1/2-y,-z
1/2+x,1/2-y,1/2+z
loop_
_atom_site_type_symbol
_atom_site_label
_atom_site_fract_x
_atom_site_fract_y
_atom_site_fract_z
Si Si1 0.365238 0.031349 0.239934
Si Si2 0.640838 0.341607 0.948808
Si Si3 0.440188 0.325235 0.416484
Si Si4 0.302064 0.165027 0.924288
Si Si5 0.801144 0.043122 0.740841
Si Si6 0.500000 0.575692 0.250000
O O1 0.376943 0.851431 0.144876
O O2 0.339060 0.963737 0.367886
O O3 0.415901 0.131883 0.331733
O O4 0.326825 0.174750 0.119132
O O5 0.656980 0.497240 0.842961
O O6 0.599302 0.435415 0.016535
O O7 0.682743 0.296886 0.118844
O O8 0.458423 0.443278 0.286431
O O9 0.482103 0.294969 0.588384
O O10 0.294366 0.361616 0.839442
O O11 0.248732 0.079583 0.896009
#
# Coordination Sequence:
#
# PCOD8150912 Si02
#       6
#     8   8   8   8   8   4
#     4  11  24  45  69 102 149 189 241 286 355 417
#     4  11  24  45  72 104 143 196 238 299 338 428
#     4  11  24  51  76 109 140 182 230 300 366 443
#     4  11  24  41  65 104 149 200 240 297 328 412
#     4  11  25  40  68 105 148 198 252 278 347 390
#     4  10  26  50  84 108 140 168 236 300 378 440
#
# _framework density 25.748750000000001
#
# number of rings (size 3 to 8) (size 9 to 14) (size 15 to 20)
#    0.000    1.091    1.818    3.273    5.091    4.364 
#    3.273    2.727    0.000    0.000    0.000    0.000 
#    0.000    0.000    0.000    0.000    0.000    0.000 
#
# Total GULP energy -272555.346532 kJ/mol
# GULP energy per Si atom -12388.879388 kJ/mol
# Density = 2.569015 g / cm^3
# Si number density = 25.748750 Si / 1000 Ang^3
#
#
#
# Elastic Constant Matrix: (Units=GPa)
#
#
# Indices 1 2 3 4 5 6 
#
# 1 148.3201 47.9088 35.3157 0.0000 -12.9575 0.0000
# 2 47.9088 112.4218 73.1632 0.0000 9.9912 0.0000
# 3 35.3157 73.1632 179.6958 0.0000 7.5994 0.0000
# 4 0.0000 0.0000 0.0000 39.8456 0.0000 17.2993
# 5 -12.9575 9.9912 7.5994 0.0000 48.6524 0.0000
# 6 0.0000 0.0000 0.0000 17.2993 0.0000 22.4453
#
#
#
# Elastic Compliance Matrix: (Units=1/GPa)
#
#
# Indices 1 2 3 4 5 6 
#
# 1 0.008228 -0.003587 -0.000282 0.000000 0.002972 0.000000
# 2 -0.003587 0.013811 -0.004790 0.000000 -0.003043 0.000000
# 3 -0.000282 -0.004790 0.007582 0.000000 -0.000276 0.000000
# 4 0.000000 0.000000 0.000000 0.037718 0.000000 -0.029070
# 5 0.002972 -0.003043 -0.000276 0.000000 0.022014 0.000000
# 6 0.000000 0.000000 0.000000 -0.029070 0.000000 0.066958
#
#
# Mechanical properties :
#
#
# Convention : Reuss Voigt Hill
#
# Bulk Modulus (GPa) = 81.27621 83.69034 82.48328
# Shear Modulus (GPa) = 28.13281 41.12533 34.62907
#
# Velocity S-wave (km/s) = 3.30902 4.00081 3.67124
# Velocity P-wave (km/s) = 6.79949 7.34270 7.07631
#
# Compressibility (1/GPa) = 0.01230372
#
# Stress axis : x y z
#
# Youngs Moduli (GPa) = 121.54345 72.40632 131.88772
#
# Poissons Ratio (x) = 0.25969 0.03724
# Poissons Ratio (y) = 0.43592 0.63169
# Poissons Ratio (z) = 0.03432 0.34680
#
# Static dielectric constant tensor:
#      x y z
#    x 4.715710 0.000000 -0.052570 
#    y 0.000000 4.668370 0.000000 
#    z -0.052570 0.000000 5.587140 
# 
# 
# High freq. dielectric constant tensor:
#      x y z
#    x 2.025030 0.000000 -0.018700 
#    y 0.000000 2.025160 0.000000 
#    z -0.018700 0.000000 2.071430 
# 
# From -- ./inp_files/68660.got.cif
#   From: 2010.06.25/outbox.cif.g09.slc.cpg/sg15_35_cif.got.tgz:68660.got - 2010.06.28 07:06:18.
