data_PCOD8150548
_publ_section_title
;
Structure prediction by ZEFSAII (Michael W. Deem and Ramdas Pophale) SiO2 
 PCOD8150548
Probable space group: C 2/C
;
_chemical_formula_sum "Si O2"
_cell_formula_units_Z 56
_cell_length_a 14.593037
_cell_length_b 19.637994
_cell_length_c 16.068865
_cell_angle_alpha 90.000000
_cell_angle_beta 149.721418
_cell_angle_gamma 90.000000
_cell_volume 2321.854590
_symmetry_space_group_name_H-M "C 2/C"
_symmetry_group_IT_number 15
_symmetry_cell_setting 'monoclinic'
loop_
_space_group_symop_operation_xyz
x,y,z
-x,y,1/2-z
-x,-y,-z
x,-y,1/2+z
1/2+x,1/2+y,z
1/2-x,1/2+y,1/2-z
1/2-x,1/2-y,-z
1/2+x,1/2-y,1/2+z
loop_
_atom_site_type_symbol
_atom_site_label
_atom_site_fract_x
_atom_site_fract_y
_atom_site_fract_z
Si Si1 0.136341 0.523007 0.178517
Si Si2 0.500000 0.944760 0.750000
Si Si3 0.635765 0.396122 0.141276
Si Si4 0.435852 0.791157 0.370275
Si Si5 0.618671 0.422601 0.420209
Si Si6 0.297496 0.653121 0.228074
Si Si7 0.873385 0.084003 0.056181
Si Si8 0.000000 0.346569 0.250000
O O1 0.064565 0.511996 0.218175
O O2 0.304692 0.473639 0.297670
O O3 0.206221 0.599143 0.219353
O O4 0.000000 0.500000 0.000000
O O5 0.330591 0.899655 0.583154
O O6 0.457505 0.387222 0.057194
O O7 0.789709 0.343723 0.294201
O O8 0.584938 0.390090 0.005537
O O9 0.394535 0.712526 0.359540
O O10 0.637457 0.808304 0.555597
O O11 0.423141 0.798471 0.260783
O O12 0.500000 0.395857 0.250000
O O13 0.618109 0.504498 0.420574
O O14 0.432408 0.618929 0.261157
O O15 0.669805 0.108650 0.920164
#
# Coordination Sequence:
#
# PCOD8150548 Si02
#       8
#     8   4   8   8   8   8   8   4
#     4  12  24  46  77 109 144 193 247 308 369 439
#     4  12  27  42  72 112 152 181 248 316 368 435
#     4  11  22  46  67  98 141 181 235 298 369 426
#     4  11  26  44  67  97 141 191 233 296 363 452
#     4  12  25  39  67 107 140 186 241 305 367 433
#     4  12  26  44  70  97 139 195 237 287 370 437
#     4  11  23  39  66  94 139 185 226 297 356 435
#     4  10  25  42  62  98 140 183 244 288 358 437
#
# _framework density 24.118649999999999
#
# number of rings (size 3 to 8) (size 9 to 14) (size 15 to 20)
#    0.000    0.571    4.286    4.286    4.000    2.286 
#    0.000    0.000    1.571    1.714    0.000    0.000 
#    0.000    0.000    0.000    0.000    0.000    0.000 
#
# Total GULP energy -346936.045017 kJ/mol
# GULP energy per Si atom -12390.573036 kJ/mol
# Density = 2.406376 g / cm^3
# Si number density = 24.118650 Si / 1000 Ang^3
#
#
#
# Elastic Constant Matrix: (Units=GPa)
#
#
# Indices 1 2 3 4 5 6 
#
# 1 91.2037 20.1532 21.1718 -0.0050 18.7874 -0.0006
# 2 20.1532 119.0890 20.9651 -0.0040 15.7571 -0.0008
# 3 21.1718 20.9651 148.1769 -0.0031 30.5581 0.0017
# 4 -0.0050 -0.0040 -0.0031 28.9445 0.0008 0.7156
# 5 18.7874 15.7571 30.5581 0.0008 41.3958 0.0013
# 6 -0.0006 -0.0008 0.0017 0.7156 0.0013 19.8503
#
#
#
# Elastic Compliance Matrix: (Units=1/GPa)
#
#
# Indices 1 2 3 4 5 6 
#
# 1 0.012365 -0.001371 -0.000617 0.000002 -0.004635 0.000001
# 2 -0.001371 0.009049 -0.000593 0.000001 -0.002385 0.000001
# 3 -0.000617 -0.000593 0.008040 0.000001 -0.005430 0.000000
# 4 0.000002 0.000001 0.000001 0.034580 -0.000003 -0.001247
# 5 -0.004635 -0.002385 -0.005430 -0.000003 0.031177 -0.000002
# 6 0.000001 0.000001 0.000000 -0.001247 -0.000002 0.050422
#
#
# Mechanical properties :
#
#
# Convention : Reuss Voigt Hill
#
# Bulk Modulus (GPa) = 41.16248 53.67221 47.41735
# Shear Modulus (GPa) = 31.46798 37.78341 34.62570
#
# Velocity S-wave (km/s) = 3.61600 3.96228 3.79309
# Velocity P-wave (km/s) = 5.87688 6.57530 6.23587
#
# Compressibility (1/GPa) = 0.02429397
#
# Stress axis : x y z
#
# Youngs Moduli (GPa) = 80.87139 110.51036 124.37076
#
# Poissons Ratio (x) = 0.15148 0.07674
# Poissons Ratio (y) = 0.11085 0.07371
# Poissons Ratio (z) = 0.04990 0.06549
#
# Static dielectric constant tensor:
#      x y z
#    x 5.018490 -0.000180 -1.646460 
#    y -0.000180 4.438990 0.000280 
#    z -1.646460 0.000280 9.590490 
# 
# 
# High freq. dielectric constant tensor:
#      x y z
#    x 1.944680 0.000000 0.010180 
#    y 0.000000 1.922890 0.000000 
#    z 0.010180 0.000000 2.002280 
# 
# From -- ./inp_files/207015.got.cif
#   From: 2010.06.25/outbox.cif.g09.slc.cpg/sg15_104_cif.got.tgz:207015.got - 2010.06.28 07:06:18.
