data_PCOD8150039
_publ_section_title
;
Structure prediction by ZEFSAII (Michael W. Deem and Ramdas Pophale) SiO2 
 PCOD8150039
Probable space group: C 2/C
;
_chemical_formula_sum "Si O2"
_cell_formula_units_Z 28
_cell_length_a 11.304594
_cell_length_b 19.737421
_cell_length_c 5.188454
_cell_angle_alpha 90.000000
_cell_angle_beta 109.916571
_cell_angle_gamma 90.000000
_cell_volume 1088.425750
_symmetry_space_group_name_H-M "C 2/C"
_symmetry_group_IT_number 15
_symmetry_cell_setting 'monoclinic'
loop_
_space_group_symop_operation_xyz
x,y,z
-x,y,1/2-z
-x,-y,-z
x,-y,1/2+z
1/2+x,1/2+y,z
1/2-x,1/2+y,1/2-z
1/2-x,1/2-y,-z
1/2+x,1/2-y,1/2+z
loop_
_atom_site_type_symbol
_atom_site_label
_atom_site_fract_x
_atom_site_fract_y
_atom_site_fract_z
Si Si1 0.415022 0.232982 0.435338
Si Si2 0.000000 0.045900 0.250000
Si Si3 0.722901 0.638188 0.550413
Si Si4 0.556604 0.075558 0.542846
O O1 0.500000 0.216609 0.250000
O O2 0.341022 0.303163 0.325724
O O3 0.313571 0.172685 0.404429
O O4 0.500000 0.244617 0.750000
O O5 0.123241 0.092657 0.325634
O O6 0.000000 0.000000 0.500000
O O7 0.794700 0.586614 0.807554
O O8 0.500000 0.114747 0.750000
O O9 0.500000 0.000000 0.500000
O O10 0.500000 0.112502 0.250000
#
# Coordination Sequence:
#
# PCOD8150039 Si02
#       4
#     8   4   8   8
#     4  11  27  51  84 118 153 214 271 345 399 467
#     4  12  32  50  82 120 168 222 254 326 416 492
#     4  11  27  52  82 118 168 205 275 332 405 488
#     4  10  24  43  73 109 150 202 259 314 382 462
#
# _framework density 25.725227
#
# number of rings (size 3 to 8) (size 9 to 14) (size 15 to 20)
#    0.000    1.143    1.429    0.857   10.000   13.714 
#    0.000    0.000    3.143    0.000    0.000    0.000 
#    0.000    0.000    0.000    0.000    0.000    0.000 
#
# Total GULP energy -173433.186662 kJ/mol
# GULP energy per Si atom -12388.084762 kJ/mol
# Density = 2.566667 g / cm^3
# Si number density = 25.725227 Si / 1000 Ang^3
#
#
#
# Elastic Constant Matrix: (Units=GPa)
#
#
# Indices 1 2 3 4 5 6 
#
# 1 173.0117 86.0656 97.8457 0.0000 6.7069 0.0000
# 2 86.0656 198.8692 63.0842 0.0000 34.4317 0.0000
# 3 97.8457 63.0842 220.1498 0.0000 9.6995 0.0000
# 4 0.0000 0.0000 0.0000 73.8573 0.0000 36.3726
# 5 6.7069 34.4317 9.6995 0.0000 67.2952 0.0000
# 6 0.0000 0.0000 0.0000 36.3726 0.0000 54.3706
#
#
#
# Elastic Compliance Matrix: (Units=1/GPa)
#
#
# Indices 1 2 3 4 5 6 
#
# 1 0.009098 -0.003122 -0.003200 0.000000 0.001152 0.000000
# 2 -0.003122 0.007102 -0.000504 0.000000 -0.003250 0.000000
# 3 -0.003200 -0.000504 0.006123 0.000000 -0.000305 0.000000
# 4 0.000000 0.000000 0.000000 0.020192 0.000000 -0.013508
# 5 0.001152 -0.003250 -0.000305 0.000000 0.016452 0.000000
# 6 0.000000 0.000000 0.000000 -0.013508 0.000000 0.027429
#
#
# Mechanical properties :
#
#
# Convention : Reuss Voigt Hill
#
# Bulk Modulus (GPa) = 115.33236 120.66908 118.00072
# Shear Modulus (GPa) = 48.57336 62.10699 55.34017
#
# Velocity S-wave (km/s) = 4.35001 4.91883 4.64314
# Velocity P-wave (km/s) = 8.37615 8.90329 8.64374
#
# Compressibility (1/GPa) = 0.00867059
#
# Stress axis : x y z
#
# Youngs Moduli (GPa) = 109.91657 140.80234 163.33167
#
# Poissons Ratio (x) = 0.43954 0.52262
# Poissons Ratio (y) = 0.34313 0.08240
# Poissons Ratio (z) = 0.35170 0.07103
#
# Static dielectric constant tensor:
#      x y z
#    x 5.234590 0.000000 -0.696280 
#    y 0.000000 5.093590 0.000000 
#    z -0.696280 0.000000 7.967870 
# 
# 
# High freq. dielectric constant tensor:
#      x y z
#    x 2.028110 0.000000 0.013490 
#    y 0.000000 2.063810 0.000000 
#    z 0.013490 0.000000 2.034200 
# 
# From -- ./inp_files/3762.got.cif
#   From: 2010.06.25/outbox.cif.g09.slc.cpg/sg15_2_cif.got.tgz:3762.got - 2010.06.28 07:06:18.
