data_PCOD8150153
_publ_section_title
;
Structure prediction by ZEFSAII (Michael W. Deem and Ramdas Pophale) SiO2 
 PCOD8150153
Probable space group: C 2/C
;
_chemical_formula_sum "Si O2"
_cell_formula_units_Z 48
_cell_length_a 30.257761
_cell_length_b 7.982561
_cell_length_c 18.724349
_cell_angle_alpha 90.000000
_cell_angle_beta 149.654425
_cell_angle_gamma 90.000000
_cell_volume 2284.869197
_symmetry_space_group_name_H-M "C 2/C"
_symmetry_group_IT_number 15
_symmetry_cell_setting 'monoclinic'
loop_
_space_group_symop_operation_xyz
x,y,z
-x,y,1/2-z
-x,-y,-z
x,-y,1/2+z
1/2+x,1/2+y,z
1/2-x,1/2+y,1/2-z
1/2-x,1/2-y,-z
1/2+x,1/2-y,1/2+z
loop_
_atom_site_type_symbol
_atom_site_label
_atom_site_fract_x
_atom_site_fract_y
_atom_site_fract_z
Si Si1 0.342941 0.202901 0.892683
Si Si2 0.343112 0.202605 0.159556
Si Si3 0.579768 0.620199 0.405469
Si Si4 0.596649 0.006982 0.388573
Si Si5 0.259739 0.958295 0.673703
Si Si6 0.001188 0.935636 0.420543
O O1 0.265424 0.334816 0.797106
O O2 0.313277 0.108292 0.781440
O O3 0.348481 0.096944 0.973238
O O4 0.435597 0.277952 0.000334
O O5 0.370728 0.052577 0.144970
O O6 0.328494 0.123744 0.216439
O O7 0.407779 0.364208 0.260335
O O8 0.250000 0.250000 0.000000
O O9 0.500000 0.540073 0.250000
O O10 0.667831 0.517232 0.509996
O O11 0.544270 0.592145 0.436897
O O12 0.597125 0.810510 0.407218
O O13 0.500000 0.080095 0.250000
O O14 0.000000 0.000000 0.500000
#
# Coordination Sequence:
#
# PCOD8150153 Si02
#       6
#     8   8   8   8   8   8
#     4  11  24  42  69  94 142 174 229 274 350 408
#     4  12  25  42  72 103 138 180 235 285 340 413
#     4  10  24  44  69  96 136 176 230 279 346 410
#     4  11  23  44  69  97 128 183 226 280 343 407
#     4  11  25  41  68 102 135 181 223 287 342 413
#     4  11  27  44  69 101 141 183 225 286 351 411
#
# _framework density 21.007767000000001
#
# number of rings (size 3 to 8) (size 9 to 14) (size 15 to 20)
#    0.000    1.000    3.333    2.000    9.333    5.333 
#    0.000    0.000    0.000    0.000    0.000    0.000 
#    0.000    0.000    0.000    0.000    0.000    0.000 
#
# Total GULP energy -297378.957747 kJ/mol
# GULP energy per Si atom -12390.789906 kJ/mol
# Density = 2.095995 g / cm^3
# Si number density = 21.007767 Si / 1000 Ang^3
#
#
#
# Elastic Constant Matrix: (Units=GPa)
#
#
# Indices 1 2 3 4 5 6 
#
# 1 116.8558 38.9960 26.3978 0.0000 7.8407 0.0000
# 2 38.9960 92.9400 29.5682 0.0000 3.3968 0.0000
# 3 26.3978 29.5682 91.3064 0.0000 7.1115 0.0000
# 4 0.0000 0.0000 0.0000 33.4817 0.0000 -15.8113
# 5 7.8407 3.3968 7.1115 0.0000 31.9686 0.0000
# 6 0.0000 0.0000 0.0000 -15.8113 0.0000 33.7351
#
#
#
# Elastic Compliance Matrix: (Units=1/GPa)
#
#
# Indices 1 2 3 4 5 6 
#
# 1 0.010290 -0.003735 -0.001628 0.000000 -0.001765 0.000000
# 2 -0.003735 0.013357 -0.003263 0.000000 0.000223 0.000000
# 3 -0.001628 -0.003263 0.012640 0.000000 -0.002066 0.000000
# 4 0.000000 0.000000 0.000000 0.038357 0.000000 0.017977
# 5 -0.001765 0.000223 -0.002066 0.000000 0.032149 0.000000
# 6 0.000000 0.000000 0.000000 0.017977 0.000000 0.038069
#
#
# Mechanical properties :
#
#
# Convention : Reuss Voigt Hill
#
# Bulk Modulus (GPa) = 52.53401 54.55846 53.54624
# Shear Modulus (GPa) = 29.68081 33.57976 31.63028
#
# Velocity S-wave (km/s) = 3.76287 4.00239 3.88448
# Velocity P-wave (km/s) = 6.62873 6.88374 6.75744
#
# Compressibility (1/GPa) = 0.01903529
#
# Stress axis : x y z
#
# Youngs Moduli (GPa) = 97.17994 74.86858 79.11178
#
# Poissons Ratio (x) = 0.27965 0.12879
# Poissons Ratio (y) = 0.36298 0.25813
# Poissons Ratio (z) = 0.15821 0.24428
#
# Static dielectric constant tensor:
#      x y z
#    x 3.655120 0.000000 -0.009210 
#    y 0.000000 3.829970 0.000000 
#    z -0.009210 0.000000 4.027960 
# 
# 
# High freq. dielectric constant tensor:
#      x y z
#    x 1.830590 0.000000 0.004010 
#    y 0.000000 1.820810 0.000000 
#    z 0.004010 0.000000 1.838620 
# 
# From -- ./inp_files/224676.got.cif
#   From: 2010.06.25/outbox.cif.g09.slc.cpg/sg15_113_cif.got.tgz:224676.got - 2010.06.28 07:06:18.
