data_PCOD8150865
_publ_section_title
;
Structure prediction by ZEFSAII (Michael W. Deem and Ramdas Pophale) SiO2 
 PCOD8150865
Probable space group: C 2/C
;
_chemical_formula_sum "Si O2"
_cell_formula_units_Z 40
_cell_length_a 12.024490
_cell_length_b 14.287869
_cell_length_c 15.933456
_cell_angle_alpha 90.000000
_cell_angle_beta 36.704637
_cell_angle_gamma 90.000000
_cell_volume 1636.138728
_symmetry_space_group_name_H-M "C 2/C"
_symmetry_group_IT_number 15
_symmetry_cell_setting 'monoclinic'
loop_
_space_group_symop_operation_xyz
x,y,z
-x,y,1/2-z
-x,-y,-z
x,-y,1/2+z
1/2+x,1/2+y,z
1/2-x,1/2+y,1/2-z
1/2-x,1/2-y,-z
1/2+x,1/2-y,1/2+z
loop_
_atom_site_type_symbol
_atom_site_label
_atom_site_fract_x
_atom_site_fract_y
_atom_site_fract_z
Si Si1 0.035313 0.180550 0.475903
Si Si2 0.690655 0.156779 0.585010
Si Si3 0.790864 0.971513 0.880320
Si Si4 0.227300 0.639709 0.020807
Si Si5 0.135278 0.355583 0.832670
O O1 0.850286 0.128873 0.555721
O O2 0.980397 0.283406 0.540262
O O3 0.142532 0.113136 0.478356
O O4 0.179567 0.194988 0.312080
O O5 0.500000 0.171738 0.750000
O O6 0.750000 0.250000 0.500000
O O7 0.676404 0.073305 0.526934
O O8 0.686442 0.947464 0.856504
O O9 0.000000 0.930663 0.750000
O O10 0.797974 0.083031 0.895152
O O11 0.003885 0.617222 0.160567
O O12 0.250000 0.750000 0.000000
#
# Coordination Sequence:
#
# PCOD8150865 Si02
#       5
#     8   8   8   8   8
#     4  11  23  43  74 105 148 191 240 294 365 435
#     4  12  24  43  71 107 150 190 241 300 365 431
#     4  12  25  47  74 108 144 190 244 306 367 435
#     4  10  26  47  69 102 144 196 243 296 365 437
#     4  11  23  44  75 109 148 189 241 298 366 446
#
# _framework density 24.447806
#
# number of rings (size 3 to 8) (size 9 to 14) (size 15 to 20)
#    0.000    0.800    4.000    3.000    0.000    8.800 
#    3.600    0.000    0.000    0.000    0.000    0.000 
#    0.000    0.000    0.000    0.000    0.000    0.000 
#
# Total GULP energy -247838.602997 kJ/mol
# GULP energy per Si atom -12391.930150 kJ/mol
# Density = 2.439216 g / cm^3
# Si number density = 24.447806 Si / 1000 Ang^3
#
#
#
# Elastic Constant Matrix: (Units=GPa)
#
#
# Indices 1 2 3 4 5 6 
#
# 1 211.5462 44.7229 59.6746 -0.0018 -26.7491 0.0006
# 2 44.7229 100.5645 47.6927 -0.0026 11.0165 0.0011
# 3 59.6746 47.6927 180.2626 -0.0024 -20.7890 0.0011
# 4 -0.0018 -0.0026 -0.0024 33.1531 0.0022 11.1337
# 5 -26.7491 11.0165 -20.7890 0.0022 40.3154 -0.0009
# 6 0.0006 0.0011 0.0011 11.1337 -0.0009 35.3165
#
#
#
# Elastic Compliance Matrix: (Units=1/GPa)
#
#
# Indices 1 2 3 4 5 6 
#
# 1 0.006102 -0.002840 -0.000757 0.000000 0.004434 0.000000
# 2 -0.002840 0.013706 -0.003546 0.000001 -0.007458 -0.000001
# 3 -0.000757 -0.003546 0.007219 0.000000 0.004189 0.000000
# 4 0.000000 0.000001 0.000000 0.033735 -0.000003 -0.010635
# 5 0.004434 -0.007458 0.004189 -0.000003 0.031945 0.000002
# 6 0.000000 -0.000001 0.000000 -0.010635 0.000002 0.031668
#
#
# Mechanical properties :
#
#
# Convention : Reuss Voigt Hill
#
# Bulk Modulus (GPa) = 78.49238 88.50598 83.49918
# Shear Modulus (GPa) = 34.98750 44.44255 39.71502
#
# Velocity S-wave (km/s) = 3.78711 4.26826 4.03486
# Velocity P-wave (km/s) = 7.16231 7.78276 7.47897
#
# Compressibility (1/GPa) = 0.01274009
#
# Stress axis : x y z
#
# Youngs Moduli (GPa) = 163.88516 72.96216 138.51497
#
# Poissons Ratio (x) = 0.20723 0.10487
# Poissons Ratio (y) = 0.46548 0.49118
# Poissons Ratio (z) = 0.12408 0.25873
#
# Static dielectric constant tensor:
#      x y z
#    x 5.753980 -0.000010 -0.194210 
#    y -0.000010 4.132220 0.000000 
#    z -0.194210 0.000000 4.342670 
# 
# 
# High freq. dielectric constant tensor:
#      x y z
#    x 2.000190 0.000000 -0.018810 
#    y 0.000000 1.945660 0.000000 
#    z -0.018810 0.000000 1.967250 
# 
# From -- ./inp_files/205599.got.cif
#   From: 2010.06.25/outbox.cif.g09.slc.cpg/sg15_103_cif.got.tgz:205599.got - 2010.06.28 07:06:18.
