data_PCOD8150562
_publ_section_title
;
Structure prediction by ZEFSAII (Michael W. Deem and Ramdas Pophale) SiO2 
 PCOD8150562
Probable space group: C 2/C
;
_chemical_formula_sum "Si O2"
_cell_formula_units_Z 56
_cell_length_a 12.339940
_cell_length_b 8.428474
_cell_length_c 30.312195
_cell_angle_alpha 90.000000
_cell_angle_beta 54.001256
_cell_angle_gamma 90.000000
_cell_volume 2550.609347
_symmetry_space_group_name_H-M "C 2/C"
_symmetry_group_IT_number 15
_symmetry_cell_setting 'monoclinic'
loop_
_space_group_symop_operation_xyz
x,y,z
-x,y,1/2-z
-x,-y,-z
x,-y,1/2+z
1/2+x,1/2+y,z
1/2-x,1/2+y,1/2-z
1/2-x,1/2-y,-z
1/2+x,1/2-y,1/2+z
loop_
_atom_site_type_symbol
_atom_site_label
_atom_site_fract_x
_atom_site_fract_y
_atom_site_fract_z
Si Si1 0.050903 0.259823 0.639245
Si Si2 0.291340 0.045034 0.562736
Si Si3 0.397469 0.248768 0.892717
Si Si4 0.392880 0.042727 0.811686
Si Si5 0.537210 0.031873 0.061900
Si Si6 0.306318 0.652655 0.193205
Si Si7 0.885840 0.066048 0.742208
O O1 0.040860 0.397981 0.677708
O O2 0.007072 0.322657 0.601948
O O3 0.200380 0.191133 0.599661
O O4 0.950701 0.125637 0.680636
O O5 0.206730 0.887489 0.571988
O O6 0.393882 0.022096 0.578195
O O7 0.369992 0.094506 0.499829
O O8 0.548005 0.311230 0.860284
O O9 0.363470 0.187214 0.851693
O O10 0.383212 0.108531 0.931898
O O11 0.500000 0.100567 0.750000
O O12 0.256396 0.986087 0.821636
O O13 0.310979 0.593811 0.243576
O O14 0.217224 0.811156 0.211694
O O15 0.000000 0.023536 0.750000
#
# Coordination Sequence:
#
# PCOD8150562 Si02
#       7
#     8   8   8   8   8   8   8
#     4  11  21  43  66  92 127 166 209 260 315 372
#     4  11  23  45  64  96 123 161 224 260 319 376
#     4  11  25  40  65  95 126 165 211 258 313 376
#     4  11  22  43  59  91 133 167 205 252 307 375
#     4  10  25  42  69  90 126 168 204 275 323 366
#     4  12  24  40  63  90 127 169 204 251 311 369
#     4  12  26  41  63  95 130 167 210 256 303 382
#
# _framework density 21.955538000000001
#
# number of rings (size 3 to 8) (size 9 to 14) (size 15 to 20)
#    0.000    0.857    4.286    2.571    4.000    1.714 
#    0.000    0.000    0.000    9.429    0.000    0.000 
#    0.000    0.000    0.000    0.000    0.000    0.000 
#
# Total GULP energy -347324.504147 kJ/mol
# GULP energy per Si atom -12404.446577 kJ/mol
# Density = 2.190557 g / cm^3
# Si number density = 21.955538 Si / 1000 Ang^3
#
#
#
# Elastic Constant Matrix: (Units=GPa)
#
#
# Indices 1 2 3 4 5 6 
#
# 1 88.5989 8.2101 20.0405 0.0000 11.0653 0.0000
# 2 8.2101 25.3732 -0.0392 0.0000 6.8015 0.0000
# 3 20.0405 -0.0392 83.5217 0.0000 10.4166 0.0000
# 4 0.0000 0.0000 0.0000 17.3604 0.0000 -3.9986
# 5 11.0653 6.8015 10.4166 0.0000 23.7763 0.0000
# 6 0.0000 0.0000 0.0000 -3.9986 0.0000 20.3630
#
#
#
# Elastic Compliance Matrix: (Units=1/GPa)
#
#
# Indices 1 2 3 4 5 6 
#
# 1 0.012631 -0.003048 -0.002547 0.000000 -0.003891 0.000000
# 2 -0.003048 0.043632 0.002255 0.000000 -0.012051 0.000000
# 3 -0.002547 0.002255 0.013241 0.000000 -0.005261 0.000000
# 4 0.000000 0.000000 0.000000 0.060331 0.000000 0.011847
# 5 -0.003891 -0.012051 -0.005261 0.000000 0.049621 0.000000
# 6 0.000000 0.000000 0.000000 0.011847 0.000000 0.051435
#
#
# Mechanical properties :
#
#
# Convention : Reuss Voigt Hill
#
# Bulk Modulus (GPa) = 15.91758 28.21294 22.06526
# Shear Modulus (GPa) = 19.34133 23.58543 21.46338
#
# Velocity S-wave (km/s) = 2.97127 3.28111 3.13003
# Velocity P-wave (km/s) = 4.36313 5.21845 4.80984
#
# Compressibility (1/GPa) = 0.06282361
#
# Stress axis : x y z
#
# Youngs Moduli (GPa) = 79.16829 22.91907 75.52159
#
# Poissons Ratio (x) = 0.06986 0.19235
# Poissons Ratio (y) = 0.24132 -0.17029
# Poissons Ratio (z) = 0.20164 -0.05168
#
# Static dielectric constant tensor:
#      x y z
#    x 4.046710 0.000000 0.116570 
#    y 0.000000 3.975920 0.000000 
#    z 0.116570 0.000000 3.895320 
# 
# 
# High freq. dielectric constant tensor:
#      x y z
#    x 1.874860 0.000000 0.006010 
#    y 0.000000 1.861150 0.000000 
#    z 0.006010 0.000000 1.861740 
# 
# From -- ./inp_files/291527.got.cif
#   From: 2010.06.25/outbox.cif.g09.slc.cpg/sg15_146_cif.got.tgz:291527.got - 2010.06.28 07:06:18.
