data_PCOD8150208
_publ_section_title
;
Structure prediction by ZEFSAII (Michael W. Deem and Ramdas Pophale) SiO2 
 PCOD8150208
Probable space group: C 2/C
;
_chemical_formula_sum "Si O2"
_cell_formula_units_Z 60
_cell_length_a 20.173240
_cell_length_b 11.015706
_cell_length_c 17.677855
_cell_angle_alpha 90.000000
_cell_angle_beta 139.055924
_cell_angle_gamma 90.000000
_cell_volume 2574.378251
_symmetry_space_group_name_H-M "C 2/C"
_symmetry_group_IT_number 15
_symmetry_cell_setting 'monoclinic'
loop_
_space_group_symop_operation_xyz
x,y,z
-x,y,1/2-z
-x,-y,-z
x,-y,1/2+z
1/2+x,1/2+y,z
1/2-x,1/2+y,1/2-z
1/2-x,1/2-y,-z
1/2+x,1/2-y,1/2+z
loop_
_atom_site_type_symbol
_atom_site_label
_atom_site_fract_x
_atom_site_fract_y
_atom_site_fract_z
Si Si1 0.236257 0.112556 0.795792
Si Si2 0.500000 0.690490 0.750000
Si Si3 0.063800 0.705887 0.573196
Si Si4 0.821008 0.015517 0.605843
Si Si5 0.080096 0.233680 0.254631
Si Si6 0.909548 0.327617 0.812940
Si Si7 0.613904 0.537663 0.087020
Si Si8 0.716595 0.958645 0.368756
O O1 0.342487 0.111187 0.841702
O O2 0.177010 0.238059 0.731727
O O3 0.248574 0.088081 0.894739
O O4 0.172316 0.996130 0.713831
O O5 0.405787 0.605811 0.646098
O O6 0.476547 0.770610 0.803588
O O7 0.027964 0.753344 0.625631
O O8 0.113735 0.819095 0.570809
O O9 0.976165 0.646793 0.446015
O O10 0.877954 0.898755 0.689558
O O11 0.734458 0.989820 0.470942
O O12 0.175265 0.322910 0.333453
O O13 0.000000 0.273860 0.250000
O O14 0.861490 0.451402 0.740212
O O15 0.671086 0.462835 0.070730
O O16 0.500000 0.500000 0.000000
#
# Coordination Sequence:
#
# PCOD8150208 Si02
#       8
#     8   4   8   8   8   8   8   8
#     4  11  24  44  72 111 135 190 252 314 367 438
#     4  10  24  44  74 108 138 194 244 300 382 438
#     4  12  25  47  75 108 149 192 255 311 375 447
#     4  11  25  46  73 102 146 196 251 303 366 453
#     4  12  28  48  71 106 150 206 247 293 377 458
#     4  11  26  44  74 109 148 188 243 317 383 435
#     4  12  24  45  76 105 144 194 253 315 369 451
#     4  12  28  47  69 111 152 190 248 310 381 450
#
# _framework density 23.306598000000001
#
# number of rings (size 3 to 8) (size 9 to 14) (size 15 to 20)
#    0.000    0.533    6.000    1.200    6.533    1.600 
#    4.800    0.000    0.000    0.000    0.000    0.000 
#    0.000    0.000    0.000    0.000    0.000    0.000 
#
# Total GULP energy -371878.443075 kJ/mol
# GULP energy per Si atom -12395.948102 kJ/mol
# Density = 2.325355 g / cm^3
# Si number density = 23.306598 Si / 1000 Ang^3
#
#
#
# Elastic Constant Matrix: (Units=GPa)
#
#
# Indices 1 2 3 4 5 6 
#
# 1 138.8256 30.8224 51.3152 0.0000 -3.2463 0.0000
# 2 30.8224 72.0628 28.0678 0.0000 9.6825 0.0000
# 3 51.3152 28.0678 147.9968 0.0000 -7.3180 0.0000
# 4 0.0000 0.0000 0.0000 31.3673 0.0000 -1.4155
# 5 -3.2463 9.6825 -7.3180 0.0000 27.9094 0.0000
# 6 0.0000 0.0000 0.0000 -1.4155 0.0000 27.5212
#
#
#
# Elastic Compliance Matrix: (Units=1/GPa)
#
#
# Indices 1 2 3 4 5 6 
#
# 1 0.008797 -0.003019 -0.002406 0.000000 0.001439 0.000000
# 2 -0.003019 0.017090 -0.002538 0.000000 -0.006945 0.000000
# 3 -0.002406 -0.002538 0.008209 0.000000 0.002753 0.000000
# 4 0.000000 0.000000 0.000000 0.031955 0.000000 0.001644
# 5 0.001439 -0.006945 0.002753 0.000000 0.039129 0.000000
# 6 0.000000 0.000000 0.000000 0.001644 0.000000 0.036420
#
#
# Mechanical properties :
#
#
# Convention : Reuss Voigt Hill
#
# Bulk Modulus (GPa) = 55.03821 64.36622 59.70221
# Shear Modulus (GPa) = 30.56595 33.93823 32.25209
#
# Velocity S-wave (km/s) = 3.62535 3.82011 3.72401
# Velocity P-wave (km/s) = 6.41797 6.86548 6.64549
#
# Compressibility (1/GPa) = 0.01816920
#
# Stress axis : x y z
#
# Youngs Moduli (GPa) = 113.67975 58.51534 121.82183
#
# Poissons Ratio (x) = 0.17663 0.29315
# Poissons Ratio (y) = 0.34315 0.30916
# Poissons Ratio (z) = 0.27356 0.14850
#
# Static dielectric constant tensor:
#      x y z
#    x 4.310840 0.000000 -0.221620 
#    y 0.000000 4.101280 0.000000 
#    z -0.221620 0.000000 4.303400 
# 
# 
# High freq. dielectric constant tensor:
#      x y z
#    x 1.930260 0.000000 -0.010290 
#    y 0.000000 1.923500 0.000000 
#    z -0.010290 0.000000 1.923930 
# 
# From -- ./inp_files/215211.got.cif
#   From: 2010.06.25/outbox.cif.g09.slc.cpg/sg15_108_cif.got.tgz:215211.got - 2010.06.28 07:06:18.
