data_PCOD8150690
_publ_section_title
;
Structure prediction by ZEFSAII (Michael W. Deem and Ramdas Pophale) SiO2 
 PCOD8150690
Probable space group: C 2/C
;
_chemical_formula_sum "Si O2"
_cell_formula_units_Z 48
_cell_length_a 13.842113
_cell_length_b 11.269054
_cell_length_c 14.250789
_cell_angle_alpha 90.000000
_cell_angle_beta 120.731944
_cell_angle_gamma 90.000000
_cell_volume 1910.771455
_symmetry_space_group_name_H-M "C 2/C"
_symmetry_group_IT_number 15
_symmetry_cell_setting 'monoclinic'
loop_
_space_group_symop_operation_xyz
x,y,z
-x,y,1/2-z
-x,-y,-z
x,-y,1/2+z
1/2+x,1/2+y,z
1/2-x,1/2+y,1/2-z
1/2-x,1/2-y,-z
1/2+x,1/2-y,1/2+z
loop_
_atom_site_type_symbol
_atom_site_label
_atom_site_fract_x
_atom_site_fract_y
_atom_site_fract_z
Si Si1 0.225342 0.487041 0.473292
Si Si2 0.107834 0.586708 0.249175
Si Si3 0.476438 0.526099 0.095654
Si Si4 0.405989 0.769814 0.021946
Si Si5 0.375103 0.914800 0.399879
Si Si6 0.650187 0.335126 0.204498
O O1 0.211669 0.530747 0.359175
O O2 0.352883 0.518140 0.564169
O O3 0.190040 0.347417 0.470951
O O4 0.151514 0.569536 0.504170
O O5 0.115528 0.542705 0.145926
O O6 0.102903 0.728043 0.243927
O O7 0.000000 0.534848 0.250000
O O8 0.469687 0.667800 0.115743
O O9 0.576246 0.452327 0.197399
O O10 0.500000 0.500000 0.000000
O O11 0.504313 0.856114 0.039638
O O12 0.353008 0.696277 0.908165
O O13 0.280245 0.843350 0.297083
#
# Coordination Sequence:
#
# PCOD8150690 Si02
#       6
#     8   8   8   8   8   8
#     4  12  25  47  76 109 145 203 244 316 370 447
#     4  12  25  46  73 106 149 190 259 301 377 448
#     4  10  25  46  72 106 150 189 251 304 378 437
#     4  11  23  50  76 107 150 197 255 312 368 450
#     4  12  27  47  75 112 149 198 251 314 376 442
#     4  11  27  45  73 109 157 196 251 312 375 452
#
# _framework density 25.120743000000001
#
# number of rings (size 3 to 8) (size 9 to 14) (size 15 to 20)
#    0.000    0.667    3.333    4.000    9.333    0.667 
#    0.000    1.667    0.000    0.000    0.000    0.000 
#    0.000    0.000    0.000    0.000    0.000    0.000 
#
# Total GULP energy -297458.133510 kJ/mol
# GULP energy per Si atom -12394.088896 kJ/mol
# Density = 2.506357 g / cm^3
# Si number density = 25.120743 Si / 1000 Ang^3
#
#
#
# Elastic Constant Matrix: (Units=GPa)
#
#
# Indices 1 2 3 4 5 6 
#
# 1 66.1215 -5.5178 0.7183 0.0000 9.8943 0.0000
# 2 -5.5178 104.9226 27.1739 0.0000 -1.0982 0.0000
# 3 0.7183 27.1739 76.2898 0.0000 14.0000 0.0000
# 4 0.0000 0.0000 0.0000 38.3591 0.0000 5.6598
# 5 9.8943 -1.0982 14.0000 0.0000 31.2065 0.0000
# 6 0.0000 0.0000 0.0000 5.6598 0.0000 33.4870
#
#
#
# Elastic Compliance Matrix: (Units=1/GPa)
#
#
# Indices 1 2 3 4 5 6 
#
# 1 0.015964 0.000629 0.000600 0.000000 -0.005309 0.000000
# 2 0.000629 0.010669 -0.004183 0.000000 0.002053 0.000000
# 3 0.000600 -0.004183 0.015969 0.000000 -0.007501 0.000000
# 4 0.000000 0.000000 0.000000 0.026736 0.000000 -0.004519
# 5 -0.005309 0.002053 -0.007501 0.000000 0.037165 0.000000
# 6 0.000000 0.000000 0.000000 -0.004519 0.000000 0.030626
#
#
# Mechanical properties :
#
#
# Convention : Reuss Voigt Hill
#
# Bulk Modulus (GPa) = 27.25312 32.45362 29.85337
# Shear Modulus (GPa) = 32.20236 35.60782 33.90509
#
# Velocity S-wave (km/s) = 3.58425 3.76901 3.67779
# Velocity P-wave (km/s) = 5.29165 5.64692 5.47217
#
# Compressibility (1/GPa) = 0.03669304
#
# Stress axis : x y z
#
# Youngs Moduli (GPa) = 62.64107 93.73253 62.62249
#
# Poissons Ratio (x) = -0.05892 -0.03757
# Poissons Ratio (y) = -0.03937 0.26193
# Poissons Ratio (z) = -0.03758 0.39205
#
# Static dielectric constant tensor:
#      x y z
#    x 4.522460 0.000000 0.140970 
#    y 0.000000 4.870900 0.000000 
#    z 0.140970 0.000000 4.523850 
# 
# 
# High freq. dielectric constant tensor:
#      x y z
#    x 2.014680 0.000000 0.008390 
#    y 0.000000 2.006090 0.000000 
#    z 0.008390 0.000000 1.993770 
# 
# From -- ./inp_files/152751.got.cif
#   From: 2010.06.25/outbox.cif.g09.slc.cpg/sg15_77_cif.got.tgz:152751.got - 2010.06.28 07:06:18.
