data_PCOD8150064
_publ_section_title
;
Structure prediction by ZEFSAII (Michael W. Deem and Ramdas Pophale) SiO2 
 PCOD8150064
Probable space group: C 2/C
;
_chemical_formula_sum "Si O2"
_cell_formula_units_Z 48
_cell_length_a 12.530561
_cell_length_b 7.662949
_cell_length_c 24.720701
_cell_angle_alpha 90.000000
_cell_angle_beta 109.622107
_cell_angle_gamma 90.000000
_cell_volume 2235.861599
_symmetry_space_group_name_H-M "C 2/C"
_symmetry_group_IT_number 15
_symmetry_cell_setting 'monoclinic'
loop_
_space_group_symop_operation_xyz
x,y,z
-x,y,1/2-z
-x,-y,-z
x,-y,1/2+z
1/2+x,1/2+y,z
1/2-x,1/2+y,1/2-z
1/2-x,1/2-y,-z
1/2+x,1/2-y,1/2+z
loop_
_atom_site_type_symbol
_atom_site_label
_atom_site_fract_x
_atom_site_fract_y
_atom_site_fract_z
Si Si1 0.145830 0.880744 0.974991
Si Si2 0.111940 0.155338 0.060468
Si Si3 0.325504 0.971758 0.298038
Si Si4 0.207510 0.085158 0.884536
Si Si5 0.497125 0.747012 0.810962
Si Si6 0.646207 0.574252 0.185525
O O1 0.021920 0.796325 0.963877
O O2 0.151512 0.943402 0.914018
O O3 0.250000 0.750000 0.000000
O O4 0.154569 0.043564 0.016983
O O5 0.177983 0.338853 0.069400
O O6 0.145533 0.050024 0.120601
O O7 0.422837 0.110088 0.329590
O O8 0.267738 0.018680 0.230867
O O9 0.233333 0.995578 0.330054
O O10 0.377547 0.777267 0.304515
O O11 0.120182 0.244971 0.859655
O O12 0.500000 0.809564 0.750000
O O13 0.448542 0.550221 0.805229
#
# Coordination Sequence:
#
# PCOD8150064 Si02
#       6
#     8   8   8   8   8   8
#     4  11  25  41  68  97 122 175 222 271 337 389
#     4  10  24  44  63  93 135 165 219 281 317 390
#     4  11  24  40  70 101 134 178 215 272 327 396
#     4  11  24  44  66  94 134 174 219 272 328 394
#     4  12  23  43  67  99 137 175 217 268 334 396
#     4  11  21  41  66  97 135 172 217 267 327 391
#
# _framework density 21.468236000000001
#
# number of rings (size 3 to 8) (size 9 to 14) (size 15 to 20)
#    0.000    1.000    5.000    1.500    2.333    4.000 
#    0.000    0.000    0.000    0.000    0.000    0.000 
#    0.000    0.000    0.000    0.000    0.000    0.000 
#
# Total GULP energy -297594.470710 kJ/mol
# GULP energy per Si atom -12399.769613 kJ/mol
# Density = 2.141937 g / cm^3
# Si number density = 21.468236 Si / 1000 Ang^3
#
#
#
# Elastic Constant Matrix: (Units=GPa)
#
#
# Indices 1 2 3 4 5 6 
#
# 1 116.1983 47.0398 23.5865 0.0000 11.0032 0.0000
# 2 47.0398 99.2953 20.9956 0.0000 3.6241 0.0000
# 3 23.5865 20.9956 78.4959 0.0000 6.4646 0.0000
# 4 0.0000 0.0000 0.0000 27.2046 0.0000 14.5294
# 5 11.0032 3.6241 6.4646 0.0000 34.4696 0.0000
# 6 0.0000 0.0000 0.0000 14.5294 0.0000 37.0769
#
#
#
# Elastic Compliance Matrix: (Units=1/GPa)
#
#
# Indices 1 2 3 4 5 6 
#
# 1 0.011186 -0.004808 -0.001851 0.000000 -0.002718 0.000000
# 2 -0.004808 0.012754 -0.002014 0.000000 0.000572 0.000000
# 3 -0.001851 -0.002014 0.013984 0.000000 -0.001820 0.000000
# 4 0.000000 0.000000 0.000000 0.046488 0.000000 -0.018217
# 5 -0.002718 0.000572 -0.001820 0.000000 0.030160 0.000000
# 6 0.000000 0.000000 0.000000 -0.018217 0.000000 0.034110
#
#
# Mechanical properties :
#
#
# Convention : Reuss Voigt Hill
#
# Bulk Modulus (GPa) = 48.59683 53.02592 50.81137
# Shear Modulus (GPa) = 28.92070 33.24140 31.08105
#
# Velocity S-wave (km/s) = 3.67432 3.93924 3.80908
# Velocity P-wave (km/s) = 6.37861 6.74118 6.56240
#
# Compressibility (1/GPa) = 0.02057747
#
# Stress axis : x y z
#
# Youngs Moduli (GPa) = 89.40019 78.40800 71.50928
#
# Poissons Ratio (x) = 0.37702 0.13237
# Poissons Ratio (y) = 0.42988 0.14399
# Poissons Ratio (z) = 0.16549 0.15788
#
# Static dielectric constant tensor:
#      x y z
#    x 4.005560 0.000000 0.057540 
#    y 0.000000 3.637330 0.000000 
#    z 0.057540 0.000000 4.040880 
# 
# 
# High freq. dielectric constant tensor:
#      x y z
#    x 1.851370 0.000000 0.004090 
#    y 0.000000 1.822830 0.000000 
#    z 0.004090 0.000000 1.851680 
# 
# From -- ./inp_files/268073.got.cif
#   From: 2010.06.25/outbox.cif.g09.slc.cpg/sg15_135_cif.got.tgz:268073.got - 2010.06.28 07:06:18.
