data_PCOD8150589
_publ_section_title
;
Structure prediction by ZEFSAII (Michael W. Deem and Ramdas Pophale) SiO2 
 PCOD8150589
Probable space group: C 2/C
;
_chemical_formula_sum "Si O2"
_cell_formula_units_Z 44
_cell_length_a 12.231346
_cell_length_b 30.608309
_cell_length_c 5.121284
_cell_angle_alpha 90.000000
_cell_angle_beta 88.037758
_cell_angle_gamma 90.000000
_cell_volume 1916.186198
_symmetry_space_group_name_H-M "C 2/C"
_symmetry_group_IT_number 15
_symmetry_cell_setting 'monoclinic'
loop_
_space_group_symop_operation_xyz
x,y,z
-x,y,1/2-z
-x,-y,-z
x,-y,1/2+z
1/2+x,1/2+y,z
1/2-x,1/2+y,1/2-z
1/2-x,1/2-y,-z
1/2+x,1/2-y,1/2+z
loop_
_atom_site_type_symbol
_atom_site_label
_atom_site_fract_x
_atom_site_fract_y
_atom_site_fract_z
Si Si1 0.881777 0.576073 0.308547
Si Si2 0.000000 0.237103 0.750000
Si Si3 0.345068 0.130579 0.797362
Si Si4 0.339660 0.528277 0.107885
Si Si5 0.391124 0.346849 0.134719
Si Si6 0.500000 0.597545 0.250000
Si Si7 0.500000 0.206933 0.750000
O O1 0.906477 0.609422 0.545425
O O2 0.787393 0.543031 0.405897
O O3 0.000000 0.552624 0.250000
O O4 0.844062 0.600717 0.052167
O O5 0.098977 0.206063 0.848863
O O6 0.038503 0.265104 0.497768
O O7 0.220173 0.138554 0.719762
O O8 0.399277 0.177228 0.854746
O O9 0.360122 0.508340 0.391140
O O10 0.428560 0.566742 0.060730
O O11 0.500000 0.368776 0.250000
O O12 0.402343 0.369561 0.851989
#
# Coordination Sequence:
#
# PCOD8150589 Si02
#       7
#     8   4   8   8   8   4   4
#     4  12  24  46  71 102 134 179 236 281 333 422
#     4  10  26  42  65 106 144 172 232 282 351 392
#     4  12  24  43  75  99 134 184 234 279 339 405
#     4  12  28  44  70 106 138 176 224 289 353 395
#     4  10  25  43  69 101 135 190 228 272 342 406
#     4  12  23  46  73  94 146 180 236 272 333 430
#     4  12  23  44  68 104 140 176 230 294 336 396
#
# _framework density 22.962277
#
# number of rings (size 3 to 8) (size 9 to 14) (size 15 to 20)
#    0.545    0.000    3.636    4.364    2.545    2.182 
#    0.000    0.000    0.000    0.000    0.000    0.000 
#    0.000    0.000    0.000    0.000    0.000    0.000 
#
# Total GULP energy -272602.460091 kJ/mol
# GULP energy per Si atom -12391.020913 kJ/mol
# Density = 2.291001 g / cm^3
# Si number density = 22.962277 Si / 1000 Ang^3
#
#
#
# Elastic Constant Matrix: (Units=GPa)
#
#
# Indices 1 2 3 4 5 6 
#
# 1 90.4842 29.6856 21.6455 0.0000 -15.3090 0.0000
# 2 29.6856 78.3842 22.8473 0.0000 6.3613 0.0000
# 3 21.6455 22.8473 87.4368 0.0000 5.3515 0.0000
# 4 0.0000 0.0000 0.0000 31.6644 0.0000 11.4198
# 5 -15.3090 6.3613 5.3515 0.0000 31.5211 0.0000
# 6 0.0000 0.0000 0.0000 11.4198 0.0000 27.3873
#
#
#
# Elastic Compliance Matrix: (Units=1/GPa)
#
#
# Indices 1 2 3 4 5 6 
#
# 1 0.015078 -0.005616 -0.002812 0.000000 0.008934 0.000000
# 2 -0.005616 0.016053 -0.002465 0.000000 -0.005549 0.000000
# 3 -0.002812 -0.002465 0.012965 0.000000 -0.003069 0.000000
# 4 0.000000 0.000000 0.000000 0.037171 0.000000 -0.015499
# 5 0.008934 -0.005549 -0.003069 0.000000 0.037705 0.000000
# 6 0.000000 0.000000 0.000000 -0.015499 0.000000 0.042976
#
#
# Mechanical properties :
#
#
# Convention : Reuss Voigt Hill
#
# Bulk Modulus (GPa) = 44.82121 44.96245 44.89183
# Shear Modulus (GPa) = 26.15459 30.25633 28.20546
#
# Velocity S-wave (km/s) = 3.37860 3.63389 3.50857
# Velocity P-wave (km/s) = 5.89761 6.10167 6.00051
#
# Compressibility (1/GPa) = 0.02231086
#
# Stress axis : x y z
#
# Youngs Moduli (GPa) = 66.32056 62.29265 77.13113
#
# Poissons Ratio (x) = 0.34982 0.21690
# Poissons Ratio (y) = 0.37244 0.19012
# Poissons Ratio (z) = 0.18650 0.15355
#
# Static dielectric constant tensor:
#      x y z
#    x 4.199940 0.000000 -0.108550 
#    y 0.000000 3.998340 0.000000 
#    z -0.108550 0.000000 4.110910 
# 
# 
# High freq. dielectric constant tensor:
#      x y z
#    x 1.915830 0.000000 -0.002440 
#    y 0.000000 1.901630 0.000000 
#    z -0.002440 0.000000 1.905750 
# 
# From -- ./inp_files/5827.got.cif
#   From: 2010.06.25/outbox.cif.g09.slc.cpg/sg15_3_cif.got.tgz:5827.got - 2010.06.28 07:06:18.
