data_PCOD8150586
_publ_section_title
;
Structure prediction by ZEFSAII (Michael W. Deem and Ramdas Pophale) SiO2 
 PCOD8150586
Probable space group: C 2/C
;
_chemical_formula_sum "Si O2"
_cell_formula_units_Z 44
_cell_length_a 14.074434
_cell_length_b 11.597154
_cell_length_c 12.203230
_cell_angle_alpha 90.000000
_cell_angle_beta 98.642146
_cell_angle_gamma 90.000000
_cell_volume 1969.237171
_symmetry_space_group_name_H-M "C 2/C"
_symmetry_group_IT_number 15
_symmetry_cell_setting 'monoclinic'
loop_
_space_group_symop_operation_xyz
x,y,z
-x,y,1/2-z
-x,-y,-z
x,-y,1/2+z
1/2+x,1/2+y,z
1/2-x,1/2+y,1/2-z
1/2-x,1/2-y,-z
1/2+x,1/2-y,1/2+z
loop_
_atom_site_type_symbol
_atom_site_label
_atom_site_fract_x
_atom_site_fract_y
_atom_site_fract_z
Si Si1 0.347060 0.080932 0.697524
Si Si2 0.468850 0.711243 0.127037
Si Si3 0.785596 0.879858 0.508482
Si Si4 0.597275 0.758375 0.949359
Si Si5 0.000000 0.610668 0.250000
Si Si6 0.258978 0.101861 0.903440
O O1 0.419287 0.164705 0.643651
O O2 0.250123 0.057978 0.609515
O O3 0.308314 0.143512 0.799717
O O4 0.403582 0.965489 0.741760
O O5 0.500000 0.657366 0.250000
O O6 0.399511 0.624449 0.048426
O O7 0.558631 0.724772 0.062379
O O8 0.750000 0.750000 0.500000
O O9 0.744244 0.961759 0.597897
O O10 0.511032 0.807938 0.858899
O O11 0.650894 0.652167 0.898574
O O12 0.676528 0.857722 0.982522
#
# Coordination Sequence:
#
# PCOD8150586 Si02
#       6
#     8   8   8   8   4   8
#     4  11  23  41  70 102 137 180 241 293 343 417
#     4  11  23  45  68 102 141 185 234 286 355 423
#     4  10  25  43  68 101 140 186 236 289 354 412
#     4  11  26  42  71 102 143 179 233 295 354 414
#     4  12  24  40  74 100 138 184 240 290 348 422
#     4  11  24  46  65 102 145 179 234 295 352 413
#
# _framework density 22.343675999999999
#
# number of rings (size 3 to 8) (size 9 to 14) (size 15 to 20)
#    0.000    1.091    4.545    0.000    7.636    5.091 
#    1.636    0.000    0.000    0.000    0.000    0.000 
#    0.000    0.000    0.000    0.000    0.000    0.000 
#
# Total GULP energy -272604.837332 kJ/mol
# GULP energy per Si atom -12391.128970 kJ/mol
# Density = 2.229282 g / cm^3
# Si number density = 22.343676 Si / 1000 Ang^3
#
#
#
# Elastic Constant Matrix: (Units=GPa)
#
#
# Indices 1 2 3 4 5 6 
#
# 1 108.0775 39.6705 71.9221 0.0000 6.0322 0.0000
# 2 39.6705 83.0213 34.1423 0.0000 3.0515 0.0000
# 3 71.9221 34.1423 143.0624 0.0000 14.6719 0.0000
# 4 0.0000 0.0000 0.0000 23.3432 0.0000 4.3481
# 5 6.0322 3.0515 14.6719 0.0000 62.5687 0.0000
# 6 0.0000 0.0000 0.0000 4.3481 0.0000 35.6459
#
#
#
# Elastic Compliance Matrix: (Units=1/GPa)
#
#
# Indices 1 2 3 4 5 6 
#
# 1 0.015354 -0.004613 -0.006649 0.000000 0.000304 0.000000
# 2 -0.004613 0.014743 -0.001200 0.000000 0.000007 0.000000
# 3 -0.006649 -0.001200 0.010807 0.000000 -0.001835 0.000000
# 4 0.000000 0.000000 0.000000 0.043835 0.000000 -0.005347
# 5 0.000304 0.000007 -0.001835 0.000000 0.016383 0.000000
# 6 0.000000 0.000000 0.000000 -0.005347 0.000000 0.028706
#
#
# Mechanical properties :
#
#
# Convention : Reuss Voigt Hill
#
# Bulk Modulus (GPa) = 62.58145 69.51457 66.04801
# Shear Modulus (GPa) = 31.23476 36.87331 34.05404
#
# Velocity S-wave (km/s) = 3.74294 4.06677 3.90821
# Velocity P-wave (km/s) = 6.83731 7.29593 7.07034
#
# Compressibility (1/GPa) = 0.01597918
#
# Stress axis : x y z
#
# Youngs Moduli (GPa) = 65.13091 67.83030 92.53153
#
# Poissons Ratio (x) = 0.31292 0.61524
# Poissons Ratio (y) = 0.30047 0.11102
# Poissons Ratio (z) = 0.43305 0.08139
#
# Static dielectric constant tensor:
#      x y z
#    x 4.085370 0.000000 0.548690 
#    y 0.000000 3.858640 0.000000 
#    z 0.548690 0.000000 4.317820 
# 
# 
# High freq. dielectric constant tensor:
#      x y z
#    x 1.873560 0.000000 0.020790 
#    y 0.000000 1.861070 0.000000 
#    z 0.020790 0.000000 1.886810 
# 
# From -- ./inp_files/95017.got.cif
#   From: 2010.06.25/outbox.cif.g09.slc.cpg/sg15_48_cif.got.tgz:95017.got - 2010.06.28 07:06:18.
