data_PCOD8150029
_publ_section_title
;
Structure prediction by ZEFSAII (Michael W. Deem and Ramdas Pophale) SiO2 
 PCOD8150029
Probable space group: C 2/C
;
_chemical_formula_sum "Si O2"
_cell_formula_units_Z 40
_cell_length_a 16.775091
_cell_length_b 12.337305
_cell_length_c 9.104375
_cell_angle_alpha 90.000000
_cell_angle_beta 106.915637
_cell_angle_gamma 90.000000
_cell_volume 1802.713153
_symmetry_space_group_name_H-M "C 2/C"
_symmetry_group_IT_number 15
_symmetry_cell_setting 'monoclinic'
loop_
_space_group_symop_operation_xyz
x,y,z
-x,y,1/2-z
-x,-y,-z
x,-y,1/2+z
1/2+x,1/2+y,z
1/2-x,1/2+y,1/2-z
1/2-x,1/2-y,-z
1/2+x,1/2-y,1/2+z
loop_
_atom_site_type_symbol
_atom_site_label
_atom_site_fract_x
_atom_site_fract_y
_atom_site_fract_z
Si Si1 0.942188 0.040251 0.598210
Si Si2 0.157890 0.613518 0.934383
Si Si3 0.589013 0.049418 0.595744
Si Si4 0.827225 0.229708 0.432614
Si Si5 0.333668 0.341704 0.610420
O O1 0.874267 0.125595 0.516074
O O2 0.000000 0.097318 0.750000
O O3 0.899427 0.937484 0.655042
O O4 0.000000 0.000000 0.500000
O O5 0.104091 0.555277 0.778090
O O6 0.121444 0.735392 0.936896
O O7 0.153769 0.540652 0.076616
O O8 0.257520 0.624587 0.961439
O O9 0.610934 0.166125 0.535834
O O10 0.500000 0.000000 0.500000
O O11 0.750000 0.250000 0.500000
O O12 0.799530 0.198774 0.252032
#
# Coordination Sequence:
#
# PCOD8150029 Si02
#       5
#     8   8   8   8   8
#     4  12  26  44  74 105 145 189 241 302 368 433
#     4  10  24  43  71  98 141 185 235 290 366 429
#     4  11  25  43  70 104 143 182 233 303 359 429
#     4  11  26  48  73 105 144 191 248 297 362 444
#     4  10  24  46  71 101 141 195 242 297 360 442
#
# _framework density 22.188777000000002
#
# number of rings (size 3 to 8) (size 9 to 14) (size 15 to 20)
#    0.000    1.200    2.000    1.800    8.400    6.400 
#    0.000    0.000    0.000    0.000    0.000    0.000 
#    0.000    0.000    0.000    0.000    0.000    0.000 
#
# Total GULP energy -247817.609777 kJ/mol
# GULP energy per Si atom -12390.880489 kJ/mol
# Density = 2.213827 g / cm^3
# Si number density = 22.188777 Si / 1000 Ang^3
#
#
#
# Elastic Constant Matrix: (Units=GPa)
#
#
# Indices 1 2 3 4 5 6 
#
# 1 109.9572 57.4837 52.3356 0.0000 1.1890 0.0000
# 2 57.4837 148.8736 38.4463 0.0000 0.0541 0.0000
# 3 52.3356 38.4463 90.0940 0.0000 19.3175 0.0000
# 4 0.0000 0.0000 0.0000 40.8685 0.0000 5.4867
# 5 1.1890 0.0541 19.3175 0.0000 41.2435 0.0000
# 6 0.0000 0.0000 0.0000 5.4867 0.0000 45.0448
#
#
#
# Elastic Compliance Matrix: (Units=1/GPa)
#
#
# Indices 1 2 3 4 5 6 
#
# 1 0.014590 -0.003678 -0.007578 0.000000 0.003133 0.000000
# 2 -0.003678 0.008581 -0.001718 0.000000 0.000899 0.000000
# 3 -0.007578 -0.001718 0.017994 0.000000 -0.008207 0.000000
# 4 0.000000 0.000000 0.000000 0.024876 0.000000 -0.003030
# 5 0.003133 0.000899 -0.008207 0.000000 0.027999 0.000000
# 6 0.000000 0.000000 0.000000 -0.003030 0.000000 0.022569
#
#
# Mechanical properties :
#
#
# Convention : Reuss Voigt Hill
#
# Bulk Modulus (GPa) = 65.71268 71.71731 68.71500
# Shear Modulus (GPa) = 33.86887 38.80863 36.33875
#
# Velocity S-wave (km/s) = 3.91115 4.18667 4.05125
# Velocity P-wave (km/s) = 7.07642 7.46743 7.27455
#
# Compressibility (1/GPa) = 0.01521776
#
# Stress axis : x y z
#
# Youngs Moduli (GPa) = 68.54041 116.54287 55.57290
#
# Poissons Ratio (x) = 0.42861 0.42112
# Poissons Ratio (y) = 0.25207 0.09548
# Poissons Ratio (z) = 0.51938 0.20023
#
# Static dielectric constant tensor:
#      x y z
#    x 4.012730 0.000000 0.083140 
#    y 0.000000 4.434660 0.000000 
#    z 0.083140 0.000000 3.822400 
# 
# 
# High freq. dielectric constant tensor:
#      x y z
#    x 1.863610 0.000000 0.012130 
#    y 0.000000 1.896010 0.000000 
#    z 0.012130 0.000000 1.878760 
# 
# From -- ./inp_files/46238.got.cif
#   From: 2010.06.25/outbox.cif.g09.slc.cpg/sg15_24_cif.got.tgz:46238.got - 2010.06.28 07:06:18.
