data_PCOD8150477
_publ_section_title
;
Structure prediction by ZEFSAII (Michael W. Deem and Ramdas Pophale) SiO2 
 PCOD8150477
Probable space group: C 2/C
;
_chemical_formula_sum "Si O2"
_cell_formula_units_Z 56
_cell_length_a 11.346858
_cell_length_b 8.497885
_cell_length_c 24.911256
_cell_angle_alpha 90.000000
_cell_angle_beta 110.081513
_cell_angle_gamma 90.000000
_cell_volume 2256.017847
_symmetry_space_group_name_H-M "C 2/C"
_symmetry_group_IT_number 15
_symmetry_cell_setting 'monoclinic'
loop_
_space_group_symop_operation_xyz
x,y,z
-x,y,1/2-z
-x,-y,-z
x,-y,1/2+z
1/2+x,1/2+y,z
1/2-x,1/2+y,1/2-z
1/2-x,1/2-y,-z
1/2+x,1/2-y,1/2+z
loop_
_atom_site_type_symbol
_atom_site_label
_atom_site_fract_x
_atom_site_fract_y
_atom_site_fract_z
Si Si1 0.293010 0.905628 0.591209
Si Si2 0.545474 0.864582 0.315764
Si Si3 0.870504 0.090012 0.016782
Si Si4 0.577941 0.491245 0.813814
Si Si5 0.496922 0.654933 0.901755
Si Si6 0.657733 0.142641 0.623875
Si Si7 0.660933 0.143664 0.059762
O O1 0.389757 0.780865 0.580600
O O2 0.176182 0.814263 0.600540
O O3 0.357298 0.007260 0.647768
O O4 0.241948 0.018477 0.536639
O O5 0.500000 0.922150 0.250000
O O6 0.608113 0.693603 0.320685
O O7 0.431177 0.849032 0.339277
O O8 0.910779 0.262995 0.000483
O O9 0.807486 0.120567 0.066489
O O10 0.982634 0.966328 0.044303
O O11 0.500000 0.539092 0.750000
O O12 0.487675 0.554483 0.846822
O O13 0.709919 0.578474 0.834342
O O14 0.363717 0.739780 0.892741
O O15 0.604401 0.025071 0.568602
#
# Coordination Sequence:
#
# PCOD8150477 Si02
#       7
#     8   8   8   8   8   8   8
#     4  11  24  41  68  99 135 177 230 279 332 412
#     4  11  26  47  70 102 134 177 232 280 343 413
#     4  11  24  41  64 100 135 180 228 274 336 407
#     4  10  24  48  69 100 135 174 232 285 337 414
#     4  11  23  43  64  98 134 178 222 280 340 400
#     4  11  24  47  68 102 139 176 225 284 342 399
#     4  11  23  41  65  93 135 180 217 277 338 396
#
# _framework density 24.822496999999998
#
# number of rings (size 3 to 8) (size 9 to 14) (size 15 to 20)
#    0.000    1.143    4.286    1.714    4.000    6.286 
#    5.143    0.000    0.000    0.000    0.000    0.000 
#    0.000    0.000    0.000    0.000    0.000    0.000 
#
# Total GULP energy -347066.465528 kJ/mol
# GULP energy per Si atom -12395.230912 kJ/mol
# Density = 2.476600 g / cm^3
# Si number density = 24.822497 Si / 1000 Ang^3
#
#
#
# Elastic Constant Matrix: (Units=GPa)
#
#
# Indices 1 2 3 4 5 6 
#
# 1 69.3491 32.3824 24.7817 0.0000 -19.5834 0.0000
# 2 32.3824 118.9059 58.8123 0.0000 8.7537 0.0000
# 3 24.7817 58.8123 116.1195 0.0000 -7.9726 0.0000
# 4 0.0000 0.0000 0.0000 34.4860 0.0000 5.3226
# 5 -19.5834 8.7537 -7.9726 0.0000 31.7472 0.0000
# 6 0.0000 0.0000 0.0000 5.3226 0.0000 47.6138
#
#
#
# Elastic Compliance Matrix: (Units=1/GPa)
#
#
# Indices 1 2 3 4 5 6 
#
# 1 0.022215 -0.007194 -0.000021 0.000000 0.015682 0.000000
# 2 -0.007194 0.014252 -0.006368 0.000000 -0.009967 0.000000
# 3 -0.000021 -0.006368 0.012171 0.000000 0.004799 0.000000
# 4 0.000000 0.000000 0.000000 0.029506 0.000000 -0.003298
# 5 0.015682 -0.009967 0.004799 0.000000 0.045126 0.000000
# 6 0.000000 0.000000 0.000000 -0.003298 0.000000 0.021371
#
#
# Mechanical properties :
#
#
# Convention : Reuss Voigt Hill
#
# Bulk Modulus (GPa) = 46.56917 59.59191 53.08054
# Shear Modulus (GPa) = 27.93863 35.32927 31.63395
#
# Velocity S-wave (km/s) = 3.35854 3.77673 3.57376
# Velocity P-wave (km/s) = 5.81733 6.56335 6.20157
#
# Compressibility (1/GPa) = 0.02147343
#
# Stress axis : x y z
#
# Youngs Moduli (GPa) = 45.01493 70.16333 82.16402
#
# Poissons Ratio (x) = 0.50477 0.00169
# Poissons Ratio (y) = 0.32385 0.52318
# Poissons Ratio (z) = 0.00093 0.44677
#
# Static dielectric constant tensor:
#      x y z
#    x 4.411960 0.000000 -0.381000 
#    y 0.000000 4.881300 0.000000 
#    z -0.381000 0.000000 4.414050 
# 
# 
# High freq. dielectric constant tensor:
#      x y z
#    x 1.993320 0.000000 -0.022900 
#    y 0.000000 2.014260 0.000000 
#    z -0.022900 0.000000 1.974890 
# 
# From -- ./inp_files/291605.got.cif
#   From: 2010.06.25/outbox.cif.g09.slc.cpg/sg15_146_cif.got.tgz:291605.got - 2010.06.28 07:06:18.
