data_PCOD8150172
_publ_section_title
;
Structure prediction by ZEFSAII (Michael W. Deem and Ramdas Pophale) SiO2 
 PCOD8150172
Probable space group: C 2/C
;
_chemical_formula_sum "Si O2"
_cell_formula_units_Z 64
_cell_length_a 16.154889
_cell_length_b 14.166305
_cell_length_c 13.683174
_cell_angle_alpha 90.000000
_cell_angle_beta 59.942200
_cell_angle_gamma 90.000000
_cell_volume 2710.346438
_symmetry_space_group_name_H-M "C 2/C"
_symmetry_group_IT_number 15
_symmetry_cell_setting 'monoclinic'
loop_
_space_group_symop_operation_xyz
x,y,z
-x,y,1/2-z
-x,-y,-z
x,-y,1/2+z
1/2+x,1/2+y,z
1/2-x,1/2+y,1/2-z
1/2-x,1/2-y,-z
1/2+x,1/2-y,1/2+z
loop_
_atom_site_type_symbol
_atom_site_label
_atom_site_fract_x
_atom_site_fract_y
_atom_site_fract_z
Si Si1 0.706027 0.892338 0.274676
Si Si2 0.898887 0.116570 0.571405
Si Si3 0.107359 0.229116 0.646471
Si Si4 0.901837 0.438400 0.348699
Si Si5 0.618026 0.832768 0.950574
Si Si6 0.890431 0.074686 0.991960
Si Si7 0.079591 0.608537 0.023642
Si Si8 0.761229 0.808663 0.705730
O O1 0.821561 0.897176 0.204860
O O2 0.671399 0.946112 0.197751
O O3 0.656253 0.935047 0.401043
O O4 0.676812 0.780449 0.291460
O O5 0.892754 0.220480 0.530730
O O6 0.999557 0.102541 0.562271
O O7 0.880984 0.038950 0.496045
O O8 0.140672 0.123680 0.592033
O O9 0.112750 0.289132 0.542324
O O10 0.180816 0.269176 0.680030
O O11 0.000000 0.233270 0.750000
O O12 0.857290 0.370454 0.456669
O O13 0.923448 0.541710 0.379810
O O14 0.000000 0.394263 0.250000
O O15 0.522826 0.885153 0.968450
O O16 0.705547 0.859074 0.827505
O O17 0.828648 0.112644 0.119504
#
# Coordination Sequence:
#
# PCOD8150172 Si02
#       8
#     8   8   8   8   8   8   8   8
#     4  11  25  46  67 104 144 183 233 289 356 429
#     4  10  24  44  70  94 141 189 238 290 337 421
#     4  12  22  41  74 111 144 178 240 303 366 423
#     4  12  28  41  73 106 144 179 232 285 373 443
#     4  11  23  48  71 103 142 187 228 297 369 427
#     4  11  23  43  68 101 137 191 242 288 346 416
#     4  12  24  43  73 108 143 179 226 303 368 420
#     4  11  24  41  76 102 142 192 234 296 360 418
#
# _framework density 23.613216000000001
#
# number of rings (size 3 to 8) (size 9 to 14) (size 15 to 20)
#    0.000    0.750    5.000    1.875    3.500    2.000 
#    0.000    0.625    5.500    0.000    0.000    0.000 
#    0.000    0.000    0.000    0.000    0.000    0.000 
#
# Total GULP energy -396827.147040 kJ/mol
# GULP energy per Si atom -12400.848345 kJ/mol
# Density = 2.355947 g / cm^3
# Si number density = 23.613216 Si / 1000 Ang^3
#
#
#
# Elastic Constant Matrix: (Units=GPa)
#
#
# Indices 1 2 3 4 5 6 
#
# 1 64.5407 18.5236 51.3548 0.0000 -12.4325 0.0000
# 2 18.5236 90.2410 39.0585 0.0000 0.0009 0.0000
# 3 51.3548 39.0585 160.5716 0.0000 -6.0214 0.0000
# 4 0.0000 0.0000 0.0000 36.8781 0.0000 5.6015
# 5 -12.4325 0.0009 -6.0214 0.0000 42.4435 0.0000
# 6 0.0000 0.0000 0.0000 5.6015 0.0000 26.5214
#
#
#
# Elastic Compliance Matrix: (Units=1/GPa)
#
#
# Indices 1 2 3 4 5 6 
#
# 1 0.022225 -0.001762 -0.006470 0.000000 0.005592 0.000000
# 2 -0.001762 0.012533 -0.002518 0.000000 -0.000874 0.000000
# 3 -0.006470 -0.002518 0.008886 0.000000 -0.000634 0.000000
# 4 0.000000 0.000000 0.000000 0.028015 0.000000 -0.005917
# 5 0.005592 -0.000874 -0.000634 0.000000 0.025109 0.000000
# 6 0.000000 0.000000 0.000000 -0.005917 0.000000 0.038955
#
#
# Mechanical properties :
#
#
# Convention : Reuss Voigt Hill
#
# Bulk Modulus (GPa) = 45.15801 59.24746 52.20273
# Shear Modulus (GPa) = 30.37608 34.92969 32.65289
#
# Velocity S-wave (km/s) = 3.59054 3.85027 3.72267
# Velocity P-wave (km/s) = 6.02950 6.70159 6.37441
#
# Compressibility (1/GPa) = 0.02214447
#
# Stress axis : x y z
#
# Youngs Moduli (GPa) = 44.99430 79.79002 112.54124
#
# Poissons Ratio (x) = 0.14058 0.72812
# Poissons Ratio (y) = 0.07927 0.28336
# Poissons Ratio (z) = 0.29111 0.20090
#
# Static dielectric constant tensor:
#      x y z
#    x 4.125350 0.000000 -0.206620 
#    y 0.000000 4.492290 0.000000 
#    z -0.206620 0.000000 4.508170 
# 
# 
# High freq. dielectric constant tensor:
#      x y z
#    x 1.915940 0.000000 -0.020090 
#    y 0.000000 1.940290 0.000000 
#    z -0.020090 0.000000 1.949930 
# 
# From -- ./inp_files/162256.got.cif
#   From: 2010.06.25/outbox.cif.g09.slc.cpg/sg15_82_cif.got.tgz:162256.got - 2010.06.28 07:06:18.
