data_PCOD8150227
_publ_section_title
;
Structure prediction by ZEFSAII (Michael W. Deem and Ramdas Pophale) SiO2 
 PCOD8150227
Probable space group: C 2/C
;
_chemical_formula_sum "Si O2"
_cell_formula_units_Z 52
_cell_length_a 14.858943
_cell_length_b 28.145238
_cell_length_c 9.265147
_cell_angle_alpha 90.000000
_cell_angle_beta 140.897809
_cell_angle_gamma 90.000000
_cell_volume 2443.834339
_symmetry_space_group_name_H-M "C 2/C"
_symmetry_group_IT_number 15
_symmetry_cell_setting 'monoclinic'
loop_
_space_group_symop_operation_xyz
x,y,z
-x,y,1/2-z
-x,-y,-z
x,-y,1/2+z
1/2+x,1/2+y,z
1/2-x,1/2+y,1/2-z
1/2-x,1/2-y,-z
1/2+x,1/2-y,1/2+z
loop_
_atom_site_type_symbol
_atom_site_label
_atom_site_fract_x
_atom_site_fract_y
_atom_site_fract_z
Si Si1 0.205322 0.104865 0.053054
Si Si2 0.006676 0.645570 0.419745
Si Si3 0.606813 0.496546 0.508364
Si Si4 0.794396 0.090507 0.778350
Si Si5 0.000000 0.140569 0.250000
Si Si6 0.931861 0.267405 0.009613
Si Si7 0.875361 0.190824 0.346992
O O1 0.374408 0.110287 0.273910
O O2 0.174875 0.055429 0.092916
O O3 0.127068 0.149890 0.032554
O O4 0.154833 0.098231 0.824455
O O5 0.147223 0.616113 0.624973
O O6 0.000000 0.667594 0.250000
O O7 0.003807 0.686000 0.534841
O O8 0.500000 0.500000 0.500000
O O9 0.728152 0.536081 0.696144
O O10 0.500000 0.510455 0.250000
O O11 0.921869 0.110723 0.031414
O O12 0.878544 0.169853 0.187546
O O13 0.000000 0.258242 0.250000
O O14 0.978355 0.222875 0.963495
O O15 0.760864 0.273995 0.804058
#
# Coordination Sequence:
#
# PCOD8150227 Si02
#       7
#     8   8   8   8   4   8   8
#     4  10  24  45  64  93 131 168 214 264 318 379
#     4   9  22  45  66  92 128 172 211 261 318 383
#     4  12  23  40  64  96 127 165 209 263 318 380
#     4  11  23  42  69  94 130 166 212 264 319 383
#     4  12  24  38  66 100 128 166 216 258 328 374
#     4  11  22  43  63  95 133 166 215 268 323 375
#     4  11  25  40  64  95 130 170 216 264 319 384
#
# _framework density 21.278039
#
# number of rings (size 3 to 8) (size 9 to 14) (size 15 to 20)
#    0.000    1.231    3.077    2.308    2.154    0.615 
#    2.769    2.308    0.000    0.000    0.000    0.000 
#    0.000    0.000    0.000    0.000    0.000    0.000 
#
# Total GULP energy -322140.254478 kJ/mol
# GULP energy per Si atom -12390.009788 kJ/mol
# Density = 2.122961 g / cm^3
# Si number density = 21.278039 Si / 1000 Ang^3
#
#
#
# Elastic Constant Matrix: (Units=GPa)
#
#
# Indices 1 2 3 4 5 6 
#
# 1 136.3990 66.3348 44.3104 0.0000 -2.5597 0.0000
# 2 66.3348 134.7577 51.8022 0.0000 -3.4753 0.0000
# 3 44.3104 51.8022 91.3688 0.0000 -7.5832 0.0000
# 4 0.0000 0.0000 0.0000 23.7221 0.0000 1.3281
# 5 -2.5597 -3.4753 -7.5832 0.0000 29.0080 0.0000
# 6 0.0000 0.0000 0.0000 1.3281 0.0000 40.5071
#
#
#
# Elastic Compliance Matrix: (Units=1/GPa)
#
#
# Indices 1 2 3 4 5 6 
#
# 1 0.010124 -0.003957 -0.002690 0.000000 -0.000284 0.000000
# 2 -0.003957 0.011037 -0.004352 0.000000 -0.000165 0.000000
# 3 -0.002690 -0.004352 0.014979 0.000000 0.003157 0.000000
# 4 0.000000 0.000000 0.000000 0.042232 0.000000 -0.001385
# 5 -0.000284 -0.000165 0.003157 0.000000 0.035254 0.000000
# 6 0.000000 0.000000 0.000000 -0.001385 0.000000 0.024732
#
#
# Mechanical properties :
#
#
# Convention : Reuss Voigt Hill
#
# Bulk Modulus (GPa) = 70.71261 76.38002 73.54632
# Shear Modulus (GPa) = 30.28980 31.98597 31.13788
#
# Velocity S-wave (km/s) = 3.77705 3.88137 3.82957
# Velocity P-wave (km/s) = 7.23369 7.48738 7.36163
#
# Compressibility (1/GPa) = 0.01414175
#
# Stress axis : x y z
#
# Youngs Moduli (GPa) = 98.77135 90.60070 66.76065
#
# Poissons Ratio (x) = 0.35851 0.17959
# Poissons Ratio (y) = 0.39084 0.29057
# Poissons Ratio (z) = 0.26570 0.39433
#
# Static dielectric constant tensor:
#      x y z
#    x 4.231130 0.000000 -0.054500 
#    y 0.000000 3.860450 0.000000 
#    z -0.054500 0.000000 3.646680 
# 
# 
# High freq. dielectric constant tensor:
#      x y z
#    x 1.856100 0.000000 -0.004540 
#    y 0.000000 1.845450 0.000000 
#    z -0.004540 0.000000 1.820490 
# 
# From -- ./inp_files/44937.got.cif
#   From: 2010.06.25/outbox.cif.g09.slc.cpg/sg15_23_cif.got.tgz:44937.got - 2010.06.28 07:06:18.
