data_PCOD8150471
_publ_section_title
;
Structure prediction by ZEFSAII (Michael W. Deem and Ramdas Pophale) SiO2 
 PCOD8150471
Probable space group: C 2/C
;
_chemical_formula_sum "Si O2"
_cell_formula_units_Z 52
_cell_length_a 18.916897
_cell_length_b 19.227454
_cell_length_c 11.159110
_cell_angle_alpha 90.000000
_cell_angle_beta 148.224830
_cell_angle_gamma 90.000000
_cell_volume 2137.330723
_symmetry_space_group_name_H-M "C 2/C"
_symmetry_group_IT_number 15
_symmetry_cell_setting 'monoclinic'
loop_
_space_group_symop_operation_xyz
x,y,z
-x,y,1/2-z
-x,-y,-z
x,-y,1/2+z
1/2+x,1/2+y,z
1/2-x,1/2+y,1/2-z
1/2-x,1/2-y,-z
1/2+x,1/2-y,1/2+z
loop_
_atom_site_type_symbol
_atom_site_label
_atom_site_fract_x
_atom_site_fract_y
_atom_site_fract_z
Si Si1 0.225797 0.714158 0.796757
Si Si2 0.917769 0.013876 0.505151
Si Si3 0.440886 0.351948 0.918810
Si Si4 0.916085 0.444054 0.743957
Si Si5 0.678466 0.065671 0.765022
Si Si6 0.737907 0.679544 0.913357
Si Si7 0.000000 0.176974 0.250000
O O1 0.138157 0.779276 0.708428
O O2 0.207189 0.644249 0.851390
O O3 0.191383 0.689767 0.613257
O O4 0.383392 0.730666 0.041026
O O5 0.864688 0.092609 0.395033
O O6 0.000000 0.013138 0.750000
O O7 0.790930 0.960348 0.329248
O O8 0.000000 0.000000 0.500000
O O9 0.464849 0.374622 0.812703
O O10 0.583565 0.341148 0.186503
O O11 0.815983 0.509447 0.620522
O O12 0.821843 0.377423 0.604670
O O13 0.000000 0.461404 0.750000
O O14 0.024065 0.432595 0.002778
O O15 0.750000 0.750000 0.000000
#
# Coordination Sequence:
#
# PCOD8150471 Si02
#       7
#     8   8   8   8   8   8   4
#     4  11  24  46  72 107 149 197 254 323 386 470
#     4  12  29  49  82 119 160 206 267 326 399 479
#     4  11  26  46  77 110 148 201 261 324 390 468
#     4  11  24  46  68 105 153 193 254 317 396 473
#     4  11  26  44  72 106 152 203 253 315 397 471
#     4  11  24  42  76 105 148 189 250 332 399 460
#     4  10  24  48  68 106 152 198 254 310 390 468
#
# _framework density 24.329412999999999
#
# number of rings (size 3 to 8) (size 9 to 14) (size 15 to 20)
#    0.000    0.923    1.538    4.154   10.769    0.000 
#    4.154    0.000    0.000    0.000    0.000    0.000 
#    0.000    0.000    0.000    0.000    0.000    0.000 
#
# Total GULP energy -322171.903253 kJ/mol
# GULP energy per Si atom -12391.227048 kJ/mol
# Density = 2.427404 g / cm^3
# Si number density = 24.329413 Si / 1000 Ang^3
#
#
#
# Elastic Constant Matrix: (Units=GPa)
#
#
# Indices 1 2 3 4 5 6 
#
# 1 77.8582 60.4347 36.4126 0.0000 4.4939 0.0000
# 2 60.4347 175.0873 55.2671 0.0000 2.4277 0.0000
# 3 36.4126 55.2671 116.4644 0.0000 3.5326 0.0000
# 4 0.0000 0.0000 0.0000 37.0237 0.0000 2.0348
# 5 4.4939 2.4277 3.5326 0.0000 36.1080 0.0000
# 6 0.0000 0.0000 0.0000 2.0348 0.0000 39.2979
#
#
#
# Elastic Compliance Matrix: (Units=1/GPa)
#
#
# Indices 1 2 3 4 5 6 
#
# 1 0.018628 -0.005392 -0.003215 0.000000 -0.001641 0.000000
# 2 -0.005392 0.008279 -0.002253 0.000000 0.000335 0.000000
# 3 -0.003215 -0.002253 0.010676 0.000000 -0.000493 0.000000
# 4 0.000000 0.000000 0.000000 0.027087 0.000000 -0.001403
# 5 -0.001641 0.000335 -0.000493 0.000000 0.027925 0.000000
# 6 0.000000 0.000000 0.000000 -0.001403 0.000000 0.025519
#
#
# Mechanical properties :
#
#
# Convention : Reuss Voigt Hill
#
# Bulk Modulus (GPa) = 63.04582 74.84876 68.94729
# Shear Modulus (GPa) = 34.45382 36.97228 35.71305
#
# Velocity S-wave (km/s) = 3.76724 3.90250 3.83547
# Velocity P-wave (km/s) = 6.70019 7.15105 6.92929
#
# Compressibility (1/GPa) = 0.01586148
#
# Stress axis : x y z
#
# Youngs Moduli (GPa) = 53.68339 120.78532 93.66990
#
# Poissons Ratio (x) = 0.65127 0.30119
# Poissons Ratio (y) = 0.28946 0.21105
# Poissons Ratio (z) = 0.17262 0.27215
#
# Static dielectric constant tensor:
#      x y z
#    x 4.534170 0.000000 0.277090 
#    y 0.000000 5.238310 0.000000 
#    z 0.277090 0.000000 5.316030 
# 
# 
# High freq. dielectric constant tensor:
#      x y z
#    x 1.957250 0.000000 0.000640 
#    y 0.000000 1.975950 0.000000 
#    z 0.000640 0.000000 1.982030 
# 
# From -- ./inp_files/114408.got.cif
#   From: 2010.06.25/outbox.cif.g09.slc.cpg/sg15_58_cif.got.tgz:114408.got - 2010.06.28 07:06:18.
