data_PCOD8150606
_publ_section_title
;
Structure prediction by ZEFSAII (Michael W. Deem and Ramdas Pophale) SiO2 
 PCOD8150606
Probable space group: C 2/C
;
_chemical_formula_sum "Si O2"
_cell_formula_units_Z 44
_cell_length_a 12.789492
_cell_length_b 8.125234
_cell_length_c 24.938755
_cell_angle_alpha 90.000000
_cell_angle_beta 50.759367
_cell_angle_gamma 90.000000
_cell_volume 2007.165390
_symmetry_space_group_name_H-M "C 2/C"
_symmetry_group_IT_number 15
_symmetry_cell_setting 'monoclinic'
loop_
_space_group_symop_operation_xyz
x,y,z
-x,y,1/2-z
-x,-y,-z
x,-y,1/2+z
1/2+x,1/2+y,z
1/2-x,1/2+y,1/2-z
1/2-x,1/2-y,-z
1/2+x,1/2-y,1/2+z
loop_
_atom_site_type_symbol
_atom_site_label
_atom_site_fract_x
_atom_site_fract_y
_atom_site_fract_z
Si Si1 0.214693 0.873286 0.205910
Si Si2 0.000000 0.878038 0.750000
Si Si3 0.085150 0.383823 0.822264
Si Si4 0.597741 0.833747 0.127173
Si Si5 0.604217 0.319760 0.422167
Si Si6 0.047209 0.812228 0.922830
O O1 0.109405 0.754630 0.270183
O O2 0.310640 0.777193 0.133745
O O3 0.304469 0.970451 0.220661
O O4 0.131377 0.008926 0.200533
O O5 0.994421 0.763041 0.699694
O O6 0.095838 0.316856 0.879169
O O7 0.940229 0.471150 0.860213
O O8 0.750570 0.820373 0.096513
O O9 0.572216 0.754684 0.076954
O O10 0.493485 0.274928 0.502843
O O11 0.567894 0.493707 0.406912
#
# Coordination Sequence:
#
# PCOD8150606 Si02
#       6
#     8   4   8   8   8   8
#     4  11  23  40  65  99 130 170 215 279 312 397
#     4  12  24  40  64 102 132 168 224 266 330 378
#     4  11  23  42  68  94 133 167 224 264 332 379
#     4  11  25  42  67  99 125 176 216 271 320 394
#     4  11  23  47  67  93 133 178 208 275 321 391
#     4  10  25  44  66  96 135 168 223 263 327 383
#
# _framework density 21.921461999999998
#
# number of rings (size 3 to 8) (size 9 to 14) (size 15 to 20)
#    0.000    1.091    1.818    4.909    5.091    2.909 
#    3.273    1.818    0.000    0.000    0.000    0.000 
#    0.000    0.000    0.000    0.000    0.000    0.000 
#
# Total GULP energy -272841.337094 kJ/mol
# GULP energy per Si atom -12401.878959 kJ/mol
# Density = 2.187157 g / cm^3
# Si number density = 21.921462 Si / 1000 Ang^3
#
#
#
# Elastic Constant Matrix: (Units=GPa)
#
#
# Indices 1 2 3 4 5 6 
#
# 1 82.8795 39.0293 34.4490 0.0000 -1.7527 0.0000
# 2 39.0293 113.4337 52.5518 0.0000 8.2966 0.0000
# 3 34.4490 52.5518 105.5187 0.0000 -0.5050 0.0000
# 4 0.0000 0.0000 0.0000 33.4995 0.0000 3.1649
# 5 -1.7527 8.2966 -0.5050 0.0000 17.3409 0.0000
# 6 0.0000 0.0000 0.0000 3.1649 0.0000 42.6433
#
#
#
# Elastic Compliance Matrix: (Units=1/GPa)
#
#
# Indices 1 2 3 4 5 6 
#
# 1 0.015312 -0.004177 -0.002902 0.000000 0.003462 0.000000
# 2 -0.004177 0.013181 -0.005234 0.000000 -0.006881 0.000000
# 3 -0.002902 -0.005234 0.013043 0.000000 0.002591 0.000000
# 4 0.000000 0.000000 0.000000 0.030062 0.000000 -0.002231
# 5 0.003462 -0.006881 0.002591 0.000000 0.061384 0.000000
# 6 0.000000 0.000000 0.000000 -0.002231 0.000000 0.023616
#
#
# Mechanical properties :
#
#
# Convention : Reuss Voigt Hill
#
# Bulk Modulus (GPa) = 59.13459 61.54356 60.33907
# Shear Modulus (GPa) = 26.75772 30.41687 28.58730
#
# Velocity S-wave (km/s) = 3.49752 3.72901 3.61512
# Velocity P-wave (km/s) = 6.58365 6.83200 6.70897
#
# Compressibility (1/GPa) = 0.01691058
#
# Stress axis : x y z
#
# Youngs Moduli (GPa) = 65.30695 75.86706 76.66702
#
# Poissons Ratio (x) = 0.31691 0.22249
# Poissons Ratio (y) = 0.27280 0.40125
# Poissons Ratio (z) = 0.18953 0.39707
#
# Static dielectric constant tensor:
#      x y z
#    x 3.866100 0.000000 -0.102110 
#    y 0.000000 4.240640 0.000000 
#    z -0.102110 0.000000 3.875490 
# 
# 
# High freq. dielectric constant tensor:
#      x y z
#    x 1.857420 0.000000 -0.001890 
#    y 0.000000 1.880310 0.000000 
#    z -0.001890 0.000000 1.856880 
# 
# From -- ./inp_files/202627.got.cif
#   From: 2010.06.25/outbox.cif.g09.slc.cpg/sg15_102_cif.got.tgz:202627.got - 2010.06.28 07:06:18.
