data_PCOD8150695
_publ_section_title
;
Structure prediction by ZEFSAII (Michael W. Deem and Ramdas Pophale) SiO2 
 PCOD8150695
Probable space group: C 2/C
;
_chemical_formula_sum "Si O2"
_cell_formula_units_Z 32
_cell_length_a 5.755319
_cell_length_b 26.994893
_cell_length_c 9.342386
_cell_angle_alpha 90.000000
_cell_angle_beta 105.608917
_cell_angle_gamma 90.000000
_cell_volume 1397.943233
_symmetry_space_group_name_H-M "C 2/C"
_symmetry_group_IT_number 15
_symmetry_cell_setting 'monoclinic'
loop_
_space_group_symop_operation_xyz
x,y,z
-x,y,1/2-z
-x,-y,-z
x,-y,1/2+z
1/2+x,1/2+y,z
1/2-x,1/2+y,1/2-z
1/2-x,1/2-y,-z
1/2+x,1/2-y,1/2+z
loop_
_atom_site_type_symbol
_atom_site_label
_atom_site_fract_x
_atom_site_fract_y
_atom_site_fract_z
Si Si1 0.000000 0.945911 0.250000
Si Si2 0.345845 0.973287 0.853809
Si Si3 0.000000 0.644323 0.250000
Si Si4 0.301313 0.701615 0.098001
Si Si5 0.488521 0.395585 0.952265
O O1 0.069290 0.913552 0.398290
O O2 0.217652 0.982383 0.246347
O O3 0.500000 0.947825 0.750000
O O4 0.162954 0.933550 0.895318
O O5 0.500000 0.000000 0.000000
O O6 0.944508 0.680882 0.372819
O O7 0.761974 0.611023 0.175718
O O8 0.500000 0.714402 0.250000
O O9 0.390910 0.657957 0.008682
O O10 0.250000 0.750000 0.000000
#
# Coordination Sequence:
#
# PCOD8150695 Si02
#       5
#     4   8   4   8   8
#     4  12  28  43  70 112 144 200 249 304 378 444
#     4  12  28  47  74 106 156 198 255 310 373 450
#     4  10  26  47  78 104 158 188 253 308 378 458
#     4  10  25  46  74 109 145 194 243 306 387 446
#     4  11  27  46  75 113 147 205 246 313 386 437
#
# _framework density 22.890774
#
# number of rings (size 3 to 8) (size 9 to 14) (size 15 to 20)
#    0.000    1.000    2.500    0.750   10.500    7.000 
#    0.000    0.000    0.000    0.000    0.000    0.000 
#    0.000    0.000    0.000    0.000    0.000    0.000 
#
# Total GULP energy -198236.645858 kJ/mol
# GULP energy per Si atom -12389.790366 kJ/mol
# Density = 2.283867 g / cm^3
# Si number density = 22.890774 Si / 1000 Ang^3
#
#
#
# Elastic Constant Matrix: (Units=GPa)
#
#
# Indices 1 2 3 4 5 6 
#
# 1 153.7176 79.3668 53.8837 0.0000 -7.5398 0.0000
# 2 79.3668 192.9599 75.6573 0.0000 -2.6370 0.0000
# 3 53.8837 75.6573 110.0953 0.0000 -13.3960 0.0000
# 4 0.0000 0.0000 0.0000 60.4915 0.0000 -3.8173
# 5 -7.5398 -2.6370 -13.3960 0.0000 40.7128 0.0000
# 6 0.0000 0.0000 0.0000 -3.8173 0.0000 28.8478
#
#
#
# Elastic Compliance Matrix: (Units=1/GPa)
#
#
# Indices 1 2 3 4 5 6 
#
# 1 0.008741 -0.002656 -0.002372 0.000000 0.000666 0.000000
# 2 -0.002656 0.007957 -0.004339 0.000000 -0.001404 0.000000
# 3 -0.002372 -0.004339 0.013686 0.000000 0.003783 0.000000
# 4 0.000000 0.000000 0.000000 0.016670 0.000000 0.002206
# 5 0.000666 -0.001404 0.003783 0.000000 0.025839 0.000000
# 6 0.000000 0.000000 0.000000 0.002206 0.000000 0.034957
#
#
# Mechanical properties :
#
#
# Convention : Reuss Voigt Hill
#
# Bulk Modulus (GPa) = 85.83527 97.17649 91.50588
# Shear Modulus (GPa) = 38.32387 42.53473 40.42930
#
# Velocity S-wave (km/s) = 4.09615 4.31532 4.20716
# Velocity P-wave (km/s) = 7.74276 8.20815 7.97885
#
# Compressibility (1/GPa) = 0.01165022
#
# Stress axis : x y z
#
# Youngs Moduli (GPa) = 114.40432 125.67550 73.06905
#
# Poissons Ratio (x) = 0.33383 0.17329
# Poissons Ratio (y) = 0.30389 0.31703
# Poissons Ratio (z) = 0.27132 0.54529
#
# Static dielectric constant tensor:
#      x y z
#    x 1.572100 0.000000 0.619770 
#    y 0.000000 4.277400 0.000000 
#    z 0.619770 0.000000 3.890970 
# 
# 
# High freq. dielectric constant tensor:
#      x y z
#    x 1.926140 0.000000 0.002170 
#    y 0.000000 1.920230 0.000000 
#    z 0.002170 0.000000 1.898170 
# 
# From -- ./inp_files/20319.got.cif
#   From: 2010.06.25/outbox.cif.g09.slc.cpg/sg15_11_cif.got.tgz:20319.got - 2010.06.28 07:06:18.
