data_PCOD8150383
_publ_section_title
;
Structure prediction by ZEFSAII (Michael W. Deem and Ramdas Pophale) SiO2 
 PCOD8150383
Probable space group: C 2/C
;
_chemical_formula_sum "Si O2"
_cell_formula_units_Z 36
_cell_length_a 16.597279
_cell_length_b 9.197133
_cell_length_c 20.450871
_cell_angle_alpha 90.000000
_cell_angle_beta 150.159566
_cell_angle_gamma 90.000000
_cell_volume 1553.350708
_symmetry_space_group_name_H-M "C 2/C"
_symmetry_group_IT_number 15
_symmetry_cell_setting 'monoclinic'
loop_
_space_group_symop_operation_xyz
x,y,z
-x,y,1/2-z
-x,-y,-z
x,-y,1/2+z
1/2+x,1/2+y,z
1/2-x,1/2+y,1/2-z
1/2-x,1/2-y,-z
1/2+x,1/2-y,1/2+z
loop_
_atom_site_type_symbol
_atom_site_label
_atom_site_fract_x
_atom_site_fract_y
_atom_site_fract_z
Si Si1 0.835194 0.028882 0.970755
Si Si2 0.677708 0.927000 0.734831
Si Si3 0.000000 0.646328 0.750000
Si Si4 0.063511 0.210425 0.867462
Si Si5 0.578944 0.756232 0.166677
O O1 0.655222 0.044886 0.875983
O O2 0.817580 0.956939 0.887103
O O3 0.920394 0.186034 0.021772
O O4 0.952935 0.935155 0.100332
O O5 0.534623 0.838534 0.667693
O O6 0.759940 0.838037 0.734278
O O7 0.603867 0.079826 0.657177
O O8 0.050633 0.745213 0.724637
O O9 0.000000 0.178914 0.750000
O O10 0.250000 0.250000 0.000000
#
# Coordination Sequence:
#
# PCOD8150383 Si02
#       5
#     8   8   4   8   8
#     4  11  23  46  73 101 146 196 242 300 363 435
#     4  11  25  47  70 108 145 189 247 306 359 435
#     4  10  24  46  72 108 144 188 246 306 358 436
#     4  12  24  46  75 108 152 193 243 301 370 433
#     4  11  24  45  73 102 146 192 234 304 368 427
#
# _framework density 23.175706999999999
#
# number of rings (size 3 to 8) (size 9 to 14) (size 15 to 20)
#    0.000    0.889    2.222    5.333    3.111    1.778 
#    4.000    5.556    0.000    0.000    0.000    0.000 
#    0.000    0.000    0.000    0.000    0.000    0.000 
#
# Total GULP energy -223197.118455 kJ/mol
# GULP energy per Si atom -12399.839914 kJ/mol
# Density = 2.312296 g / cm^3
# Si number density = 23.175707 Si / 1000 Ang^3
#
#
#
# Elastic Constant Matrix: (Units=GPa)
#
#
# Indices 1 2 3 4 5 6 
#
# 1 101.4698 50.2249 10.6589 -0.0005 0.0089 -0.0001
# 2 50.2249 162.8126 56.4677 -0.0007 5.7855 -0.0002
# 3 10.6589 56.4677 109.8095 -0.0011 0.5484 -0.0005
# 4 -0.0005 -0.0007 -0.0011 55.3226 -0.0005 8.2400
# 5 0.0089 5.7855 0.5484 -0.0005 34.7089 -0.0002
# 6 -0.0001 -0.0002 -0.0005 8.2400 -0.0002 45.8105
#
#
#
# Elastic Compliance Matrix: (Units=1/GPa)
#
#
# Indices 1 2 3 4 5 6 
#
# 1 0.011714 -0.003944 0.000888 0.000000 0.000640 0.000000
# 2 -0.003944 0.008852 -0.004162 0.000000 -0.001409 0.000000
# 3 0.000888 -0.004162 0.011158 0.000000 0.000517 0.000000
# 4 0.000000 0.000000 0.000000 0.018573 0.000000 -0.003341
# 5 0.000640 -0.001409 0.000517 0.000000 0.029038 0.000000
# 6 0.000000 0.000000 0.000000 -0.003341 0.000000 0.022430
#
#
# Mechanical properties :
#
#
# Convention : Reuss Voigt Hill
#
# Bulk Modulus (GPa) = 57.84472 67.64387 62.74429
# Shear Modulus (GPa) = 40.99513 44.28443 42.63978
#
# Velocity S-wave (km/s) = 4.21037 4.37603 4.29400
# Velocity P-wave (km/s) = 6.97493 7.40159 7.19143
#
# Compressibility (1/GPa) = 0.01728766
#
# Stress axis : x y z
#
# Youngs Moduli (GPa) = 85.36666 112.96284 89.61941
#
# Poissons Ratio (x) = 0.44557 -0.07959
# Poissons Ratio (y) = 0.33672 0.37303
# Poissons Ratio (z) = -0.07581 0.47019
#
# Static dielectric constant tensor:
#      x y z
#    x 4.198870 0.000000 0.132370 
#    y 0.000000 4.498250 0.000000 
#    z 0.132370 0.000000 4.144230 
# 
# 
# High freq. dielectric constant tensor:
#      x y z
#    x 1.926520 0.000000 0.019100 
#    y 0.000000 1.925270 0.000000 
#    z 0.019100 0.000000 1.907920 
# 
# From -- ./inp_files/125382.got.cif
#   From: 2010.06.25/outbox.cif.g09.slc.cpg/sg15_63_cif.got.tgz:125382.got - 2010.06.28 07:06:18.
