data_PCOD8150584
_publ_section_title
;
Structure prediction by ZEFSAII (Michael W. Deem and Ramdas Pophale) SiO2 
 PCOD8150584
Probable space group: C 2/C
;
_chemical_formula_sum "Si O2"
_cell_formula_units_Z 48
_cell_length_a 18.860793
_cell_length_b 11.418749
_cell_length_c 26.658419
_cell_angle_alpha 90.000000
_cell_angle_beta 157.355533
_cell_angle_gamma 90.000000
_cell_volume 2210.481066
_symmetry_space_group_name_H-M "C 2/C"
_symmetry_group_IT_number 15
_symmetry_cell_setting 'monoclinic'
loop_
_space_group_symop_operation_xyz
x,y,z
-x,y,1/2-z
-x,-y,-z
x,-y,1/2+z
1/2+x,1/2+y,z
1/2-x,1/2+y,1/2-z
1/2-x,1/2-y,-z
1/2+x,1/2-y,1/2+z
loop_
_atom_site_type_symbol
_atom_site_label
_atom_site_fract_x
_atom_site_fract_y
_atom_site_fract_z
Si Si1 0.046048 0.566274 0.880752
Si Si2 0.001566 0.582357 0.452507
Si Si3 0.293614 0.319100 0.204889
Si Si4 0.633658 0.718786 0.194227
Si Si5 0.409925 0.504564 0.561199
Si Si6 0.346147 0.098667 0.185140
O O1 0.015335 0.491016 0.910917
O O2 0.991726 0.703218 0.850038
O O3 0.905606 0.526363 0.745785
O O4 0.253468 0.545706 0.996145
O O5 0.188874 0.655096 0.583948
O O6 0.000000 0.500000 0.500000
O O7 0.830797 0.673540 0.343482
O O8 0.160875 0.311109 0.166506
O O9 0.455827 0.412325 0.318863
O O10 0.351761 0.184435 0.236586
O O11 0.518505 0.602566 0.106615
O O12 0.339312 0.581345 0.468102
O O13 0.500000 0.153312 0.250000
#
# Coordination Sequence:
#
# PCOD8150584 Si02
#       6
#     8   8   8   8   8   8
#     4  11  25  45  70 102 139 178 231 287 344 411
#     4  12  24  44  64 104 136 176 231 270 348 407
#     4  12  25  43  71  98 137 182 227 289 337 412
#     4  12  24  45  69 101 138 184 229 283 345 411
#     4  11  26  46  68 102 139 180 235 283 346 409
#     4  10  25  43  67  98 133 177 229 282 340 401
#
# _framework density 21.714731
#
# number of rings (size 3 to 8) (size 9 to 14) (size 15 to 20)
#    0.000    0.667    5.000    1.500    4.667    2.000 
#    0.000    0.000    0.000    0.000    0.000    0.000 
#    0.000    0.000    0.000    0.000    0.000    0.000 
#
# Total GULP energy -297357.324042 kJ/mol
# GULP energy per Si atom -12389.888502 kJ/mol
# Density = 2.166531 g / cm^3
# Si number density = 21.714731 Si / 1000 Ang^3
#
#
#
# Elastic Constant Matrix: (Units=GPa)
#
#
# Indices 1 2 3 4 5 6 
#
# 1 74.0191 23.2545 37.2846 0.0029 1.3334 0.0041
# 2 23.2545 106.7324 61.8879 -0.0054 6.9177 -0.0040
# 3 37.2846 61.8879 147.3383 -0.0154 2.2779 -0.0441
# 4 0.0029 -0.0054 -0.0154 35.6977 -0.0008 0.6749
# 5 1.3334 6.9177 2.2779 -0.0008 25.1202 0.0006
# 6 0.0041 -0.0040 -0.0441 0.6749 0.0006 39.5412
#
#
#
# Elastic Compliance Matrix: (Units=1/GPa)
#
#
# Indices 1 2 3 4 5 6 
#
# 1 0.015657 -0.001463 -0.003346 -0.000003 -0.000125 -0.000005
# 2 -0.001463 0.012744 -0.004936 0.000000 -0.002984 -0.000004
# 3 -0.003346 -0.004936 0.009697 0.000004 0.000658 0.000011
# 4 -0.000003 0.000000 0.000004 0.028022 0.000001 -0.000478
# 5 -0.000125 -0.002984 0.000658 0.000001 0.040577 0.000000
# 6 -0.000005 -0.000004 0.000011 -0.000478 0.000000 0.025298
#
#
# Mechanical properties :
#
#
# Convention : Reuss Voigt Hill
#
# Bulk Modulus (GPa) = 53.74219 63.66043 58.70131
# Shear Modulus (GPa) = 31.70801 33.78269 32.74535
#
# Velocity S-wave (km/s) = 3.82541 3.94858 3.88748
# Velocity P-wave (km/s) = 6.65692 7.08299 6.87326
#
# Compressibility (1/GPa) = 0.01860735
#
# Stress axis : x y z
#
# Youngs Moduli (GPa) = 63.86832 78.46927 103.12423
#
# Poissons Ratio (x) = 0.11483 0.34500
# Poissons Ratio (y) = 0.09346 0.50907
# Poissons Ratio (z) = 0.21367 0.38736
#
# Static dielectric constant tensor:
#      x y z
#    x 4.327930 0.000020 -0.458170 
#    y 0.000020 4.320760 -0.000140 
#    z -0.458170 -0.000140 4.915380 
# 
# 
# High freq. dielectric constant tensor:
#      x y z
#    x 1.851010 0.000000 -0.000740 
#    y 0.000000 1.869550 0.000000 
#    z -0.000740 0.000000 1.857990 
# 
# From -- ./inp_files/111435.got.cif
#   From: 2010.06.25/outbox.cif.g09.slc.cpg/sg15_56_cif.got.tgz:111435.got - 2010.06.28 07:06:18.
