data_PCOD8150182
_publ_section_title
;
Structure prediction by ZEFSAII (Michael W. Deem and Ramdas Pophale) SiO2 
 PCOD8150182
Probable space group: C 2/C
;
_chemical_formula_sum "Si O2"
_cell_formula_units_Z 36
_cell_length_a 11.570611
_cell_length_b 18.529675
_cell_length_c 7.884594
_cell_angle_alpha 90.000000
_cell_angle_beta 110.203404
_cell_angle_gamma 90.000000
_cell_volume 1586.444869
_symmetry_space_group_name_H-M "C 2/C"
_symmetry_group_IT_number 15
_symmetry_cell_setting 'monoclinic'
loop_
_space_group_symop_operation_xyz
x,y,z
-x,y,1/2-z
-x,-y,-z
x,-y,1/2+z
1/2+x,1/2+y,z
1/2-x,1/2+y,1/2-z
1/2-x,1/2-y,-z
1/2+x,1/2-y,1/2+z
loop_
_atom_site_type_symbol
_atom_site_label
_atom_site_fract_x
_atom_site_fract_y
_atom_site_fract_z
Si Si1 0.849694 0.713529 0.430977
Si Si2 0.288517 0.599839 0.352239
Si Si3 0.544225 0.361943 0.090359
Si Si4 0.735203 0.947513 0.205301
Si Si5 0.000000 0.387003 0.250000
O O1 0.750000 0.750000 0.500000
O O2 0.785041 0.670029 0.246731
O O3 0.932358 0.776703 0.393838
O O4 0.939332 0.662184 0.578005
O O5 0.434360 0.617269 0.406229
O O6 0.262139 0.532609 0.215789
O O7 0.245261 0.584002 0.521520
O O8 0.500000 0.388648 0.250000
O O9 0.670198 0.406401 0.118048
O O10 0.598438 0.937786 0.207482
#
# Coordination Sequence:
#
# PCOD8150182 Si02
#       5
#     8   8   8   8   4
#     4  12  25  45  70 105 141 190 226 291 347 420
#     4  11  26  46  74 101 142 181 238 289 348 417
#     4  10  24  44  71 103 139 183 235 287 347 412
#     4  11  25  46  70 106 137 190 230 293 350 409
#     4  12  26  44  68 104 148 180 246 280 358 420
#
# _framework density 22.692246999999998
#
# number of rings (size 3 to 8) (size 9 to 14) (size 15 to 20)
#    0.000    0.889    2.222    3.333    3.111    5.333 
#    0.000    0.000    0.000    0.000    0.000    0.000 
#    0.000    0.000    0.000    0.000    0.000    0.000 
#
# Total GULP energy -223278.870431 kJ/mol
# GULP energy per Si atom -12404.381691 kJ/mol
# Density = 2.264060 g / cm^3
# Si number density = 22.692247 Si / 1000 Ang^3
#
#
#
# Elastic Constant Matrix: (Units=GPa)
#
#
# Indices 1 2 3 4 5 6 
#
# 1 143.9733 63.9061 64.3504 0.0000 19.6855 0.0000
# 2 63.9061 156.2109 50.9478 0.0000 14.3149 0.0000
# 3 64.3504 50.9478 90.1393 0.0000 17.5669 0.0000
# 4 0.0000 0.0000 0.0000 40.5296 0.0000 9.0017
# 5 19.6855 14.3149 17.5669 0.0000 32.0151 0.0000
# 6 0.0000 0.0000 0.0000 9.0017 0.0000 40.4205
#
#
#
# Elastic Compliance Matrix: (Units=1/GPa)
#
#
# Indices 1 2 3 4 5 6 
#
# 1 0.011021 -0.002299 -0.006101 0.000000 -0.002401 0.000000
# 2 -0.002299 0.008370 -0.002951 0.000000 -0.000709 0.000000
# 3 -0.006101 -0.002951 0.018060 0.000000 -0.004839 0.000000
# 4 0.000000 0.000000 0.000000 0.025957 0.000000 -0.005781
# 5 -0.002401 -0.000709 -0.004839 0.000000 0.035684 0.000000
# 6 0.000000 0.000000 0.000000 -0.005781 0.000000 0.026027
#
#
# Mechanical properties :
#
#
# Convention : Reuss Voigt Hill
#
# Bulk Modulus (GPa) = 67.79836 83.19246 75.49541
# Shear Modulus (GPa) = 32.73574 36.66763 34.70169
#
# Velocity S-wave (km/s) = 3.80227 4.02414 3.91478
# Velocity P-wave (km/s) = 7.01559 7.63757 7.33318
#
# Compressibility (1/GPa) = 0.01474962
#
# Stress axis : x y z
#
# Youngs Moduli (GPa) = 90.73316 119.47939 55.37019
#
# Poissons Ratio (x) = 0.27469 0.33780
# Poissons Ratio (y) = 0.20860 0.16340
# Poissons Ratio (z) = 0.55353 0.35259
#
# Static dielectric constant tensor:
#      x y z
#    x 4.408640 0.000000 0.350360 
#    y 0.000000 4.360500 0.000000 
#    z 0.350360 0.000000 4.096920 
# 
# 
# High freq. dielectric constant tensor:
#      x y z
#    x 1.906670 0.000000 0.011840 
#    y 0.000000 1.905420 0.000000 
#    z 0.011840 0.000000 1.897580 
# 
# From -- ./inp_files/28969.got.cif
#   From: 2010.06.25/outbox.cif.g09.slc.cpg/sg15_15_cif.got.tgz:28969.got - 2010.06.28 07:06:18.
