data_PCOD8150558
_publ_section_title
;
Structure prediction by ZEFSAII (Michael W. Deem and Ramdas Pophale) SiO2 
 PCOD8150558
Probable space group: C 2/C
;
_chemical_formula_sum "Si O2"
_cell_formula_units_Z 60
_cell_length_a 26.214782
_cell_length_b 21.830783
_cell_length_c 14.565416
_cell_angle_alpha 90.000000
_cell_angle_beta 19.035418
_cell_angle_gamma 90.000000
_cell_volume 2718.687356
_symmetry_space_group_name_H-M "C 2/C"
_symmetry_group_IT_number 15
_symmetry_cell_setting 'monoclinic'
loop_
_space_group_symop_operation_xyz
x,y,z
-x,y,1/2-z
-x,-y,-z
x,-y,1/2+z
1/2+x,1/2+y,z
1/2-x,1/2+y,1/2-z
1/2-x,1/2-y,-z
1/2+x,1/2-y,1/2+z
loop_
_atom_site_type_symbol
_atom_site_label
_atom_site_fract_x
_atom_site_fract_y
_atom_site_fract_z
Si Si1 0.681564 0.986145 0.700449
Si Si2 0.845676 0.366291 0.846086
Si Si3 0.044776 0.306311 0.026824
Si Si4 0.000000 0.419551 0.750000
Si Si5 0.766891 0.347598 0.622724
Si Si6 0.461040 0.322701 0.047157
Si Si7 0.965437 0.934655 0.706916
Si Si8 0.242266 0.018830 0.225431
O O1 0.783297 0.046766 0.505650
O O2 0.728215 0.932493 0.551171
O O3 0.715698 0.960959 0.743512
O O4 0.500000 0.000000 0.000000
O O5 0.928652 0.337997 0.616246
O O6 0.978120 0.375370 0.699203
O O7 0.706530 0.322779 0.117613
O O8 0.880961 0.328630 0.346515
O O9 0.181892 0.321429 0.865709
O O10 0.034659 0.233755 0.029848
O O11 0.151624 0.461902 0.484860
O O12 0.765961 0.421718 0.622263
O O13 0.596606 0.318866 0.893256
O O14 0.487630 0.383704 0.944471
O O15 0.000000 0.909258 0.750000
O O16 0.063605 0.996797 0.522430
#
# Coordination Sequence:
#
# PCOD8150558 Si02
#       8
#     8   8   8   4   8   8   8   8
#     4  11  23  40  69 104 147 183 235 298 367 429
#     4  12  26  45  69 107 147 195 239 297 367 431
#     4  11  27  49  71 105 143 195 249 300 353 430
#     4  12  24  38  70 104 146 190 232 292 366 438
#     4  11  26  46  78 104 136 190 250 303 358 427
#     4  12  27  47  72 104 148 192 244 297 360 436
#     4  10  25  42  68 106 147 188 231 299 370 432
#     4  11  22  44  67 107 143 183 235 299 365 431
#
# _framework density 22.069472999999999
#
# number of rings (size 3 to 8) (size 9 to 14) (size 15 to 20)
#    0.000    0.800    4.000    2.400    5.600    2.667 
#    0.000    0.000    0.000    0.000    0.000    0.000 
#    0.000    0.000    0.000    0.000    0.000    0.000 
#
# Total GULP energy -372140.162001 kJ/mol
# GULP energy per Si atom -12404.672067 kJ/mol
# Density = 2.201924 g / cm^3
# Si number density = 22.069473 Si / 1000 Ang^3
#
#
#
# Elastic Constant Matrix: (Units=GPa)
#
#
# Indices 1 2 3 4 5 6 
#
# 1 132.9294 61.3655 49.7038 0.0106 3.7819 -0.0044
# 2 61.3655 101.4092 46.1080 -0.0283 0.4021 0.0042
# 3 49.7038 46.1080 110.2103 -0.0517 0.1517 0.0088
# 4 0.0106 -0.0283 -0.0517 24.2038 0.0023 13.8279
# 5 3.7819 0.4021 0.1517 0.0023 44.1963 0.0010
# 6 -0.0044 0.0042 0.0088 13.8279 0.0010 33.1439
#
#
#
# Elastic Compliance Matrix: (Units=1/GPa)
#
#
# Indices 1 2 3 4 5 6 
#
# 1 0.011088 -0.005475 -0.002709 -0.000024 -0.000890 0.000013
# 2 -0.005475 0.014881 -0.003757 0.000017 0.000346 -0.000009
# 3 -0.002709 -0.003757 0.011867 0.000031 0.000225 -0.000016
# 4 -0.000024 0.000017 0.000031 0.054246 0.000000 -0.022632
# 5 -0.000890 0.000346 0.000225 0.000000 0.022699 -0.000001
# 6 0.000013 -0.000009 -0.000016 -0.022632 -0.000001 0.039614
#
#
# Mechanical properties :
#
#
# Convention : Reuss Voigt Hill
#
# Bulk Modulus (GPa) = 71.66199 73.21151 72.43675
# Shear Modulus (GPa) = 27.33333 32.80024 30.06679
#
# Velocity S-wave (km/s) = 3.52307 3.85934 3.69503
# Velocity P-wave (km/s) = 7.00649 7.28729 7.14827
#
# Compressibility (1/GPa) = 0.01395440
#
# Stress axis : x y z
#
# Youngs Moduli (GPa) = 90.18448 67.20109 84.26804
#
# Poissons Ratio (x) = 0.36790 0.22830
# Poissons Ratio (y) = 0.49372 0.31660
# Poissons Ratio (z) = 0.24433 0.25248
#
# Static dielectric constant tensor:
#      x y z
#    x 4.182060 -0.000690 0.060400 
#    y -0.000690 5.503520 0.000970 
#    z 0.060400 0.000970 3.894150 
# 
# 
# High freq. dielectric constant tensor:
#      x y z
#    x 1.886220 0.000000 0.001090 
#    y 0.000000 1.859470 0.000010 
#    z 0.001090 0.000010 1.872380 
# 
# From -- ./inp_files/179103.got.cif
#   From: 2010.06.25/outbox.cif.g09.slc.cpg/sg15_90_cif.got.tgz:179103.got - 2010.06.28 07:06:18.
