data_PCOD8150879
_publ_section_title
;
Structure prediction by ZEFSAII (Michael W. Deem and Ramdas Pophale) SiO2 
 PCOD8150879
Probable space group: C 2/C
;
_chemical_formula_sum "Si O2"
_cell_formula_units_Z 36
_cell_length_a 15.109102
_cell_length_b 11.089373
_cell_length_c 16.210102
_cell_angle_alpha 90.000000
_cell_angle_beta 144.671801
_cell_angle_gamma 90.000000
_cell_volume 1570.557949
_symmetry_space_group_name_H-M "C 2/C"
_symmetry_group_IT_number 15
_symmetry_cell_setting 'monoclinic'
loop_
_space_group_symop_operation_xyz
x,y,z
-x,y,1/2-z
-x,-y,-z
x,-y,1/2+z
1/2+x,1/2+y,z
1/2-x,1/2+y,1/2-z
1/2-x,1/2-y,-z
1/2+x,1/2-y,1/2+z
loop_
_atom_site_type_symbol
_atom_site_label
_atom_site_fract_x
_atom_site_fract_y
_atom_site_fract_z
Si Si1 0.354480 0.758615 0.829608
Si Si2 0.521388 0.440212 0.362937
Si Si3 0.347219 0.082673 0.174406
Si Si4 0.977038 0.206965 0.382993
Si Si5 0.000000 0.647221 0.750000
O O1 0.386656 0.647762 0.791782
O O2 0.348213 0.881103 0.771103
O O3 0.198059 0.752958 0.761483
O O4 0.482479 0.761119 0.997161
O O5 0.500000 0.464121 0.250000
O O6 0.688145 0.380527 0.508745
O O7 0.504505 0.564119 0.400842
O O8 0.500000 0.145154 0.250000
O O9 0.361260 0.937600 0.176968
O O10 0.065053 0.270913 0.374018
#
# Coordination Sequence:
#
# PCOD8150879 Si02
#       5
#     8   8   8   8   4
#     4  12  27  45  75 106 148 188 243 295 360 428
#     4  12  27  48  75 107 150 190 240 297 367 426
#     4  10  26  48  73 104 147 187 242 294 360 430
#     4  12  27  47  75 107 147 192 242 303 356 429
#     4  10  26  48  72 104 148 188 250 286 370 426
#
# _framework density 22.921790999999999
#
# number of rings (size 3 to 8) (size 9 to 14) (size 15 to 20)
#    0.667    0.000    3.333    2.667    9.333    4.444 
#    0.000    0.000    0.000    0.000    0.000    0.000 
#    0.000    0.000    0.000    0.000    0.000    0.000 
#
# Total GULP energy -223163.563563 kJ/mol
# GULP energy per Si atom -12397.975753 kJ/mol
# Density = 2.286962 g / cm^3
# Si number density = 22.921791 Si / 1000 Ang^3
#
#
#
# Elastic Constant Matrix: (Units=GPa)
#
#
# Indices 1 2 3 4 5 6 
#
# 1 103.1862 52.9558 51.7715 0.0001 -12.9887 0.0001
# 2 52.9558 98.8986 29.7594 0.0000 -8.1778 0.0000
# 3 51.7715 29.7594 98.7174 0.0001 -13.3686 0.0001
# 4 0.0001 0.0000 0.0001 24.4068 0.0001 -7.4977
# 5 -12.9887 -8.1778 -13.3686 0.0001 52.8257 0.0001
# 6 0.0001 0.0000 0.0001 -7.4977 0.0001 44.6614
#
#
#
# Elastic Compliance Matrix: (Units=1/GPa)
#
#
# Indices 1 2 3 4 5 6 
#
# 1 0.016620 -0.006839 -0.006466 0.000000 0.001391 0.000000
# 2 -0.006839 0.013976 -0.000581 0.000000 0.000335 0.000000
# 3 -0.006466 -0.000581 0.013947 0.000000 0.001850 0.000000
# 4 0.000000 0.000000 0.000000 0.043200 0.000000 0.007252
# 5 0.001391 0.000335 0.001850 0.000000 0.019792 0.000000
# 6 0.000000 0.000000 0.000000 0.007252 0.000000 0.023608
#
#
# Mechanical properties :
#
#
# Convention : Reuss Voigt Hill
#
# Bulk Modulus (GPa) = 59.62904 63.30839 61.46872
# Shear Modulus (GPa) = 30.39396 35.46648 32.93022
#
# Velocity S-wave (km/s) = 3.64536 3.93782 3.79441
# Velocity P-wave (km/s) = 6.61731 6.95374 6.78761
#
# Compressibility (1/GPa) = 0.01677035
#
# Stress axis : x y z
#
# Youngs Moduli (GPa) = 60.16711 71.55246 71.70047
#
# Poissons Ratio (x) = 0.48932 0.46365
# Poissons Ratio (y) = 0.41146 0.04168
# Poissons Ratio (z) = 0.38907 0.04159
#
# Static dielectric constant tensor:
#      x y z
#    x 4.172590 0.000000 0.057950 
#    y 0.000000 3.912440 0.000000 
#    z 0.057950 0.000000 3.874400 
# 
# 
# High freq. dielectric constant tensor:
#      x y z
#    x 1.920530 0.000000 -0.004170 
#    y 0.000000 1.898550 0.000000 
#    z -0.004170 0.000000 1.900050 
# 
# From -- ./inp_files/152806.got.cif
#   From: 2010.06.25/outbox.cif.g09.slc.cpg/sg15_77_cif.got.tgz:152806.got - 2010.06.28 07:06:18.
