data_PCOD8150268
_publ_section_title
;
Structure prediction by ZEFSAII (Michael W. Deem and Ramdas Pophale) SiO2 
 PCOD8150268
Probable space group: C 2/C
;
_chemical_formula_sum "Si O2"
_cell_formula_units_Z 32
_cell_length_a 21.879807
_cell_length_b 7.433012
_cell_length_c 12.181265
_cell_angle_alpha 90.000000
_cell_angle_beta 40.430816
_cell_angle_gamma 90.000000
_cell_volume 1284.784760
_symmetry_space_group_name_H-M "C 2/C"
_symmetry_group_IT_number 15
_symmetry_cell_setting 'monoclinic'
loop_
_space_group_symop_operation_xyz
x,y,z
-x,y,1/2-z
-x,-y,-z
x,-y,1/2+z
1/2+x,1/2+y,z
1/2-x,1/2+y,1/2-z
1/2-x,1/2-y,-z
1/2+x,1/2-y,1/2+z
loop_
_atom_site_type_symbol
_atom_site_label
_atom_site_fract_x
_atom_site_fract_y
_atom_site_fract_z
Si Si1 0.570792 0.422373 0.249637
Si Si2 0.734730 0.022279 0.091880
Si Si3 0.567184 0.839182 0.940953
Si Si4 0.627313 0.223763 0.591518
O O1 0.500000 0.359456 0.250000
O O2 0.539439 0.338302 0.408519
O O3 0.574072 0.641768 0.252070
O O4 0.678542 0.353139 0.073000
O O5 0.677205 0.116196 0.267620
O O6 0.658201 0.964403 0.103151
O O7 0.780887 0.836407 0.075677
O O8 0.557781 0.810839 0.084215
O O9 0.500000 0.000000 0.000000
#
# Coordination Sequence:
#
# PCOD8150268 Si02
#       4
#     8   8   8   8
#     4  10  24  45  69  98 139 179 230 288 345 412
#     4   9  23  44  69  96 142 176 230 291 342 406
#     4  12  27  40  72 105 135 185 231 283 354 415
#     4   9  24  44  70  93 138 182 229 285 346 411
#
# _framework density 24.906897000000001
#
# number of rings (size 3 to 8) (size 9 to 14) (size 15 to 20)
#    1.500    0.500    0.000    0.750   10.500    3.000 
#    0.000    0.000    0.000    0.000    0.000    0.000 
#    0.000    0.000    0.000    0.000    0.000    0.000 
#
# Total GULP energy -198275.011901 kJ/mol
# GULP energy per Si atom -12392.188244 kJ/mol
# Density = 2.485021 g / cm^3
# Si number density = 24.906897 Si / 1000 Ang^3
#
#
#
# Elastic Constant Matrix: (Units=GPa)
#
#
# Indices 1 2 3 4 5 6 
#
# 1 162.4504 52.7895 30.4429 0.0004 11.7044 0.0000
# 2 52.7895 93.4632 38.6265 0.0018 14.7368 -0.0010
# 3 30.4429 38.6265 82.4142 0.0003 2.2117 -0.0002
# 4 0.0004 0.0018 0.0003 38.5449 -0.0003 0.8960
# 5 11.7044 14.7368 2.2117 -0.0003 43.6928 0.0002
# 6 0.0000 -0.0010 -0.0002 0.8960 0.0002 37.4452
#
#
#
# Elastic Compliance Matrix: (Units=1/GPa)
#
#
# Indices 1 2 3 4 5 6 
#
# 1 0.007625 -0.003767 -0.001032 0.000000 -0.000720 0.000000
# 2 -0.003767 0.015934 -0.005968 -0.000001 -0.004063 0.000000
# 3 -0.001032 -0.005968 0.015271 0.000000 0.001516 0.000000
# 4 0.000000 -0.000001 0.000000 0.025958 0.000000 -0.000621
# 5 -0.000720 -0.004063 0.001516 0.000000 0.024374 0.000000
# 6 0.000000 0.000000 0.000000 -0.000621 0.000000 0.026721
#
#
# Mechanical properties :
#
#
# Convention : Reuss Voigt Hill
#
# Bulk Modulus (GPa) = 57.81102 64.67173 61.24137
# Shear Modulus (GPa) = 34.92091 38.36784 36.64438
#
# Velocity S-wave (km/s) = 3.74847 3.92912 3.83985
# Velocity P-wave (km/s) = 6.48043 6.82684 6.65589
#
# Compressibility (1/GPa) = 0.01729774
#
# Stress axis : x y z
#
# Youngs Moduli (GPa) = 131.14756 62.75940 65.48265
#
# Poissons Ratio (x) = 0.23640 0.06757
# Poissons Ratio (y) = 0.49400 0.39077
# Poissons Ratio (z) = 0.13532 0.37452
#
# Static dielectric constant tensor:
#      x y z
#    x 4.342530 0.000000 -0.348800 
#    y 0.000000 4.206140 0.000000 
#    z -0.348800 0.000000 4.503360 
# 
# 
# High freq. dielectric constant tensor:
#      x y z
#    x 1.991820 0.000000 -0.033680 
#    y 0.000000 1.987800 0.000000 
#    z -0.033680 0.000000 1.991140 
# 
# From -- ./inp_files/109488.got.cif
#   From: 2010.06.25/outbox.cif.g09.slc.cpg/sg15_55_cif.got.tgz:109488.got - 2010.06.28 07:06:18.
