data_PCOD8150160
_publ_section_title
;
Structure prediction by ZEFSAII (Michael W. Deem and Ramdas Pophale) SiO2 
 PCOD8150160
Probable space group: C 2/C
;
_chemical_formula_sum "Si O2"
_cell_formula_units_Z 56
_cell_length_a 17.227479
_cell_length_b 8.731845
_cell_length_c 18.926872
_cell_angle_alpha 90.000000
_cell_angle_beta 67.078273
_cell_angle_gamma 90.000000
_cell_volume 2622.310037
_symmetry_space_group_name_H-M "C 2/C"
_symmetry_group_IT_number 15
_symmetry_cell_setting 'monoclinic'
loop_
_space_group_symop_operation_xyz
x,y,z
-x,y,1/2-z
-x,-y,-z
x,-y,1/2+z
1/2+x,1/2+y,z
1/2-x,1/2+y,1/2-z
1/2-x,1/2-y,-z
1/2+x,1/2-y,1/2+z
loop_
_atom_site_type_symbol
_atom_site_label
_atom_site_fract_x
_atom_site_fract_y
_atom_site_fract_z
Si Si1 0.310761 0.148470 0.931096
Si Si2 0.643953 0.131880 0.344261
Si Si3 0.386091 0.216028 0.633457
Si Si4 0.452499 0.853604 0.488810
Si Si5 0.097407 0.196900 0.720741
Si Si6 0.239668 0.320889 0.580373
Si Si7 0.839248 0.863587 0.794453
O O1 0.389105 0.092504 0.950071
O O2 0.351855 0.238544 0.850986
O O3 0.255133 0.004975 0.924206
O O4 0.250000 0.250000 0.000000
O O5 0.601039 0.216901 0.426869
O O6 0.632823 0.244701 0.282750
O O7 0.741339 0.102391 0.323267
O O8 0.606902 0.962269 0.346683
O O9 0.475599 0.263131 0.565353
O O10 0.310118 0.251558 0.607004
O O11 0.377252 0.310282 0.707409
O O12 0.500000 0.000000 0.500000
O O13 0.146507 0.282128 0.640974
O O14 0.000000 0.240201 0.750000
O O15 0.111131 0.017170 0.704126
O O16 0.250000 0.250000 0.500000
#
# Coordination Sequence:
#
# PCOD8150160 Si02
#       7
#     8   8   8   8   8   8   8
#     4  12  26  45  74 105 139 186 237 293 356 427
#     4  11  21  48  71  96 140 187 236 278 356 430
#     4  11  25  43  71 103 135 188 233 288 352 419
#     4  10  24  44  70 102 135 182 233 289 349 424
#     4  12  29  44  71 108 143 183 237 300 348 418
#     4  12  25  46  73 102 140 186 235 291 357 423
#     4  12  24  46  68 101 144 185 230 287 357 424
#
# _framework density 21.355219000000002
#
# number of rings (size 3 to 8) (size 9 to 14) (size 15 to 20)
#    0.000    0.571    4.286    3.429   10.000    0.000 
#    0.000    1.429    0.000    0.000    0.000    0.000 
#    0.000    0.000    0.000    0.000    0.000    0.000 
#
# Total GULP energy -347241.306405 kJ/mol
# GULP energy per Si atom -12401.475229 kJ/mol
# Density = 2.130661 g / cm^3
# Si number density = 21.355219 Si / 1000 Ang^3
#
#
#
# Elastic Constant Matrix: (Units=GPa)
#
#
# Indices 1 2 3 4 5 6 
#
# 1 96.4657 9.2689 31.5982 0.0000 -10.1379 0.0000
# 2 9.2689 108.8410 42.9086 0.0001 2.9200 -0.0001
# 3 31.5982 42.9086 167.3730 0.0000 -15.5950 0.0000
# 4 0.0000 0.0001 0.0000 17.5520 0.0000 7.7025
# 5 -10.1379 2.9200 -15.5950 0.0000 50.0268 0.0000
# 6 0.0000 -0.0001 0.0000 7.7025 0.0000 24.7338
#
#
#
# Elastic Compliance Matrix: (Units=1/GPa)
#
#
# Indices 1 2 3 4 5 6 
#
# 1 0.011188 -0.000253 -0.001889 0.000000 0.001693 0.000000
# 2 -0.000253 0.010330 -0.002741 0.000000 -0.001509 0.000000
# 3 -0.001889 -0.002741 0.007223 0.000000 0.002029 0.000000
# 4 0.000000 0.000000 0.000000 0.065992 0.000000 -0.020551
# 5 0.001693 -0.001509 0.002029 0.000000 0.021053 0.000000
# 6 0.000000 0.000000 0.000000 -0.020551 0.000000 0.046830
#
#
# Mechanical properties :
#
#
# Convention : Reuss Voigt Hill
#
# Bulk Modulus (GPa) = 52.70526 60.02568 56.36547
# Shear Modulus (GPa) = 27.97855 37.72278 32.85066
#
# Velocity S-wave (km/s) = 3.62353 4.20747 3.92637
# Velocity P-wave (km/s) = 6.49926 7.19534 6.85614
#
# Compressibility (1/GPa) = 0.01897344
#
# Stress axis : x y z
#
# Youngs Moduli (GPa) = 89.38527 96.80164 138.44385
#
# Poissons Ratio (x) = 0.02452 0.26158
# Poissons Ratio (y) = 0.02264 0.37949
# Poissons Ratio (z) = 0.16889 0.26535
#
# Static dielectric constant tensor:
#      x y z
#    x 4.235130 0.000000 -0.354620 
#    y 0.000000 3.734130 0.000000 
#    z -0.354620 0.000000 4.563310 
# 
# 
# High freq. dielectric constant tensor:
#      x y z
#    x 1.842140 0.000000 -0.009770 
#    y 0.000000 1.825850 0.000000 
#    z -0.009770 0.000000 1.865170 
# 
# From -- ./inp_files/209534.got.cif
#   From: 2010.06.25/outbox.cif.g09.slc.cpg/sg15_105_cif.got.tgz:209534.got - 2010.06.28 07:06:18.
