data_PCOD8150839
_publ_section_title
;
Structure prediction by ZEFSAII (Michael W. Deem and Ramdas Pophale) SiO2 
 PCOD8150839
Probable space group: C 2/C
;
_chemical_formula_sum "Si O2"
_cell_formula_units_Z 60
_cell_length_a 12.299551
_cell_length_b 11.159133
_cell_length_c 20.239619
_cell_angle_alpha 90.000000
_cell_angle_beta 114.146507
_cell_angle_gamma 90.000000
_cell_volume 2534.872244
_symmetry_space_group_name_H-M "C 2/C"
_symmetry_group_IT_number 15
_symmetry_cell_setting 'monoclinic'
loop_
_space_group_symop_operation_xyz
x,y,z
-x,y,1/2-z
-x,-y,-z
x,-y,1/2+z
1/2+x,1/2+y,z
1/2-x,1/2+y,1/2-z
1/2-x,1/2-y,-z
1/2+x,1/2-y,1/2+z
loop_
_atom_site_type_symbol
_atom_site_label
_atom_site_fract_x
_atom_site_fract_y
_atom_site_fract_z
Si Si1 0.526127 0.699859 0.055225
Si Si2 0.000000 0.172458 0.250000
Si Si3 0.810447 0.739835 0.792560
Si Si4 0.871919 0.206143 0.560348
Si Si5 0.109852 0.430038 0.493788
Si Si6 0.415716 0.940506 0.637551
Si Si7 0.136584 0.050656 0.394966
Si Si8 0.674077 0.980816 0.741744
O O1 0.654584 0.730363 0.122168
O O2 0.457455 0.588303 0.071205
O O3 0.540633 0.682660 0.980287
O O4 0.435658 0.806594 0.046133
O O5 0.935013 0.261352 0.284197
O O6 0.908311 0.088297 0.188023
O O7 0.756553 0.604132 0.765645
O O8 0.736646 0.851994 0.743565
O O9 0.750000 0.250000 0.500000
O O10 0.922348 0.298135 0.627575
O O11 0.855683 0.091176 0.601173
O O12 0.155458 0.505962 0.442396
O O13 0.226463 0.403723 0.566675
O O14 0.000000 0.500000 0.500000
O O15 0.551327 0.985103 0.671375
O O16 0.345675 0.982487 0.684644
#
# Coordination Sequence:
#
# PCOD8150839 Si02
#       8
#     8   4   8   8   8   8   8   8
#     4  11  24  44  69 103 139 182 245 296 359 433
#     4  10  26  46  68 102 144 180 238 286 360 430
#     4  11  25  45  72 102 139 193 229 301 353 431
#     4  12  23  43  68 100 142 183 233 297 365 427
#     4  12  23  44  73 101 136 184 244 286 358 428
#     4  11  24  44  68 100 133 189 228 290 345 437
#     4  11  26  44  70 105 142 188 233 308 360 427
#     4  11  26  45  72 100 146 181 244 286 364 424
#
# _framework density 23.669830999999999
#
# number of rings (size 3 to 8) (size 9 to 14) (size 15 to 20)
#    0.000    0.800    4.000    2.400    3.733    5.333 
#    2.400    0.000    0.000    0.000    0.000    0.000 
#    0.000    0.000    0.000    0.000    0.000    0.000 
#
# Total GULP energy -371817.326112 kJ/mol
# GULP energy per Si atom -12393.910870 kJ/mol
# Density = 2.361596 g / cm^3
# Si number density = 23.669831 Si / 1000 Ang^3
#
#
#
# Elastic Constant Matrix: (Units=GPa)
#
#
# Indices 1 2 3 4 5 6 
#
# 1 59.4157 7.1760 16.0831 0.0000 9.3542 0.0000
# 2 7.1760 146.2960 25.1215 0.0000 15.4011 0.0000
# 3 16.0831 25.1215 109.8828 0.0000 12.4348 0.0000
# 4 0.0000 0.0000 0.0000 38.5053 0.0000 7.3934
# 5 9.3542 15.4011 12.4348 0.0000 30.9351 0.0000
# 6 0.0000 0.0000 0.0000 7.3934 0.0000 26.6670
#
#
#
# Elastic Compliance Matrix: (Units=1/GPa)
#
#
# Indices 1 2 3 4 5 6 
#
# 1 0.018136 -0.000040 -0.002124 0.000000 -0.004611 0.000000
# 2 -0.000040 0.007396 -0.001330 0.000000 -0.003135 0.000000
# 3 -0.002124 -0.001330 0.010024 0.000000 -0.002725 0.000000
# 4 0.000000 0.000000 0.000000 0.027431 0.000000 -0.007605
# 5 -0.004611 -0.003135 -0.002725 0.000000 0.036376 0.000000
# 6 0.000000 0.000000 0.000000 -0.007605 0.000000 0.039608
#
#
# Mechanical properties :
#
#
# Convention : Reuss Voigt Hill
#
# Bulk Modulus (GPa) = 35.00308 45.81731 40.41019
# Shear Modulus (GPa) = 32.15832 37.03574 34.59703
#
# Velocity S-wave (km/s) = 3.68995 3.95990 3.82730
# Velocity P-wave (km/s) = 5.74234 6.34875 6.05314
#
# Compressibility (1/GPa) = 0.02856892
#
# Stress axis : x y z
#
# Youngs Moduli (GPa) = 55.13868 135.21007 99.76140
#
# Poissons Ratio (x) = 0.00535 0.21186
# Poissons Ratio (y) = 0.00218 0.13271
# Poissons Ratio (z) = 0.11710 0.17986
#
# Static dielectric constant tensor:
#      x y z
#    x 4.139940 0.000000 -0.051740 
#    y 0.000000 4.695020 0.000000 
#    z -0.051740 0.000000 4.464530 
# 
# 
# High freq. dielectric constant tensor:
#      x y z
#    x 1.927070 0.000000 -0.009690 
#    y 0.000000 1.948840 0.000000 
#    z -0.009690 0.000000 1.939590 
# 
# From -- ./inp_files/243767.got.cif
#   From: 2010.06.25/outbox.cif.g09.slc.cpg/sg15_122_cif.got.tgz:243767.got - 2010.06.28 07:06:18.
