data_PCOD8150946
_publ_section_title
;
Structure prediction by ZEFSAII (Michael W. Deem and Ramdas Pophale) SiO2 
 PCOD8150946
Probable space group: C 2/C
;
_chemical_formula_sum "Si O2"
_cell_formula_units_Z 48
_cell_length_a 16.527455
_cell_length_b 8.707623
_cell_length_c 27.432882
_cell_angle_alpha 90.000000
_cell_angle_beta 45.020057
_cell_angle_gamma 90.000000
_cell_volume 2792.633960
_symmetry_space_group_name_H-M "C 2/C"
_symmetry_group_IT_number 15
_symmetry_cell_setting 'monoclinic'
loop_
_space_group_symop_operation_xyz
x,y,z
-x,y,1/2-z
-x,-y,-z
x,-y,1/2+z
1/2+x,1/2+y,z
1/2-x,1/2+y,1/2-z
1/2-x,1/2-y,-z
1/2+x,1/2-y,1/2+z
loop_
_atom_site_type_symbol
_atom_site_label
_atom_site_fract_x
_atom_site_fract_y
_atom_site_fract_z
Si Si1 0.986099 0.010445 0.926319
Si Si2 0.073995 0.300294 0.594368
Si Si3 0.335081 0.314358 0.923545
Si Si4 0.219446 0.392625 0.449697
Si Si5 0.170445 0.108311 0.418425
Si Si6 0.413106 0.027203 0.830112
O O1 0.941683 0.892968 0.904918
O O2 0.099291 0.937892 0.901247
O O3 0.017005 0.174542 0.887354
O O4 0.886533 0.037165 0.008703
O O5 0.115579 0.409828 0.532517
O O6 0.181378 0.205982 0.568037
O O7 0.026350 0.409051 0.657581
O O8 0.266644 0.437090 0.918245
O O9 0.385708 0.187150 0.867056
O O10 0.250000 0.250000 0.000000
O O11 0.176084 0.295421 0.420961
O O12 0.296753 0.041994 0.358142
O O13 0.500000 0.059337 0.750000
#
# Coordination Sequence:
#
# PCOD8150946 Si02
#       6
#     8   8   8   8   8   8
#     4   9  17  31  56  77 100 129 171 218 260 302
#     4   8  14  29  49  73  92 131 170 202 251 313
#     4  11  17  31  51  75 102 138 175 218 259 304
#     4   8  14  27  51  72  98 126 172 209 244 303
#     4   9  17  33  52  79 101 128 170 219 258 309
#     4  11  21  33  50  74 105 137 174 217 265 315
#
# _framework density 17.188072999999999
#
# number of rings (size 3 to 8) (size 9 to 14) (size 15 to 20)
#    0.000    2.667    3.333    2.000    0.000    0.000 
#    0.000   11.667    0.000    0.000    0.000    0.000 
#    0.000    0.000    0.000    0.000    0.000    0.000 
#
# Total GULP energy -297394.582708 kJ/mol
# GULP energy per Si atom -12391.440946 kJ/mol
# Density = 1.714895 g / cm^3
# Si number density = 17.188073 Si / 1000 Ang^3
#
#
#
# Elastic Constant Matrix: (Units=GPa)
#
#
# Indices 1 2 3 4 5 6 
#
# 1 90.2439 56.0099 32.3351 -0.0001 6.3729 0.0001
# 2 56.0099 133.2655 61.8418 -0.0001 10.3408 0.0001
# 3 32.3351 61.8418 102.0526 0.0000 1.0042 -0.0001
# 4 -0.0001 -0.0001 0.0000 22.0362 0.0000 6.6981
# 5 6.3729 10.3408 1.0042 0.0000 14.7352 -0.0001
# 6 0.0001 0.0001 -0.0001 6.6981 -0.0001 33.3313
#
#
#
# Elastic Compliance Matrix: (Units=1/GPa)
#
#
# Indices 1 2 3 4 5 6 
#
# 1 0.015209 -0.005517 -0.001450 0.000000 -0.002607 0.000000
# 2 -0.005517 0.013192 -0.006183 0.000000 -0.006451 0.000000
# 3 -0.001450 -0.006183 0.013965 0.000000 0.004014 0.000000
# 4 0.000000 0.000000 0.000000 0.048332 0.000000 -0.009713
# 5 -0.002607 -0.006451 0.004014 0.000000 0.073246 0.000000
# 6 0.000000 0.000000 0.000000 -0.009713 0.000000 0.031954
#
#
# Mechanical properties :
#
#
# Convention : Reuss Voigt Hill
#
# Bulk Modulus (GPa) = 62.23919 69.54841 65.89380
# Shear Modulus (GPa) = 21.97290 25.71219 23.84255
#
# Velocity S-wave (km/s) = 3.57932 3.87192 3.72850
# Velocity P-wave (km/s) = 7.30557 7.78075 7.54690
#
# Compressibility (1/GPa) = 0.01606705
#
# Stress axis : x y z
#
# Youngs Moduli (GPa) = 65.75130 75.80306 71.60545
#
# Poissons Ratio (x) = 0.41819 0.10384
# Poissons Ratio (y) = 0.36274 0.44271
# Poissons Ratio (z) = 0.09535 0.46867
#
# Static dielectric constant tensor:
#      x y z
#    x 3.220010 0.000000 0.181570 
#    y 0.000000 3.604940 0.000000 
#    z 0.181570 0.000000 3.022050 
# 
# 
# High freq. dielectric constant tensor:
#      x y z
#    x 1.642970 0.000000 0.008240 
#    y 0.000000 1.676180 0.000000 
#    z 0.008240 0.000000 1.617940 
# 
# From -- ./inp_files/208646.got.cif
#   From: 2010.06.25/outbox.cif.g09.slc.cpg/sg15_105_cif.got.tgz:208646.got - 2010.06.28 07:06:18.
