data_PCOD8150410
_publ_section_title
;
Structure prediction by ZEFSAII (Michael W. Deem and Ramdas Pophale) SiO2 
 PCOD8150410
Probable space group: C 2/C
;
_chemical_formula_sum "Si O2"
_cell_formula_units_Z 44
_cell_length_a 30.614672
_cell_length_b 7.702231
_cell_length_c 8.507488
_cell_angle_alpha 90.000000
_cell_angle_beta 86.029160
_cell_angle_gamma 90.000000
_cell_volume 2001.260782
_symmetry_space_group_name_H-M "C 2/C"
_symmetry_group_IT_number 15
_symmetry_cell_setting 'monoclinic'
loop_
_space_group_symop_operation_xyz
x,y,z
-x,y,1/2-z
-x,-y,-z
x,-y,1/2+z
1/2+x,1/2+y,z
1/2-x,1/2+y,1/2-z
1/2-x,1/2-y,-z
1/2+x,1/2-y,1/2+z
loop_
_atom_site_type_symbol
_atom_site_label
_atom_site_fract_x
_atom_site_fract_y
_atom_site_fract_z
Si Si1 0.885506 0.784444 0.046554
Si Si2 0.620873 0.637081 0.586988
Si Si3 0.063399 0.425292 0.480212
Si Si4 0.500000 0.004431 0.250000
Si Si5 0.203415 0.702619 0.948254
Si Si6 0.703685 0.822785 0.072795
O O1 0.886417 0.817786 0.231136
O O2 0.916054 0.618740 0.003273
O O3 0.835728 0.778603 0.998772
O O4 0.902767 0.955743 0.950851
O O5 0.601452 0.787355 0.480946
O O6 0.671792 0.646891 0.524530
O O7 0.039259 0.395661 0.320035
O O8 0.025079 0.380393 0.614898
O O9 0.201632 0.697259 0.760512
O O10 0.250000 0.750000 0.000000
O O11 0.192862 0.518342 0.027022
O O12 0.750000 0.750000 0.000000
#
# Coordination Sequence:
#
# PCOD8150410 Si02
#       6
#     8   8   8   4   8   8
#     4  12  26  44  72 105 142 189 237 288 354 423
#     4  12  26  44  72 105 142 189 237 288 354 423
#     4  11  24  48  74 104 144 182 236 288 368 417
#     4  10  24  46  78 102 138 186 228 302 354 436
#     4  12  25  43  67  99 142 187 237 291 345 411
#     4  12  25  43  67  99 142 187 237 291 345 411
#
# _framework density 21.986139000000001
#
# number of rings (size 3 to 8) (size 9 to 14) (size 15 to 20)
#    0.000    0.364    3.636    5.455    5.091    0.000 
#    0.000    5.455    0.000    0.000    0.000    0.000 
#    0.000    0.000    0.000    0.000    0.000    0.000 
#
# Total GULP energy -272672.429246 kJ/mol
# GULP energy per Si atom -12394.201329 kJ/mol
# Density = 2.193610 g / cm^3
# Si number density = 21.986139 Si / 1000 Ang^3
#
#
#
# Elastic Constant Matrix: (Units=GPa)
#
#
# Indices 1 2 3 4 5 6 
#
# 1 107.6346 35.0391 29.6711 0.0000 20.8611 0.0000
# 2 35.0391 135.0830 23.9050 0.0000 10.7828 0.0000
# 3 29.6711 23.9050 81.0163 0.0000 19.2534 0.0000
# 4 0.0000 0.0000 0.0000 75.4917 0.0000 56.3611
# 5 20.8611 10.7828 19.2534 0.0000 50.1731 0.0000
# 6 0.0000 0.0000 0.0000 56.3611 0.0000 81.9980
#
#
#
# Elastic Compliance Matrix: (Units=1/GPa)
#
#
# Indices 1 2 3 4 5 6 
#
# 1 0.011392 -0.002211 -0.002759 0.000000 -0.003203 0.000000
# 2 -0.002211 0.008275 -0.001571 0.000000 -0.000256 0.000000
# 3 -0.002759 -0.001571 0.014815 0.000000 -0.004201 0.000000
# 4 0.000000 0.000000 0.000000 0.027209 0.000000 -0.018702
# 5 -0.003203 -0.000256 -0.004201 0.000000 0.022930 0.000000
# 6 0.000000 0.000000 0.000000 -0.018702 0.000000 0.025050
#
#
# Mechanical properties :
#
#
# Convention : Reuss Voigt Hill
#
# Bulk Modulus (GPa) = 46.72740 55.66269 51.19505
# Shear Modulus (GPa) = 38.49537 57.20714 47.85125
#
# Velocity S-wave (km/s) = 4.18891 5.10648 4.67028
# Velocity P-wave (km/s) = 6.68544 7.75502 7.24001
#
# Compressibility (1/GPa) = 0.02140072
#
# Stress axis : x y z
#
# Youngs Moduli (GPa) = 87.78373 120.84835 67.49796
#
# Poissons Ratio (x) = 0.26720 0.18619
# Poissons Ratio (y) = 0.19409 0.10604
# Poissons Ratio (z) = 0.24215 0.18985
#
# Static dielectric constant tensor:
#      x y z
#    x 4.269570 0.000000 0.279080 
#    y 0.000000 3.231800 0.000000 
#    z 0.279080 0.000000 4.263780 
# 
# 
# High freq. dielectric constant tensor:
#      x y z
#    x 1.876360 0.000000 0.011110 
#    y 0.000000 1.855340 0.000000 
#    z 0.011110 0.000000 1.887590 
# 
# From -- ./inp_files/68377.got.cif
#   From: 2010.06.25/outbox.cif.g09.slc.cpg/sg15_35_cif.got.tgz:68377.got - 2010.06.28 07:06:18.
