data_PCOD8150317
_publ_section_title
;
Structure prediction by ZEFSAII (Michael W. Deem and Ramdas Pophale) SiO2 
 PCOD8150317
Probable space group: C 2/C
;
_chemical_formula_sum "Si O2"
_cell_formula_units_Z 52
_cell_length_a 21.226251
_cell_length_b 9.755569
_cell_length_c 13.393914
_cell_angle_alpha 90.000000
_cell_angle_beta 109.487315
_cell_angle_gamma 90.000000
_cell_volume 2614.652607
_symmetry_space_group_name_H-M "C 2/C"
_symmetry_group_IT_number 15
_symmetry_cell_setting 'monoclinic'
loop_
_space_group_symop_operation_xyz
x,y,z
-x,y,1/2-z
-x,-y,-z
x,-y,1/2+z
1/2+x,1/2+y,z
1/2-x,1/2+y,1/2-z
1/2-x,1/2-y,-z
1/2+x,1/2-y,1/2+z
loop_
_atom_site_type_symbol
_atom_site_label
_atom_site_fract_x
_atom_site_fract_y
_atom_site_fract_z
Si Si1 0.662556 0.632794 0.600712
Si Si2 0.324729 0.880241 0.453571
Si Si3 0.883206 0.358155 0.076998
Si Si4 0.820955 0.092008 0.546288
Si Si5 0.500000 0.269760 0.750000
Si Si6 0.804537 0.287507 0.229154
Si Si7 0.888517 0.965746 0.758500
O O1 0.629516 0.739548 0.509222
O O2 0.688679 0.500796 0.555629
O O3 0.724446 0.703440 0.690214
O O4 0.608112 0.581711 0.653762
O O5 0.247428 0.917078 0.428161
O O6 0.341382 0.743414 0.523451
O O7 0.336811 0.863603 0.341608
O O8 0.375779 0.995671 0.519809
O O9 0.831192 0.353548 0.140833
O O10 0.957784 0.331491 0.156763
O O11 0.881502 0.037408 0.646970
O O12 0.453137 0.367506 0.792872
O O13 0.822879 0.127183 0.242887
#
# Coordination Sequence:
#
# PCOD8150317 Si02
#       7
#     8   8   8   8   4   8   8
#     4  12  21  36  68  93 123 167 211 268 333 376
#     4  11  23  36  62  98 135 159 200 272 342 383
#     4  11  24  41  62  90 130 172 217 258 317 379
#     4  11  21  38  60  98 129 157 208 272 328 388
#     4  10  24  46  64  86 134 182 224 262 292 380
#     4  11  21  35  62  94 130 159 201 274 334 380
#     4  11  23  41  63  96 129 170 222 259 313 386
#
# _framework density 19.887920000000001
#
# number of rings (size 3 to 8) (size 9 to 14) (size 15 to 20)
#    0.000    0.923    7.692    1.385    0.000    1.846 
#    0.000    3.846    0.000    0.000    0.000    0.000 
#    0.000    0.000    0.000    0.000    0.000    0.000 
#
# Total GULP energy -322442.855262 kJ/mol
# GULP energy per Si atom -12401.648279 kJ/mol
# Density = 1.984265 g / cm^3
# Si number density = 19.887920 Si / 1000 Ang^3
#
#
#
# Elastic Constant Matrix: (Units=GPa)
#
#
# Indices 1 2 3 4 5 6 
#
# 1 53.6286 40.1121 44.5045 0.0000 6.0705 0.0000
# 2 40.1121 115.9104 56.4910 0.0000 9.9612 0.0000
# 3 44.5045 56.4910 132.2481 0.0000 0.3661 0.0000
# 4 0.0000 0.0000 0.0000 43.5880 0.0000 -0.1742
# 5 6.0705 9.9612 0.3661 0.0000 33.1387 0.0000
# 6 0.0000 0.0000 0.0000 -0.1742 0.0000 29.6377
#
#
#
# Elastic Compliance Matrix: (Units=1/GPa)
#
#
# Indices 1 2 3 4 5 6 
#
# 1 0.029962 -0.006520 -0.007288 0.000000 -0.003448 0.000000
# 2 -0.006520 0.012670 -0.003211 0.000000 -0.002579 0.000000
# 3 -0.007288 -0.003211 0.011380 0.000000 0.002175 0.000000
# 4 0.000000 0.000000 0.000000 0.022943 0.000000 0.000135
# 5 -0.003448 -0.002579 0.002175 0.000000 0.031559 0.000000
# 6 0.000000 0.000000 0.000000 0.000135 0.000000 0.033742
#
#
# Mechanical properties :
#
#
# Convention : Reuss Voigt Hill
#
# Bulk Modulus (GPa) = 50.06658 64.88915 57.47786
# Shear Modulus (GPa) = 27.32954 31.98484 29.65719
#
# Velocity S-wave (km/s) = 3.71101 4.01466 3.86582
# Velocity P-wave (km/s) = 6.60236 7.36126 6.99212
#
# Compressibility (1/GPa) = 0.01997340
#
# Stress axis : x y z
#
# Youngs Moduli (GPa) = 33.37525 78.92478 87.87580
#
# Poissons Ratio (x) = 0.51463 0.64045
# Poissons Ratio (y) = 0.21762 0.28215
# Poissons Ratio (z) = 0.24324 0.25341
#
# Static dielectric constant tensor:
#      x y z
#    x 3.348820 0.000000 -0.138210 
#    y 0.000000 3.743530 0.000000 
#    z -0.138210 0.000000 3.715220 
# 
# 
# High freq. dielectric constant tensor:
#      x y z
#    x 1.742930 0.000000 -0.014540 
#    y 0.000000 1.781150 0.000000 
#    z -0.014540 0.000000 1.788020 
# 
# From -- ./inp_files/172055.got.cif
#   From: 2010.06.25/outbox.cif.g09.slc.cpg/sg15_87_cif.got.tgz:172055.got - 2010.06.28 07:06:18.
