data_PCOD8150687
_publ_section_title
;
Structure prediction by ZEFSAII (Michael W. Deem and Ramdas Pophale) SiO2 
 PCOD8150687
Probable space group: C 2/C
;
_chemical_formula_sum "Si O2"
_cell_formula_units_Z 52
_cell_length_a 8.788664
_cell_length_b 17.072618
_cell_length_c 21.766661
_cell_angle_alpha 90.000000
_cell_angle_beta 133.441738
_cell_angle_gamma 90.000000
_cell_volume 2371.350000
_symmetry_space_group_name_H-M "C 2/C"
_symmetry_group_IT_number 15
_symmetry_cell_setting 'monoclinic'
loop_
_space_group_symop_operation_xyz
x,y,z
-x,y,1/2-z
-x,-y,-z
x,-y,1/2+z
1/2+x,1/2+y,z
1/2-x,1/2+y,1/2-z
1/2-x,1/2-y,-z
1/2+x,1/2-y,1/2+z
loop_
_atom_site_type_symbol
_atom_site_label
_atom_site_fract_x
_atom_site_fract_y
_atom_site_fract_z
Si Si1 0.773473 0.466151 0.423049
Si Si2 0.655031 0.709129 0.914843
Si Si3 0.182733 0.722825 0.751393
Si Si4 0.676202 0.324070 0.634813
Si Si5 0.000000 0.549159 0.250000
Si Si6 0.594366 0.060405 0.667984
Si Si7 0.625316 0.555888 0.488892
O O1 0.738620 0.378960 0.438666
O O2 0.747153 0.469117 0.341801
O O3 0.611014 0.519529 0.415944
O O4 0.000000 0.500000 0.500000
O O5 0.404196 0.718527 0.847935
O O6 0.738235 0.748784 0.876245
O O7 0.750000 0.750000 0.000000
O O8 0.158102 0.799355 0.701163
O O9 0.166452 0.646361 0.705476
O O10 0.000000 0.726495 0.750000
O O11 0.464152 0.355759 0.543634
O O12 0.831397 0.397242 0.669225
O O13 0.883015 0.496057 0.267670
O O14 0.358263 0.064312 0.578395
O O15 0.500000 0.500000 0.500000
#
# Coordination Sequence:
#
# PCOD8150687 Si02
#       7
#     8   8   8   8   4   8   8
#     4  10  25  46  71 108 139 183 243 292 358 427
#     4  12  27  47  76 101 148 193 240 298 366 432
#     4  12  28  47  71 109 145 192 242 300 373 427
#     4  12  26  47  72 105 146 187 241 297 362 433
#     4  12  24  44  72 100 144 190 236 294 356 436
#     4  11  25  45  73 101 151 187 242 299 362 433
#     4  11  24  44  74 108 139 188 244 294 361 434
#
# _framework density 21.928436999999999
#
# number of rings (size 3 to 8) (size 9 to 14) (size 15 to 20)
#    0.000    0.615    5.385    0.923    8.615    4.308 
#    0.000    0.000    0.000    0.000    0.000    0.000 
#    0.000    0.000    0.000    0.000    0.000    0.000 
#
# Total GULP energy -322398.136522 kJ/mol
# GULP energy per Si atom -12399.928328 kJ/mol
# Density = 2.187853 g / cm^3
# Si number density = 21.928437 Si / 1000 Ang^3
#
#
#
# Elastic Constant Matrix: (Units=GPa)
#
#
# Indices 1 2 3 4 5 6 
#
# 1 131.3118 28.4439 45.0888 0.0000 -15.0005 0.0000
# 2 28.4439 98.5707 29.1902 0.0000 4.8281 0.0000
# 3 45.0888 29.1902 105.7944 0.0000 5.6454 0.0000
# 4 0.0000 0.0000 0.0000 48.2250 0.0000 -4.5613
# 5 -15.0005 4.8281 5.6454 0.0000 42.0244 0.0000
# 6 0.0000 0.0000 0.0000 -4.5613 0.0000 31.9545
#
#
#
# Elastic Compliance Matrix: (Units=1/GPa)
#
#
# Indices 1 2 3 4 5 6 
#
# 1 0.009853 -0.001896 -0.003903 0.000000 0.004259 0.000000
# 2 -0.001896 0.011444 -0.002259 0.000000 -0.001688 0.000000
# 3 -0.003903 -0.002259 0.011885 0.000000 -0.002730 0.000000
# 4 0.000000 0.000000 0.000000 0.021020 0.000000 0.003000
# 5 0.004259 -0.001688 -0.002730 0.000000 0.025877 0.000000
# 6 0.000000 0.000000 0.000000 0.003000 0.000000 0.031723
#
#
# Mechanical properties :
#
#
# Convention : Reuss Voigt Hill
#
# Bulk Modulus (GPa) = 58.60176 60.12474 59.36325
# Shear Modulus (GPa) = 37.42316 39.97104 38.69710
#
# Velocity S-wave (km/s) = 4.13559 4.27405 4.20539
# Velocity P-wave (km/s) = 7.04175 7.19964 7.12113
#
# Compressibility (1/GPa) = 0.01706434
#
# Stress axis : x y z
#
# Youngs Moduli (GPa) = 101.49167 87.38311 84.13947
#
# Poissons Ratio (x) = 0.16567 0.32844
# Poissons Ratio (y) = 0.19242 0.19011
# Poissons Ratio (z) = 0.39617 0.19744
#
# Static dielectric constant tensor:
#      x y z
#    x 4.373890 0.000000 -0.227830 
#    y 0.000000 4.072490 0.000000 
#    z -0.227830 0.000000 4.044990 
# 
# 
# High freq. dielectric constant tensor:
#      x y z
#    x 1.876110 0.000000 -0.008030 
#    y 0.000000 1.870380 0.000000 
#    z -0.008030 0.000000 1.865920 
# 
# From -- ./inp_files/233126.got.cif
#   From: 2010.06.25/outbox.cif.g09.slc.cpg/sg15_117_cif.got.tgz:233126.got - 2010.06.28 07:06:18.
