data_PCOD8150031
_publ_section_title
;
Structure prediction by ZEFSAII (Michael W. Deem and Ramdas Pophale) SiO2 
 PCOD8150031
Probable space group: C 2/C
;
_chemical_formula_sum "Si O2"
_cell_formula_units_Z 40
_cell_length_a 20.152241
_cell_length_b 7.439939
_cell_length_c 11.783629
_cell_angle_alpha 90.000000
_cell_angle_beta 84.189296
_cell_angle_gamma 90.000000
_cell_volume 1757.658685
_symmetry_space_group_name_H-M "C 2/C"
_symmetry_group_IT_number 15
_symmetry_cell_setting 'monoclinic'
loop_
_space_group_symop_operation_xyz
x,y,z
-x,y,1/2-z
-x,-y,-z
x,-y,1/2+z
1/2+x,1/2+y,z
1/2-x,1/2+y,1/2-z
1/2-x,1/2-y,-z
1/2+x,1/2-y,1/2+z
loop_
_atom_site_type_symbol
_atom_site_label
_atom_site_fract_x
_atom_site_fract_y
_atom_site_fract_z
Si Si1 0.605943 0.446949 0.542313
Si Si2 0.547645 0.913034 0.329834
Si Si3 0.491802 0.254223 0.438215
Si Si4 0.272282 0.617730 0.095183
Si Si5 0.679436 0.184416 0.699420
O O1 0.563433 0.314082 0.472177
O O2 0.553886 0.589018 0.609156
O O3 0.655081 0.544806 0.446770
O O4 0.647307 0.343370 0.630770
O O5 0.500000 0.801217 0.250000
O O6 0.552730 0.819320 0.450068
O O7 0.621861 0.933628 0.268724
O O8 0.508053 0.102135 0.344835
O O9 0.273602 0.724241 0.214120
O O10 0.221573 0.449861 0.113447
O O11 0.250000 0.750000 0.000000
#
# Coordination Sequence:
#
# PCOD8150031 Si02
#       5
#     8   8   8   8   8
#     4  11  24  46  70 103 141 180 236 295 358 419
#     4  11  23  43  71 102 137 181 234 287 356 426
#     4  10  24  43  72 103 139 178 225 303 353 413
#     4  12  29  47  70 101 142 190 240 296 347 422
#     4  12  27  46  73 102 142 192 242 286 362 424
#
# _framework density 22.757545
#
# number of rings (size 3 to 8) (size 9 to 14) (size 15 to 20)
#    0.000    0.800    4.000    1.800    8.400    1.600 
#    0.000    0.000    0.000    0.000    0.000    0.000 
#    0.000    0.000    0.000    0.000    0.000    0.000 
#
# Total GULP energy -248014.471582 kJ/mol
# GULP energy per Si atom -12400.723579 kJ/mol
# Density = 2.270575 g / cm^3
# Si number density = 22.757545 Si / 1000 Ang^3
#
#
#
# Elastic Constant Matrix: (Units=GPa)
#
#
# Indices 1 2 3 4 5 6 
#
# 1 102.4829 39.7044 32.7274 0.0000 2.6159 0.0000
# 2 39.7044 112.5260 50.5204 0.0000 8.0881 0.0000
# 3 32.7274 50.5204 96.7974 0.0000 16.3545 0.0000
# 4 0.0000 0.0000 0.0000 24.0160 0.0000 3.8723
# 5 2.6159 8.0881 16.3545 0.0000 40.2562 0.0000
# 6 0.0000 0.0000 0.0000 3.8723 0.0000 38.7305
#
#
#
# Elastic Compliance Matrix: (Units=1/GPa)
#
#
# Indices 1 2 3 4 5 6 
#
# 1 0.011728 -0.003075 -0.002508 0.000000 0.000875 0.000000
# 2 -0.003075 0.012413 -0.005424 0.000000 -0.000091 0.000000
# 3 -0.002508 -0.005424 0.014815 0.000000 -0.004766 0.000000
# 4 0.000000 0.000000 0.000000 0.042321 0.000000 -0.004231
# 5 0.000875 -0.000091 -0.004766 0.000000 0.026739 0.000000
# 6 0.000000 0.000000 0.000000 -0.004231 0.000000 0.026242
#
#
# Mechanical properties :
#
#
# Convention : Reuss Voigt Hill
#
# Bulk Modulus (GPa) = 59.02370 61.96788 60.49579
# Shear Modulus (GPa) = 30.87960 33.19083 32.03521
#
# Velocity S-wave (km/s) = 3.68760 3.82311 3.75597
# Velocity P-wave (km/s) = 6.64254 6.83937 6.74168
#
# Compressibility (1/GPa) = 0.01694235
#
# Stress axis : x y z
#
# Youngs Moduli (GPa) = 85.26872 80.55778 67.49961
#
# Poissons Ratio (x) = 0.24771 0.16929
# Poissons Ratio (y) = 0.26219 0.36611
# Poissons Ratio (z) = 0.21386 0.43693
#
# Static dielectric constant tensor:
#      x y z
#    x 4.102700 0.000000 -0.052090 
#    y 0.000000 4.276450 0.000000 
#    z -0.052090 0.000000 4.052910 
# 
# 
# High freq. dielectric constant tensor:
#      x y z
#    x 1.909800 0.000000 -0.000190 
#    y 0.000000 1.900760 0.000000 
#    z -0.000190 0.000000 1.900590 
# 
# From -- ./inp_files/102785.got.cif
#   From: 2010.06.25/outbox.cif.g09.slc.cpg/sg15_52_cif.got.tgz:102785.got - 2010.06.28 07:06:18.
