data_PCOD8150048
_publ_section_title
;
Structure prediction by ZEFSAII (Michael W. Deem and Ramdas Pophale) SiO2 
 PCOD8150048
Probable space group: C 2/C
;
_chemical_formula_sum "Si O2"
_cell_formula_units_Z 28
_cell_length_a 13.865383
_cell_length_b 17.419370
_cell_length_c 9.225436
_cell_angle_alpha 90.000000
_cell_angle_beta 28.409707
_cell_angle_gamma 90.000000
_cell_volume 1060.110701
_symmetry_space_group_name_H-M "C 2/C"
_symmetry_group_IT_number 15
_symmetry_cell_setting 'monoclinic'
loop_
_space_group_symop_operation_xyz
x,y,z
-x,y,1/2-z
-x,-y,-z
x,-y,1/2+z
1/2+x,1/2+y,z
1/2-x,1/2+y,1/2-z
1/2-x,1/2-y,-z
1/2+x,1/2-y,1/2+z
loop_
_atom_site_type_symbol
_atom_site_label
_atom_site_fract_x
_atom_site_fract_y
_atom_site_fract_z
Si Si1 0.241040 0.041003 0.836088
Si Si2 0.939064 0.838081 0.627157
Si Si3 0.000000 0.700281 0.750000
Si Si4 0.000000 0.514314 0.750000
Si Si5 0.500000 0.600917 0.750000
O O1 0.398672 0.066758 0.754028
O O2 0.336254 0.039498 0.548591
O O3 0.048207 0.097383 0.081994
O O4 0.183097 0.954395 0.958972
O O5 0.034415 0.842471 0.340554
O O6 0.974286 0.752920 0.641360
O O7 0.696206 0.853116 0.956151
#
# Coordination Sequence:
#
# PCOD8150048 Si02
#       5
#     8   8   4   4   4
#     4  11  23  47  73 124 149 193 245 325 389 459
#     4  11  25  51  75 106 155 193 270 305 374 462
#     4  10  27  53  76 102 143 227 250 314 364 440
#     4  10  24  43  77 117 154 191 240 300 426 432
#     4  12  25  44  75 115 153 190 242 336 382 448
#
# _framework density 26.412337000000001
#
# number of rings (size 3 to 8) (size 9 to 14) (size 15 to 20)
#    0.000    1.143    2.857    1.714    4.000    2.286 
#   20.571    1.429    0.000    0.000    0.000    0.000 
#    0.000    0.000    0.000    0.000    0.000    0.000 
#
# Total GULP energy -173483.667324 kJ/mol
# GULP energy per Si atom -12391.690523 kJ/mol
# Density = 2.635222 g / cm^3
# Si number density = 26.412337 Si / 1000 Ang^3
#
#
#
# Elastic Constant Matrix: (Units=GPa)
#
#
# Indices 1 2 3 4 5 6 
#
# 1 168.2291 34.9164 82.2200 0.0072 2.3414 -0.0052
# 2 34.9164 97.4117 63.1711 0.0032 9.8526 -0.0021
# 3 82.2200 63.1711 207.4877 0.0101 12.9857 -0.0060
# 4 0.0072 0.0032 0.0101 43.1954 -0.0116 -6.7175
# 5 2.3414 9.8526 12.9857 -0.0116 77.5588 0.0089
# 6 -0.0052 -0.0021 -0.0060 -6.7175 0.0089 23.7356
#
#
#
# Elastic Compliance Matrix: (Units=1/GPa)
#
#
# Indices 1 2 3 4 5 6 
#
# 1 0.007450 -0.000968 -0.002679 0.000000 0.000347 0.000001
# 2 -0.000968 0.012992 -0.003507 0.000000 -0.001034 0.000000
# 3 -0.002679 -0.003507 0.006989 -0.000001 -0.000644 0.000001
# 4 0.000000 0.000000 -0.000001 0.024216 0.000003 0.006854
# 5 0.000347 -0.001034 -0.000644 0.000003 0.013122 -0.000004
# 6 0.000001 0.000000 0.000001 0.006854 -0.000004 0.044071
#
#
# Mechanical properties :
#
#
# Convention : Reuss Voigt Hill
#
# Bulk Modulus (GPa) = 76.20632 92.63818 84.42225
# Shear Modulus (GPa) = 39.20894 48.41937 43.81415
#
# Velocity S-wave (km/s) = 3.85709 4.28625 4.07732
# Velocity P-wave (km/s) = 6.98222 7.72307 7.36197
#
# Compressibility (1/GPa) = 0.01312227
#
# Stress axis : x y z
#
# Youngs Moduli (GPa) = 134.23343 76.97290 143.07758
#
# Poissons Ratio (x) = 0.07451 0.38331
# Poissons Ratio (y) = 0.12994 0.50178
# Poissons Ratio (z) = 0.35962 0.26995
#
# Static dielectric constant tensor:
#      x y z
#    x 5.218280 -0.000040 0.070700 
#    y -0.000040 4.358280 0.000040 
#    z 0.070700 0.000040 4.960010 
# 
# 
# High freq. dielectric constant tensor:
#      x y z
#    x 2.082210 0.000000 0.014780 
#    y 0.000000 2.034050 0.000000 
#    z 0.014780 0.000000 2.084950 
# 
# From -- ./inp_files/41154.got.cif
#   From: 2010.06.25/outbox.cif.g09.slc.cpg/sg15_21_cif.got.tgz:41154.got - 2010.06.28 07:06:18.
