data_PCOD8150908
_publ_section_title
;
Structure prediction by ZEFSAII (Michael W. Deem and Ramdas Pophale) SiO2 
 PCOD8150908
Probable space group: C 2/C
;
_chemical_formula_sum "Si O2"
_cell_formula_units_Z 52
_cell_length_a 15.622951
_cell_length_b 22.151673
_cell_length_c 8.813895
_cell_angle_alpha 90.000000
_cell_angle_beta 132.855947
_cell_angle_gamma 90.000000
_cell_volume 2236.045272
_symmetry_space_group_name_H-M "C 2/C"
_symmetry_group_IT_number 15
_symmetry_cell_setting 'monoclinic'
loop_
_space_group_symop_operation_xyz
x,y,z
-x,y,1/2-z
-x,-y,-z
x,-y,1/2+z
1/2+x,1/2+y,z
1/2-x,1/2+y,1/2-z
1/2-x,1/2-y,-z
1/2+x,1/2-y,1/2+z
loop_
_atom_site_type_symbol
_atom_site_label
_atom_site_fract_x
_atom_site_fract_y
_atom_site_fract_z
Si Si1 0.647431 0.434339 0.175646
Si Si2 0.840186 0.711896 0.203200
Si Si3 0.104034 0.322898 0.259304
Si Si4 0.109819 0.394057 0.961096
Si Si5 0.306129 0.309890 0.683213
Si Si6 0.523392 0.674425 0.609728
Si Si7 0.000000 0.996889 0.750000
O O1 0.787958 0.441729 0.369934
O O2 0.632093 0.361450 0.168792
O O3 0.573470 0.463618 0.221398
O O4 0.598624 0.457640 0.956406
O O5 0.857753 0.650103 0.137389
O O6 0.792840 0.702038 0.312277
O O7 0.957279 0.752826 0.367879
O O8 0.750000 0.750000 0.000000
O O9 0.233258 0.347722 0.468398
O O10 0.130398 0.251263 0.294837
O O11 0.000000 0.338594 0.250000
O O12 0.071254 0.353441 0.059768
O O13 0.000000 0.429721 0.750000
O O14 0.411066 0.348740 0.879052
O O15 0.500000 0.651782 0.750000
#
# Coordination Sequence:
#
# PCOD8150908 Si02
#       7
#     8   8   8   8   8   8   4
#     4  11  24  46  72  99 125 166 215 287 358 390
#     4  12  20  36  59  93 140 182 225 260 303 405
#     4  11  23  38  51  86 139 184 218 270 315 373
#     4  12  24  42  68  99 138 181 223 266 331 417
#     4  11  22  34  54  84 130 183 230 262 308 374
#     4  12  20  33  62  95 126 174 219 256 322 397
#     4  10  26  50  72  98 130 154 222 308 346 396
#
# _framework density 23.255344999999998
#
# number of rings (size 3 to 8) (size 9 to 14) (size 15 to 20)
#    0.000    0.615    5.385    3.231    2.154    1.231 
#    0.000    0.769    0.000    0.000    0.000    0.000 
#    0.000    0.000    0.000    0.000    0.000    0.000 
#
# Total GULP energy -322103.213121 kJ/mol
# GULP energy per Si atom -12388.585120 kJ/mol
# Density = 2.320241 g / cm^3
# Si number density = 23.255345 Si / 1000 Ang^3
#
#
#
# Elastic Constant Matrix: (Units=GPa)
#
#
# Indices 1 2 3 4 5 6 
#
# 1 84.3516 10.0245 35.0834 0.0000 0.5106 0.0000
# 2 10.0245 40.1023 17.7440 0.0000 4.2224 0.0000
# 3 35.0834 17.7440 207.8983 0.0000 31.4286 0.0000
# 4 0.0000 0.0000 0.0000 19.3583 0.0000 18.1429
# 5 0.5106 4.2224 31.4286 0.0000 41.2642 0.0000
# 6 0.0000 0.0000 0.0000 18.1429 0.0000 1.4831
#
#
#
# Elastic Compliance Matrix: (Units=1/GPa)
#
#
# Indices 1 2 3 4 5 6 
#
# 1 0.013081 -0.002456 -0.002273 0.000000 0.001821 0.000000
# 2 -0.002456 0.026420 -0.001623 0.000000 -0.001437 0.000000
# 3 -0.002273 -0.001623 0.005993 0.000000 -0.004370 0.000000
# 4 0.000000 0.000000 0.000000 -0.004936 0.000000 0.060385
# 5 0.001821 -0.001437 -0.004370 0.000000 0.027687 0.000000
# 6 0.000000 0.000000 0.000000 0.060385 0.000000 -0.064430
#
#
# Mechanical properties :
#
#
# Convention : Reuss Voigt Hill
#
# Bulk Modulus (GPa) = 30.49785 50.89512 40.69649
# Shear Modulus (GPa) = 182.15552 30.38782 106.27167
#
# Velocity S-wave (km/s) = 8.85994 3.61876 6.76734
# Velocity P-wave (km/s) = 10.85392 6.27641 8.86569
#
# Compressibility (1/GPa) = 0.03278919
#
# Stress axis : x y z
#
# Youngs Moduli (GPa) = 76.44421 37.85063 166.86564
#
# Poissons Ratio (x) = 0.09296 0.37931
# Poissons Ratio (y) = 0.18774 0.27087
# Poissons Ratio (z) = 0.17377 0.06144
#
# Static dielectric constant tensor:
#      x y z
#    x 3.954910 0.000000 0.469870 
#    y 0.000000 3.662480 0.000000 
#    z 0.469870 0.000000 4.846650 
# 
# 
# High freq. dielectric constant tensor:
#      x y z
#    x 1.924910 0.000000 0.003050 
#    y 0.000000 1.850610 0.000000 
#    z 0.003050 0.000000 1.966620 
# 
# From -- ./inp_files/44347.got.cif
#   From: 2010.06.25/outbox.cif.g09.slc.cpg/sg15_23_cif.got.tgz:44347.got - 2010.06.28 07:06:18.
