data_PCOD8150399
_publ_section_title
;
Structure prediction by ZEFSAII (Michael W. Deem and Ramdas Pophale) SiO2 
 PCOD8150399
Probable space group: C 2/C
;
_chemical_formula_sum "Si O2"
_cell_formula_units_Z 44
_cell_length_a 10.904571
_cell_length_b 19.693317
_cell_length_c 9.318969
_cell_angle_alpha 90.000000
_cell_angle_beta 72.418856
_cell_angle_gamma 90.000000
_cell_volume 1907.745413
_symmetry_space_group_name_H-M "C 2/C"
_symmetry_group_IT_number 15
_symmetry_cell_setting 'monoclinic'
loop_
_space_group_symop_operation_xyz
x,y,z
-x,y,1/2-z
-x,-y,-z
x,-y,1/2+z
1/2+x,1/2+y,z
1/2-x,1/2+y,1/2-z
1/2-x,1/2-y,-z
1/2+x,1/2-y,1/2+z
loop_
_atom_site_type_symbol
_atom_site_label
_atom_site_fract_x
_atom_site_fract_y
_atom_site_fract_z
Si Si1 0.000000 0.765398 0.250000
Si Si2 0.584000 0.186939 0.963913
Si Si3 0.056529 0.438649 0.889793
Si Si4 0.500000 0.710672 0.250000
Si Si5 0.682166 0.404436 0.593017
Si Si6 0.500000 0.488958 0.250000
Si Si7 0.683297 0.626729 0.783188
O O1 0.081258 0.812021 0.330119
O O2 0.902262 0.720982 0.382563
O O3 0.537157 0.242432 0.869278
O O4 0.713316 0.147525 0.873335
O O5 0.475112 0.130584 0.017243
O O6 0.000000 0.442177 0.750000
O O7 0.212219 0.437765 0.836920
O O8 0.000000 0.500000 0.000000
O O9 0.374723 0.664857 0.322005
O O10 0.567907 0.460087 0.611057
O O11 0.745920 0.385505 0.416927
O O12 0.386862 0.443174 0.228076
#
# Coordination Sequence:
#
# PCOD8150399 Si02
#       7
#     4   8   8   4   8   4   8
#     4  11  24  45  69 112 147 194 240 296 373 438
#     4  12  25  46  73 108 153 192 244 303 372 445
#     4  12  30  49  73 107 146 199 251 306 370 437
#     4  11  26  45  81 116 145 196 240 306 381 436
#     4  11  25  47  75 108 153 187 253 304 370 445
#     4  10  24  46  74 108 146 196 250 304 368 428
#     4  11  24  44  74 110 149 193 243 304 366 444
#
# _framework density 23.063873000000001
#
# number of rings (size 3 to 8) (size 9 to 14) (size 15 to 20)
#    0.000    0.727    2.727    3.273    8.909    2.909 
#    3.273    0.000    0.000    0.000    0.000    0.000 
#    0.000    0.000    0.000    0.000    0.000    0.000 
#
# Total GULP energy -272724.749020 kJ/mol
# GULP energy per Si atom -12396.579501 kJ/mol
# Density = 2.301138 g / cm^3
# Si number density = 23.063873 Si / 1000 Ang^3
#
#
#
# Elastic Constant Matrix: (Units=GPa)
#
#
# Indices 1 2 3 4 5 6 
#
# 1 120.4653 54.4993 56.3707 0.0000 4.1723 0.0000
# 2 54.4993 163.2562 70.3862 0.0000 -0.5269 0.0000
# 3 56.3707 70.3862 154.2033 0.0000 2.2541 0.0000
# 4 0.0000 0.0000 0.0000 29.7123 0.0000 -12.2453
# 5 4.1723 -0.5269 2.2541 0.0000 37.3112 0.0000
# 6 0.0000 0.0000 0.0000 -12.2453 0.0000 30.5670
#
#
#
# Elastic Compliance Matrix: (Units=1/GPa)
#
#
# Indices 1 2 3 4 5 6 
#
# 1 0.010732 -0.002367 -0.002827 0.000000 -0.001063 0.000000
# 2 -0.002367 0.008152 -0.002864 0.000000 0.000553 0.000000
# 3 -0.002827 -0.002864 0.008829 0.000000 -0.000258 0.000000
# 4 0.000000 0.000000 0.000000 0.040312 0.000000 0.016149
# 5 -0.001063 0.000553 -0.000258 0.000000 0.026944 0.000000
# 6 0.000000 0.000000 0.000000 0.016149 0.000000 0.039184
#
#
# Mechanical properties :
#
#
# Convention : Reuss Voigt Hill
#
# Bulk Modulus (GPa) = 86.22773 88.93746 87.58260
# Shear Modulus (GPa) = 32.43921 36.62934 34.53427
#
# Velocity S-wave (km/s) = 3.75439 3.98951 3.87374
# Velocity P-wave (km/s) = 7.50078 7.73735 7.61998
#
# Compressibility (1/GPa) = 0.01159720
#
# Stress axis : x y z
#
# Youngs Moduli (GPa) = 93.18130 122.66916 113.25857
#
# Poissons Ratio (x) = 0.29037 0.32019
# Poissons Ratio (y) = 0.22057 0.32434
# Poissons Ratio (z) = 0.26343 0.35129
#
# Static dielectric constant tensor:
#      x y z
#    x 4.066930 0.000000 -0.154620 
#    y 0.000000 4.500120 0.000000 
#    z -0.154620 0.000000 4.158790 
# 
# 
# High freq. dielectric constant tensor:
#      x y z
#    x 1.901190 0.000000 -0.008950 
#    y 0.000000 1.940480 0.000000 
#    z -0.008950 0.000000 1.910620 
# 
# From -- ./inp_files/30796.got.cif
#   From: 2010.06.25/outbox.cif.g09.slc.cpg/sg15_16_cif.got.tgz:30796.got - 2010.06.28 07:06:18.
