data_PCOD8150229
_publ_section_title
;
Structure prediction by ZEFSAII (Michael W. Deem and Ramdas Pophale) SiO2 
 PCOD8150229
Probable space group: C 2/C
;
_chemical_formula_sum "Si O2"
_cell_formula_units_Z 40
_cell_length_a 12.340993
_cell_length_b 20.231384
_cell_length_c 12.713914
_cell_angle_alpha 90.000000
_cell_angle_beta 145.453124
_cell_angle_gamma 90.000000
_cell_volume 1800.112003
_symmetry_space_group_name_H-M "C 2/C"
_symmetry_group_IT_number 15
_symmetry_cell_setting 'monoclinic'
loop_
_space_group_symop_operation_xyz
x,y,z
-x,y,1/2-z
-x,-y,-z
x,-y,1/2+z
1/2+x,1/2+y,z
1/2-x,1/2+y,1/2-z
1/2-x,1/2-y,-z
1/2+x,1/2-y,1/2+z
loop_
_atom_site_type_symbol
_atom_site_label
_atom_site_fract_x
_atom_site_fract_y
_atom_site_fract_z
Si Si1 0.831259 0.075307 0.431110
Si Si2 0.278716 0.571358 0.872553
Si Si3 0.684321 0.823987 0.964320
Si Si4 0.979129 0.382496 0.981425
Si Si5 0.718875 0.325515 0.947316
O O1 0.833412 0.122959 0.535171
O O2 0.653145 0.081727 0.209290
O O3 0.026979 0.092870 0.529211
O O4 0.817709 0.999288 0.459402
O O5 0.102721 0.565878 0.649295
O O6 0.215710 0.626273 0.906624
O O7 0.500000 0.837701 0.750000
O O8 0.636541 0.836220 0.048371
O O9 0.750000 0.750000 0.000000
O O10 0.845567 0.337009 0.945989
O O11 0.500000 0.341794 0.750000
O O12 0.750000 0.250000 0.000000
#
# Coordination Sequence:
#
# PCOD8150229 Si02
#       5
#     8   8   8   8   8
#     4  10  24  45  65 104 137 175 226 271 329 404
#     4  11  24  43  72  98 137 178 221 276 335 396
#     4  10  25  42  66  98 135 174 220 273 324 399
#     4  11  24  43  69  98 133 180 219 280 334 394
#     4  12  26  45  68  99 137 176 228 281 336 407
#
# _framework density 22.220839000000002
#
# number of rings (size 3 to 8) (size 9 to 14) (size 15 to 20)
#    0.000    1.200    2.000    2.400    5.600    8.000 
#    0.000    0.000    0.000    0.000    0.000    0.000 
#    0.000    0.000    0.000    0.000    0.000    0.000 
#
# Total GULP energy -247981.811145 kJ/mol
# GULP energy per Si atom -12399.090557 kJ/mol
# Density = 2.217026 g / cm^3
# Si number density = 22.220839 Si / 1000 Ang^3
#
#
#
# Elastic Constant Matrix: (Units=GPa)
#
#
# Indices 1 2 3 4 5 6 
#
# 1 180.0163 89.6274 22.5747 0.0000 -4.5302 0.0000
# 2 89.6274 153.0985 5.3436 0.0000 -7.8422 0.0000
# 3 22.5747 5.3436 80.4396 0.0000 4.6371 0.0000
# 4 0.0000 0.0000 0.0000 26.7160 0.0000 0.2495
# 5 -4.5302 -7.8422 4.6371 0.0000 28.1937 0.0000
# 6 0.0000 0.0000 0.0000 0.2495 0.0000 28.7630
#
#
#
# Elastic Compliance Matrix: (Units=1/GPa)
#
#
# Indices 1 2 3 4 5 6 
#
# 1 0.008144 -0.004681 -0.001994 0.000000 0.000334 0.000000
# 2 -0.004681 0.009341 0.000592 0.000000 0.001749 0.000000
# 3 -0.001994 0.000592 0.013085 0.000000 -0.002308 0.000000
# 4 0.000000 0.000000 0.000000 0.037434 0.000000 -0.000325
# 5 0.000334 0.001749 -0.002308 0.000000 0.036389 0.000000
# 6 0.000000 0.000000 0.000000 -0.000325 0.000000 0.034770
#
#
# Mechanical properties :
#
#
# Convention : Reuss Voigt Hill
#
# Bulk Modulus (GPa) = 54.33317 72.07172 63.20245
# Shear Modulus (GPa) = 31.75362 36.46845 34.11103
#
# Velocity S-wave (km/s) = 3.78432 4.05555 3.92228
# Velocity P-wave (km/s) = 6.60297 7.37798 7.00121
#
# Compressibility (1/GPa) = 0.01840496
#
# Stress axis : x y z
#
# Youngs Moduli (GPa) = 122.78784 107.05462 76.42368
#
# Poissons Ratio (x) = 0.50113 0.15238
# Poissons Ratio (y) = 0.57477 -0.04527
# Poissons Ratio (z) = 0.24483 -0.06342
#
# Static dielectric constant tensor:
#      x y z
#    x 4.519640 0.000000 0.048680 
#    y 0.000000 3.803740 0.000000 
#    z 0.048680 0.000000 3.995820 
# 
# 
# High freq. dielectric constant tensor:
#      x y z
#    x 1.890520 0.000000 0.012910 
#    y 0.000000 1.871930 0.000000 
#    z 0.012910 0.000000 1.878320 
# 
# From -- ./inp_files/29304.got.cif
#   From: 2010.06.25/outbox.cif.g09.slc.cpg/sg15_15_cif.got.tgz:29304.got - 2010.06.28 07:06:18.
