data_PCOD8150531
_publ_section_title
;
Structure prediction by ZEFSAII (Michael W. Deem and Ramdas Pophale) SiO2 
 PCOD8150531
Probable space group: C 2/C
;
_chemical_formula_sum "Si O2"
_cell_formula_units_Z 64
_cell_length_a 17.227293
_cell_length_b 15.170484
_cell_length_c 17.759293
_cell_angle_alpha 90.000000
_cell_angle_beta 39.392801
_cell_angle_gamma 90.000000
_cell_volume 2945.541093
_symmetry_space_group_name_H-M "C 2/C"
_symmetry_group_IT_number 15
_symmetry_cell_setting 'monoclinic'
loop_
_space_group_symop_operation_xyz
x,y,z
-x,y,1/2-z
-x,-y,-z
x,-y,1/2+z
1/2+x,1/2+y,z
1/2-x,1/2+y,1/2-z
1/2-x,1/2-y,-z
1/2+x,1/2-y,1/2+z
loop_
_atom_site_type_symbol
_atom_site_label
_atom_site_fract_x
_atom_site_fract_y
_atom_site_fract_z
Si Si1 0.292364 0.908821 0.166177
Si Si2 0.601735 0.864915 0.257984
Si Si3 0.477012 0.356249 0.179625
Si Si4 0.592843 0.472951 0.610272
Si Si5 0.498456 0.218181 0.457154
Si Si6 0.713484 0.887098 0.851246
Si Si7 0.973375 0.818153 0.624397
Si Si8 0.342268 0.906911 0.445914
O O1 0.303029 0.890646 0.248145
O O2 0.162801 0.876637 0.234177
O O3 0.319601 0.009941 0.127172
O O4 0.392478 0.852231 0.047508
O O5 0.538820 0.769788 0.316772
O O6 0.486269 0.934715 0.345401
O O7 0.670069 0.859827 0.126495
O O8 0.500000 0.341398 0.250000
O O9 0.557863 0.439549 0.089649
O O10 0.520383 0.266674 0.107812
O O11 0.500000 0.468350 0.750000
O O12 0.581134 0.381783 0.572924
O O13 0.736470 0.482853 0.526510
O O14 0.627832 0.167928 0.359527
O O15 0.499109 0.294613 0.519168
O O16 0.850620 0.875306 0.721698
O O17 0.689945 0.850216 0.954431
#
# Coordination Sequence:
#
# PCOD8150531 Si02
#       8
#     8   8   8   8   8   8   8   8
#     4  11  23  47  71  95 133 182 229 280 341 408
#     4  10  25  40  63 102 138 172 224 282 338 412
#     4  11  25  49  68  98 135 176 233 289 335 404
#     4  11  23  39  64  97 136 182 214 270 341 407
#     4  11  25  41  70  98 131 175 231 282 341 396
#     4  12  22  43  68  95 138 182 224 280 340 408
#     4  11  23  38  60 100 131 176 218 268 342 409
#     4  11  23  40  64 101 139 175 217 283 339 415
#
# _framework density 21.727757
#
# number of rings (size 3 to 8) (size 9 to 14) (size 15 to 20)
#    0.000    1.000    5.000    2.625    5.250    3.000 
#    0.000    1.250    0.000    0.000    0.000    0.000 
#    0.000    0.000    0.000    0.000    0.000    0.000 
#
# Total GULP energy -396568.178147 kJ/mol
# GULP energy per Si atom -12392.755567 kJ/mol
# Density = 2.167830 g / cm^3
# Si number density = 21.727757 Si / 1000 Ang^3
#
#
#
# Elastic Constant Matrix: (Units=GPa)
#
#
# Indices 1 2 3 4 5 6 
#
# 1 139.7775 49.5761 34.3037 0.0000 0.7698 0.0000
# 2 49.5761 112.7657 43.3331 0.0000 6.3524 0.0000
# 3 34.3037 43.3331 41.9864 0.0000 3.1823 0.0000
# 4 0.0000 0.0000 0.0000 21.7720 0.0000 -1.0254
# 5 0.7698 6.3524 3.1823 0.0000 41.8369 0.0000
# 6 0.0000 0.0000 0.0000 -1.0254 0.0000 34.1388
#
#
#
# Elastic Compliance Matrix: (Units=1/GPa)
#
#
# Indices 1 2 3 4 5 6 
#
# 1 0.009204 -0.001942 -0.005557 0.000000 0.000548 0.000000
# 2 -0.001942 0.015155 -0.013964 0.000000 -0.001203 0.000000
# 3 -0.005557 -0.013964 0.042848 0.000000 -0.001037 0.000000
# 4 0.000000 0.000000 0.000000 0.045996 0.000000 0.001382
# 5 0.000548 -0.001203 -0.001037 0.000000 0.024154 0.000000
# 6 0.000000 0.000000 0.000000 0.001382 0.000000 0.029334
#
#
# Mechanical properties :
#
#
# Convention : Reuss Voigt Hill
#
# Bulk Modulus (GPa) = 41.18371 60.99504 51.08937
# Shear Modulus (GPa) = 22.96643 30.70399 26.83521
#
# Velocity S-wave (km/s) = 3.25469 3.76323 3.51816
# Velocity P-wave (km/s) = 5.75496 6.85681 6.32991
#
# Compressibility (1/GPa) = 0.02428145
#
# Stress axis : x y z
#
# Youngs Moduli (GPa) = 108.65179 65.98340 23.33843
#
# Poissons Ratio (x) = 0.12812 0.12970
# Poissons Ratio (y) = 0.21097 0.32589
# Poissons Ratio (z) = 0.60380 0.92138
#
# Static dielectric constant tensor:
#      x y z
#    x 4.199090 0.000000 -0.065510 
#    y 0.000000 3.929080 0.000000 
#    z -0.065510 0.000000 3.956160 
# 
# 
# High freq. dielectric constant tensor:
#      x y z
#    x 1.866470 0.000000 -0.010970 
#    y 0.000000 1.832050 0.000000 
#    z -0.010970 0.000000 1.854730 
# 
# From -- ./inp_files/211395.got.cif
#   From: 2010.06.25/outbox.cif.g09.slc.cpg/sg15_106_cif.got.tgz:211395.got - 2010.06.28 07:06:18.
