data_PCOD8150741
_publ_section_title
;
Structure prediction by ZEFSAII (Michael W. Deem and Ramdas Pophale) SiO2 
 PCOD8150741
Probable space group: C 2/C
;
_chemical_formula_sum "Si O2"
_cell_formula_units_Z 40
_cell_length_a 5.586072
_cell_length_b 22.930946
_cell_length_c 13.951036
_cell_angle_alpha 90.000000
_cell_angle_beta 93.919812
_cell_angle_gamma 90.000000
_cell_volume 1782.862397
_symmetry_space_group_name_H-M "C 2/C"
_symmetry_group_IT_number 15
_symmetry_cell_setting 'monoclinic'
loop_
_space_group_symop_operation_xyz
x,y,z
-x,y,1/2-z
-x,-y,-z
x,-y,1/2+z
1/2+x,1/2+y,z
1/2-x,1/2+y,1/2-z
1/2-x,1/2-y,-z
1/2+x,1/2-y,1/2+z
loop_
_atom_site_type_symbol
_atom_site_label
_atom_site_fract_x
_atom_site_fract_y
_atom_site_fract_z
Si Si1 0.500000 0.745398 0.250000
Si Si2 0.500000 0.450987 0.750000
Si Si3 0.682385 0.850074 0.667452
Si Si4 0.469424 0.097337 0.987341
Si Si5 0.736178 0.856138 0.200902
Si Si6 0.213023 0.005181 0.578397
O O1 0.633633 0.703998 0.330273
O O2 0.696973 0.785768 0.200854
O O3 0.323309 0.411009 0.682740
O O4 0.640266 0.495512 0.685907
O O5 0.500000 0.841727 0.750000
O O6 0.557117 0.850580 0.559578
O O7 0.265576 0.121336 0.909484
O O8 0.677991 0.069999 0.926507
O O9 0.394062 0.046501 0.057544
O O10 0.500000 0.883000 0.250000
O O11 0.000000 0.872086 0.250000
O O12 0.000000 0.000000 0.500000
#
# Coordination Sequence:
#
# PCOD8150741 Si02
#       6
#     4   4   8   8   8   8
#     4   9  24  44  72 100 142 178 240 293 374 416
#     4  11  22  40  68  96 148 186 228 295 348 412
#     4  11  21  42  69 102 137 183 235 299 350 426
#     4  11  25  43  70 100 143 187 241 286 355 427
#     4  10  25  49  71 104 142 186 237 301 359 425
#     4  11  24  41  63 107 140 185 237 281 347 430
#
# _framework density 22.435832999999999
#
# number of rings (size 3 to 8) (size 9 to 14) (size 15 to 20)
#    0.600    0.800    4.000    0.600    2.800    2.400 
#    0.000    2.000    0.000    0.000    0.000    0.000 
#    0.000    0.000    0.000    0.000    0.000    0.000 
#
# Total GULP energy -247873.540466 kJ/mol
# GULP energy per Si atom -12393.677023 kJ/mol
# Density = 2.238477 g / cm^3
# Si number density = 22.435833 Si / 1000 Ang^3
#
#
#
# Elastic Constant Matrix: (Units=GPa)
#
#
# Indices 1 2 3 4 5 6 
#
# 1 118.3404 21.3382 51.7182 0.0000 14.9926 0.0000
# 2 21.3382 64.6276 45.7731 0.0000 3.6436 0.0000
# 3 51.7182 45.7731 150.7514 0.0000 16.7090 0.0000
# 4 0.0000 0.0000 0.0000 20.1531 0.0000 2.6532
# 5 14.9926 3.6436 16.7090 0.0000 50.0732 0.0000
# 6 0.0000 0.0000 0.0000 2.6532 0.0000 25.3674
#
#
#
# Elastic Compliance Matrix: (Units=1/GPa)
#
#
# Indices 1 2 3 4 5 6 
#
# 1 0.010191 -0.001188 -0.002915 0.000000 -0.001992 0.000000
# 2 -0.001188 0.019867 -0.005715 0.000000 0.000817 0.000000
# 3 -0.002915 -0.005715 0.009580 0.000000 -0.001908 0.000000
# 4 0.000000 0.000000 0.000000 0.050313 0.000000 -0.005262
# 5 -0.001992 0.000817 -0.001908 0.000000 0.021145 0.000000
# 6 0.000000 0.000000 0.000000 -0.005262 0.000000 0.039971
#
#
# Mechanical properties :
#
#
# Convention : Reuss Voigt Hill
#
# Bulk Modulus (GPa) = 49.99448 63.48652 56.74050
# Shear Modulus (GPa) = 28.18961 33.44471 30.81716
#
# Velocity S-wave (km/s) = 3.54850 3.86512 3.71019
# Velocity P-wave (km/s) = 6.25466 6.94819 6.61052
#
# Compressibility (1/GPa) = 0.02000221
#
# Stress axis : x y z
#
# Youngs Moduli (GPa) = 98.13019 50.33359 104.38176
#
# Poissons Ratio (x) = 0.05980 0.30422
# Poissons Ratio (y) = 0.11659 0.59658
# Poissons Ratio (z) = 0.28600 0.28768
#
# Static dielectric constant tensor:
#      x y z
#    x 4.411890 0.000000 -0.065730 
#    y 0.000000 4.096760 0.000000 
#    z -0.065730 0.000000 3.794320 
# 
# 
# High freq. dielectric constant tensor:
#      x y z
#    x 1.888040 0.000000 0.009680 
#    y 0.000000 1.874110 0.000000 
#    z 0.009680 0.000000 1.876840 
# 
# From -- ./inp_files/129141.got.cif
#   From: 2010.06.25/outbox.cif.g09.slc.cpg/sg15_65_cif.got.tgz:129141.got - 2010.06.28 07:06:18.
