data_PCOD8150278
_publ_section_title
;
Structure prediction by ZEFSAII (Michael W. Deem and Ramdas Pophale) SiO2 
 PCOD8150278
Probable space group: C 2/C
;
_chemical_formula_sum "Si O2"
_cell_formula_units_Z 56
_cell_length_a 15.102050
_cell_length_b 8.910463
_cell_length_c 20.667812
_cell_angle_alpha 90.000000
_cell_angle_beta 63.126340
_cell_angle_gamma 90.000000
_cell_volume 2480.836682
_symmetry_space_group_name_H-M "C 2/C"
_symmetry_group_IT_number 15
_symmetry_cell_setting 'monoclinic'
loop_
_space_group_symop_operation_xyz
x,y,z
-x,y,1/2-z
-x,-y,-z
x,-y,1/2+z
1/2+x,1/2+y,z
1/2-x,1/2+y,1/2-z
1/2-x,1/2-y,-z
1/2+x,1/2-y,1/2+z
loop_
_atom_site_type_symbol
_atom_site_label
_atom_site_fract_x
_atom_site_fract_y
_atom_site_fract_z
Si Si1 0.675020 0.876946 0.835852
Si Si2 0.675585 0.602151 0.559561
Si Si3 0.305392 0.319157 0.584281
Si Si4 0.183068 0.364638 0.981381
Si Si5 0.531700 0.868743 0.394828
Si Si6 0.681699 0.536297 0.808629
Si Si7 0.487602 0.398468 0.828914
O O1 0.707913 0.844566 0.897849
O O2 0.677892 0.714751 0.802102
O O3 0.755452 0.978255 0.772689
O O4 0.567271 0.961287 0.866217
O O5 0.633612 0.643272 0.502230
O O6 0.699293 0.742196 0.599404
O O7 0.784316 0.531117 0.508197
O O8 0.614918 0.470254 0.613983
O O9 0.373210 0.205590 0.602460
O O10 0.279215 0.467947 0.635569
O O11 0.250000 0.250000 0.000000
O O12 0.064342 0.357817 0.027848
O O13 0.499547 0.778610 0.340609
O O14 0.568588 0.487273 0.842530
O O15 0.500000 0.424858 0.750000
#
# Coordination Sequence:
#
# PCOD8150278 Si02
#       7
#     8   8   8   8   8   8   8
#     4  12  26  46  72 105 141 189 240 298 363 438
#     4  11  23  42  72 100 148 178 241 293 355 423
#     4  10  24  45  70 105 139 189 236 294 356 430
#     4  12  24  43  74 108 141 186 237 303 354 423
#     4  11  25  45  73 102 142 186 241 293 362 434
#     4  11  26  44  73 100 143 187 242 291 366 433
#     4  11  25  43  72 102 143 192 236 300 364 429
#
# _framework density 22.573029999999999
#
# number of rings (size 3 to 8) (size 9 to 14) (size 15 to 20)
#    0.000    0.857    2.857    3.857    4.000    2.286 
#    2.571    0.714    0.000    0.000    0.000    0.000 
#    0.000    0.000    0.000    0.000    0.000    0.000 
#
# Total GULP energy -346998.357583 kJ/mol
# GULP energy per Si atom -12392.798485 kJ/mol
# Density = 2.252165 g / cm^3
# Si number density = 22.573030 Si / 1000 Ang^3
#
#
#
# Elastic Constant Matrix: (Units=GPa)
#
#
# Indices 1 2 3 4 5 6 
#
# 1 74.5900 39.5098 43.4113 0.0000 -0.1638 0.0000
# 2 39.5098 154.3939 56.8709 0.0000 1.9074 0.0000
# 3 43.4113 56.8709 126.7060 0.0000 4.7175 0.0000
# 4 0.0000 0.0000 0.0000 34.6611 0.0000 -6.9435
# 5 -0.1638 1.9074 4.7175 0.0000 31.2737 0.0000
# 6 0.0000 0.0000 0.0000 -6.9435 0.0000 34.7621
#
#
#
# Elastic Compliance Matrix: (Units=1/GPa)
#
#
# Indices 1 2 3 4 5 6 
#
# 1 0.017697 -0.002748 -0.004867 0.000000 0.000994 0.000000
# 2 -0.002748 0.008187 -0.002729 0.000000 -0.000102 0.000000
# 3 -0.004867 -0.002729 0.010840 0.000000 -0.001494 0.000000
# 4 0.000000 0.000000 0.000000 0.030053 0.000000 0.006003
# 5 0.000994 -0.000102 -0.001494 0.000000 0.032213 0.000000
# 6 0.000000 0.000000 0.000000 0.006003 0.000000 0.029966
#
#
# Mechanical properties :
#
#
# Convention : Reuss Voigt Hill
#
# Bulk Modulus (GPa) = 62.36096 70.58600 66.47348
# Shear Modulus (GPa) = 32.26024 34.53258 33.39641
#
# Velocity S-wave (km/s) = 3.78451 3.91553 3.85058
# Velocity P-wave (km/s) = 6.83981 7.19582 7.02007
#
# Compressibility (1/GPa) = 0.01603567
#
# Stress axis : x y z
#
# Youngs Moduli (GPa) = 56.50679 122.14801 92.24858
#
# Poissons Ratio (x) = 0.33570 0.44895
# Poissons Ratio (y) = 0.15530 0.25176
# Poissons Ratio (z) = 0.27500 0.33336
#
# Static dielectric constant tensor:
#      x y z
#    x 4.187240 0.000000 0.076670 
#    y 0.000000 4.424620 0.000000 
#    z 0.076670 0.000000 4.002960 
# 
# 
# High freq. dielectric constant tensor:
#      x y z
#    x 1.884930 0.000000 0.008380 
#    y 0.000000 1.901360 0.000000 
#    z 0.008380 0.000000 1.890360 
# 
# From -- ./inp_files/273048.got.cif
#   From: 2010.06.25/outbox.cif.g09.slc.cpg/sg15_137_cif.got.tgz:273048.got - 2010.06.28 07:06:18.
