data_PCOD8150207
_publ_section_title
;
Structure prediction by ZEFSAII (Michael W. Deem and Ramdas Pophale) SiO2 
 PCOD8150207
Probable space group: C 2/C
;
_chemical_formula_sum "Si O2"
_cell_formula_units_Z 44
_cell_length_a 19.499698
_cell_length_b 10.038078
_cell_length_c 9.797392
_cell_angle_alpha 90.000000
_cell_angle_beta 106.811025
_cell_angle_gamma 90.000000
_cell_volume 1835.779859
_symmetry_space_group_name_H-M "C 2/C"
_symmetry_group_IT_number 15
_symmetry_cell_setting 'monoclinic'
loop_
_space_group_symop_operation_xyz
x,y,z
-x,y,1/2-z
-x,-y,-z
x,-y,1/2+z
1/2+x,1/2+y,z
1/2-x,1/2+y,1/2-z
1/2-x,1/2-y,-z
1/2+x,1/2-y,1/2+z
loop_
_atom_site_type_symbol
_atom_site_label
_atom_site_fract_x
_atom_site_fract_y
_atom_site_fract_z
Si Si1 0.359877 0.805314 0.578112
Si Si2 0.908167 0.652837 0.815914
Si Si3 0.279905 0.946157 0.106694
Si Si4 0.541685 0.562937 0.148287
Si Si5 0.500000 0.067818 0.250000
Si Si6 0.309135 0.537401 0.682247
O O1 0.354403 0.841766 0.414821
O O2 0.305668 0.899862 0.629339
O O3 0.443083 0.830086 0.655646
O O4 0.336695 0.655333 0.599331
O O5 0.852972 0.644222 0.653228
O O6 0.962241 0.777118 0.850496
O O7 0.960915 0.524571 0.841567
O O8 0.236330 0.909544 0.217089
O O9 0.233727 0.930745 0.939704
O O10 0.500000 0.500252 0.250000
O O11 0.625183 0.531596 0.203718
O O12 0.500000 0.500000 0.000000
#
# Coordination Sequence:
#
# PCOD8150207 Si02
#       6
#     8   8   8   8   4   8
#     4  11  24  45  74 101 151 187 244 297 367 435
#     4  11  23  47  74 104 147 184 248 305 352 442
#     4  11  25  46  73 106 140 190 246 294 368 421
#     4  12  27  48  72 106 146 190 240 297 369 436
#     4  10  24  44  74 108 138 190 246 306 356 428
#     4  12  26  47  72 106 146 195 239 302 364 441
#
# _framework density 23.968017
#
# number of rings (size 3 to 8) (size 9 to 14) (size 15 to 20)
#    0.000    0.727    2.727    4.364    6.364    0.727 
#    3.273    0.000    0.000    0.000    0.000    0.000 
#    0.000    0.000    0.000    0.000    0.000    0.000 
#
# Total GULP energy -272601.983358 kJ/mol
# GULP energy per Si atom -12390.999244 kJ/mol
# Density = 2.391347 g / cm^3
# Si number density = 23.968017 Si / 1000 Ang^3
#
#
#
# Elastic Constant Matrix: (Units=GPa)
#
#
# Indices 1 2 3 4 5 6 
#
# 1 109.1408 16.3702 52.7257 0.0000 13.2018 0.0000
# 2 16.3702 65.3171 31.3153 0.0000 10.3381 0.0000
# 3 52.7257 31.3153 148.4997 0.0000 27.5915 0.0000
# 4 0.0000 0.0000 0.0000 27.1913 0.0000 3.8952
# 5 13.2018 10.3381 27.5915 0.0000 64.8719 0.0000
# 6 0.0000 0.0000 0.0000 3.8952 0.0000 43.1601
#
#
#
# Elastic Compliance Matrix: (Units=1/GPa)
#
#
# Indices 1 2 3 4 5 6 
#
# 1 0.011136 -0.000953 -0.003648 0.000000 -0.000563 0.000000
# 2 -0.000953 0.017213 -0.003060 0.000000 -0.001248 0.000000
# 3 -0.003648 -0.003060 0.009171 0.000000 -0.002670 0.000000
# 4 0.000000 0.000000 0.000000 0.037258 0.000000 -0.003363
# 5 -0.000563 -0.001248 -0.002670 0.000000 0.016864 0.000000
# 6 0.000000 0.000000 0.000000 -0.003363 0.000000 0.023473
#
#
# Mechanical properties :
#
#
# Convention : Reuss Voigt Hill
#
# Bulk Modulus (GPa) = 45.04887 58.19779 51.62333
# Shear Modulus (GPa) = 36.27485 41.88107 39.07796
#
# Velocity S-wave (km/s) = 3.89455 4.18469 4.04223
# Velocity P-wave (km/s) = 6.24977 6.90529 6.58569
#
# Compressibility (1/GPa) = 0.02219812
#
# Stress axis : x y z
#
# Youngs Moduli (GPa) = 89.79888 58.09510 109.04128
#
# Poissons Ratio (x) = 0.05535 0.39783
# Poissons Ratio (y) = 0.08555 0.33364
# Poissons Ratio (z) = 0.32763 0.17776
#
# Static dielectric constant tensor:
#      x y z
#    x 4.615310 0.000000 0.132270 
#    y 0.000000 4.058960 0.000000 
#    z 0.132270 0.000000 4.367470 
# 
# 
# High freq. dielectric constant tensor:
#      x y z
#    x 1.974770 0.000000 0.013120 
#    y 0.000000 1.932660 0.000000 
#    z 0.013120 0.000000 1.948470 
# 
# From -- ./inp_files/54520.got.cif
#   From: 2010.06.25/outbox.cif.g09.slc.cpg/sg15_28_cif.got.tgz:54520.got - 2010.06.28 07:06:18.
