data_PCOD8150845
_publ_section_title
;
Structure prediction by ZEFSAII (Michael W. Deem and Ramdas Pophale) SiO2 
 PCOD8150845
Probable space group: C 2/C
;
_chemical_formula_sum "Si O2"
_cell_formula_units_Z 52
_cell_length_a 27.042499
_cell_length_b 9.178786
_cell_length_c 28.938271
_cell_angle_alpha 90.000000
_cell_angle_beta 20.440348
_cell_angle_gamma 90.000000
_cell_volume 2508.526408
_symmetry_space_group_name_H-M "C 2/C"
_symmetry_group_IT_number 15
_symmetry_cell_setting 'monoclinic'
loop_
_space_group_symop_operation_xyz
x,y,z
-x,y,1/2-z
-x,-y,-z
x,-y,1/2+z
1/2+x,1/2+y,z
1/2-x,1/2+y,1/2-z
1/2-x,1/2-y,-z
1/2+x,1/2-y,1/2+z
loop_
_atom_site_type_symbol
_atom_site_label
_atom_site_fract_x
_atom_site_fract_y
_atom_site_fract_z
Si Si1 0.000000 0.755869 0.750000
Si Si2 0.359565 0.736142 0.232600
Si Si3 0.390192 0.748223 0.745932
Si Si4 0.927050 0.652893 0.501287
Si Si5 0.972529 0.962706 0.855155
Si Si6 0.177449 0.452608 0.157529
Si Si7 0.549871 0.822419 0.988492
O O1 0.072216 0.866606 0.650160
O O2 0.113493 0.648014 0.673290
O O3 0.387663 0.608233 0.244601
O O4 0.355423 0.888738 0.263288
O O5 0.486039 0.725743 0.085335
O O6 0.212077 0.713976 0.336002
O O7 0.234593 0.687384 0.870083
O O8 0.470540 0.787361 0.628280
O O9 0.479732 0.628310 0.696670
O O10 0.385375 0.884338 0.785477
O O11 0.962559 0.485556 0.481275
O O12 0.964160 0.725877 0.517946
O O13 0.844104 0.961672 0.003383
#
# Coordination Sequence:
#
# PCOD8150845 Si02
#       7
#     4   8   8   8   8   8   8
#     4  10  26  46  70  98 116 164 210 266 324 398
#     4  11  21  39  66  92 128 178 216 259 317 367
#     4  12  23  43  65  96 132 176 205 265 323 376
#     4  11  24  39  61  96 138 170 222 260 311 367
#     4  11  23  43  68  95 130 161 214 263 323 390
#     4  11  23  43  68  95 130 161 214 263 323 390
#     4  11  22  39  61  96 133 176 222 266 298 371
#
# _framework density 20.729302000000001
#
# number of rings (size 3 to 8) (size 9 to 14) (size 15 to 20)
#    0.000    0.923    6.154    1.385    0.000    0.615 
#    2.769    3.077    0.000    0.000    0.000    0.000 
#    0.000    0.000    0.000    0.000    0.000    0.000 
#
# Total GULP energy -322247.355302 kJ/mol
# GULP energy per Si atom -12394.129050 kJ/mol
# Density = 2.068212 g / cm^3
# Si number density = 20.729302 Si / 1000 Ang^3
#
#
#
# Elastic Constant Matrix: (Units=GPa)
#
#
# Indices 1 2 3 4 5 6 
#
# 1 92.0780 49.7415 31.6595 0.0044 4.9229 -0.0010
# 2 49.7415 122.3904 31.1996 0.0100 5.3314 -0.0054
# 3 31.6595 31.1996 118.2901 0.0017 4.5613 -0.0026
# 4 0.0044 0.0100 0.0017 30.4809 -0.0011 0.7161
# 5 4.9229 5.3314 4.5613 -0.0011 27.3796 0.0007
# 6 -0.0010 -0.0054 -0.0026 0.7161 0.0007 26.6031
#
#
#
# Elastic Compliance Matrix: (Units=1/GPa)
#
#
# Indices 1 2 3 4 5 6 
#
# 1 0.014616 -0.005256 -0.002480 0.000000 -0.001191 -0.000001
# 2 -0.005256 0.010698 -0.001380 -0.000003 -0.000908 0.000002
# 3 -0.002480 -0.001380 0.009515 0.000000 -0.000871 0.000001
# 4 0.000000 -0.000003 0.000000 0.032828 0.000002 -0.000884
# 5 -0.001191 -0.000908 -0.000871 0.000002 0.037060 -0.000001
# 6 -0.000001 0.000002 0.000001 -0.000884 -0.000001 0.037613
#
#
# Mechanical properties :
#
#
# Convention : Reuss Voigt Hill
#
# Bulk Modulus (GPa) = 60.24903 61.99553 61.12228
# Shear Modulus (GPa) = 30.10338 31.56992 30.83665
#
# Velocity S-wave (km/s) = 3.81493 3.90675 3.86111
# Velocity P-wave (km/s) = 6.96654 7.09383 7.03047
#
# Compressibility (1/GPa) = 0.01659778
#
# Stress axis : x y z
#
# Youngs Moduli (GPa) = 68.41775 93.47451 105.09762
#
# Poissons Ratio (x) = 0.49132 0.26060
# Poissons Ratio (y) = 0.35962 0.14502
# Poissons Ratio (z) = 0.16965 0.12898
#
# Static dielectric constant tensor:
#      x y z
#    x 3.641790 -0.000010 0.032980 
#    y -0.000010 3.901540 0.000020 
#    z 0.032980 0.000020 3.702540 
# 
# 
# High freq. dielectric constant tensor:
#      x y z
#    x 1.799730 0.000000 0.000600 
#    y 0.000000 1.818250 0.000000 
#    z 0.000600 0.000000 1.819520 
# 
# From -- ./inp_files/320166.got.cif
#   From: 2010.06.25/outbox.cif.g09.slc.cpg/sg15_161_cif.got.tgz:320166.got - 2010.06.28 07:06:18.
