data_PCOD8150365
_publ_section_title
;
Structure prediction by ZEFSAII (Michael W. Deem and Ramdas Pophale) SiO2 
 PCOD8150365
Probable space group: C 2/C
;
_chemical_formula_sum "Si O2"
_cell_formula_units_Z 44
_cell_length_a 8.425222
_cell_length_b 27.945197
_cell_length_c 8.945615
_cell_angle_alpha 90.000000
_cell_angle_beta 100.950709
_cell_angle_gamma 90.000000
_cell_volume 2067.843970
_symmetry_space_group_name_H-M "C 2/C"
_symmetry_group_IT_number 15
_symmetry_cell_setting 'monoclinic'
loop_
_space_group_symop_operation_xyz
x,y,z
-x,y,1/2-z
-x,-y,-z
x,-y,1/2+z
1/2+x,1/2+y,z
1/2-x,1/2+y,1/2-z
1/2-x,1/2-y,-z
1/2+x,1/2-y,1/2+z
loop_
_atom_site_type_symbol
_atom_site_label
_atom_site_fract_x
_atom_site_fract_y
_atom_site_fract_z
Si Si1 0.526560 0.550419 0.580048
Si Si2 0.991965 0.209478 0.081072
Si Si3 0.500000 0.844548 0.750000
Si Si4 0.371753 0.806977 0.013816
Si Si5 0.215320 0.869280 0.495700
Si Si6 0.665233 0.103070 0.804533
O O1 0.500000 0.544147 0.750000
O O2 0.500000 0.500000 0.500000
O O3 0.404838 0.587871 0.481097
O O4 0.707736 0.569992 0.584586
O O5 0.007788 0.267484 0.086625
O O6 0.000000 0.188505 0.250000
O O7 0.125702 0.181972 0.005871
O O8 0.813770 0.203979 0.977245
O O9 0.610024 0.812039 0.661999
O O10 0.376214 0.875290 0.625342
O O11 0.410792 0.856116 0.102838
O O12 0.253386 0.873766 0.327368
O O13 0.500000 0.072039 0.750000
#
# Coordination Sequence:
#
# PCOD8150365 Si02
#       6
#     8   8   4   8   8   8
#     4  10  24  46  70  99 126 169 214 269 339 401
#     4  11  23  39  61  92 129 178 227 264 322 379
#     4  12  24  40  60  98 128 174 224 264 322 378
#     4  11  24  39  62  93 130 176 221 267 322 381
#     4  11  24  43  67  93 135 175 220 272 334 383
#     4  11  22  44  69  95 135 176 215 274 333 390
#
# _framework density 21.278199999999998
#
# number of rings (size 3 to 8) (size 9 to 14) (size 15 to 20)
#    0.000    1.091    5.455    0.545    0.000    5.818 
#    1.636    1.818    0.000    0.000    0.000    0.000 
#    0.000    0.000    0.000    0.000    0.000    0.000 
#
# Total GULP energy -272656.670954 kJ/mol
# GULP energy per Si atom -12393.485043 kJ/mol
# Density = 2.122977 g / cm^3
# Si number density = 21.278200 Si / 1000 Ang^3
#
#
#
# Elastic Constant Matrix: (Units=GPa)
#
#
# Indices 1 2 3 4 5 6 
#
# 1 135.2901 60.5663 29.2653 0.0000 16.9407 0.0000
# 2 60.5663 128.3173 34.2133 0.0000 13.1394 0.0000
# 3 29.2653 34.2133 81.6479 0.0000 2.8275 0.0000
# 4 0.0000 0.0000 0.0000 34.3198 0.0000 6.0955
# 5 16.9407 13.1394 2.8275 0.0000 39.9853 0.0000
# 6 0.0000 0.0000 0.0000 6.0955 0.0000 12.5360
#
#
#
# Elastic Compliance Matrix: (Units=1/GPa)
#
#
# Indices 1 2 3 4 5 6 
#
# 1 0.009874 -0.003893 -0.001812 0.000000 -0.002776 0.000000
# 2 -0.003893 0.010593 -0.002987 0.000000 -0.001620 0.000000
# 3 -0.001812 -0.002987 0.014123 0.000000 0.000750 0.000000
# 4 0.000000 0.000000 0.000000 0.031892 0.000000 -0.015507
# 5 -0.002776 -0.001620 0.000750 0.000000 0.026665 0.000000
# 6 0.000000 0.000000 0.000000 -0.015507 0.000000 0.087310
#
#
# Mechanical properties :
#
#
# Convention : Reuss Voigt Hill
#
# Bulk Modulus (GPa) = 58.12058 65.92721 62.02389
# Shear Modulus (GPa) = 24.56082 32.11558 28.33820
#
# Velocity S-wave (km/s) = 3.40114 3.88921 3.65334
# Velocity P-wave (km/s) = 6.54199 7.15672 6.85625
#
# Compressibility (1/GPa) = 0.01720561
#
# Stress axis : x y z
#
# Youngs Moduli (GPa) = 101.27700 94.39979 70.80724
#
# Poissons Ratio (x) = 0.36752 0.12827
# Poissons Ratio (y) = 0.39430 0.21153
# Poissons Ratio (z) = 0.18347 0.28200
#
# Static dielectric constant tensor:
#      x y z
#    x 4.139980 0.000000 0.159470 
#    y 0.000000 3.691640 0.000000 
#    z 0.159470 0.000000 3.856200 
# 
# 
# High freq. dielectric constant tensor:
#      x y z
#    x 1.855070 0.000000 0.008430 
#    y 0.000000 1.800890 0.000000 
#    z 0.008430 0.000000 1.837120 
# 
# From -- ./inp_files/25538.got.cif
#   From: 2010.06.25/outbox.cif.g09.slc.cpg/sg15_13_cif.got.tgz:25538.got - 2010.06.28 07:06:18.
