data_PCOD8150056
_publ_section_title
;
Structure prediction by ZEFSAII (Michael W. Deem and Ramdas Pophale) SiO2 
 PCOD8150056
Probable space group: C 2/C
;
_chemical_formula_sum "Si O2"
_cell_formula_units_Z 48
_cell_length_a 13.597163
_cell_length_b 14.293701
_cell_length_c 26.098826
_cell_angle_alpha 90.000000
_cell_angle_beta 154.200644
_cell_angle_gamma 90.000000
_cell_volume 2207.617313
_symmetry_space_group_name_H-M "C 2/C"
_symmetry_group_IT_number 15
_symmetry_cell_setting 'monoclinic'
loop_
_space_group_symop_operation_xyz
x,y,z
-x,y,1/2-z
-x,-y,-z
x,-y,1/2+z
1/2+x,1/2+y,z
1/2-x,1/2+y,1/2-z
1/2-x,1/2-y,-z
1/2+x,1/2-y,1/2+z
loop_
_atom_site_type_symbol
_atom_site_label
_atom_site_fract_x
_atom_site_fract_y
_atom_site_fract_z
Si Si1 0.417753 0.344099 0.834818
Si Si2 0.772708 0.454283 0.245918
Si Si3 0.483441 0.274800 0.135793
Si Si4 0.225620 0.249149 0.564285
Si Si5 0.500000 0.658849 0.750000
Si Si6 0.000000 0.607187 0.750000
Si Si7 0.942682 0.575417 0.931568
O O1 0.390430 0.456025 0.823761
O O2 0.542720 0.301492 0.843915
O O3 0.162409 0.308383 0.716038
O O4 0.580839 0.308975 0.955876
O O5 0.601406 0.366950 0.167817
O O6 0.911960 0.454624 0.257188
O O7 0.969797 0.449592 0.383421
O O8 0.410122 0.279533 0.160962
O O9 0.250000 0.250000 0.000000
O O10 0.288951 0.173634 0.636719
O O11 0.066398 0.331733 0.509166
O O12 0.678280 0.589119 0.809622
O O13 0.000000 0.500000 0.000000
#
# Coordination Sequence:
#
# PCOD8150056 Si02
#       7
#     8   8   8   8   4   4   8
#     4  11  24  48  72 100 152 191 238 313 356 444
#     4  11  26  46  72 115 141 190 255 297 372 447
#     4  11  25  45  69 104 146 191 241 299 369 435
#     4  11  24  46  74 101 149 193 242 303 373 437
#     4  10  24  44  62 108 138 174 244 297 357 432
#     4  12  26  46  76 108 146 200 244 301 381 446
#     4  11  26  44  73 107 140 187 247 309 359 440
#
# _framework density 21.742898
#
# number of rings (size 3 to 8) (size 9 to 14) (size 15 to 20)
#    0.000    1.000    5.000    1.000   11.667    2.667 
#    0.000    0.000    0.000    0.000    0.000    0.000 
#    0.000    0.000    0.000    0.000    0.000    0.000 
#
# Total GULP energy -297322.785094 kJ/mol
# GULP energy per Si atom -12388.449379 kJ/mol
# Density = 2.169341 g / cm^3
# Si number density = 21.742898 Si / 1000 Ang^3
#
#
#
# Elastic Constant Matrix: (Units=GPa)
#
#
# Indices 1 2 3 4 5 6 
#
# 1 125.0915 25.2328 45.2850 0.0005 -12.3896 0.0002
# 2 25.2328 103.5644 31.9283 0.0000 -11.5310 0.0000
# 3 45.2850 31.9283 109.1661 0.0167 -13.4653 0.0044
# 4 0.0005 0.0000 0.0167 59.7067 -0.0027 2.3495
# 5 -12.3896 -11.5310 -13.4653 -0.0027 24.0051 -0.0005
# 6 0.0002 0.0000 0.0044 2.3495 -0.0005 31.0223
#
#
#
# Elastic Compliance Matrix: (Units=1/GPa)
#
#
# Indices 1 2 3 4 5 6 
#
# 1 0.009689 -0.001023 -0.003399 0.000001 0.002603 0.000000
# 2 -0.001023 0.011020 -0.002375 0.000001 0.003433 0.000000
# 3 -0.003399 -0.002375 0.011719 -0.000003 0.003678 -0.000001
# 4 0.000001 0.000001 -0.000003 0.016799 0.000001 -0.001272
# 5 0.002603 0.003433 0.003678 0.000001 0.046713 0.000000
# 6 0.000000 0.000000 -0.000001 -0.001272 0.000000 0.032331
#
#
# Mechanical properties :
#
#
# Convention : Reuss Voigt Hill
#
# Bulk Modulus (GPa) = 53.09853 60.30161 56.70007
# Shear Modulus (GPa) = 33.75143 38.63855 36.19499
#
# Velocity S-wave (km/s) = 3.94419 4.22010 4.08448
# Velocity P-wave (km/s) = 6.72431 7.17912 6.95543
#
# Compressibility (1/GPa) = 0.01883291
#
# Stress axis : x y z
#
# Youngs Moduli (GPa) = 103.21271 90.74792 85.33378
#
# Poissons Ratio (x) = 0.09283 0.29004
# Poissons Ratio (y) = 0.10558 0.20268
# Poissons Ratio (z) = 0.35081 0.21554
#
# Static dielectric constant tensor:
#      x y z
#    x 4.036340 -0.000010 0.023310 
#    y -0.000010 4.206350 0.000010 
#    z 0.023310 0.000010 3.933450 
# 
# 
# High freq. dielectric constant tensor:
#      x y z
#    x 1.858970 0.000000 -0.004880 
#    y 0.000000 1.850240 0.000000 
#    z -0.004880 0.000000 1.864100 
# 
# From -- ./inp_files/314176.got.cif
#   From: 2010.06.25/outbox.cif.g09.slc.cpg/sg15_158_cif.got.tgz:314176.got - 2010.06.28 07:06:18.
