data_PCOD8150764
_publ_section_title
;
Structure prediction by ZEFSAII (Michael W. Deem and Ramdas Pophale) SiO2 
 PCOD8150764
Probable space group: C 2/C
;
_chemical_formula_sum "Si O2"
_cell_formula_units_Z 36
_cell_length_a 9.331018
_cell_length_b 8.224669
_cell_length_c 22.200050
_cell_angle_alpha 90.000000
_cell_angle_beta 66.507114
_cell_angle_gamma 90.000000
_cell_volume 1562.509395
_symmetry_space_group_name_H-M "C 2/C"
_symmetry_group_IT_number 15
_symmetry_cell_setting 'monoclinic'
loop_
_space_group_symop_operation_xyz
x,y,z
-x,y,1/2-z
-x,-y,-z
x,-y,1/2+z
1/2+x,1/2+y,z
1/2-x,1/2+y,1/2-z
1/2-x,1/2-y,-z
1/2+x,1/2-y,1/2+z
loop_
_atom_site_type_symbol
_atom_site_label
_atom_site_fract_x
_atom_site_fract_y
_atom_site_fract_z
Si Si1 0.769677 0.067024 0.639739
Si Si2 0.822340 0.418298 0.965695
Si Si3 0.500000 0.911514 0.750000
Si Si4 0.960487 0.098130 0.820545
Si Si5 0.313987 0.085385 0.087764
O O1 0.733186 0.248244 0.622545
O O2 0.939551 0.033789 0.639859
O O3 0.763219 0.953151 0.582600
O O4 0.648995 0.026145 0.714140
O O5 0.006782 0.408103 0.922409
O O6 0.750000 0.250000 0.000000
O O7 0.795319 0.560932 0.019021
O O8 0.504654 0.791146 0.807598
O O9 0.000000 0.011343 0.750000
O O10 0.777817 0.064244 0.864632
#
# Coordination Sequence:
#
# PCOD8150764 Si02
#       5
#     8   8   4   8   8
#     4  12  25  43  73 101 136 186 231 282 348 411
#     4  11  26  48  72 103 143 180 232 292 350 410
#     4  10  26  42  68 100 144 182 230 282 346 412
#     4  10  27  44  68 100 143 180 229 284 344 414
#     4  11  25  45  71 106 138 180 236 284 349 411
#
# _framework density 23.039861999999999
#
# number of rings (size 3 to 8) (size 9 to 14) (size 15 to 20)
#    0.667    0.444    0.000    4.667    7.778    8.889 
#    0.000    0.000    0.000    0.000    0.000    0.000 
#    0.000    0.000    0.000    0.000    0.000    0.000 
#
# Total GULP energy -223075.689474 kJ/mol
# GULP energy per Si atom -12393.093860 kJ/mol
# Density = 2.298742 g / cm^3
# Si number density = 23.039862 Si / 1000 Ang^3
#
#
#
# Elastic Constant Matrix: (Units=GPa)
#
#
# Indices 1 2 3 4 5 6 
#
# 1 141.6646 56.0335 75.1351 0.0000 0.2082 0.0000
# 2 56.0335 124.6684 65.4971 0.0000 -11.2684 0.0000
# 3 75.1351 65.4971 136.5284 0.0000 -5.8052 0.0000
# 4 0.0000 0.0000 0.0000 66.1194 0.0000 -7.4824
# 5 0.2082 -11.2684 -5.8052 0.0000 56.4594 0.0000
# 6 0.0000 0.0000 0.0000 -7.4824 0.0000 20.5633
#
#
#
# Elastic Compliance Matrix: (Units=1/GPa)
#
#
# Indices 1 2 3 4 5 6 
#
# 1 0.010467 -0.002333 -0.004683 0.000000 -0.000986 0.000000
# 2 -0.002333 0.011394 -0.004103 0.000000 0.001861 0.000000
# 3 -0.004683 -0.004103 0.011888 0.000000 0.000421 0.000000
# 4 0.000000 0.000000 0.000000 0.015774 0.000000 0.005740
# 5 -0.000986 0.001861 0.000421 0.000000 0.018130 0.000000
# 6 0.000000 0.000000 0.000000 0.005740 0.000000 0.050719
#
#
# Mechanical properties :
#
#
# Convention : Reuss Voigt Hill
#
# Bulk Modulus (GPa) = 86.87655 88.46585 87.67120
# Shear Modulus (GPa) = 34.61520 42.37480 38.49500
#
# Velocity S-wave (km/s) = 3.88029 4.29324 4.09198
# Velocity P-wave (km/s) = 7.60687 7.94078 7.77562
#
# Compressibility (1/GPa) = 0.01151059
#
# Stress axis : x y z
#
# Youngs Moduli (GPa) = 95.53923 87.76817 84.12144
#
# Poissons Ratio (x) = 0.20480 0.39392
# Poissons Ratio (y) = 0.22293 0.34512
# Poissons Ratio (z) = 0.44738 0.36008
#
# Static dielectric constant tensor:
#      x y z
#    x 3.931710 0.000000 -0.060210 
#    y 0.000000 4.035010 0.000000 
#    z -0.060210 0.000000 4.431180 
# 
# 
# High freq. dielectric constant tensor:
#      x y z
#    x 1.896840 0.000000 -0.000450 
#    y 0.000000 1.899620 0.000000 
#    z -0.000450 0.000000 1.937400 
# 
# From -- ./inp_files/262391.got.cif
#   From: 2010.06.25/outbox.cif.g09.slc.cpg/sg15_132_cif.got.tgz:262391.got - 2010.06.28 07:06:18.
