data_PCOD8150994
_publ_section_title
;
Structure prediction by ZEFSAII (Michael W. Deem and Ramdas Pophale) SiO2 
 PCOD8150994
Probable space group: C 2/C
;
_chemical_formula_sum "Si O2"
_cell_formula_units_Z 48
_cell_length_a 5.143817
_cell_length_b 21.347277
_cell_length_c 20.632284
_cell_angle_alpha 90.000000
_cell_angle_beta 57.959558
_cell_angle_gamma 90.000000
_cell_volume 1920.454776
_symmetry_space_group_name_H-M "C 2/C"
_symmetry_group_IT_number 15
_symmetry_cell_setting 'monoclinic'
loop_
_space_group_symop_operation_xyz
x,y,z
-x,y,1/2-z
-x,-y,-z
x,-y,1/2+z
1/2+x,1/2+y,z
1/2-x,1/2+y,1/2-z
1/2-x,1/2-y,-z
1/2+x,1/2-y,1/2+z
loop_
_atom_site_type_symbol
_atom_site_label
_atom_site_fract_x
_atom_site_fract_y
_atom_site_fract_z
Si Si1 0.406192 0.320232 0.085915
Si Si2 0.500000 0.128089 0.750000
Si Si3 0.263956 0.557353 0.376791
Si Si4 0.000000 0.045013 0.750000
Si Si5 0.094308 0.248224 0.413725
Si Si6 0.500000 0.653450 0.250000
Si Si7 0.911468 0.104117 0.048045
Si Si8 0.500000 0.771271 0.750000
O O1 0.737915 0.289978 0.054366
O O2 0.211234 0.327879 0.176943
O O3 0.255136 0.272489 0.051980
O O4 0.455137 0.386863 0.042702
O O5 0.286718 0.086201 0.733195
O O6 0.382361 0.494109 0.327457
O O7 0.456358 0.613401 0.320217
O O8 0.353103 0.561427 0.441204
O O9 0.903625 0.565660 0.413258
O O10 0.130020 0.173843 0.417206
O O11 0.257400 0.268483 0.323735
O O12 0.188576 0.690987 0.279698
#
# Coordination Sequence:
#
# PCOD8150994 Si02
#       8
#     8   4   8   4   8   4   8   4
#     4  12  26  43  65  92 135 185 226 252 315 387
#     4  12  26  52  65  92 125 178 230 274 314 384
#     4  11  22  41  67 102 124 165 209 271 358 383
#     4  11  26  47  77  92 127 164 219 288 335 394
#     4  12  22  39  61  99 135 183 216 254 311 388
#     4  11  18  35  54  89 126 159 193 264 319 382
#     4  12  23  41  65 101 143 166 206 276 324 397
#     4  12  20  32  60  87 128 169 216 254 298 360
#
# _framework density 24.994077000000001
#
# number of rings (size 3 to 8) (size 9 to 14) (size 15 to 20)
#    0.000    0.333    3.333    7.000    0.000    2.667 
#    0.000    5.000    0.000    0.000    0.000    0.000 
#    0.000    0.000    0.000    0.000    0.000    0.000 
#
# Total GULP energy -297604.688279 kJ/mol
# GULP energy per Si atom -12400.195345 kJ/mol
# Density = 2.493719 g / cm^3
# Si number density = 24.994077 Si / 1000 Ang^3
#
#
#
# Elastic Constant Matrix: (Units=GPa)
#
#
# Indices 1 2 3 4 5 6 
#
# 1 186.7076 40.9244 5.5182 0.0000 0.0633 0.0000
# 2 40.9244 61.4753 0.5195 0.0000 3.3470 0.0000
# 3 5.5182 0.5195 79.6404 0.0000 9.4164 0.0000
# 4 0.0000 0.0000 0.0000 135.1541 0.0000 15.7887
# 5 0.0633 3.3470 9.4164 0.0000 38.0362 0.0000
# 6 0.0000 0.0000 0.0000 15.7887 0.0000 32.5163
#
#
#
# Elastic Compliance Matrix: (Units=1/GPa)
#
#
# Indices 1 2 3 4 5 6 
#
# 1 0.006293 -0.004211 -0.000465 0.000000 0.000475 0.000000
# 2 -0.004211 0.019163 0.000376 0.000000 -0.001772 0.000000
# 3 -0.000465 0.000376 0.012970 0.000000 -0.003243 0.000000
# 4 0.000000 0.000000 0.000000 0.007844 0.000000 -0.003809
# 5 0.000475 -0.001772 -0.003243 0.000000 0.027249 0.000000
# 6 0.000000 0.000000 0.000000 -0.003809 0.000000 0.032603
#
#
# Mechanical properties :
#
#
# Convention : Reuss Voigt Hill
#
# Bulk Modulus (GPa) = 33.52684 46.86083 40.19384
# Shear Modulus (GPa) = 40.10841 59.86540 49.98691
#
# Velocity S-wave (km/s) = 4.01024 4.89937 4.47693
# Velocity P-wave (km/s) = 5.90641 7.12703 6.54524
#
# Compressibility (1/GPa) = 0.02982685
#
# Stress axis : x y z
#
# Youngs Moduli (GPa) = 158.91853 52.18320 77.10315
#
# Poissons Ratio (x) = 0.21974 0.03583
# Poissons Ratio (y) = 0.66919 -0.02902
# Poissons Ratio (z) = 0.07385 -0.01964
#
# Static dielectric constant tensor:
#      x y z
#    x 4.860610 0.000000 -0.111940 
#    y 0.000000 4.086920 0.000000 
#    z -0.111940 0.000000 5.442030 
# 
# 
# High freq. dielectric constant tensor:
#      x y z
#    x 2.019350 0.000000 0.003510 
#    y 0.000000 1.965250 0.000000 
#    z 0.003510 0.000000 2.020580 
# 
# From -- ./inp_files/261100.got.cif
#   From: 2010.06.25/outbox.cif.g09.slc.cpg/sg15_131_cif.got.tgz:261100.got - 2010.06.28 07:06:18.
