data_PCOD8150371
_publ_section_title
;
Structure prediction by ZEFSAII (Michael W. Deem and Ramdas Pophale) SiO2 
 PCOD8150371
Probable space group: C 2/C
;
_chemical_formula_sum "Si O2"
_cell_formula_units_Z 52
_cell_length_a 17.727106
_cell_length_b 13.491137
_cell_length_c 14.857211
_cell_angle_alpha 90.000000
_cell_angle_beta 40.969147
_cell_angle_gamma 90.000000
_cell_volume 2329.686208
_symmetry_space_group_name_H-M "C 2/C"
_symmetry_group_IT_number 15
_symmetry_cell_setting 'monoclinic'
loop_
_space_group_symop_operation_xyz
x,y,z
-x,y,1/2-z
-x,-y,-z
x,-y,1/2+z
1/2+x,1/2+y,z
1/2-x,1/2+y,1/2-z
1/2-x,1/2-y,-z
1/2+x,1/2-y,1/2+z
loop_
_atom_site_type_symbol
_atom_site_label
_atom_site_fract_x
_atom_site_fract_y
_atom_site_fract_z
Si Si1 0.984123 0.498315 0.407795
Si Si2 0.104619 0.854891 0.707924
Si Si3 0.758271 0.037910 0.931638
Si Si4 0.067581 0.185082 0.781870
Si Si5 0.000000 0.667753 0.750000
Si Si6 0.296505 0.882242 0.833770
Si Si7 0.427875 0.399282 0.563096
O O1 0.867146 0.558791 0.495951
O O2 0.976326 0.393540 0.362835
O O3 0.000000 0.500000 0.500000
O O4 0.090782 0.550828 0.265471
O O5 0.111126 0.740718 0.665958
O O6 0.069317 0.847078 0.843674
O O7 0.000000 0.910775 0.750000
O O8 0.219466 0.918874 0.583892
O O9 0.860512 0.082483 0.778867
O O10 0.770891 0.096183 0.013557
O O11 0.162956 0.269495 0.712742
O O12 0.000000 0.204353 0.750000
O O13 0.978431 0.178855 0.944815
O O14 0.208070 0.915321 0.835494
O O15 0.500000 0.500000 0.500000
#
# Coordination Sequence:
#
# PCOD8150371 Si02
#       7
#     8   8   8   8   4   8   8
#     4  12  27  48  70 107 150 200 246 311 379 453
#     4  10  24  46  71 105 143 192 248 303 370 447
#     4  12  22  47  73 104 153 192 245 312 377 444
#     4  12  26  44  76 111 148 192 245 313 375 455
#     4  10  26  50  70 102 144 192 254 304 376 446
#     4  12  27  45  76 106 150 192 246 310 378 449
#     4  12  25  48  74 110 146 195 253 306 379 451
#
# _framework density 22.320601
#
# number of rings (size 3 to 8) (size 9 to 14) (size 15 to 20)
#    0.462    0.000    4.615    3.692    4.308    0.615 
#    0.000    0.000    0.000    0.000    0.000    0.000 
#    0.000    0.000    0.000    0.000    0.000    0.000 
#
# Total GULP energy -322295.778040 kJ/mol
# GULP energy per Si atom -12395.991463 kJ/mol
# Density = 2.226980 g / cm^3
# Si number density = 22.320601 Si / 1000 Ang^3
#
#
#
# Elastic Constant Matrix: (Units=GPa)
#
#
# Indices 1 2 3 4 5 6 
#
# 1 159.8568 44.0737 45.9322 0.0000 -1.9534 0.0000
# 2 44.0737 116.2621 32.8807 0.0000 0.1432 0.0000
# 3 45.9322 32.8807 88.9964 0.0000 1.9729 0.0000
# 4 0.0000 0.0000 0.0000 38.8079 0.0000 -11.5634
# 5 -1.9534 0.1432 1.9729 0.0000 49.2299 0.0000
# 6 0.0000 0.0000 0.0000 -11.5634 0.0000 36.6875
#
#
#
# Elastic Compliance Matrix: (Units=1/GPa)
#
#
# Indices 1 2 3 4 5 6 
#
# 1 0.007756 -0.002017 -0.003268 0.000000 0.000445 0.000000
# 2 -0.002017 0.010130 -0.002702 0.000000 -0.000001 0.000000
# 3 -0.003268 -0.002702 0.013936 0.000000 -0.000680 0.000000
# 4 0.000000 0.000000 0.000000 0.028439 0.000000 0.008963
# 5 0.000445 -0.000001 -0.000680 0.000000 0.020358 0.000000
# 6 0.000000 0.000000 0.000000 0.008963 0.000000 0.030082
#
#
# Mechanical properties :
#
#
# Convention : Reuss Voigt Hill
#
# Bulk Modulus (GPa) = 63.09230 67.87651 65.48440
# Shear Modulus (GPa) = 37.89131 41.09363 39.49247
#
# Velocity S-wave (km/s) = 4.12466 4.29542 4.21090
# Velocity P-wave (km/s) = 7.14223 7.42136 7.28313
#
# Compressibility (1/GPa) = 0.01584980
#
# Stress axis : x y z
#
# Youngs Moduli (GPa) = 128.93319 98.71846 71.75548
#
# Poissons Ratio (x) = 0.19907 0.23448
# Poissons Ratio (y) = 0.26000 0.19387
# Poissons Ratio (z) = 0.42132 0.26671
#
# Static dielectric constant tensor:
#      x y z
#    x 4.159960 0.000000 -0.023840 
#    y 0.000000 3.893060 0.000000 
#    z -0.023840 0.000000 4.087460 
# 
# 
# High freq. dielectric constant tensor:
#      x y z
#    x 1.890280 0.000000 -0.001960 
#    y 0.000000 1.872030 0.000000 
#    z -0.001960 0.000000 1.883670 
# 
# From -- ./inp_files/162496.got.cif
#   From: 2010.06.25/outbox.cif.g09.slc.cpg/sg15_82_cif.got.tgz:162496.got - 2010.06.28 07:06:18.
