data_PCOD8150340
_publ_section_title
;
Structure prediction by ZEFSAII (Michael W. Deem and Ramdas Pophale) SiO2 
 PCOD8150340
Probable space group: C 2/C
;
_chemical_formula_sum "Si O2"
_cell_formula_units_Z 56
_cell_length_a 19.142974
_cell_length_b 8.626012
_cell_length_c 17.621462
_cell_angle_alpha 90.000000
_cell_angle_beta 62.950511
_cell_angle_gamma 90.000000
_cell_volume 2591.498441
_symmetry_space_group_name_H-M "C 2/C"
_symmetry_group_IT_number 15
_symmetry_cell_setting 'monoclinic'
loop_
_space_group_symop_operation_xyz
x,y,z
-x,y,1/2-z
-x,-y,-z
x,-y,1/2+z
1/2+x,1/2+y,z
1/2-x,1/2+y,1/2-z
1/2-x,1/2-y,-z
1/2+x,1/2-y,1/2+z
loop_
_atom_site_type_symbol
_atom_site_label
_atom_site_fract_x
_atom_site_fract_y
_atom_site_fract_z
Si Si1 0.586959 0.421512 0.546615
Si Si2 0.369061 0.909697 0.410199
Si Si3 0.009585 0.432911 0.912102
Si Si4 0.659765 0.026203 0.746024
Si Si5 0.727890 0.586398 0.545223
Si Si6 0.433378 0.592781 0.613893
Si Si7 0.288073 0.677148 0.779115
O O1 0.602437 0.251400 0.570046
O O2 0.639595 0.545240 0.565167
O O3 0.494750 0.457406 0.604519
O O4 0.607735 0.435201 0.447116
O O5 0.432006 0.040341 0.400839
O O6 0.364232 0.901067 0.322196
O O7 0.285025 0.951504 0.487333
O O8 0.084050 0.512224 0.836157
O O9 0.017703 0.250191 0.914452
O O10 0.000000 0.500000 0.000000
O O11 0.701748 0.860546 0.714105
O O12 0.718494 0.149363 0.754268
O O13 0.750000 0.750000 0.500000
O O14 0.734620 0.592665 0.632212
O O15 0.367841 0.598295 0.710646
#
# Coordination Sequence:
#
# PCOD8150340 Si02
#       7
#     8   8   8   8   8   8   8
#     4  11  25  44  71  99 135 178 223 281 336 404
#     4  12  24  45  69 102 135 177 227 277 337 403
#     4  11  22  45  70  98 134 180 222 276 339 401
#     4  11  26  44  69  98 137 176 228 278 333 402
#     4  12  25  45  70  98 137 179 225 278 340 399
#     4  10  24  46  68  99 137 177 225 276 338 402
#     4  11  26  45  67 100 134 179 224 280 334 401
#
# _framework density 21.609119
#
# number of rings (size 3 to 8) (size 9 to 14) (size 15 to 20)
#    0.000    0.857    2.857    3.429    4.000    1.714 
#    2.571    0.000    0.000    0.000    0.000    0.000 
#    0.000    0.000    0.000    0.000    0.000    0.000 
#
# Total GULP energy -347429.626148 kJ/mol
# GULP energy per Si atom -12408.200934 kJ/mol
# Density = 2.155994 g / cm^3
# Si number density = 21.609119 Si / 1000 Ang^3
#
#
#
# Elastic Constant Matrix: (Units=GPa)
#
#
# Indices 1 2 3 4 5 6 
#
# 1 121.9120 30.8878 44.5086 -0.0001 24.8371 -0.0001
# 2 30.8878 65.8668 34.3074 -0.0003 6.0375 -0.0004
# 3 44.5086 34.3074 135.5376 -0.0001 10.3914 -0.0001
# 4 -0.0001 -0.0003 -0.0001 25.4144 0.0000 2.5946
# 5 24.8371 6.0375 10.3914 0.0000 36.9930 0.0000
# 6 -0.0001 -0.0004 -0.0001 2.5946 0.0000 48.8494
#
#
#
# Elastic Compliance Matrix: (Units=1/GPa)
#
#
# Indices 1 2 3 4 5 6 
#
# 1 0.011215 -0.003472 -0.002320 0.000000 -0.006312 0.000000
# 2 -0.003472 0.018661 -0.003606 0.000000 0.000299 0.000000
# 3 -0.002320 -0.003606 0.009084 0.000000 -0.000405 0.000000
# 4 0.000000 0.000000 0.000000 0.039562 0.000000 -0.002101
# 5 -0.006312 0.000299 -0.000405 0.000000 0.031335 0.000000
# 6 0.000000 0.000000 0.000000 -0.002101 0.000000 0.020583
#
#
# Mechanical properties :
#
#
# Convention : Reuss Voigt Hill
#
# Bulk Modulus (GPa) = 49.59543 60.30268 54.94906
# Shear Modulus (GPa) = 32.05974 36.49219 34.27596
#
# Velocity S-wave (km/s) = 3.85596 4.11389 3.98701
# Velocity P-wave (km/s) = 6.54412 7.10860 6.83219
#
# Compressibility (1/GPa) = 0.02016315
#
# Stress axis : x y z
#
# Youngs Moduli (GPa) = 89.16400 53.58636 110.08586
#
# Poissons Ratio (x) = 0.18607 0.25541
# Poissons Ratio (y) = 0.30961 0.39700
# Poissons Ratio (z) = 0.20687 0.19325
#
# Static dielectric constant tensor:
#      x y z
#    x 4.136230 0.000000 0.022330 
#    y 0.000000 4.080230 0.000000 
#    z 0.022330 0.000000 4.070710 
# 
# 
# High freq. dielectric constant tensor:
#      x y z
#    x 1.864510 0.000000 0.002790 
#    y 0.000000 1.851940 0.000000 
#    z 0.002790 0.000000 1.857910 
# 
# From -- ./inp_files/209510.got.cif
#   From: 2010.06.25/outbox.cif.g09.slc.cpg/sg15_105_cif.got.tgz:209510.got - 2010.06.28 07:06:18.
