data_PCOD8150729
_publ_section_title
;
Structure prediction by ZEFSAII (Michael W. Deem and Ramdas Pophale) SiO2 
 PCOD8150729
Probable space group: C 2/C
;
_chemical_formula_sum "Si O2"
_cell_formula_units_Z 40
_cell_length_a 27.455885
_cell_length_b 10.271434
_cell_length_c 8.974699
_cell_angle_alpha 90.000000
_cell_angle_beta 143.006924
_cell_angle_gamma 90.000000
_cell_volume 1522.929459
_symmetry_space_group_name_H-M "C 2/C"
_symmetry_group_IT_number 15
_symmetry_cell_setting 'monoclinic'
loop_
_space_group_symop_operation_xyz
x,y,z
-x,y,1/2-z
-x,-y,-z
x,-y,1/2+z
1/2+x,1/2+y,z
1/2-x,1/2+y,1/2-z
1/2-x,1/2-y,-z
1/2+x,1/2-y,1/2+z
loop_
_atom_site_type_symbol
_atom_site_label
_atom_site_fract_x
_atom_site_fract_y
_atom_site_fract_z
Si Si1 0.040229 0.236287 0.494026
Si Si2 0.877757 0.710425 0.756431
Si Si3 0.782917 0.080054 0.836972
Si Si4 0.818891 0.432100 0.679106
Si Si5 0.913971 0.113778 0.604864
O O1 0.103782 0.344300 0.588689
O O2 0.083839 0.134449 0.710504
O O3 0.000000 0.169729 0.250000
O O4 0.968454 0.297774 0.416149
O O5 0.845696 0.566112 0.669369
O O6 0.815036 0.803044 0.516482
O O7 0.880321 0.759309 0.934960
O O8 0.733467 0.968272 0.804268
O O9 0.731828 0.141739 0.574931
O O10 0.858142 0.010682 0.939807
O O11 0.000000 0.073269 0.750000
#
# Coordination Sequence:
#
# PCOD8150729 Si02
#       5
#     8   8   8   8   8
#     4  11  26  45  76 108 144 187 246 299 352 439
#     4  11  25  49  71 102 151 197 234 292 375 440
#     4  12  26  44  75 106 149 187 243 302 365 429
#     4  12  26  45  74 109 146 188 242 303 366 421
#     4  10  25  48  74 103 146 198 237 292 368 440
#
# _framework density 26.265167999999999
#
# number of rings (size 3 to 8) (size 9 to 14) (size 15 to 20)
#    0.000    0.800    2.000    3.600    5.600    7.200 
#    0.000    0.000    0.000    0.000    0.000    0.000 
#    0.000    0.000    0.000    0.000    0.000    0.000 
#
# Total GULP energy -248056.206635 kJ/mol
# GULP energy per Si atom -12402.810332 kJ/mol
# Density = 2.620539 g / cm^3
# Si number density = 26.265168 Si / 1000 Ang^3
#
#
#
# Elastic Constant Matrix: (Units=GPa)
#
#
# Indices 1 2 3 4 5 6 
#
# 1 74.1964 -13.8014 18.6079 0.0000 2.7973 0.0000
# 2 -13.8014 41.7413 16.3428 0.0000 9.4009 0.0000
# 3 18.6079 16.3428 165.8992 0.0000 -21.2110 0.0000
# 4 0.0000 0.0000 0.0000 35.5564 0.0000 -1.3967
# 5 2.7973 9.4009 -21.2110 0.0000 41.5131 0.0000
# 6 0.0000 0.0000 0.0000 -1.3967 0.0000 32.7436
#
#
#
# Elastic Compliance Matrix: (Units=1/GPa)
#
#
# Indices 1 2 3 4 5 6 
#
# 1 0.015774 0.007373 -0.003044 0.000000 -0.004288 0.000000
# 2 0.007373 0.030673 -0.005136 0.000000 -0.010067 0.000000
# 3 -0.003044 -0.005136 0.007543 0.000000 0.005222 0.000000
# 4 0.000000 0.000000 0.000000 0.028172 0.000000 0.001202
# 5 -0.004288 -0.010067 0.005222 0.000000 0.029326 0.000000
# 6 0.000000 0.000000 0.000000 0.001202 0.000000 0.030592
#
#
# Mechanical properties :
#
#
# Convention : Reuss Voigt Hill
#
# Bulk Modulus (GPa) = 19.09236 36.01505 27.55371
# Shear Modulus (GPa) = 31.02687 39.34179 35.18433
#
# Velocity S-wave (km/s) = 3.44072 3.87443 3.66400
# Velocity P-wave (km/s) = 4.80309 5.81006 5.33041
#
# Compressibility (1/GPa) = 0.05237697
#
# Stress axis : x y z
#
# Youngs Moduli (GPa) = 63.39441 32.60204 132.57758
#
# Poissons Ratio (x) = -0.24038 0.40355
# Poissons Ratio (y) = -0.46741 0.68088
# Poissons Ratio (z) = 0.19296 0.16743
#
# Static dielectric constant tensor:
#      x y z
#    x 4.945210 0.000000 0.077560 
#    y 0.000000 4.306530 0.000000 
#    z 0.077560 0.000000 5.165910 
# 
# 
# High freq. dielectric constant tensor:
#      x y z
#    x 2.072380 0.000000 0.004410 
#    y 0.000000 2.033640 0.000000 
#    z 0.004410 0.000000 2.074140 
# 
# From -- ./inp_files/46061.got.cif
#   From: 2010.06.25/outbox.cif.g09.slc.cpg/sg15_24_cif.got.tgz:46061.got - 2010.06.28 07:06:18.
