data_PCOD8150920
_publ_section_title
;
Structure prediction by ZEFSAII (Michael W. Deem and Ramdas Pophale) SiO2 
 PCOD8150920
Probable space group: C 2/C
;
_chemical_formula_sum "Si O2"
_cell_formula_units_Z 64
_cell_length_a 11.305005
_cell_length_b 13.987617
_cell_length_c 21.940114
_cell_angle_alpha 90.000000
_cell_angle_beta 63.063166
_cell_angle_gamma 90.000000
_cell_volume 3092.985459
_symmetry_space_group_name_H-M "C 2/C"
_symmetry_group_IT_number 15
_symmetry_cell_setting 'monoclinic'
loop_
_space_group_symop_operation_xyz
x,y,z
-x,y,1/2-z
-x,-y,-z
x,-y,1/2+z
1/2+x,1/2+y,z
1/2-x,1/2+y,1/2-z
1/2-x,1/2-y,-z
1/2+x,1/2-y,1/2+z
loop_
_atom_site_type_symbol
_atom_site_label
_atom_site_fract_x
_atom_site_fract_y
_atom_site_fract_z
Si Si1 0.159484 0.156341 0.326349
Si Si2 0.129892 0.001693 0.930498
Si Si3 0.597898 0.959329 0.064626
Si Si4 0.879670 0.606124 0.074883
Si Si5 0.666926 0.700140 0.867891
Si Si6 0.539262 0.808469 0.172861
Si Si7 0.849961 0.186261 0.768587
Si Si8 0.840261 0.967192 0.786128
O O1 0.264987 0.235480 0.325315
O O2 0.033224 0.211470 0.328818
O O3 0.122933 0.093973 0.392866
O O4 0.215966 0.085298 0.260918
O O5 0.265310 0.003964 0.937439
O O6 0.111041 0.094803 0.892622
O O7 0.000000 0.000000 0.000000
O O8 0.513091 0.893477 0.130868
O O9 0.503181 0.047220 0.071799
O O10 0.634286 0.902780 0.994529
O O11 0.920024 0.715322 0.082043
O O12 0.737819 0.576085 0.137799
O O13 0.807292 0.715364 0.866987
O O14 0.680120 0.714076 0.793370
O O15 0.500000 0.843220 0.250000
O O16 0.803661 0.079170 0.793528
O O17 0.000000 0.203309 0.750000
O O18 0.000000 0.953095 0.750000
#
# Coordination Sequence:
#
# PCOD8150920 Si02
#       8
#     8   8   8   8   8   8   8   8
#     4  12  23  41  67  99 127 170 220 274 333 385
#     4  11  28  44  65  93 135 176 226 272 332 399
#     4  10  27  44  68  99 132 183 217 274 336 392
#     4  11  23  44  70  97 137 174 228 266 333 402
#     4  11  23  43  65  96 131 171 222 276 328 387
#     4  11  22  42  70 100 128 167 231 274 323 389
#     4  11  24  40  61  99 133 168 210 272 339 390
#     4  11  23  40  70  96 134 174 217 274 323 397
#
# _framework density 20.691983
#
# number of rings (size 3 to 8) (size 9 to 14) (size 15 to 20)
#    0.000    1.000    3.750    1.875    7.000    1.000 
#    0.000    0.625    0.000    0.000    0.000    0.000 
#    0.000    0.000    0.000    0.000    0.000    0.000 
#
# Total GULP energy -396781.529417 kJ/mol
# GULP energy per Si atom -12399.422794 kJ/mol
# Density = 2.064489 g / cm^3
# Si number density = 20.691983 Si / 1000 Ang^3
#
#
#
# Elastic Constant Matrix: (Units=GPa)
#
#
# Indices 1 2 3 4 5 6 
#
# 1 65.2726 43.8506 28.1335 0.0000 -3.7511 0.0000
# 2 43.8506 144.4987 54.3903 0.0000 -4.7980 0.0000
# 3 28.1335 54.3903 123.7751 0.0000 -0.1529 0.0000
# 4 0.0000 0.0000 0.0000 42.0237 0.0000 2.4762
# 5 -3.7511 -4.7980 -0.1529 0.0000 32.4977 0.0000
# 6 0.0000 0.0000 0.0000 2.4762 0.0000 28.7127
#
#
#
# Elastic Compliance Matrix: (Units=1/GPa)
#
#
# Indices 1 2 3 4 5 6 
#
# 1 0.019815 -0.005114 -0.002255 0.000000 0.001522 0.000000
# 2 -0.005114 0.009660 -0.003081 0.000000 0.000821 0.000000
# 3 -0.002255 -0.003081 0.009945 0.000000 -0.000668 0.000000
# 4 0.000000 0.000000 0.000000 0.023918 0.000000 -0.002063
# 5 0.001522 0.000821 -0.000668 0.000000 0.031065 0.000000
# 6 0.000000 0.000000 0.000000 -0.002063 0.000000 0.035006
#
#
# Mechanical properties :
#
#
# Convention : Reuss Voigt Hill
#
# Bulk Modulus (GPa) = 53.99724 65.14392 59.57058
# Shear Modulus (GPa) = 31.95267 34.45829 33.20548
#
# Velocity S-wave (km/s) = 3.93390 4.08523 4.01028
# Velocity P-wave (km/s) = 6.84006 7.33507 7.09189
#
# Compressibility (1/GPa) = 0.01851946
#
# Stress axis : x y z
#
# Youngs Moduli (GPa) = 50.46604 103.52498 100.55475
#
# Poissons Ratio (x) = 0.52943 0.22673
# Poissons Ratio (y) = 0.25809 0.30983
# Poissons Ratio (z) = 0.11379 0.31899
#
# Static dielectric constant tensor:
#      x y z
#    x 3.690800 0.000000 -0.009080 
#    y 0.000000 4.592370 0.000000 
#    z -0.009080 0.000000 3.794290 
# 
# 
# High freq. dielectric constant tensor:
#      x y z
#    x 1.808860 0.000000 0.000640 
#    y 0.000000 1.829370 0.000000 
#    z 0.000640 0.000000 1.806290 
# 
# From -- ./inp_files/238724.got.cif
#   From: 2010.06.25/outbox.cif.g09.slc.cpg/sg15_120_cif.got.tgz:238724.got - 2010.06.28 07:06:18.
