data_PCOD8150849
_publ_section_title
;
Structure prediction by ZEFSAII (Michael W. Deem and Ramdas Pophale) SiO2 
 PCOD8150849
Probable space group: C 2/C
;
_chemical_formula_sum "Si O2"
_cell_formula_units_Z 60
_cell_length_a 30.806147
_cell_length_b 11.813475
_cell_length_c 8.060514
_cell_angle_alpha 90.000000
_cell_angle_beta 112.762090
_cell_angle_gamma 90.000000
_cell_volume 2704.985383
_symmetry_space_group_name_H-M "C 2/C"
_symmetry_group_IT_number 15
_symmetry_cell_setting 'monoclinic'
loop_
_space_group_symop_operation_xyz
x,y,z
-x,y,1/2-z
-x,-y,-z
x,-y,1/2+z
1/2+x,1/2+y,z
1/2-x,1/2+y,1/2-z
1/2-x,1/2-y,-z
1/2+x,1/2-y,1/2+z
loop_
_atom_site_type_symbol
_atom_site_label
_atom_site_fract_x
_atom_site_fract_y
_atom_site_fract_z
Si Si1 0.519071 0.116956 0.092786
Si Si2 0.624717 0.858711 0.678471
Si Si3 0.856490 0.030408 0.294068
Si Si4 0.739010 0.441675 0.479521
Si Si5 0.826255 0.778079 0.962157
Si Si6 0.500000 0.273509 0.750000
Si Si7 0.900419 0.151541 0.055903
Si Si8 0.694632 0.935237 0.209551
O O1 0.500000 0.147863 0.250000
O O2 0.575462 0.103879 0.187234
O O3 0.502831 0.205498 0.928061
O O4 0.500000 0.000000 0.000000
O O5 0.614648 0.781665 0.501495
O O6 0.654629 0.968715 0.666186
O O7 0.650783 0.780068 0.846397
O O8 0.857465 0.113453 0.455251
O O9 0.868022 0.101442 0.149831
O O10 0.803804 0.982144 0.197715
O O11 0.892630 0.927555 0.381772
O O12 0.725173 0.329215 0.563684
O O13 0.787905 0.419921 0.455202
O O14 0.756757 0.543607 0.623340
O O15 0.825124 0.692977 0.798859
O O16 0.545500 0.353527 0.807348
#
# Coordination Sequence:
#
# PCOD8150849 Si02
#       8
#     8   8   8   8   8   4   8   8
#     4  11  25  46  76 106 150 195 240 305 379 448
#     4  11  27  46  71 106 144 184 242 302 366 442
#     4  12  24  44  74  97 140 193 237 295 368 423
#     4  12  24  45  64 102 136 191 238 291 358 419
#     4  12  26  45  69  98 143 189 239 297 354 443
#     4  10  26  46  72 114 144 184 252 308 368 464
#     4  11  24  47  72 103 141 185 240 302 369 441
#     4  12  27  41  69 101 142 185 240 300 356 427
#
# _framework density 22.181266999999998
#
# number of rings (size 3 to 8) (size 9 to 14) (size 15 to 20)
#    0.000    0.533    6.000    0.400    5.600    1.067 
#    0.000    0.000    0.000    0.000    0.000    0.000 
#    0.000    0.000    0.000    0.000    0.000    0.000 
#
# Total GULP energy -371737.267569 kJ/mol
# GULP energy per Si atom -12391.242252 kJ/mol
# Density = 2.213078 g / cm^3
# Si number density = 22.181267 Si / 1000 Ang^3
#
#
#
# Elastic Constant Matrix: (Units=GPa)
#
#
# Indices 1 2 3 4 5 6 
#
# 1 112.7552 49.8363 38.5333 0.0000 9.3983 0.0000
# 2 49.8363 116.7683 32.5687 0.0000 9.2739 0.0000
# 3 38.5333 32.5687 89.2839 0.0000 7.7868 0.0000
# 4 0.0000 0.0000 0.0000 42.0246 0.0000 0.9783
# 5 9.3983 9.2739 7.7868 0.0000 42.7585 0.0000
# 6 0.0000 0.0000 0.0000 0.9783 0.0000 31.3222
#
#
#
# Elastic Compliance Matrix: (Units=1/GPa)
#
#
# Indices 1 2 3 4 5 6 
#
# 1 0.011967 -0.004015 -0.003604 0.000000 -0.001103 0.000000
# 2 -0.004015 0.010971 -0.002173 0.000000 -0.001101 0.000000
# 3 -0.003604 -0.002173 0.013655 0.000000 -0.001223 0.000000
# 4 0.000000 0.000000 0.000000 0.023813 0.000000 -0.000744
# 5 -0.001103 -0.001101 -0.001223 0.000000 0.024091 0.000000
# 6 0.000000 0.000000 0.000000 -0.000744 0.000000 0.031949
#
#
# Mechanical properties :
#
#
# Convention : Reuss Voigt Hill
#
# Bulk Modulus (GPa) = 58.79188 62.29823 60.54506
# Shear Modulus (GPa) = 35.28584 36.41233 35.84908
#
# Velocity S-wave (km/s) = 3.99280 4.05604 4.02454
# Velocity P-wave (km/s) = 6.91516 7.07688 6.99648
#
# Compressibility (1/GPa) = 0.01700915
#
# Stress axis : x y z
#
# Youngs Moduli (GPa) = 83.56495 91.14939 73.23265
#
# Poissons Ratio (x) = 0.36592 0.26393
# Poissons Ratio (y) = 0.33547 0.15916
# Poissons Ratio (z) = 0.30117 0.19810
#
# Static dielectric constant tensor:
#      x y z
#    x 4.176260 0.000000 -0.080250 
#    y 0.000000 4.485340 0.000000 
#    z -0.080250 0.000000 4.184810 
# 
# 
# High freq. dielectric constant tensor:
#      x y z
#    x 1.870010 0.000000 0.001060 
#    y 0.000000 1.883160 0.000000 
#    z 0.001060 0.000000 1.880320 
# 
# From -- ./inp_files/69409.got.cif
#   From: 2010.06.25/outbox.cif.g09.slc.cpg/sg15_35_cif.got.tgz:69409.got - 2010.06.28 07:06:18.
