data_PCOD8150785
_publ_section_title
;
Structure prediction by ZEFSAII (Michael W. Deem and Ramdas Pophale) SiO2 
 PCOD8150785
Probable space group: C 2/C
;
_chemical_formula_sum "Si O2"
_cell_formula_units_Z 44
_cell_length_a 12.526220
_cell_length_b 14.269290
_cell_length_c 12.632051
_cell_angle_alpha 90.000000
_cell_angle_beta 71.306323
_cell_angle_gamma 90.000000
_cell_volume 2138.744428
_symmetry_space_group_name_H-M "C 2/C"
_symmetry_group_IT_number 15
_symmetry_cell_setting 'monoclinic'
loop_
_space_group_symop_operation_xyz
x,y,z
-x,y,1/2-z
-x,-y,-z
x,-y,1/2+z
1/2+x,1/2+y,z
1/2-x,1/2+y,1/2-z
1/2-x,1/2-y,-z
1/2+x,1/2-y,1/2+z
loop_
_atom_site_type_symbol
_atom_site_label
_atom_site_fract_x
_atom_site_fract_y
_atom_site_fract_z
Si Si1 0.202764 0.139416 0.157285
Si Si2 0.000000 0.611457 0.250000
Si Si3 0.911408 0.307209 0.190193
Si Si4 0.095709 0.922280 0.479832
Si Si5 0.211556 0.512870 0.720473
Si Si6 0.556652 0.222192 0.437989
O O1 0.150757 0.211654 0.257975
O O2 0.320131 0.179791 0.073389
O O3 0.220070 0.042709 0.212404
O O4 0.113042 0.119321 0.092664
O O5 0.891366 0.546498 0.292514
O O6 0.995623 0.677030 0.149454
O O7 0.822500 0.391231 0.210918
O O8 0.000000 0.337711 0.250000
O O9 0.971297 0.298556 0.059317
O O10 0.212166 0.967432 0.405638
O O11 0.063916 0.833738 0.416487
O O12 0.000000 0.000000 0.500000
#
# Coordination Sequence:
#
# PCOD8150785 Si02
#       6
#     8   4   8   8   8   8
#     4  11  25  45  65 102 137 174 232 274 338 411
#     4  10  26  44  64 104 140 168 232 278 340 400
#     4  12  22  42  72  96 131 183 227 276 336 399
#     4  12  25  44  67  98 137 182 226 280 342 401
#     4  11  25  41  68 102 133 177 227 279 339 409
#     4  11  24  44  70  95 139 180 220 286 338 396
#
# _framework density 20.572817000000001
#
# number of rings (size 3 to 8) (size 9 to 14) (size 15 to 20)
#    0.000    0.727    4.545    2.727    2.545    2.909 
#    0.000    4.545    0.000    0.000    0.000    0.000 
#    0.000    0.000    0.000    0.000    0.000    0.000 
#
# Total GULP energy -272921.034507 kJ/mol
# GULP energy per Si atom -12405.501569 kJ/mol
# Density = 2.052599 g / cm^3
# Si number density = 20.572817 Si / 1000 Ang^3
#
#
#
# Elastic Constant Matrix: (Units=GPa)
#
#
# Indices 1 2 3 4 5 6 
#
# 1 92.7245 55.3483 68.0107 0.0000 -0.3580 0.0000
# 2 55.3483 153.3581 70.6099 0.0000 2.8016 0.0000
# 3 68.0107 70.6099 144.5418 0.0000 -14.8323 0.0000
# 4 0.0000 0.0000 0.0000 36.3905 0.0000 -5.0392
# 5 -0.3580 2.8016 -14.8323 0.0000 28.5399 0.0000
# 6 0.0000 0.0000 0.0000 -5.0392 0.0000 44.5801
#
#
#
# Elastic Compliance Matrix: (Units=1/GPa)
#
#
# Indices 1 2 3 4 5 6 
#
# 1 0.017939 -0.003064 -0.007279 0.000000 -0.003257 0.000000
# 2 -0.003064 0.009209 -0.003332 0.000000 -0.002674 0.000000
# 3 -0.007279 -0.003332 0.012671 0.000000 0.006821 0.000000
# 4 0.000000 0.000000 0.000000 0.027917 0.000000 0.003156
# 5 -0.003257 -0.002674 0.006821 0.000000 0.038805 0.000000
# 6 0.000000 0.000000 0.000000 0.003156 0.000000 0.022788
#
#
# Mechanical properties :
#
#
# Convention : Reuss Voigt Hill
#
# Bulk Modulus (GPa) = 80.18290 86.50689 83.34489
# Shear Modulus (GPa) = 31.08794 35.01248 33.05021
#
# Velocity S-wave (km/s) = 3.89153 4.12986 4.01246
# Velocity P-wave (km/s) = 7.69752 8.05490 7.87823
#
# Compressibility (1/GPa) = 0.01247149
#
# Stress axis : x y z
#
# Youngs Moduli (GPa) = 55.74304 108.58674 78.92313
#
# Poissons Ratio (x) = 0.33269 0.57444
# Poissons Ratio (y) = 0.17079 0.26294
# Poissons Ratio (z) = 0.40573 0.36176
#
# Static dielectric constant tensor:
#      x y z
#    x 3.808050 0.000000 -0.159220 
#    y 0.000000 4.021300 0.000000 
#    z -0.159220 0.000000 3.942300 
# 
# 
# High freq. dielectric constant tensor:
#      x y z
#    x 1.807060 0.000000 -0.015230 
#    y 0.000000 1.827380 0.000000 
#    z -0.015230 0.000000 1.803280 
# 
# From -- ./inp_files/86116.got.cif
#   From: 2010.06.25/outbox.cif.g09.slc.cpg/sg15_44_cif.got.tgz:86116.got - 2010.06.28 07:06:18.
