data_PCOD8150300
_publ_section_title
;
Structure prediction by ZEFSAII (Michael W. Deem and Ramdas Pophale) SiO2 
 PCOD8150300
Probable space group: C 2/C
;
_chemical_formula_sum "Si O2"
_cell_formula_units_Z 28
_cell_length_a 11.054520
_cell_length_b 9.703327
_cell_length_c 14.410669
_cell_angle_alpha 90.000000
_cell_angle_beta 132.541384
_cell_angle_gamma 90.000000
_cell_volume 1138.906145
_symmetry_space_group_name_H-M "C 2/C"
_symmetry_group_IT_number 15
_symmetry_cell_setting 'monoclinic'
loop_
_space_group_symop_operation_xyz
x,y,z
-x,y,1/2-z
-x,-y,-z
x,-y,1/2+z
1/2+x,1/2+y,z
1/2-x,1/2+y,1/2-z
1/2-x,1/2-y,-z
1/2+x,1/2-y,1/2+z
loop_
_atom_site_type_symbol
_atom_site_label
_atom_site_fract_x
_atom_site_fract_y
_atom_site_fract_z
Si Si1 0.320488 0.350510 0.615907
Si Si2 0.216440 0.057995 0.056035
Si Si3 0.118286 0.822376 0.125820
Si Si4 0.000000 0.254507 0.750000
O O1 0.500000 0.315258 0.750000
O O2 0.250000 0.250000 0.500000
O O3 0.320617 0.500972 0.567801
O O4 0.191115 0.327613 0.633842
O O5 0.377307 0.149798 0.127733
O O6 0.240122 0.939389 0.146664
O O7 0.062948 0.151282 0.010549
O O8 0.105841 0.834015 0.231199
#
# Coordination Sequence:
#
# PCOD8150300 Si02
#       4
#     8   8   8   4
#     4  10  24  45  73 100 135 184 230 280 341 407
#     4  10  25  45  66 103 136 183 226 283 344 404
#     4  10  25  43  67  97 142 172 232 282 336 403
#     4  12  26  40  72 106 134 178 232 280 350 408
#
# _framework density 24.584994999999999
#
# number of rings (size 3 to 8) (size 9 to 14) (size 15 to 20)
#    0.000    1.714    0.000    0.857   22.000    1.143 
#    0.000    0.000    0.000    0.000    0.000    0.000 
#    0.000    0.000    0.000    0.000    0.000    0.000 
#
# Total GULP energy -173453.115999 kJ/mol
# GULP energy per Si atom -12389.508286 kJ/mol
# Density = 2.452904 g / cm^3
# Si number density = 24.584995 Si / 1000 Ang^3
#
#
#
# Elastic Constant Matrix: (Units=GPa)
#
#
# Indices 1 2 3 4 5 6 
#
# 1 135.2762 33.0949 29.6539 0.0000 -28.9496 0.0000
# 2 33.0949 38.5308 22.2070 0.0000 -1.6219 0.0000
# 3 29.6539 22.2070 127.1869 0.0000 -1.0704 0.0000
# 4 0.0000 0.0000 0.0000 35.8226 0.0000 -7.6448
# 5 -28.9496 -1.6219 -1.0704 0.0000 53.5641 0.0000
# 6 0.0000 0.0000 0.0000 -7.6448 0.0000 31.9993
#
#
#
# Elastic Compliance Matrix: (Units=1/GPa)
#
#
# Indices 1 2 3 4 5 6 
#
# 1 0.010906 -0.008554 -0.001002 0.000000 0.005615 0.000000
# 2 -0.008554 0.035598 -0.004252 0.000000 -0.003630 0.000000
# 3 -0.001002 -0.004252 0.008834 0.000000 -0.000494 0.000000
# 4 0.000000 0.000000 0.000000 0.029415 0.000000 0.007027
# 5 0.005615 -0.003630 -0.000494 0.000000 0.021584 0.000000
# 6 0.000000 0.000000 0.000000 0.007027 0.000000 0.032930
#
#
# Mechanical properties :
#
#
# Convention : Reuss Voigt Hill
#
# Bulk Modulus (GPa) = 36.07049 52.32281 44.19665
# Shear Modulus (GPa) = 28.38917 38.67976 33.53447
#
# Velocity S-wave (km/s) = 3.40183 3.97080 3.69727
# Velocity P-wave (km/s) = 5.48940 6.50781 6.02018
#
# Compressibility (1/GPa) = 0.02772349
#
# Stress axis : x y z
#
# Youngs Moduli (GPa) = 91.68991 28.09159 113.19552
#
# Poissons Ratio (x) = 0.24029 0.11343
# Poissons Ratio (y) = 0.78429 0.48127
# Poissons Ratio (z) = 0.09188 0.11944
#
# Static dielectric constant tensor:
#      x y z
#    x 4.860560 0.000000 -0.200280 
#    y 0.000000 4.709440 0.000000 
#    z -0.200280 0.000000 4.224840 
# 
# 
# High freq. dielectric constant tensor:
#      x y z
#    x 1.988880 0.000000 -0.009170 
#    y 0.000000 1.961280 0.000000 
#    z -0.009170 0.000000 1.969940 
# 
# From -- ./inp_files/83542.got.cif
#   From: 2010.06.25/outbox.cif.g09.slc.cpg/sg15_42_cif.got.tgz:83542.got - 2010.06.28 07:06:18.
