data_PCOD8150755
_publ_section_title
;
Structure prediction by ZEFSAII (Michael W. Deem and Ramdas Pophale) SiO2 
 PCOD8150755
Probable space group: C 2/C
;
_chemical_formula_sum "Si O2"
_cell_formula_units_Z 44
_cell_length_a 7.680569
_cell_length_b 22.053091
_cell_length_c 14.869320
_cell_angle_alpha 90.000000
_cell_angle_beta 63.072460
_cell_angle_gamma 90.000000
_cell_volume 2245.506258
_symmetry_space_group_name_H-M "C 2/C"
_symmetry_group_IT_number 15
_symmetry_cell_setting 'monoclinic'
loop_
_space_group_symop_operation_xyz
x,y,z
-x,y,1/2-z
-x,-y,-z
x,-y,1/2+z
1/2+x,1/2+y,z
1/2-x,1/2+y,1/2-z
1/2-x,1/2-y,-z
1/2+x,1/2-y,1/2+z
loop_
_atom_site_type_symbol
_atom_site_label
_atom_site_fract_x
_atom_site_fract_y
_atom_site_fract_z
Si Si1 0.338086 0.062932 0.712736
Si Si2 0.226557 0.674565 0.669887
Si Si3 0.606656 0.124829 0.516151
Si Si4 0.215899 0.066473 0.194268
Si Si5 0.952421 0.276467 0.920850
Si Si6 0.000000 0.358813 0.750000
O O1 0.500000 0.046162 0.750000
O O2 0.206679 0.118251 0.782353
O O3 0.432789 0.085228 0.597761
O O4 0.210394 0.004753 0.718489
O O5 0.243340 0.650917 0.563498
O O6 0.379356 0.728734 0.647616
O O7 0.000000 0.692553 0.750000
O O8 0.714338 0.079216 0.423224
O O9 0.532590 0.183909 0.482906
O O10 0.339142 0.099774 0.241318
O O11 0.000000 0.093015 0.250000
O O12 0.897384 0.317034 0.848136
O O13 0.750000 0.250000 0.000000
#
# Coordination Sequence:
#
# PCOD8150755 Si02
#       6
#     8   8   8   8   8   4
#     4   9  19  40  64  86 125 158 207 264 305 366
#     4   9  21  40  64  90 123 166 206 256 312 375
#     4   9  21  39  60  91 120 164 202 256 315 369
#     4  11  22  39  65  89 125 168 206 257 314 372
#     4  11  24  37  63  89 128 163 205 265 304 374
#     4  10  26  42  56  94 134 158 204 268 302 372
#
# _framework density 19.594688999999999
#
# number of rings (size 3 to 8) (size 9 to 14) (size 15 to 20)
#    0.000    2.545    0.909    1.091    7.636    4.364 
#    0.000    3.636    0.000    0.000    0.000    0.000 
#    0.000    0.000    0.000    0.000    0.000    0.000 
#
# Total GULP energy -272681.983756 kJ/mol
# GULP energy per Si atom -12394.635625 kJ/mol
# Density = 1.955009 g / cm^3
# Si number density = 19.594689 Si / 1000 Ang^3
#
#
#
# Elastic Constant Matrix: (Units=GPa)
#
#
# Indices 1 2 3 4 5 6 
#
# 1 77.4146 50.5565 58.6086 0.0000 -9.6284 0.0000
# 2 50.5565 123.6577 73.0209 0.0000 -7.4610 0.0000
# 3 58.6086 73.0209 144.4756 0.0000 9.6035 0.0000
# 4 0.0000 0.0000 0.0000 1.9372 0.0000 6.0553
# 5 -9.6284 -7.4610 9.6035 0.0000 28.0548 0.0000
# 6 0.0000 0.0000 0.0000 6.0553 0.0000 -25.2614
#
#
#
# Elastic Compliance Matrix: (Units=1/GPa)
#
#
# Indices 1 2 3 4 5 6 
#
# 1 0.022599 -0.004135 -0.007696 0.000000 0.009291 0.000000
# 2 -0.004135 0.013069 -0.005183 0.000000 0.003831 0.000000
# 3 -0.007696 -0.005183 0.013231 0.000000 -0.008548 0.000000
# 4 0.000000 0.000000 0.000000 0.295102 0.000000 0.070738
# 5 0.009291 0.003831 -0.008548 0.000000 0.042778 0.000000
# 6 0.000000 0.000000 0.000000 0.070738 0.000000 -0.022630
#
#
# Mechanical properties :
#
#
# Convention : Reuss Voigt Hill
#
# Bulk Modulus (GPa) = 67.23382 78.88000 73.05691
# Shear Modulus (GPa) = 12.40287 11.83691 12.11989
#
# Velocity S-wave (km/s) = 2.51862 2.46049 2.48972
# Velocity P-wave (km/s) = 6.54559 6.95810 6.75499
#
# Compressibility (1/GPa) = 0.01487347
#
# Stress axis : x y z
#
# Youngs Moduli (GPa) = 44.24916 76.51852 75.58024
#
# Poissons Ratio (x) = 0.31638 0.58163
# Poissons Ratio (y) = 0.18296 0.39170
# Poissons Ratio (z) = 0.34052 0.39656
#
# Static dielectric constant tensor:
#      x y z
#    x 3.316640 0.000000 0.178000 
#    y 0.000000 3.729830 0.000000 
#    z 0.178000 0.000000 3.737660 
# 
# 
# High freq. dielectric constant tensor:
#      x y z
#    x 1.743260 0.000000 0.015940 
#    y 0.000000 1.775270 0.000000 
#    z 0.015940 0.000000 1.777400 
# 
# From -- ./inp_files/135815.got.cif
#   From: 2010.06.25/outbox.cif.g09.slc.cpg/sg15_68_cif.got.tgz:135815.got - 2010.06.28 07:06:18.
