data_PCOD8150763
_publ_section_title
;
Structure prediction by ZEFSAII (Michael W. Deem and Ramdas Pophale) SiO2 
 PCOD8150763
Probable space group: C 2/C
;
_chemical_formula_sum "Si O2"
_cell_formula_units_Z 52
_cell_length_a 14.217965
_cell_length_b 11.968988
_cell_length_c 14.498246
_cell_angle_alpha 90.000000
_cell_angle_beta 70.471828
_cell_angle_gamma 90.000000
_cell_volume 2325.311882
_symmetry_space_group_name_H-M "C 2/C"
_symmetry_group_IT_number 15
_symmetry_cell_setting 'monoclinic'
loop_
_space_group_symop_operation_xyz
x,y,z
-x,y,1/2-z
-x,-y,-z
x,-y,1/2+z
1/2+x,1/2+y,z
1/2-x,1/2+y,1/2-z
1/2-x,1/2-y,-z
1/2+x,1/2-y,1/2+z
loop_
_atom_site_type_symbol
_atom_site_label
_atom_site_fract_x
_atom_site_fract_y
_atom_site_fract_z
Si Si1 0.847507 0.697114 0.245796
Si Si2 0.439559 0.916076 0.083210
Si Si3 0.821861 0.777338 0.560492
Si Si4 0.588112 0.575194 0.846663
Si Si5 0.000000 0.485588 0.750000
Si Si6 0.242914 0.036234 0.162436
Si Si7 0.884189 0.011928 0.468194
O O1 0.748291 0.736270 0.328592
O O2 0.917443 0.804108 0.202220
O O3 0.905041 0.598697 0.283482
O O4 0.806897 0.646983 0.163199
O O5 0.427039 0.792451 0.042005
O O6 0.492707 0.929386 0.165658
O O7 0.321690 0.937765 0.126727
O O8 0.500000 0.000000 0.000000
O O9 0.750000 0.750000 0.500000
O O10 0.858102 0.901407 0.533001
O O11 0.667494 0.495528 0.769410
O O12 0.482966 0.510693 0.874861
O O13 0.609271 0.598881 0.948854
O O14 0.195152 0.056731 0.078380
#
# Coordination Sequence:
#
# PCOD8150763 Si02
#       7
#     8   8   8   8   4   8   8
#     4  11  24  42  67  96 133 177 227 278 343 404
#     4  11  24  40  63 101 135 178 221 280 341 411
#     4  12  22  40  69  98 128 178 227 277 342 413
#     4  11  24  44  66  98 132 175 233 281 340 404
#     4  10  26  42  66  98 136 178 222 288 338 404
#     4  11  23  42  66  94 133 176 223 281 344 397
#     4  11  25  42  69  96 133 177 229 285 331 417
#
# _framework density 22.362590000000001
#
# number of rings (size 3 to 8) (size 9 to 14) (size 15 to 20)
#    0.000    0.923    4.615    1.385    8.615    0.615 
#    0.000    3.077    0.000    0.000    0.000    0.000 
#    0.000    0.000    0.000    0.000    0.000    0.000 
#
# Total GULP energy -322106.789668 kJ/mol
# GULP energy per Si atom -12388.722680 kJ/mol
# Density = 2.231169 g / cm^3
# Si number density = 22.362590 Si / 1000 Ang^3
#
#
#
# Elastic Constant Matrix: (Units=GPa)
#
#
# Indices 1 2 3 4 5 6 
#
# 1 110.2993 25.2279 37.4622 0.0000 24.7381 0.0000
# 2 25.2279 54.0364 1.8232 0.0000 1.4475 0.0000
# 3 37.4622 1.8232 74.6168 0.0000 -0.1688 0.0000
# 4 0.0000 0.0000 0.0000 29.9456 0.0000 -0.1146
# 5 24.7381 1.4475 -0.1688 0.0000 50.1666 0.0000
# 6 0.0000 0.0000 0.0000 -0.1146 0.0000 33.2753
#
#
#
# Elastic Compliance Matrix: (Units=1/GPa)
#
#
# Indices 1 2 3 4 5 6 
#
# 1 0.014516 -0.006348 -0.007149 0.000000 -0.006999 0.000000
# 2 -0.006348 0.021312 0.002672 0.000000 0.002525 0.000000
# 3 -0.007149 0.002672 0.016933 0.000000 0.003505 0.000000
# 4 0.000000 0.000000 0.000000 0.033394 0.000000 0.000115
# 5 -0.006999 0.002525 0.003505 0.000000 0.023324 0.000000
# 6 0.000000 0.000000 0.000000 0.000115 0.000000 0.030053
#
#
# Mechanical properties :
#
#
# Convention : Reuss Voigt Hill
#
# Bulk Modulus (GPa) = 32.14189 40.88657 36.51423
# Shear Modulus (GPa) = 29.14556 34.30678 31.72617
#
# Velocity S-wave (km/s) = 3.61407 3.92103 3.77067
# Velocity P-wave (km/s) = 5.64088 6.23077 5.94315
#
# Compressibility (1/GPa) = 0.03111205
#
# Stress axis : x y z
#
# Youngs Moduli (GPa) = 68.88957 46.92167 59.05455
#
# Poissons Ratio (x) = 0.29788 0.42216
# Poissons Ratio (y) = 0.43734 -0.15781
# Poissons Ratio (z) = 0.49247 -0.12539
#
# Static dielectric constant tensor:
#      x y z
#    x 4.297360 0.000000 0.131520 
#    y 0.000000 -3.602330 0.000000 
#    z 0.131520 0.000000 4.136130 
# 
# 
# High freq. dielectric constant tensor:
#      x y z
#    x 1.886560 0.000000 0.000370 
#    y 0.000000 1.868150 0.000000 
#    z 0.000370 0.000000 1.890040 
# 
# From -- ./inp_files/152559.got.cif
#   From: 2010.06.25/outbox.cif.g09.slc.cpg/sg15_77_cif.got.tgz:152559.got - 2010.06.28 07:06:18.
