data_PCOD8150316
_publ_section_title
;
Structure prediction by ZEFSAII (Michael W. Deem and Ramdas Pophale) SiO2 
 PCOD8150316
Probable space group: C 2/C
;
_chemical_formula_sum "Si O2"
_cell_formula_units_Z 48
_cell_length_a 12.056529
_cell_length_b 20.066210
_cell_length_c 11.789788
_cell_angle_alpha 90.000000
_cell_angle_beta 46.851765
_cell_angle_gamma 90.000000
_cell_volume 2080.992957
_symmetry_space_group_name_H-M "C 2/C"
_symmetry_group_IT_number 15
_symmetry_cell_setting 'monoclinic'
loop_
_space_group_symop_operation_xyz
x,y,z
-x,y,1/2-z
-x,-y,-z
x,-y,1/2+z
1/2+x,1/2+y,z
1/2-x,1/2+y,1/2-z
1/2-x,1/2-y,-z
1/2+x,1/2-y,1/2+z
loop_
_atom_site_type_symbol
_atom_site_label
_atom_site_fract_x
_atom_site_fract_y
_atom_site_fract_z
Si Si1 0.000000 0.026387 0.750000
Si Si2 0.500000 0.757286 0.750000
Si Si3 0.000000 0.748669 0.750000
Si Si4 0.455663 0.353743 0.438347
Si Si5 0.500000 0.025210 0.250000
Si Si6 0.328432 0.867724 0.734748
Si Si7 0.715660 0.061727 0.460312
Si Si8 0.200641 0.828715 0.432030
O O1 0.949189 0.073061 0.888845
O O2 0.855634 0.981550 0.813549
O O3 0.604314 0.704224 0.606298
O O4 0.420214 0.802178 0.709541
O O5 0.080311 0.789882 0.594599
O O6 0.136874 0.705031 0.706291
O O7 0.348463 0.353441 0.622795
O O8 0.626742 0.338342 0.360005
O O9 0.628093 0.069979 0.218090
O O10 0.426405 0.983025 0.403047
O O11 0.346708 0.884751 0.588860
O O12 0.772924 0.099576 0.531292
#
# Coordination Sequence:
#
# PCOD8150316 Si02
#       8
#     4   4   4   8   4   8   8   8
#     4  11  25  45  72 105 141 189 244 288 364 429
#     4  10  26  44  70 108 142 190 242 292 362 424
#     4  10  24  46  64 106 140 182 238 282 364 414
#     4  11  24  45  73 103 143 192 236 299 350 435
#     4  11  25  47  68 105 145 189 242 296 356 431
#     4  11  24  46  71 104 144 191 237 303 353 425
#     4  12  25  45  71 106 140 191 241 295 361 425
#     4  11  25  43  71 102 140 186 233 296 350 426
#
# _framework density 23.065912000000001
#
# number of rings (size 3 to 8) (size 9 to 14) (size 15 to 20)
#    0.000    1.000    1.667    4.000    9.333    1.333 
#    3.000    0.000    0.000    0.000    0.000    0.000 
#    0.000    0.000    0.000    0.000    0.000    0.000 
#
# Total GULP energy -297538.351500 kJ/mol
# GULP energy per Si atom -12397.431312 kJ/mol
# Density = 2.301341 g / cm^3
# Si number density = 23.065912 Si / 1000 Ang^3
#
#
#
# Elastic Constant Matrix: (Units=GPa)
#
#
# Indices 1 2 3 4 5 6 
#
# 1 104.5249 33.1580 13.4308 0.0000 -2.8384 0.0000
# 2 33.1580 123.3532 25.4737 0.0000 -3.0085 0.0000
# 3 13.4308 25.4737 85.8430 0.0000 -14.8361 0.0000
# 4 0.0000 0.0000 0.0000 26.1069 0.0000 10.2036
# 5 -2.8384 -3.0085 -14.8361 0.0000 39.0829 0.0000
# 6 0.0000 0.0000 0.0000 10.2036 0.0000 32.6604
#
#
#
# Elastic Compliance Matrix: (Units=1/GPa)
#
#
# Indices 1 2 3 4 5 6 
#
# 1 0.010520 -0.002653 -0.000815 0.000000 0.000250 0.000000
# 2 -0.002653 0.009309 -0.002415 0.000000 -0.000393 0.000000
# 3 -0.000815 -0.002415 0.013325 0.000000 0.004813 0.000000
# 4 0.000000 0.000000 0.000000 0.043632 0.000000 -0.013631
# 5 0.000250 -0.000393 0.004813 0.000000 0.027402 0.000000
# 6 0.000000 0.000000 0.000000 -0.013631 0.000000 0.034877
#
#
# Mechanical properties :
#
#
# Convention : Reuss Voigt Hill
#
# Bulk Modulus (GPa) = 46.75763 50.87180 48.81472
# Shear Modulus (GPa) = 31.65318 35.68062 33.66690
#
# Velocity S-wave (km/s) = 3.70847 3.93733 3.82461
# Velocity P-wave (km/s) = 6.21710 6.54010 6.38064
#
# Compressibility (1/GPa) = 0.02138688
#
# Stress axis : x y z
#
# Youngs Moduli (GPa) = 95.05340 107.41994 75.04498
#
# Poissons Ratio (x) = 0.28503 0.06119
# Poissons Ratio (y) = 0.25222 0.18125
# Poissons Ratio (z) = 0.07750 0.25945
#
# Static dielectric constant tensor:
#      x y z
#    x 4.085340 0.000000 -0.106270 
#    y 0.000000 4.323930 0.000000 
#    z -0.106270 0.000000 3.933860 
# 
# 
# High freq. dielectric constant tensor:
#      x y z
#    x 1.910410 0.000000 -0.002300 
#    y 0.000000 1.929000 0.000000 
#    z -0.002300 0.000000 1.905700 
# 
# From -- ./inp_files/89467.got.cif
#   From: 2010.06.25/outbox.cif.g09.slc.cpg/sg15_45_cif.got.tgz:89467.got - 2010.06.28 07:06:18.
