data_PCOD8150050
_publ_section_title
;
Structure prediction by ZEFSAII (Michael W. Deem and Ramdas Pophale) SiO2 
 PCOD8150050
Probable space group: C 2/C
;
_chemical_formula_sum "Si O2"
_cell_formula_units_Z 52
_cell_length_a 29.957045
_cell_length_b 16.833169
_cell_length_c 13.918161
_cell_angle_alpha 90.000000
_cell_angle_beta 158.049814
_cell_angle_gamma 90.000000
_cell_volume 2623.532237
_symmetry_space_group_name_H-M "C 2/C"
_symmetry_group_IT_number 15
_symmetry_cell_setting 'monoclinic'
loop_
_space_group_symop_operation_xyz
x,y,z
-x,y,1/2-z
-x,-y,-z
x,-y,1/2+z
1/2+x,1/2+y,z
1/2-x,1/2+y,1/2-z
1/2-x,1/2-y,-z
1/2+x,1/2-y,1/2+z
loop_
_atom_site_type_symbol
_atom_site_label
_atom_site_fract_x
_atom_site_fract_y
_atom_site_fract_z
Si Si1 0.162637 0.056626 0.349719
Si Si2 0.000000 0.666599 0.750000
Si Si3 0.872508 0.798317 0.028491
Si Si4 0.584408 0.382291 0.194608
Si Si5 0.134371 0.044411 0.512945
Si Si6 0.159833 0.206293 0.671144
Si Si7 0.778798 0.592648 0.399283
O O1 0.184959 0.061445 0.507435
O O2 0.273675 0.086007 0.505633
O O3 0.137812 0.966339 0.268734
O O4 0.055922 0.115346 0.106542
O O5 0.923578 0.719708 0.524116
O O6 0.915089 0.608589 0.642064
O O7 0.889628 0.868212 0.141289
O O8 0.000000 0.763927 0.250000
O O9 0.797762 0.725874 0.924373
O O10 0.802877 0.834138 0.798764
O O11 0.644289 0.311144 0.253289
O O12 0.120270 0.128444 0.535916
O O13 0.229511 0.988520 0.754812
O O14 0.000000 0.006068 0.250000
#
# Coordination Sequence:
#
# PCOD8150050 Si02
#       7
#     8   4   8   8   8   8   8
#     4  11  20  33  64  94 112 146 202 257 302 344
#     4  10  24  44  58  82 124 174 192 240 320 366
#     4  11  22  38  59  89 121 161 198 249 301 353
#     4  11  19  35  61  93 117 147 198 256 298 354
#     4  12  20  38  65  90 118 153 204 252 293 356
#     4  11  22  40  60  84 126 163 199 244 304 359
#     4  11  22  40  63  84 122 155 201 253 298 361
#
# _framework density 19.820606000000002
#
# number of rings (size 3 to 8) (size 9 to 14) (size 15 to 20)
#    0.000    0.923    6.923    1.846    0.000    0.000 
#    4.154    3.077    0.000    0.000    0.000    0.000 
#    0.000    0.000    0.000    0.000    0.000    0.000 
#
# Total GULP energy -322420.847238 kJ/mol
# GULP energy per Si atom -12400.801817 kJ/mol
# Density = 1.977549 g / cm^3
# Si number density = 19.820606 Si / 1000 Ang^3
#
#
#
# Elastic Constant Matrix: (Units=GPa)
#
#
# Indices 1 2 3 4 5 6 
#
# 1 131.7508 23.0410 32.5500 0.0000 19.8250 0.0000
# 2 23.0410 62.6155 26.3673 0.0000 18.2166 0.0000
# 3 32.5500 26.3673 82.4296 0.0000 31.8331 0.0000
# 4 0.0000 0.0000 0.0000 23.3399 0.0000 4.3546
# 5 19.8250 18.2166 31.8331 0.0000 36.4229 0.0000
# 6 0.0000 0.0000 0.0000 4.3546 0.0000 31.1744
#
#
#
# Elastic Compliance Matrix: (Units=1/GPa)
#
#
# Indices 1 2 3 4 5 6 
#
# 1 0.008719 -0.001729 -0.002100 0.000000 -0.002046 0.000000
# 2 -0.001729 0.019758 -0.003298 0.000000 -0.006059 0.000000
# 3 -0.002100 -0.003298 0.019529 0.000000 -0.014275 0.000000
# 4 0.000000 0.000000 0.000000 0.043992 0.000000 -0.006145
# 5 -0.002046 -0.006059 -0.014275 0.000000 0.044075 0.000000
# 6 0.000000 0.000000 0.000000 -0.006145 0.000000 0.032936
#
#
# Mechanical properties :
#
#
# Convention : Reuss Voigt Hill
#
# Bulk Modulus (GPa) = 29.62731 48.96805 39.29768
# Shear Modulus (GPa) = 25.70529 31.17662 28.44095
#
# Velocity S-wave (km/s) = 3.60515 3.97033 3.79214
# Velocity P-wave (km/s) = 5.68416 6.76589 6.24848
#
# Compressibility (1/GPa) = 0.03375264
#
# Stress axis : x y z
#
# Youngs Moduli (GPa) = 114.69091 50.61251 51.20697
#
# Poissons Ratio (x) = 0.08751 0.10753
# Poissons Ratio (y) = 0.19830 0.16886
# Poissons Ratio (z) = 0.24084 0.16690
#
# Static dielectric constant tensor:
#      x y z
#    x 3.819520 0.000000 0.100790 
#    y 0.000000 3.472970 0.000000 
#    z 0.100790 0.000000 3.424350 
# 
# 
# High freq. dielectric constant tensor:
#      x y z
#    x 1.791710 0.000000 0.005180 
#    y 0.000000 1.760860 0.000000 
#    z 0.005180 0.000000 1.743730 
# 
# From -- ./inp_files/144315.got.cif
#   From: 2010.06.25/outbox.cif.g09.slc.cpg/sg15_73_cif.got.tgz:144315.got - 2010.06.28 07:06:18.
