data_PCOD8150358
_publ_section_title
;
Structure prediction by ZEFSAII (Michael W. Deem and Ramdas Pophale) SiO2 
 PCOD8150358
Probable space group: C 2/C
;
_chemical_formula_sum "Si O2"
_cell_formula_units_Z 40
_cell_length_a 18.860667
_cell_length_b 12.123798
_cell_length_c 8.507694
_cell_angle_alpha 90.000000
_cell_angle_beta 116.708860
_cell_angle_gamma 90.000000
_cell_volume 1737.824262
_symmetry_space_group_name_H-M "C 2/C"
_symmetry_group_IT_number 15
_symmetry_cell_setting 'monoclinic'
loop_
_space_group_symop_operation_xyz
x,y,z
-x,y,1/2-z
-x,-y,-z
x,-y,1/2+z
1/2+x,1/2+y,z
1/2-x,1/2+y,1/2-z
1/2-x,1/2-y,-z
1/2+x,1/2-y,1/2+z
loop_
_atom_site_type_symbol
_atom_site_label
_atom_site_fract_x
_atom_site_fract_y
_atom_site_fract_z
Si Si1 0.000000 0.084548 0.750000
Si Si2 0.749476 0.500889 0.168806
Si Si3 0.859738 0.583158 0.039241
Si Si4 0.451806 0.750261 0.450520
Si Si5 0.000000 0.581783 0.750000
Si Si6 0.360844 0.582554 0.179281
O O1 0.002317 0.155903 0.589853
O O2 0.078085 0.009886 0.819993
O O3 0.789418 0.594823 0.097146
O O4 0.820948 0.449793 0.336140
O O5 0.678458 0.552941 0.194538
O O6 0.709190 0.406026 0.019105
O O7 0.921984 0.492908 0.163431
O O8 0.900765 0.699925 0.044624
O O9 0.501482 0.846692 0.413816
O O10 0.403431 0.698598 0.254976
#
# Coordination Sequence:
#
# PCOD8150358 Si02
#       6
#     4   8   8   8   4   8
#     4  12  26  46  72 102 142 178 238 286 330 412
#     4  10  24  46  70  96 148 176 222 298 342 394
#     4  11  24  48  67 103 139 181 229 291 335 410
#     4  12  26  42  76 102 130 192 232 276 352 402
#     4  12  26  46  72 102 142 178 238 286 330 412
#     4  11  24  48  67 103 139 181 229 291 335 410
#
# _framework density 23.017287
#
# number of rings (size 3 to 8) (size 9 to 14) (size 15 to 20)
#    0.000    0.800    4.000    2.400    5.600    1.600 
#    0.000    0.000    0.000    0.000    0.000    0.000 
#    0.000    0.000    0.000    0.000    0.000    0.000 
#
# Total GULP energy -247920.995354 kJ/mol
# GULP energy per Si atom -12396.049768 kJ/mol
# Density = 2.296490 g / cm^3
# Si number density = 23.017287 Si / 1000 Ang^3
#
#
#
# Elastic Constant Matrix: (Units=GPa)
#
#
# Indices 1 2 3 4 5 6 
#
# 1 77.5035 23.0665 59.4869 0.0000 10.2957 0.0000
# 2 23.0665 79.6516 26.2891 0.0000 4.7510 0.0000
# 3 59.4869 26.2891 96.1855 0.0000 -10.0505 0.0000
# 4 0.0000 0.0000 0.0000 32.0643 0.0000 -13.6789
# 5 10.2957 4.7510 -10.0505 0.0000 25.3404 0.0000
# 6 0.0000 0.0000 0.0000 -13.6789 0.0000 17.2598
#
#
#
# Elastic Compliance Matrix: (Units=1/GPa)
#
#
# Indices 1 2 3 4 5 6 
#
# 1 0.033958 -0.000828 -0.023161 0.000000 -0.022828 0.000000
# 2 -0.000828 0.014275 -0.003791 0.000000 -0.003843 0.000000
# 3 -0.023161 -0.003791 0.027974 0.000000 0.021216 0.000000
# 4 0.000000 0.000000 0.000000 0.047118 0.000000 0.037342
# 5 -0.022828 -0.003843 0.021216 0.000000 0.057873 0.000000
# 6 0.000000 0.000000 0.000000 0.037342 0.000000 0.087533
#
#
# Mechanical properties :
#
#
# Convention : Reuss Voigt Hill
#
# Bulk Modulus (GPa) = 48.43336 52.33619 50.38478
# Shear Modulus (GPa) = 15.09784 24.56612 19.83198
#
# Velocity S-wave (km/s) = 2.56390 3.27048 2.93851
# Velocity P-wave (km/s) = 5.46376 6.08675 5.78365
#
# Compressibility (1/GPa) = 0.02064692
#
# Stress axis : x y z
#
# Youngs Moduli (GPa) = 29.44772 70.05261 35.74790
#
# Poissons Ratio (x) = 0.05802 0.82795
# Poissons Ratio (y) = 0.02439 0.13552
# Poissons Ratio (z) = 0.68204 0.26557
#
# Static dielectric constant tensor:
#      x y z
#    x 4.220590 0.000000 -0.045090 
#    y 0.000000 3.926800 0.000000 
#    z -0.045090 0.000000 4.268480 
# 
# 
# High freq. dielectric constant tensor:
#      x y z
#    x 1.921910 0.000000 -0.006790 
#    y 0.000000 1.881010 0.000000 
#    z -0.006790 0.000000 1.929270 
# 
# From -- ./inp_files/47300.got.cif
#   From: 2010.06.25/outbox.cif.g09.slc.cpg/sg15_24_cif.got.tgz:47300.got - 2010.06.28 07:06:18.
