data_PCOD8150703
_publ_section_title
;
Structure prediction by ZEFSAII (Michael W. Deem and Ramdas Pophale) SiO2 
 PCOD8150703
Probable space group: C 2/C
;
_chemical_formula_sum "Si O2"
_cell_formula_units_Z 40
_cell_length_a 14.224565
_cell_length_b 14.342946
_cell_length_c 18.934554
_cell_angle_alpha 90.000000
_cell_angle_beta 151.932227
_cell_angle_gamma 90.000000
_cell_volume 1817.634263
_symmetry_space_group_name_H-M "C 2/C"
_symmetry_group_IT_number 15
_symmetry_cell_setting 'monoclinic'
loop_
_space_group_symop_operation_xyz
x,y,z
-x,y,1/2-z
-x,-y,-z
x,-y,1/2+z
1/2+x,1/2+y,z
1/2-x,1/2+y,1/2-z
1/2-x,1/2-y,-z
1/2+x,1/2-y,1/2+z
loop_
_atom_site_type_symbol
_atom_site_label
_atom_site_fract_x
_atom_site_fract_y
_atom_site_fract_z
Si Si1 0.191322 0.231920 0.674489
Si Si2 0.357049 0.815322 0.011723
Si Si3 0.902104 0.937136 0.989854
Si Si4 0.181899 0.981602 0.419845
Si Si5 0.968124 0.349970 0.804374
O O1 0.405354 0.182201 0.821003
O O2 0.191995 0.282438 0.599630
O O3 0.161241 0.298620 0.721805
O O4 0.006630 0.162722 0.560044
O O5 0.250000 0.750000 0.000000
O O6 0.284234 0.921862 0.966149
O O7 0.925589 0.994938 0.076946
O O8 0.669362 0.933266 0.815774
O O9 0.000000 0.000000 0.000000
O O10 0.000000 0.951418 0.250000
O O11 0.333603 0.893305 0.528074
O O12 0.000000 0.292122 0.750000
#
# Coordination Sequence:
#
# PCOD8150703 Si02
#       5
#     8   8   8   8   8
#     4  12  25  45  75 101 142 190 237 294 355 434
#     4  12  26  46  70 106 144 184 241 296 360 425
#     4  11  24  44  69 101 142 188 235 285 369 424
#     4  11  26  43  72 104 143 182 234 305 347 422
#     4  10  25  47  68 103 143 184 238 291 361 428
#
# _framework density 22.006627999999999
#
# number of rings (size 3 to 8) (size 9 to 14) (size 15 to 20)
#    0.000    0.800    2.000    4.200    5.600    8.000 
#    0.000    0.000    0.000    0.000    0.000    0.000 
#    0.000    0.000    0.000    0.000    0.000    0.000 
#
# Total GULP energy -247778.355790 kJ/mol
# GULP energy per Si atom -12388.917789 kJ/mol
# Density = 2.195654 g / cm^3
# Si number density = 22.006628 Si / 1000 Ang^3
#
#
#
# Elastic Constant Matrix: (Units=GPa)
#
#
# Indices 1 2 3 4 5 6 
#
# 1 168.1416 29.4592 61.9340 0.0070 -19.3900 0.0020
# 2 29.4592 60.4325 40.2718 0.0070 -3.7947 0.0044
# 3 61.9340 40.2718 170.1375 0.0109 -0.5629 0.0039
# 4 0.0070 0.0070 0.0109 25.7092 0.0025 7.0822
# 5 -19.3900 -3.7947 -0.5629 0.0025 46.2039 0.0004
# 6 0.0020 0.0044 0.0039 7.0822 0.0004 53.7795
#
#
#
# Elastic Compliance Matrix: (Units=1/GPa)
#
#
# Indices 1 2 3 4 5 6 
#
# 1 0.007455 -0.001956 -0.002241 -0.000001 0.002940 0.000000
# 2 -0.001956 0.020272 -0.004084 -0.000003 0.000794 -0.000001
# 3 -0.002241 -0.004084 0.007656 -0.000001 -0.001183 0.000000
# 4 -0.000001 -0.000003 -0.000001 0.040361 -0.000003 -0.005315
# 5 0.002940 0.000794 -0.001183 -0.000003 0.022928 0.000000
# 6 0.000000 -0.000001 0.000000 -0.005315 0.000000 0.019294
#
#
# Mechanical properties :
#
#
# Convention : Reuss Voigt Hill
#
# Bulk Modulus (GPa) = 53.13083 73.56017 63.34550
# Shear Modulus (GPa) = 35.51108 42.94164 39.22636
#
# Velocity S-wave (km/s) = 4.02139 4.42215 4.22652
# Velocity P-wave (km/s) = 6.76444 7.71834 7.25708
#
# Compressibility (1/GPa) = 0.01882146
#
# Stress axis : x y z
#
# Youngs Moduli (GPa) = 134.14565 49.32873 130.61506
#
# Poissons Ratio (x) = 0.09648 0.29270
# Poissons Ratio (y) = 0.26238 0.53341
# Poissons Ratio (z) = 0.30061 0.20145
#
# Static dielectric constant tensor:
#      x y z
#    x 5.431780 -0.000240 -0.679250 
#    y -0.000240 3.489770 0.000100 
#    z -0.679250 0.000100 4.491410 
# 
# 
# High freq. dielectric constant tensor:
#      x y z
#    x 1.899010 0.000000 -0.001430 
#    y 0.000000 1.847710 0.000000 
#    z -0.001430 0.000000 1.890430 
# 
# From -- ./inp_files/62858.got.cif
#   From: 2010.06.25/outbox.cif.g09.slc.cpg/sg15_32_cif.got.tgz:62858.got - 2010.06.28 07:06:18.
