data_PCOD8150100
_publ_section_title
;
Structure prediction by ZEFSAII (Michael W. Deem and Ramdas Pophale) SiO2 
 PCOD8150100
Probable space group: C 2/C
;
_chemical_formula_sum "Si O2"
_cell_formula_units_Z 48
_cell_length_a 9.599164
_cell_length_b 11.896766
_cell_length_c 18.227970
_cell_angle_alpha 90.000000
_cell_angle_beta 91.247901
_cell_angle_gamma 90.000000
_cell_volume 2081.122384
_symmetry_space_group_name_H-M "C 2/C"
_symmetry_group_IT_number 15
_symmetry_cell_setting 'monoclinic'
loop_
_space_group_symop_operation_xyz
x,y,z
-x,y,1/2-z
-x,-y,-z
x,-y,1/2+z
1/2+x,1/2+y,z
1/2-x,1/2+y,1/2-z
1/2-x,1/2-y,-z
1/2+x,1/2-y,1/2+z
loop_
_atom_site_type_symbol
_atom_site_label
_atom_site_fract_x
_atom_site_fract_y
_atom_site_fract_z
Si Si1 0.207496 0.761971 0.252136
Si Si2 0.652414 0.661108 0.910606
Si Si3 0.405336 0.466887 0.343352
Si Si4 0.500000 0.927419 0.750000
Si Si5 0.388480 0.028721 0.605605
Si Si6 0.070948 0.648445 0.511522
Si Si7 0.000000 0.830018 0.750000
O O1 0.190740 0.762218 0.340270
O O2 0.139124 0.876237 0.219589
O O3 0.124218 0.652907 0.221647
O O4 0.368485 0.749891 0.227019
O O5 0.542967 0.566309 0.888360
O O6 0.793743 0.606084 0.941688
O O7 0.586510 0.728296 0.978288
O O8 0.278557 0.475919 0.398935
O O9 0.437558 0.589809 0.312210
O O10 0.445030 0.012504 0.688082
O O11 0.443407 0.144876 0.568919
O O12 0.456928 0.931680 0.557499
#
# Coordination Sequence:
#
# PCOD8150100 Si02
#       7
#     8   8   8   4   8   8   4
#     4  12  24  42  69 104 139 182 232 295 349 413
#     4  11  22  44  67  93 142 181 224 291 349 414
#     4  12  24  44  68 106 140 180 238 295 344 414
#     4  12  21  43  68  92 136 174 229 289 344 408
#     4  11  25  42  67 100 130 183 237 280 353 419
#     4  10  24  44  66  94 135 185 228 283 355 421
#     4  12  25  41  68 108 144 178 235 297 354 406
#
# _framework density 23.064478000000001
#
# number of rings (size 3 to 8) (size 9 to 14) (size 15 to 20)
#    0.000    0.667    6.667    0.000    7.000    1.333 
#    0.000    0.000    0.000    0.000    0.000    0.000 
#    0.000    0.000    0.000    0.000    0.000    0.000 
#
# Total GULP energy -297560.599043 kJ/mol
# GULP energy per Si atom -12398.358293 kJ/mol
# Density = 2.301198 g / cm^3
# Si number density = 23.064478 Si / 1000 Ang^3
#
#
#
# Elastic Constant Matrix: (Units=GPa)
#
#
# Indices 1 2 3 4 5 6 
#
# 1 111.8724 -2.3739 18.7612 0.0000 -6.6186 0.0000
# 2 -2.3739 33.1668 7.5355 0.0000 1.4934 0.0000
# 3 18.7612 7.5355 67.3371 0.0000 -0.2840 0.0000
# 4 0.0000 0.0000 0.0000 7.7250 0.0000 -2.9909
# 5 -6.6186 1.4934 -0.2840 0.0000 44.6328 0.0000
# 6 0.0000 0.0000 0.0000 -2.9909 0.0000 40.6169
#
#
#
# Elastic Compliance Matrix: (Units=1/GPa)
#
#
# Indices 1 2 3 4 5 6 
#
# 1 0.009512 0.001253 -0.002785 0.000000 0.001351 0.000000
# 2 0.001253 0.031152 -0.003839 0.000000 -0.000881 0.000000
# 3 -0.002785 -0.003839 0.016055 0.000000 -0.000182 0.000000
# 4 0.000000 0.000000 0.000000 0.133250 0.000000 0.009812
# 5 0.001351 -0.000881 -0.000182 0.000000 0.022634 0.000000
# 6 0.000000 0.000000 0.000000 0.009812 0.000000 0.025343
#
#
# Mechanical properties :
#
#
# Convention : Reuss Voigt Hill
#
# Bulk Modulus (GPa) = 21.74959 28.91355 25.33157
# Shear Modulus (GPa) = 18.93842 31.15851 25.04846
#
# Velocity S-wave (km/s) = 2.86861 3.67949 3.29906
# Velocity P-wave (km/s) = 4.51910 5.53305 5.05158
#
# Compressibility (1/GPa) = 0.04597788
#
# Stress axis : x y z
#
# Youngs Moduli (GPa) = 105.12731 32.10055 62.28447
#
# Poissons Ratio (x) = -0.04021 0.17345
# Poissons Ratio (y) = -0.13169 0.23910
# Poissons Ratio (z) = 0.29276 0.12323
#
# Static dielectric constant tensor:
#      x y z
#    x 4.542010 0.000000 -0.157910 
#    y 0.000000 3.907280 0.000000 
#    z -0.157910 0.000000 4.301450 
# 
# 
# High freq. dielectric constant tensor:
#      x y z
#    x 1.925050 0.000000 -0.004140 
#    y 0.000000 1.896850 0.000000 
#    z -0.004140 0.000000 1.905840 
# 
# From -- ./inp_files/189288.got.cif
#   From: 2010.06.25/outbox.cif.g09.slc.cpg/sg15_95_cif.got.tgz:189288.got - 2010.06.28 07:06:18.
