data_PCOD8150884
_publ_section_title
;
Structure prediction by ZEFSAII (Michael W. Deem and Ramdas Pophale) SiO2 
 PCOD8150884
Probable space group: C 2/C
;
_chemical_formula_sum "Si O2"
_cell_formula_units_Z 60
_cell_length_a 26.517756
_cell_length_b 8.350283
_cell_length_c 24.595060
_cell_angle_alpha 90.000000
_cell_angle_beta 151.862266
_cell_angle_gamma 90.000000
_cell_volume 2568.342596
_symmetry_space_group_name_H-M "C 2/C"
_symmetry_group_IT_number 15
_symmetry_cell_setting 'monoclinic'
loop_
_space_group_symop_operation_xyz
x,y,z
-x,y,1/2-z
-x,-y,-z
x,-y,1/2+z
1/2+x,1/2+y,z
1/2-x,1/2+y,1/2-z
1/2-x,1/2-y,-z
1/2+x,1/2-y,1/2+z
loop_
_atom_site_type_symbol
_atom_site_label
_atom_site_fract_x
_atom_site_fract_y
_atom_site_fract_z
Si Si1 0.606110 0.327937 0.144035
Si Si2 0.705605 0.490386 0.569948
Si Si3 0.500000 0.947990 0.250000
Si Si4 0.156387 0.293323 0.871531
Si Si5 0.098957 0.710060 0.742559
Si Si6 0.705432 0.616754 0.186298
Si Si7 0.957272 0.657570 0.930640
Si Si8 0.528491 0.442720 0.180939
O O1 0.678974 0.487054 0.207691
O O2 0.669520 0.157111 0.202232
O O3 0.542476 0.334665 0.140325
O O4 0.525558 0.312912 0.016064
O O5 0.787070 0.350188 0.630294
O O6 0.776858 0.653413 0.633437
O O7 0.662948 0.457117 0.589696
O O8 0.597094 0.491834 0.430002
O O9 0.480915 0.841016 0.285029
O O10 0.397810 0.062459 0.146672
O O11 0.070591 0.156640 0.773426
O O12 0.250000 0.250000 0.000000
O O13 0.043284 0.641469 0.634940
O O14 0.102408 0.901285 0.745535
O O15 0.660494 0.792689 0.160541
O O16 0.000000 0.500000 0.000000
#
# Coordination Sequence:
#
# PCOD8150884 Si02
#       8
#     8   8   4   8   8   8   8   8
#     4  12  24  43  67 106 148 196 248 300 384 457
#     4  11  24  44  71 101 148 189 244 301 371 451
#     4  10  26  48  74 100 150 188 254 306 376 446
#     4  11  25  47  74 106 136 191 252 312 370 441
#     4  11  26  48  70 111 147 201 251 315 373 455
#     4  12  23  42  65 103 145 194 242 306 367 464
#     4  12  25  42  70 108 152 198 251 310 385 451
#     4  12  25  47  76 106 150 196 248 312 380 451
#
# _framework density 23.361370000000001
#
# number of rings (size 3 to 8) (size 9 to 14) (size 15 to 20)
#    0.000    0.533    4.000    4.400    1.867    3.733 
#    4.800    2.667    0.000    0.000    0.000    0.000 
#    0.000    0.000    0.000    0.000    0.000    0.000 
#
# Total GULP energy -371837.239283 kJ/mol
# GULP energy per Si atom -12394.574643 kJ/mol
# Density = 2.330820 g / cm^3
# Si number density = 23.361370 Si / 1000 Ang^3
#
#
#
# Elastic Constant Matrix: (Units=GPa)
#
#
# Indices 1 2 3 4 5 6 
#
# 1 126.5311 29.7236 38.9947 0.0000 -7.5716 0.0000
# 2 29.7236 78.0087 37.7057 -0.0001 -1.3933 -0.0001
# 3 38.9947 37.7057 138.6034 0.0000 -1.0248 0.0000
# 4 0.0000 -0.0001 0.0000 41.0588 0.0000 6.7999
# 5 -7.5716 -1.3933 -1.0248 0.0000 29.7290 0.0000
# 6 0.0000 -0.0001 0.0000 6.7999 0.0000 28.6784
#
#
#
# Elastic Compliance Matrix: (Units=1/GPa)
#
#
# Indices 1 2 3 4 5 6 
#
# 1 0.009214 -0.002564 -0.001879 0.000000 0.002162 0.000000
# 2 -0.002564 0.015483 -0.003491 0.000000 -0.000048 0.000000
# 3 -0.001879 -0.003491 0.008691 0.000000 -0.000343 0.000000
# 4 0.000000 0.000000 0.000000 0.025351 0.000000 -0.006011
# 5 0.002162 -0.000048 -0.000343 0.000000 0.034174 0.000000
# 6 0.000000 0.000000 0.000000 -0.006011 0.000000 0.036295
#
#
# Mechanical properties :
#
#
# Convention : Reuss Voigt Hill
#
# Bulk Modulus (GPa) = 57.07879 61.77679 59.42779
# Shear Modulus (GPa) = 33.13162 35.67451 34.40306
#
# Velocity S-wave (km/s) = 3.77001 3.91202 3.84167
# Velocity P-wave (km/s) = 6.59065 6.84884 6.72099
#
# Compressibility (1/GPa) = 0.01751964
#
# Stress axis : x y z
#
# Youngs Moduli (GPa) = 108.53202 64.58891 115.06805
#
# Poissons Ratio (x) = 0.16561 0.21618
# Poissons Ratio (y) = 0.27828 0.40169
# Poissons Ratio (z) = 0.20390 0.22547
#
# Static dielectric constant tensor:
#      x y z
#    x 2.974140 0.000000 1.131960 
#    y 0.000000 4.273870 0.000000 
#    z 1.131960 0.000000 3.499150 
# 
# 
# High freq. dielectric constant tensor:
#      x y z
#    x 1.929530 0.000000 0.012150 
#    y 0.000000 1.925870 0.000000 
#    z 0.012150 0.000000 1.921730 
# 
# From -- ./inp_files/283403.got.cif
#   From: 2010.06.25/outbox.cif.g09.slc.cpg/sg15_142_cif.got.tgz:283403.got - 2010.06.28 07:06:18.
