data_PCOD8150891
_publ_section_title
;
Structure prediction by ZEFSAII (Michael W. Deem and Ramdas Pophale) SiO2 
 PCOD8150891
Probable space group: C 2/C
;
_chemical_formula_sum "Si O2"
_cell_formula_units_Z 52
_cell_length_a 21.362642
_cell_length_b 16.565005
_cell_length_c 8.963384
_cell_angle_alpha 90.000000
_cell_angle_beta 130.036692
_cell_angle_gamma 90.000000
_cell_volume 2428.504878
_symmetry_space_group_name_H-M "C 2/C"
_symmetry_group_IT_number 15
_symmetry_cell_setting 'monoclinic'
loop_
_space_group_symop_operation_xyz
x,y,z
-x,y,1/2-z
-x,-y,-z
x,-y,1/2+z
1/2+x,1/2+y,z
1/2-x,1/2+y,1/2-z
1/2-x,1/2-y,-z
1/2+x,1/2-y,1/2+z
loop_
_atom_site_type_symbol
_atom_site_label
_atom_site_fract_x
_atom_site_fract_y
_atom_site_fract_z
Si Si1 0.678173 0.297193 0.306486
Si Si2 0.000000 0.502545 0.250000
Si Si3 0.503230 0.740480 0.576694
Si Si4 0.096380 0.912565 0.677989
Si Si5 0.085367 0.398876 0.131877
Si Si6 0.912211 0.065897 0.653156
Si Si7 0.260857 0.667499 0.927698
O O1 0.750000 0.250000 0.500000
O O2 0.596923 0.242576 0.172010
O O3 0.649732 0.378170 0.349343
O O4 0.709316 0.315647 0.191634
O O5 0.054880 0.448074 0.227405
O O6 0.061419 0.557524 0.440795
O O7 0.500000 0.745737 0.750000
O O8 0.471210 0.656985 0.451701
O O9 0.450490 0.809391 0.419683
O O10 0.129804 0.948301 0.571643
O O11 0.059091 0.986101 0.715792
O O12 0.174164 0.884334 0.885899
O O13 0.181942 0.389080 0.294976
O O14 0.000000 0.110190 0.750000
O O15 0.250000 0.750000 0.000000
#
# Coordination Sequence:
#
# PCOD8150891 Si02
#       7
#     8   4   8   8   8   8   8
#     4  12  26  45  73 105 142 195 242 296 374 431
#     4  10  26  48  78 102 134 192 242 294 372 432
#     4  12  23  46  77 104 144 193 246 300 361 448
#     4  12  25  44  72 105 151 192 242 299 372 439
#     4  11  25  49  74 103 140 186 240 302 360 437
#     4  12  25  46  71 106 148 196 245 301 363 445
#     4  12  27  45  70 109 148 182 247 307 363 437
#
# _framework density 21.412351999999998
#
# number of rings (size 3 to 8) (size 9 to 14) (size 15 to 20)
#    0.000    0.308    5.385    3.231    4.308    2.462 
#    2.769    0.000    0.000    0.000    0.000    0.000 
#    0.000    0.000    0.000    0.000    0.000    0.000 
#
# Total GULP energy -322274.189256 kJ/mol
# GULP energy per Si atom -12395.161125 kJ/mol
# Density = 2.136362 g / cm^3
# Si number density = 21.412352 Si / 1000 Ang^3
#
#
#
# Elastic Constant Matrix: (Units=GPa)
#
#
# Indices 1 2 3 4 5 6 
#
# 1 156.1754 52.3106 85.2784 0.0000 -7.8940 0.0000
# 2 52.3106 114.6663 51.5873 0.0000 -10.0032 0.0000
# 3 85.2784 51.5873 167.9603 0.0000 -5.1591 0.0000
# 4 0.0000 0.0000 0.0000 41.8202 0.0000 -0.3761
# 5 -7.8940 -10.0032 -5.1591 0.0000 50.6768 0.0000
# 6 0.0000 0.0000 0.0000 -0.3761 0.0000 39.1002
#
#
#
# Elastic Compliance Matrix: (Units=1/GPa)
#
#
# Indices 1 2 3 4 5 6 
#
# 1 0.009453 -0.002449 -0.004030 0.000000 0.000579 0.000000
# 2 -0.002449 0.010899 -0.002056 0.000000 0.001561 0.000000
# 3 -0.004030 -0.002056 0.008626 0.000000 -0.000155 0.000000
# 4 0.000000 0.000000 0.000000 0.023914 0.000000 0.000230
# 5 0.000579 0.001561 -0.000155 0.000000 0.020115 0.000000
# 6 0.000000 0.000000 0.000000 0.000230 0.000000 0.025578
#
#
# Mechanical properties :
#
#
# Convention : Reuss Voigt Hill
#
# Bulk Modulus (GPa) = 83.96910 90.79495 87.38203
# Shear Modulus (GPa) = 41.79727 42.96117 42.37922
#
# Velocity S-wave (km/s) = 4.42296 4.48412 4.45364
# Velocity P-wave (km/s) = 8.08602 8.32495 8.20636
#
# Compressibility (1/GPa) = 0.01190914
#
# Stress axis : x y z
#
# Youngs Moduli (GPa) = 105.78742 91.74774 115.92200
#
# Poissons Ratio (x) = 0.22470 0.46711
# Poissons Ratio (y) = 0.25908 0.23837
# Poissons Ratio (z) = 0.42627 0.18866
#
# Static dielectric constant tensor:
#      x y z
#    x 3.811490 0.000000 -0.136310 
#    y 0.000000 4.269470 0.000000 
#    z -0.136310 0.000000 4.305960 
# 
# 
# High freq. dielectric constant tensor:
#      x y z
#    x 1.841790 0.000000 -0.010330 
#    y 0.000000 1.849380 0.000000 
#    z -0.010330 0.000000 1.867640 
# 
# From -- ./inp_files/57060.got.cif
#   From: 2010.06.25/outbox.cif.g09.slc.cpg/sg15_29_cif.got.tgz:57060.got - 2010.06.28 07:06:18.
