data_PCOD8150704
_publ_section_title
;
Structure prediction by ZEFSAII (Michael W. Deem and Ramdas Pophale) SiO2 
 PCOD8150704
Probable space group: C 2/C
;
_chemical_formula_sum "Si O2"
_cell_formula_units_Z 60
_cell_length_a 13.760445
_cell_length_b 23.117510
_cell_length_c 9.186581
_cell_angle_alpha 90.000000
_cell_angle_beta 69.612005
_cell_angle_gamma 90.000000
_cell_volume 2739.249202
_symmetry_space_group_name_H-M "C 2/C"
_symmetry_group_IT_number 15
_symmetry_cell_setting 'monoclinic'
loop_
_space_group_symop_operation_xyz
x,y,z
-x,y,1/2-z
-x,-y,-z
x,-y,1/2+z
1/2+x,1/2+y,z
1/2-x,1/2+y,1/2-z
1/2-x,1/2-y,-z
1/2+x,1/2-y,1/2+z
loop_
_atom_site_type_symbol
_atom_site_label
_atom_site_fract_x
_atom_site_fract_y
_atom_site_fract_z
Si Si1 0.855784 0.367371 0.317924
Si Si2 0.000000 0.735021 0.750000
Si Si3 0.645530 0.582359 0.928202
Si Si4 0.905582 0.422423 0.996791
Si Si5 0.966456 0.844705 0.611152
Si Si6 0.379375 0.485389 0.341823
Si Si7 0.728051 0.402556 0.885890
Si Si8 0.128786 0.551368 0.422748
O O1 0.731827 0.367246 0.371777
O O2 0.911756 0.386191 0.140748
O O3 0.887476 0.413359 0.422421
O O4 0.897841 0.303552 0.332367
O O5 0.987505 0.775446 0.611782
O O6 0.667125 0.536113 0.787944
O O7 0.538881 0.618619 0.962324
O O8 0.657824 0.548036 0.075944
O O9 0.850864 0.484548 0.047417
O O10 0.831812 0.386128 0.924170
O O11 0.023719 0.436422 0.882490
O O12 0.844507 0.849826 0.632081
O O13 0.000000 0.872019 0.750000
O O14 0.500000 0.489860 0.250000
O O15 0.353193 0.440266 0.481714
O O16 0.768984 0.433610 0.720278
#
# Coordination Sequence:
#
# PCOD8150704 Si02
#       8
#     8   4   8   8   8   8   8   8
#     4  12  23  44  71 100 140 184 238 283 348 431
#     4  10  26  50  72  96 130 188 258 302 342 412
#     4  12  25  40  69 106 145 188 220 282 354 439
#     4  11  22  40  66 107 148 183 221 292 350 434
#     4  10  25  47  68  95 138 180 248 299 347 403
#     4  12  25  40  67 106 153 185 216 271 365 444
#     4  12  24  41  66 104 142 184 231 291 349 428
#     4  11  23  39  67 104 151 187 224 270 362 438
#
# _framework density 21.903811999999999
#
# number of rings (size 3 to 8) (size 9 to 14) (size 15 to 20)
#    0.400    0.267    4.000    4.400    3.733    2.667 
#    0.000    0.667    0.000    1.600    0.000    0.000 
#    0.000    0.000    0.000    0.000    0.000    0.000 
#
# Total GULP energy -371643.205572 kJ/mol
# GULP energy per Si atom -12388.106852 kJ/mol
# Density = 2.185396 g / cm^3
# Si number density = 21.903812 Si / 1000 Ang^3
#
#
#
# Elastic Constant Matrix: (Units=GPa)
#
#
# Indices 1 2 3 4 5 6 
#
# 1 137.7479 50.1405 49.4789 0.0000 -3.0010 0.0000
# 2 50.1405 114.4720 39.6268 0.0000 -1.2806 0.0000
# 3 49.4789 39.6268 77.0416 0.0000 0.1985 0.0000
# 4 0.0000 0.0000 0.0000 18.0105 0.0000 -0.1711
# 5 -3.0010 -1.2806 0.1985 0.0000 37.0570 0.0000
# 6 0.0000 0.0000 0.0000 -0.1711 0.0000 32.6173
#
#
#
# Elastic Compliance Matrix: (Units=1/GPa)
#
#
# Indices 1 2 3 4 5 6 
#
# 1 0.010072 -0.002632 -0.005117 0.000000 0.000752 0.000000
# 2 -0.002632 0.011322 -0.004134 0.000000 0.000200 0.000000
# 3 -0.005117 -0.004134 0.018394 0.000000 -0.000656 0.000000
# 4 0.000000 0.000000 0.000000 0.055526 0.000000 0.000291
# 5 0.000752 0.000200 -0.000656 0.000000 0.027057 0.000000
# 6 0.000000 0.000000 0.000000 0.000291 0.000000 0.030660
#
#
# Mechanical properties :
#
#
# Convention : Reuss Voigt Hill
#
# Bulk Modulus (GPa) = 62.40991 67.52823 64.96907
# Shear Modulus (GPa) = 27.45198 30.20466 28.82832
#
# Velocity S-wave (km/s) = 3.54403 3.71747 3.63179
# Velocity P-wave (km/s) = 6.73064 7.02300 6.87837
#
# Compressibility (1/GPa) = 0.01602310
#
# Stress axis : x y z
#
# Youngs Moduli (GPa) = 99.28489 88.32533 54.36558
#
# Poissons Ratio (x) = 0.23247 0.27818
# Poissons Ratio (y) = 0.26132 0.22472
# Poissons Ratio (z) = 0.50802 0.36510
#
# Static dielectric constant tensor:
#      x y z
#    x 4.499460 0.000000 -0.042730 
#    y 0.000000 3.517180 0.000000 
#    z -0.042730 0.000000 4.046350 
# 
# 
# High freq. dielectric constant tensor:
#      x y z
#    x 1.893190 0.000000 -0.009620 
#    y 0.000000 1.810030 0.000000 
#    z -0.009620 0.000000 1.861250 
# 
# From -- ./inp_files/42609.got.cif
#   From: 2010.06.25/outbox.cif.g09.slc.cpg/sg15_22_cif.got.tgz:42609.got - 2010.06.28 07:06:18.
