data_PCOD8150828
_publ_section_title
;
Structure prediction by ZEFSAII (Michael W. Deem and Ramdas Pophale) SiO2 
 PCOD8150828
Probable space group: C 2/C
;
_chemical_formula_sum "Si O2"
_cell_formula_units_Z 36
_cell_length_a 19.665558
_cell_length_b 9.202042
_cell_length_c 8.429213
_cell_angle_alpha 90.000000
_cell_angle_beta 111.032455
_cell_angle_gamma 90.000000
_cell_volume 1423.753283
_symmetry_space_group_name_H-M "C 2/C"
_symmetry_group_IT_number 15
_symmetry_cell_setting 'monoclinic'
loop_
_space_group_symop_operation_xyz
x,y,z
-x,y,1/2-z
-x,-y,-z
x,-y,1/2+z
1/2+x,1/2+y,z
1/2-x,1/2+y,1/2-z
1/2-x,1/2-y,-z
1/2+x,1/2-y,1/2+z
loop_
_atom_site_type_symbol
_atom_site_label
_atom_site_fract_x
_atom_site_fract_y
_atom_site_fract_z
Si Si1 0.857005 0.920967 0.812396
Si Si2 0.612970 0.127319 0.776143
Si Si3 0.305686 0.087515 0.335370
Si Si4 0.126095 0.197361 0.842722
Si Si5 0.500000 0.092487 0.250000
O O1 0.906820 0.793022 0.781019
O O2 0.776196 0.911118 0.666002
O O3 0.896456 0.074552 0.807212
O O4 0.842882 0.899029 0.987658
O O5 0.679342 0.075164 0.718852
O O6 0.544432 0.020405 0.674060
O O7 0.635532 0.120457 0.978996
O O8 0.316124 0.198115 0.195462
O O9 0.061258 0.295562 0.865734
#
# Coordination Sequence:
#
# PCOD8150828 Si02
#       5
#     8   8   8   8   4
#     4  12  23  41  66  97 126 168 213 267 324 370
#     4  11  23  40  68  92 131 171 211 264 311 386
#     4  11  22  41  65  98 128 165 212 265 325 375
#     4  11  25  41  64  92 133 167 210 267 312 381
#     4  10  26  46  62  94 128 174 220 250 318 378
#
# _framework density 25.28528
#
# number of rings (size 3 to 8) (size 9 to 14) (size 15 to 20)
#    0.000    0.889    0.000    8.000    0.000    9.778 
#    0.000    0.000    0.000    0.000    0.000    0.000 
#    0.000    0.000    0.000    0.000    0.000    0.000 
#
# Total GULP energy -222986.169331 kJ/mol
# GULP energy per Si atom -12388.120518 kJ/mol
# Density = 2.522773 g / cm^3
# Si number density = 25.285280 Si / 1000 Ang^3
#
#
#
# Elastic Constant Matrix: (Units=GPa)
#
#
# Indices 1 2 3 4 5 6 
#
# 1 105.0919 57.7788 16.3378 0.0000 2.1201 0.0000
# 2 57.7788 150.7834 -10.1024 0.0000 -4.5439 0.0000
# 3 16.3378 -10.1024 53.8793 0.0000 -10.1506 0.0000
# 4 0.0000 0.0000 0.0000 30.1876 0.0000 -9.6723
# 5 2.1201 -4.5439 -10.1506 0.0000 24.7510 0.0000
# 6 0.0000 0.0000 0.0000 -9.6723 0.0000 35.2560
#
#
#
# Elastic Compliance Matrix: (Units=1/GPa)
#
#
# Indices 1 2 3 4 5 6 
#
# 1 0.013783 -0.005839 -0.006176 0.000000 -0.004785 0.000000
# 2 -0.005839 0.009273 0.004253 0.000000 0.003947 0.000000
# 3 -0.006176 0.004253 0.023275 0.000000 0.010855 0.000000
# 4 0.000000 0.000000 0.000000 0.036319 0.000000 0.009964
# 5 -0.004785 0.003947 0.010855 0.000000 0.045989 0.000000
# 6 0.000000 0.000000 0.000000 0.009964 0.000000 0.031098
#
#
# Mechanical properties :
#
#
# Convention : Reuss Voigt Hill
#
# Bulk Modulus (GPa) = 32.45995 48.64255 40.55125
# Shear Modulus (GPa) = 26.94997 34.42161 30.68579
#
# Velocity S-wave (km/s) = 3.26826 3.69362 3.48743
# Velocity P-wave (km/s) = 5.20647 6.12125 5.68230
#
# Compressibility (1/GPa) = 0.03080719
#
# Stress axis : x y z
#
# Youngs Moduli (GPa) = 72.55573 107.83435 42.96432
#
# Poissons Ratio (x) = 0.62968 0.26533
# Poissons Ratio (y) = 0.42367 -0.18273
# Poissons Ratio (z) = 0.44808 -0.45862
#
# Static dielectric constant tensor:
#      x y z
#    x 4.315240 0.000000 -0.100960 
#    y 0.000000 4.895730 0.000000 
#    z -0.100960 0.000000 4.183610 
# 
# 
# High freq. dielectric constant tensor:
#      x y z
#    x 1.985460 0.000000 -0.017350 
#    y 0.000000 2.030480 0.000000 
#    z -0.017350 0.000000 1.990070 
# 
# From -- ./inp_files/60122.got.cif
#   From: 2010.06.25/outbox.cif.g09.slc.cpg/sg15_31_cif.got.tgz:60122.got - 2010.06.28 07:06:18.
