data_PCOD8150887
_publ_section_title
;
Structure prediction by ZEFSAII (Michael W. Deem and Ramdas Pophale) SiO2 
 PCOD8150887
Probable space group: C 2/C
;
_chemical_formula_sum "Si O2"
_cell_formula_units_Z 44
_cell_length_a 11.520576
_cell_length_b 12.054558
_cell_length_c 13.560492
_cell_angle_alpha 90.000000
_cell_angle_beta 97.447937
_cell_angle_gamma 90.000000
_cell_volume 1867.330836
_symmetry_space_group_name_H-M "C 2/C"
_symmetry_group_IT_number 15
_symmetry_cell_setting 'monoclinic'
loop_
_space_group_symop_operation_xyz
x,y,z
-x,y,1/2-z
-x,-y,-z
x,-y,1/2+z
1/2+x,1/2+y,z
1/2-x,1/2+y,1/2-z
1/2-x,1/2-y,-z
1/2+x,1/2-y,1/2+z
loop_
_atom_site_type_symbol
_atom_site_label
_atom_site_fract_x
_atom_site_fract_y
_atom_site_fract_z
Si Si1 0.631674 0.524375 0.546346
Si Si2 0.758773 0.882525 0.781045
Si Si3 0.500000 0.181309 0.250000
Si Si4 0.080022 0.308991 0.160530
Si Si5 0.691615 0.023212 0.088334
Si Si6 0.440317 0.240186 0.456977
O O1 0.500000 0.500000 0.500000
O O2 0.664030 0.473061 0.654255
O O3 0.726938 0.466600 0.484934
O O4 0.651564 0.657791 0.548026
O O5 0.617357 0.892657 0.777780
O O6 0.800483 0.757073 0.803156
O O7 0.782446 0.915202 0.670793
O O8 0.493612 0.251531 0.351499
O O9 0.111335 0.434214 0.135422
O O10 0.000000 0.306885 0.250000
O O11 0.028965 0.245562 0.058574
O O12 0.610526 0.117708 0.031152
#
# Coordination Sequence:
#
# PCOD8150887 Si02
#       6
#     8   8   4   8   8   8
#     4  12  26  46  75 110 151 195 245 315 381 442
#     4  11  27  47  72 109 152 194 253 305 382 443
#     4  10  26  48  74 110 146 206 250 308 364 454
#     4  12  27  48  78 109 150 199 254 313 374 448
#     4  11  28  44  75 106 150 200 248 309 368 457
#     4  11  25  48  75 108 154 192 253 304 378 448
#
# _framework density 23.563044999999999
#
# number of rings (size 3 to 8) (size 9 to 14) (size 15 to 20)
#    0.000    0.727    1.818    3.273   15.273    1.455 
#    0.000    0.000    0.000    0.000    0.000    0.000 
#    0.000    0.000    0.000    0.000    0.000    0.000 
#
# Total GULP energy -272616.336660 kJ/mol
# GULP energy per Si atom -12391.651666 kJ/mol
# Density = 2.350941 g / cm^3
# Si number density = 23.563045 Si / 1000 Ang^3
#
#
#
# Elastic Constant Matrix: (Units=GPa)
#
#
# Indices 1 2 3 4 5 6 
#
# 1 106.8085 31.7899 34.1202 0.0000 3.0022 0.0000
# 2 31.7899 113.3469 3.9896 0.0000 12.3850 0.0000
# 3 34.1202 3.9896 127.8938 0.0000 0.3905 0.0000
# 4 0.0000 0.0000 0.0000 34.9698 0.0000 11.7269
# 5 3.0022 12.3850 0.3905 0.0000 48.0884 0.0000
# 6 0.0000 0.0000 0.0000 11.7269 0.0000 31.6870
#
#
#
# Elastic Compliance Matrix: (Units=1/GPa)
#
#
# Indices 1 2 3 4 5 6 
#
# 1 0.011190 -0.003049 -0.002891 0.000000 0.000110 0.000000
# 2 -0.003049 0.009918 0.000511 0.000000 -0.002368 0.000000
# 3 -0.002891 0.000511 0.008574 0.000000 -0.000021 0.000000
# 4 0.000000 0.000000 0.000000 0.032648 0.000000 -0.012082
# 5 0.000110 -0.002368 -0.000021 0.000000 0.021398 0.000000
# 6 0.000000 0.000000 0.000000 -0.012082 0.000000 0.036030
#
#
# Mechanical properties :
#
#
# Convention : Reuss Voigt Hill
#
# Bulk Modulus (GPa) = 53.11666 54.20540 53.66103
# Shear Modulus (GPa) = 36.52535 41.49234 39.00884
#
# Velocity S-wave (km/s) = 3.94142 4.20087 4.07321
# Velocity P-wave (km/s) = 6.58060 6.82525 6.70404
#
# Compressibility (1/GPa) = 0.01882649
#
# Stress axis : x y z
#
# Youngs Moduli (GPa) = 89.36316 100.82356 116.62785
#
# Poissons Ratio (x) = 0.30739 0.33713
# Poissons Ratio (y) = 0.27245 -0.05962
# Poissons Ratio (z) = 0.25832 -0.05154
#
# Static dielectric constant tensor:
#      x y z
#    x 4.060340 0.000000 -0.003800 
#    y 0.000000 4.226840 0.000000 
#    z -0.003800 0.000000 4.699080 
# 
# 
# High freq. dielectric constant tensor:
#      x y z
#    x 1.922360 0.000000 0.005190 
#    y 0.000000 1.933000 0.000000 
#    z 0.005190 0.000000 1.958350 
# 
# From -- ./inp_files/142320.got.cif
#   From: 2010.06.25/outbox.cif.g09.slc.cpg/sg15_72_cif.got.tgz:142320.got - 2010.06.28 07:06:18.
