data_PCOD8150343
_publ_section_title
;
Structure prediction by ZEFSAII (Michael W. Deem and Ramdas Pophale) SiO2 
 PCOD8150343
Probable space group: C 2/C
;
_chemical_formula_sum "Si O2"
_cell_formula_units_Z 52
_cell_length_a 11.045164
_cell_length_b 23.399954
_cell_length_c 14.323973
_cell_angle_alpha 90.000000
_cell_angle_beta 36.939794
_cell_angle_gamma 90.000000
_cell_volume 2224.884276
_symmetry_space_group_name_H-M "C 2/C"
_symmetry_group_IT_number 15
_symmetry_cell_setting 'monoclinic'
loop_
_space_group_symop_operation_xyz
x,y,z
-x,y,1/2-z
-x,-y,-z
x,-y,1/2+z
1/2+x,1/2+y,z
1/2-x,1/2+y,1/2-z
1/2-x,1/2-y,-z
1/2+x,1/2-y,1/2+z
loop_
_atom_site_type_symbol
_atom_site_label
_atom_site_fract_x
_atom_site_fract_y
_atom_site_fract_z
Si Si1 0.775869 0.087411 0.493200
Si Si2 0.226558 0.918683 0.713469
Si Si3 0.233319 0.212971 0.755114
Si Si4 0.584674 0.375271 0.096141
Si Si5 0.000000 0.679631 0.750000
Si Si6 0.721673 0.973733 0.634349
Si Si7 0.471943 0.181008 0.429986
O O1 0.726012 0.060823 0.421286
O O2 0.629922 0.140458 0.600300
O O3 0.005161 0.109643 0.354501
O O4 0.743183 0.039026 0.590698
O O5 0.235309 0.971812 0.780652
O O6 0.388862 0.873849 0.648057
O O7 0.352145 0.219699 0.779978
O O8 0.399572 0.202489 0.574602
O O9 0.084263 0.159020 0.856860
O O10 0.105910 0.268468 0.803568
O O11 0.500000 0.391721 0.250000
O O12 0.623202 0.433403 0.016544
O O13 0.782799 0.335072 0.981088
O O14 0.500000 0.950525 0.750000
#
# Coordination Sequence:
#
# PCOD8150343 Si02
#       7
#     8   8   8   8   4   8   8
#     4  11  26  46  69 102 143 186 229 288 355 417
#     4  11  25  47  70 101 142 184 233 290 349 420
#     4  11  26  42  71 101 137 188 230 287 348 413
#     4  10  24  46  69 102 140 177 235 292 348 410
#     4  12  24  46  66 102 144 182 238 282 340 428
#     4  12  24  44  73 105 134 186 230 293 351 416
#     4  11  24  46  69 102 137 183 233 291 345 409
#
# _framework density 23.372001999999998
#
# number of rings (size 3 to 8) (size 9 to 14) (size 15 to 20)
#    0.000    0.923    3.846    1.846    6.462    2.462 
#    2.769    0.000    0.000    0.000    0.000    0.000 
#    0.000    0.000    0.000    0.000    0.000    0.000 
#
# Total GULP energy -322492.948036 kJ/mol
# GULP energy per Si atom -12403.574924 kJ/mol
# Density = 2.331881 g / cm^3
# Si number density = 23.372002 Si / 1000 Ang^3
#
#
#
# Elastic Constant Matrix: (Units=GPa)
#
#
# Indices 1 2 3 4 5 6 
#
# 1 98.8222 -12.9471 25.6251 0.0017 -4.7036 -0.0004
# 2 -12.9471 49.3403 12.8326 -0.0002 -3.5356 0.0003
# 3 25.6251 12.8326 85.5189 0.0036 -5.8036 -0.0016
# 4 0.0017 -0.0002 0.0036 26.6930 -0.0028 -2.3135
# 5 -4.7036 -3.5356 -5.8036 -0.0028 36.9454 0.0010
# 6 -0.0004 0.0003 -0.0016 -2.3135 0.0010 28.4660
#
#
#
# Elastic Compliance Matrix: (Units=1/GPa)
#
#
# Indices 1 2 3 4 5 6 
#
# 1 0.011796 0.004249 -0.004086 0.000000 0.001266 0.000000
# 2 0.004249 0.022708 -0.004545 0.000001 0.002000 0.000000
# 3 -0.004086 -0.004545 0.013681 -0.000001 0.001194 0.000001
# 4 0.000000 0.000001 -0.000001 0.037729 0.000003 0.003066
# 5 0.001266 0.002000 0.001194 0.000003 0.027607 -0.000001
# 6 0.000000 0.000000 0.000001 0.003066 -0.000001 0.035379
#
#
# Mechanical properties :
#
#
# Convention : Reuss Voigt Hill
#
# Bulk Modulus (GPa) = 25.36805 31.63363 28.50084
# Shear Modulus (GPa) = 29.27350 32.29892 30.78621
#
# Velocity S-wave (km/s) = 3.54291 3.72149 3.63330
# Velocity P-wave (km/s) = 5.25489 5.65952 5.46096
#
# Compressibility (1/GPa) = 0.03941966
#
# Stress axis : x y z
#
# Youngs Moduli (GPa) = 84.77702 44.03805 73.09581
#
# Poissons Ratio (x) = -0.18710 0.29868
# Poissons Ratio (y) = -0.36019 0.33220
# Poissons Ratio (z) = 0.34641 0.20014
#
# Static dielectric constant tensor:
#      x y z
#    x 4.399910 0.000000 -0.162630 
#    y 0.000000 3.771000 0.000000 
#    z -0.162630 0.000000 4.499480 
# 
# 
# High freq. dielectric constant tensor:
#      x y z
#    x 1.938770 0.000000 -0.009880 
#    y 0.000000 1.898200 0.000000 
#    z -0.009880 0.000000 1.942450 
# 
# From -- ./inp_files/148034.got.cif
#   From: 2010.06.25/outbox.cif.g09.slc.cpg/sg15_75_cif.got.tgz:148034.got - 2010.06.28 07:06:18.
