data_PCOD8150078
_publ_section_title
;
Structure prediction by ZEFSAII (Michael W. Deem and Ramdas Pophale) SiO2 
 PCOD8150078
Probable space group: C 2/C
;
_chemical_formula_sum "Si O2"
_cell_formula_units_Z 60
_cell_length_a 19.915891
_cell_length_b 6.371873
_cell_length_c 25.954364
_cell_angle_alpha 90.000000
_cell_angle_beta 122.627337
_cell_angle_gamma 90.000000
_cell_volume 2773.895058
_symmetry_space_group_name_H-M "C 2/C"
_symmetry_group_IT_number 15
_symmetry_cell_setting 'monoclinic'
loop_
_space_group_symop_operation_xyz
x,y,z
-x,y,1/2-z
-x,-y,-z
x,-y,1/2+z
1/2+x,1/2+y,z
1/2-x,1/2+y,1/2-z
1/2-x,1/2-y,-z
1/2+x,1/2-y,1/2+z
loop_
_atom_site_type_symbol
_atom_site_label
_atom_site_fract_x
_atom_site_fract_y
_atom_site_fract_z
Si Si1 0.666312 0.704753 0.652537
Si Si2 0.435588 0.737190 0.789436
Si Si3 0.500000 0.376912 0.750000
Si Si4 0.090820 0.035880 0.029814
Si Si5 0.681251 0.915871 0.092907
Si Si6 0.080710 0.550571 0.859756
Si Si7 0.302463 0.940056 0.673153
Si Si8 0.667564 0.790318 0.492484
O O1 0.615482 0.667773 0.682387
O O2 0.632028 0.554685 0.596105
O O3 0.757600 0.616471 0.690019
O O4 0.658949 0.949231 0.634322
O O5 0.441085 0.528530 0.757327
O O6 0.384237 0.906235 0.737544
O O7 0.521418 0.847116 0.836340
O O8 0.543375 0.240988 0.811722
O O9 0.107734 0.283387 0.039174
O O10 0.126510 0.927468 0.993641
O O11 0.000000 0.000000 0.000000
O O12 0.754159 0.772407 0.141648
O O13 0.697917 0.073806 0.053368
O O14 0.168006 0.512274 0.870929
O O15 0.101075 0.606248 0.927487
O O16 0.750000 0.750000 0.500000
#
# Coordination Sequence:
#
# PCOD8150078 Si02
#       8
#     8   8   4   8   8   8   8   8
#     4  10  26  42  69 100 136 178 232 282 353 413
#     4  12  27  44  69 105 131 191 231 285 351 416
#     4  12  26  46  66  96 144 184 224 302 342 404
#     4  10  24  44  65 102 134 176 227 281 344 417
#     4  10  24  45  70  97 142 178 220 294 344 411
#     4  12  26  46  71 103 143 177 244 285 346 421
#     4  11  24  46  66 102 139 179 235 283 344 428
#     4  11  26  43  72 105 137 186 233 285 350 418
#
# _framework density 21.630233
#
# number of rings (size 3 to 8) (size 9 to 14) (size 15 to 20)
#    0.000    1.067    2.667    2.400   11.200    4.267 
#    0.000    0.000    0.000    0.000    0.000    0.000 
#    0.000    0.000    0.000    0.000    0.000    0.000 
#
# Total GULP energy -371710.170858 kJ/mol
# GULP energy per Si atom -12390.339029 kJ/mol
# Density = 2.158100 g / cm^3
# Si number density = 21.630233 Si / 1000 Ang^3
#
#
#
# Elastic Constant Matrix: (Units=GPa)
#
#
# Indices 1 2 3 4 5 6 
#
# 1 149.0610 41.2934 15.6299 0.0000 -12.8403 0.0000
# 2 41.2934 101.2319 15.0509 -0.0003 -4.8199 -0.0002
# 3 15.6299 15.0509 82.7715 0.0000 -4.0228 0.0000
# 4 0.0000 -0.0003 0.0000 42.4296 0.0000 6.9659
# 5 -12.8403 -4.8199 -4.0228 0.0000 40.8681 0.0000
# 6 0.0000 -0.0002 0.0000 6.9659 0.0000 29.6165
#
#
#
# Elastic Compliance Matrix: (Units=1/GPa)
#
#
# Indices 1 2 3 4 5 6 
#
# 1 0.007789 -0.002957 -0.000835 0.000000 0.002016 0.000000
# 2 -0.002957 0.011318 -0.001487 0.000000 0.000259 0.000000
# 3 -0.000835 -0.001487 0.012548 0.000000 0.000797 0.000000
# 4 0.000000 0.000000 0.000000 0.024515 0.000000 -0.005766
# 5 0.002016 0.000259 0.000797 0.000000 0.025212 0.000000
# 6 0.000000 0.000000 0.000000 -0.005766 0.000000 0.035121
#
#
# Mechanical properties :
#
#
# Convention : Reuss Voigt Hill
#
# Bulk Modulus (GPa) = 47.40034 53.00143 50.20089
# Shear Modulus (GPa) = 37.28732 39.98887 38.63810
#
# Velocity S-wave (km/s) = 4.15643 4.30437 4.23105
# Velocity P-wave (km/s) = 6.70791 7.01855 6.86499
#
# Compressibility (1/GPa) = 0.02109689
#
# Stress axis : x y z
#
# Youngs Moduli (GPa) = 128.38469 88.35516 79.69205
#
# Poissons Ratio (x) = 0.26127 0.06655
# Poissons Ratio (y) = 0.37964 0.11850
# Poissons Ratio (z) = 0.10722 0.13139
#
# Static dielectric constant tensor:
#      x y z
#    x 4.087690 0.000000 -0.635870 
#    y 0.000000 4.296920 0.000000 
#    z -0.635870 0.000000 4.595940 
# 
# 
# High freq. dielectric constant tensor:
#      x y z
#    x 1.859600 0.000000 -0.000250 
#    y 0.000000 1.856670 0.000000 
#    z -0.000250 0.000000 1.855430 
# 
# From -- ./inp_files/300133.got.cif
#   From: 2010.06.25/outbox.cif.g09.slc.cpg/sg15_151_cif.got.tgz:300133.got - 2010.06.28 07:06:18.
