data_PCOD8150625
_publ_section_title
;
Structure prediction by ZEFSAII (Michael W. Deem and Ramdas Pophale) SiO2 
 PCOD8150625
Probable space group: C 2/C
;
_chemical_formula_sum "Si O2"
_cell_formula_units_Z 56
_cell_length_a 30.828095
_cell_length_b 15.215337
_cell_length_c 12.947626
_cell_angle_alpha 90.000000
_cell_angle_beta 24.809345
_cell_angle_gamma 90.000000
_cell_volume 2548.320402
_symmetry_space_group_name_H-M "C 2/C"
_symmetry_group_IT_number 15
_symmetry_cell_setting 'monoclinic'
loop_
_space_group_symop_operation_xyz
x,y,z
-x,y,1/2-z
-x,-y,-z
x,-y,1/2+z
1/2+x,1/2+y,z
1/2-x,1/2+y,1/2-z
1/2-x,1/2-y,-z
1/2+x,1/2-y,1/2+z
loop_
_atom_site_type_symbol
_atom_site_label
_atom_site_fract_x
_atom_site_fract_y
_atom_site_fract_z
Si Si1 0.780615 0.670259 0.360371
Si Si2 0.077556 0.672774 0.998432
Si Si3 0.401360 0.217412 0.903265
Si Si4 0.892630 0.126301 0.080690
Si Si5 0.008515 0.599757 0.517552
Si Si6 0.382153 0.555308 0.888201
Si Si7 0.306765 0.373023 0.984132
O O1 0.750000 0.750000 0.500000
O O2 0.872196 0.615667 0.214260
O O3 0.683246 0.606102 0.557597
O O4 0.810335 0.703016 0.181846
O O5 0.000000 0.630692 0.250000
O O6 0.025676 0.664042 0.999467
O O7 0.091338 0.774941 0.992222
O O8 0.186135 0.621967 0.773620
O O9 0.500000 0.258552 0.750000
O O10 0.437578 0.125992 0.769822
O O11 0.360230 0.283398 0.905312
O O12 0.812023 0.122678 0.348489
O O13 0.845219 0.075786 0.084833
O O14 0.999205 0.081388 0.885662
O O15 0.000000 0.500000 0.500000
O O16 0.368260 0.451831 0.903947
#
# Coordination Sequence:
#
# PCOD8150625 Si02
#       7
#     8   8   8   8   8   8   8
#     4  11  25  45  70 102 144 190 235 298 371 435
#     4  12  25  46  71 104 140 189 239 295 362 433
#     4  10  25  44  71 100 143 183 236 296 367 438
#     4  11  24  46  73 101 147 183 240 299 354 433
#     4  11  25  46  72 100 140 190 245 303 359 438
#     4  11  25  43  71 108 143 183 243 298 351 434
#     4  12  26  44  74 105 140 192 237 295 368 430
#
# _framework density 21.975259000000001
#
# number of rings (size 3 to 8) (size 9 to 14) (size 15 to 20)
#    0.000    0.857    2.857    3.429    8.000    4.000 
#    0.000    0.000    0.000    0.000    0.000    0.000 
#    0.000    0.000    0.000    0.000    0.000    0.000 
#
# Total GULP energy -347319.166613 kJ/mol
# GULP energy per Si atom -12404.255950 kJ/mol
# Density = 2.192524 g / cm^3
# Si number density = 21.975259 Si / 1000 Ang^3
#
#
#
# Elastic Constant Matrix: (Units=GPa)
#
#
# Indices 1 2 3 4 5 6 
#
# 1 107.6380 35.7425 38.9023 0.0000 -2.0005 0.0000
# 2 35.7425 115.7376 40.2802 0.0000 1.1341 0.0000
# 3 38.9023 40.2802 140.6815 0.0000 9.1389 0.0000
# 4 0.0000 0.0000 0.0000 22.1078 0.0000 -1.0963
# 5 -2.0005 1.1341 9.1389 0.0000 47.1756 0.0000
# 6 0.0000 0.0000 0.0000 -1.0963 0.0000 37.5005
#
#
#
# Elastic Compliance Matrix: (Units=1/GPa)
#
#
# Indices 1 2 3 4 5 6 
#
# 1 0.011026 -0.002589 -0.002372 0.000000 0.000989 0.000000
# 2 -0.002589 0.010209 -0.002212 0.000000 0.000073 0.000000
# 3 -0.002372 -0.002212 0.008508 0.000000 -0.001695 0.000000
# 4 0.000000 0.000000 0.000000 0.045299 0.000000 0.001324
# 5 0.000989 0.000073 -0.001695 0.000000 0.021566 0.000000
# 6 0.000000 0.000000 0.000000 0.001324 0.000000 0.026705
#
#
# Mechanical properties :
#
#
# Convention : Reuss Voigt Hill
#
# Bulk Modulus (GPa) = 64.94981 65.98967 65.46974
# Shear Modulus (GPa) = 35.01647 37.96558 36.49103
#
# Velocity S-wave (km/s) = 3.99613 4.16101 4.07941
# Velocity P-wave (km/s) = 7.13528 7.29244 7.21428
#
# Compressibility (1/GPa) = 0.01539650
#
# Stress axis : x y z
#
# Youngs Moduli (GPa) = 90.69638 97.95360 117.54251
#
# Poissons Ratio (x) = 0.25363 0.27879
# Poissons Ratio (y) = 0.23484 0.25998
# Poissons Ratio (z) = 0.21512 0.21665
#
# Static dielectric constant tensor:
#      x y z
#    x 3.987330 0.000000 -0.270110 
#    y 0.000000 3.814910 0.000000 
#    z -0.270110 0.000000 4.000890 
# 
# 
# High freq. dielectric constant tensor:
#      x y z
#    x 1.883580 0.000000 -0.001890 
#    y 0.000000 1.854990 0.000000 
#    z -0.001890 0.000000 1.870590 
# 
# From -- ./inp_files/126997.got.cif
#   From: 2010.06.25/outbox.cif.g09.slc.cpg/sg15_64_cif.got.tgz:126997.got - 2010.06.28 07:06:18.
