data_PCOD8150532
_publ_section_title
;
Structure prediction by ZEFSAII (Michael W. Deem and Ramdas Pophale) SiO2 
 PCOD8150532
Probable space group: C 2/C
;
_chemical_formula_sum "Si O2"
_cell_formula_units_Z 40
_cell_length_a 26.343986
_cell_length_b 5.343560
_cell_length_c 12.597235
_cell_angle_alpha 90.000000
_cell_angle_beta 77.766786
_cell_angle_gamma 90.000000
_cell_volume 1733.054806
_symmetry_space_group_name_H-M "C 2/C"
_symmetry_group_IT_number 15
_symmetry_cell_setting 'monoclinic'
loop_
_space_group_symop_operation_xyz
x,y,z
-x,y,1/2-z
-x,-y,-z
x,-y,1/2+z
1/2+x,1/2+y,z
1/2-x,1/2+y,1/2-z
1/2-x,1/2-y,-z
1/2+x,1/2-y,1/2+z
loop_
_atom_site_type_symbol
_atom_site_label
_atom_site_fract_x
_atom_site_fract_y
_atom_site_fract_z
Si Si1 0.292677 0.446592 0.519799
Si Si2 0.402211 0.064271 0.429876
Si Si3 0.308344 0.131075 0.866530
Si Si4 0.939997 0.062190 0.301233
Si Si5 0.627052 0.749027 0.352385
O O1 0.250000 0.250000 0.500000
O O2 0.319685 0.592441 0.409580
O O3 0.253931 0.618377 0.608648
O O4 0.340314 0.401823 0.576200
O O5 0.430098 0.302640 0.365785
O O6 0.407797 0.068414 0.556411
O O7 0.339604 0.073124 0.427321
O O8 0.425451 0.806015 0.376848
O O9 0.332787 0.098805 0.739077
O O10 0.000000 0.078675 0.250000
O O11 0.909155 0.071477 0.203068
#
# Coordination Sequence:
#
# PCOD8150532 Si02
#       5
#     8   8   8   8   8
#     4  11  23  42  61  97 140 180 231 274 324 413
#     4  11  24  46  70 104 136 173 235 283 340 420
#     4  10  25  40  64 100 139 180 230 278 331 413
#     4  11  27  48  71 102 136 176 232 290 347 415
#     4  11  24  41  71  95 135 189 217 289 345 399
#
# _framework density 23.080632000000001
#
# number of rings (size 3 to 8) (size 9 to 14) (size 15 to 20)
#    0.000    1.200    2.000    3.000    2.800    8.000 
#    0.000    0.000    0.000    0.000    0.000    0.000 
#    0.000    0.000    0.000    0.000    0.000    0.000 
#
# Total GULP energy -247790.072993 kJ/mol
# GULP energy per Si atom -12389.503650 kJ/mol
# Density = 2.302810 g / cm^3
# Si number density = 23.080632 Si / 1000 Ang^3
#
#
#
# Elastic Constant Matrix: (Units=GPa)
#
#
# Indices 1 2 3 4 5 6 
#
# 1 107.9731 28.4608 41.4268 0.0000 -9.5330 0.0000
# 2 28.4608 114.9777 59.8857 0.0000 -3.4815 0.0000
# 3 41.4268 59.8857 173.7830 0.0000 -2.8096 0.0000
# 4 0.0000 0.0000 0.0000 21.3809 0.0000 -7.3422
# 5 -9.5330 -3.4815 -2.8096 0.0000 31.4875 0.0000
# 6 0.0000 0.0000 0.0000 -7.3422 0.0000 32.4526
#
#
#
# Elastic Compliance Matrix: (Units=1/GPa)
#
#
# Indices 1 2 3 4 5 6 
#
# 1 0.010676 -0.001528 -0.001972 0.000000 0.002887 0.000000
# 2 -0.001528 0.010841 -0.003365 0.000000 0.000436 0.000000
# 3 -0.001972 -0.003365 0.007379 0.000000 -0.000311 0.000000
# 4 0.000000 0.000000 0.000000 0.050711 0.000000 0.011473
# 5 0.002887 0.000436 -0.000311 0.000000 0.032653 0.000000
# 6 0.000000 0.000000 0.000000 0.011473 0.000000 0.033410
#
#
# Mechanical properties :
#
#
# Convention : Reuss Voigt Hill
#
# Bulk Modulus (GPa) = 65.93310 72.92004 69.42657
# Shear Modulus (GPa) = 30.40367 34.86157 32.63262
#
# Velocity S-wave (km/s) = 3.63337 3.89063 3.76420
# Velocity P-wave (km/s) = 6.79929 7.20034 7.00269
#
# Compressibility (1/GPa) = 0.01516689
#
# Stress axis : x y z
#
# Youngs Moduli (GPa) = 93.66998 92.24041 135.52539
#
# Poissons Ratio (x) = 0.14097 0.26720
# Poissons Ratio (y) = 0.14315 0.45598
# Poissons Ratio (z) = 0.18468 0.31035
#
# Static dielectric constant tensor:
#      x y z
#    x 5.035500 0.000000 -0.377180 
#    y 0.000000 4.370490 0.000000 
#    z -0.377180 0.000000 4.463610 
# 
# 
# High freq. dielectric constant tensor:
#      x y z
#    x 1.919940 0.000000 -0.021220 
#    y 0.000000 1.910780 0.000000 
#    z -0.021220 0.000000 1.919620 
# 
# From -- ./inp_files/120833.got.cif
#   From: 2010.06.25/outbox.cif.g09.slc.cpg/sg15_61_cif.got.tgz:120833.got - 2010.06.28 07:06:18.
