data_PCOD8150824
_publ_section_title
;
Structure prediction by ZEFSAII (Michael W. Deem and Ramdas Pophale) SiO2 
 PCOD8150824
Probable space group: C 2/C
;
_chemical_formula_sum "Si O2"
_cell_formula_units_Z 32
_cell_length_a 14.286825
_cell_length_b 16.180107
_cell_length_c 11.124235
_cell_angle_alpha 90.000000
_cell_angle_beta 149.654228
_cell_angle_gamma 90.000000
_cell_volume 1299.168259
_symmetry_space_group_name_H-M "C 2/C"
_symmetry_group_IT_number 15
_symmetry_cell_setting 'monoclinic'
loop_
_space_group_symop_operation_xyz
x,y,z
-x,y,1/2-z
-x,-y,-z
x,-y,1/2+z
1/2+x,1/2+y,z
1/2-x,1/2+y,1/2-z
1/2-x,1/2-y,-z
1/2+x,1/2-y,1/2+z
loop_
_atom_site_type_symbol
_atom_site_label
_atom_site_fract_x
_atom_site_fract_y
_atom_site_fract_z
Si Si1 0.301350 0.441739 0.563679
Si Si2 0.217259 0.657214 0.748747
Si Si3 0.099854 0.403046 0.751642
Si Si4 0.116650 0.155039 0.112067
O O1 0.500000 0.481330 0.750000
O O2 0.271100 0.363072 0.444490
O O3 0.144201 0.508748 0.361439
O O4 0.293892 0.408555 0.692108
O O5 0.149541 0.750496 0.681286
O O6 0.053858 0.595533 0.524599
O O7 0.394920 0.642265 0.858602
O O8 0.288829 0.362738 0.911783
O O9 0.000000 0.350824 0.750000
#
# Coordination Sequence:
#
# PCOD8150824 Si02
#       4
#     8   8   8   8
#     4  10  26  45  76 108 142 182 243 299 353 416
#     4  11  24  48  74 106 141 189 237 295 356 419
#     4  12  29  43  71 106 147 192 235 287 361 426
#     4  11  25  48  73 105 143 185 242 298 346 423
#
# _framework density 24.631142000000001
#
# number of rings (size 3 to 8) (size 9 to 14) (size 15 to 20)
#    0.000    1.000    2.500    1.500   10.500    3.000 
#    0.000    0.000    0.000    0.000    0.000    0.000 
#    0.000    0.000    0.000    0.000    0.000    0.000 
#
# Total GULP energy -198337.606800 kJ/mol
# GULP energy per Si atom -12396.100425 kJ/mol
# Density = 2.457508 g / cm^3
# Si number density = 24.631142 Si / 1000 Ang^3
#
#
#
# Elastic Constant Matrix: (Units=GPa)
#
#
# Indices 1 2 3 4 5 6 
#
# 1 109.2062 18.2070 11.7639 0.0000 25.5996 0.0000
# 2 18.2070 109.4509 47.2487 0.0000 11.3480 0.0000
# 3 11.7639 47.2487 110.7008 0.0000 25.9782 0.0000
# 4 0.0000 0.0000 0.0000 29.2508 0.0000 6.9200
# 5 25.5996 11.3480 25.9782 0.0000 36.2777 0.0000
# 6 0.0000 0.0000 0.0000 6.9200 0.0000 16.9951
#
#
#
# Elastic Compliance Matrix: (Units=1/GPa)
#
#
# Indices 1 2 3 4 5 6 
#
# 1 0.011263 -0.001639 0.001499 0.000000 -0.008509 0.000000
# 2 -0.001639 0.011439 -0.004976 0.000000 0.001141 0.000000
# 3 0.001499 -0.004976 0.013079 0.000000 -0.008867 0.000000
# 4 0.000000 0.000000 0.000000 0.037831 0.000000 -0.015404
# 5 -0.008509 0.001141 -0.008867 0.000000 0.039562 0.000000
# 6 0.000000 0.000000 0.000000 -0.015404 0.000000 0.065112
#
#
# Mechanical properties :
#
#
# Convention : Reuss Voigt Hill
#
# Bulk Modulus (GPa) = 39.13863 53.75524 46.44694
# Shear Modulus (GPa) = 25.37632 33.31394 29.34513
#
# Velocity S-wave (km/s) = 3.21324 3.68164 3.45539
# Velocity P-wave (km/s) = 5.44894 6.32014 5.90064
#
# Compressibility (1/GPa) = 0.02555021
#
# Stress axis : x y z
#
# Youngs Moduli (GPa) = 88.78358 87.42142 76.46032
#
# Poissons Ratio (x) = 0.14325 -0.11464
# Poissons Ratio (y) = 0.14548 0.38047
# Poissons Ratio (z) = -0.13311 0.43501
#
# Static dielectric constant tensor:
#      x y z
#    x 4.654870 0.000000 0.204930 
#    y 0.000000 4.035040 0.000000 
#    z 0.204930 0.000000 4.693260 
# 
# 
# High freq. dielectric constant tensor:
#      x y z
#    x 1.995650 0.000000 0.020230 
#    y 0.000000 1.958910 0.000000 
#    z 0.020230 0.000000 1.990100 
# 
# From -- ./inp_files/87014.got.cif
#   From: 2010.06.25/outbox.cif.g09.slc.cpg/sg15_44_cif.got.tgz:87014.got - 2010.06.28 07:06:18.
