data_PCOD8150549
_publ_section_title
;
Structure prediction by ZEFSAII (Michael W. Deem and Ramdas Pophale) SiO2 
 PCOD8150549
Probable space group: C 2/C
;
_chemical_formula_sum "Si O2"
_cell_formula_units_Z 40
_cell_length_a 19.139668
_cell_length_b 20.053578
_cell_length_c 10.189387
_cell_angle_alpha 90.000000
_cell_angle_beta 26.550685
_cell_angle_gamma 90.000000
_cell_volume 1748.120924
_symmetry_space_group_name_H-M "C 2/C"
_symmetry_group_IT_number 15
_symmetry_cell_setting 'monoclinic'
loop_
_space_group_symop_operation_xyz
x,y,z
-x,y,1/2-z
-x,-y,-z
x,-y,1/2+z
1/2+x,1/2+y,z
1/2-x,1/2+y,1/2-z
1/2-x,1/2-y,-z
1/2+x,1/2-y,1/2+z
loop_
_atom_site_type_symbol
_atom_site_label
_atom_site_fract_x
_atom_site_fract_y
_atom_site_fract_z
Si Si1 0.583285 0.330265 0.745722
Si Si2 0.245394 0.517841 0.873614
Si Si3 0.513586 0.429823 0.365224
Si Si4 0.500000 0.125054 0.250000
Si Si5 0.548119 0.814404 0.397662
Si Si6 0.500000 0.907124 0.250000
O O1 0.500000 0.349104 0.750000
O O2 0.511572 0.261378 0.920753
O O3 0.767508 0.326759 0.414634
O O4 0.546104 0.385594 0.915337
O O5 0.402895 0.495763 0.532633
O O6 0.307785 0.545440 0.909886
O O7 0.149354 0.577773 0.967362
O O8 0.141199 0.452263 0.064068
O O9 0.500000 0.390215 0.250000
O O10 0.523241 0.171047 0.338495
O O11 0.456068 0.860712 0.447618
#
# Coordination Sequence:
#
# PCOD8150549 Si02
#       6
#     8   8   8   4   8   4
#     4  11  24  48  69  97 137 182 222 282 341 404
#     4  10  25  42  65 100 138 174 218 282 339 395
#     4  11  25  43  70 102 134 180 227 278 335 411
#     4  11  26  42  70 102 134 175 230 284 326 407
#     4  11  25  44  71 100 132 180 229 279 341 397
#     4  11  22  46  70  94 134 179 224 280 338 405
#
# _framework density 22.881713999999999
#
# number of rings (size 3 to 8) (size 9 to 14) (size 15 to 20)
#    0.000    1.200    3.000    1.200    7.000    4.800 
#    0.000    2.000    0.000    0.000    0.000    0.000 
#    0.000    0.000    0.000    0.000    0.000    0.000 
#
# Total GULP energy -247902.783528 kJ/mol
# GULP energy per Si atom -12395.139176 kJ/mol
# Density = 2.282963 g / cm^3
# Si number density = 22.881714 Si / 1000 Ang^3
#
#
#
# Elastic Constant Matrix: (Units=GPa)
#
#
# Indices 1 2 3 4 5 6 
#
# 1 143.9878 36.7462 43.5183 0.0007 25.6330 -0.0003
# 2 36.7462 88.8493 32.9437 -0.0012 14.2257 0.0004
# 3 43.5183 32.9437 60.3236 -0.0034 8.1295 0.0010
# 4 0.0007 -0.0012 -0.0034 13.1974 0.0007 -0.5313
# 5 25.6330 14.2257 8.1295 0.0007 53.7052 -0.0001
# 6 -0.0003 0.0004 0.0010 -0.5313 -0.0001 32.2601
#
#
#
# Elastic Compliance Matrix: (Units=1/GPa)
#
#
# Indices 1 2 3 4 5 6 
#
# 1 0.009624 -0.001297 -0.005780 -0.000002 -0.003375 0.000000
# 2 -0.001297 0.014660 -0.006768 0.000000 -0.002240 0.000000
# 3 -0.005780 -0.006768 0.024326 0.000006 0.000869 -0.000001
# 4 -0.000002 0.000000 0.000006 0.075823 -0.000001 0.001249
# 5 -0.003375 -0.002240 0.000869 -0.000001 0.020693 0.000000
# 6 0.000000 0.000000 -0.000001 0.001249 0.000000 0.031019
#
#
# Mechanical properties :
#
#
# Convention : Reuss Voigt Hill
#
# Bulk Modulus (GPa) = 47.80248 57.73078 52.76663
# Shear Modulus (GPa) = 23.71851 31.82937 27.77394
#
# Velocity S-wave (km/s) = 3.22307 3.73371 3.48775
# Velocity P-wave (km/s) = 5.89809 6.62362 6.27135
#
# Compressibility (1/GPa) = 0.02091942
#
# Stress axis : x y z
#
# Youngs Moduli (GPa) = 103.91147 68.21501 41.10837
#
# Poissons Ratio (x) = 0.08846 0.23759
# Poissons Ratio (y) = 0.13475 0.27824
# Poissons Ratio (z) = 0.60056 0.46171
#
# Static dielectric constant tensor:
#      x y z
#    x 4.512640 -0.000010 -0.271870 
#    y -0.000010 4.196190 0.000010 
#    z -0.271870 0.000010 3.796410 
# 
# 
# High freq. dielectric constant tensor:
#      x y z
#    x 1.923340 0.000000 -0.011790 
#    y 0.000000 1.908900 0.000000 
#    z -0.011790 0.000000 1.878010 
# 
# From -- ./inp_files/51687.got.cif
#   From: 2010.06.25/outbox.cif.g09.slc.cpg/sg15_26_cif.got.tgz:51687.got - 2010.06.28 07:06:18.
