data_PCOD8150604
_publ_section_title
;
Structure prediction by ZEFSAII (Michael W. Deem and Ramdas Pophale) SiO2 
 PCOD8150604
Probable space group: C 2/C
;
_chemical_formula_sum "Si O2"
_cell_formula_units_Z 48
_cell_length_a 8.838151
_cell_length_b 18.476489
_cell_length_c 14.254484
_cell_angle_alpha 90.000000
_cell_angle_beta 81.009599
_cell_angle_gamma 90.000000
_cell_volume 2299.131494
_symmetry_space_group_name_H-M "C 2/C"
_symmetry_group_IT_number 15
_symmetry_cell_setting 'monoclinic'
loop_
_space_group_symop_operation_xyz
x,y,z
-x,y,1/2-z
-x,-y,-z
x,-y,1/2+z
1/2+x,1/2+y,z
1/2-x,1/2+y,1/2-z
1/2-x,1/2-y,-z
1/2+x,1/2-y,1/2+z
loop_
_atom_site_type_symbol
_atom_site_label
_atom_site_fract_x
_atom_site_fract_y
_atom_site_fract_z
Si Si1 0.914838 0.834405 0.535212
Si Si2 0.152045 0.436855 0.875147
Si Si3 0.981332 0.419666 0.358640
Si Si4 0.931162 0.327353 0.991167
Si Si5 0.623109 0.435905 0.810549
Si Si6 0.663560 0.441625 0.459220
O O1 0.978988 0.755573 0.504200
O O2 0.733764 0.837552 0.537637
O O3 0.930044 0.857260 0.644256
O O4 0.015302 0.890405 0.463739
O O5 0.024951 0.499592 0.886636
O O6 0.217564 0.430322 0.762674
O O7 0.289203 0.455459 0.935780
O O8 0.062803 0.363856 0.913823
O O9 0.085025 0.364181 0.405909
O O10 0.000000 0.402979 0.250000
O O11 0.805580 0.402086 0.397579
O O12 0.500000 0.467814 0.750000
O O13 0.631956 0.484744 0.904335
#
# Coordination Sequence:
#
# PCOD8150604 Si02
#       6
#     8   8   8   8   8   8
#     4  11  24  44  63  93 130 174 210 268 325 380
#     4  11  23  43  66  98 128 175 212 265 328 382
#     4  11  22  40  65  97 122 166 214 264 315 386
#     4  10  25  44  65  87 133 172 214 262 326 387
#     4  12  24  39  69 101 127 166 221 269 315 385
#     4  11  23  41  67  94 131 166 211 269 324 372
#
# _framework density 20.877448999999999
#
# number of rings (size 3 to 8) (size 9 to 14) (size 15 to 20)
#    0.000    1.000    3.333    4.500    2.333    3.333 
#    3.000    0.000    0.000    0.000    0.000    0.000 
#    0.000    0.000    0.000    0.000    0.000    0.000 
#
# Total GULP energy -297447.779955 kJ/mol
# GULP energy per Si atom -12393.657498 kJ/mol
# Density = 2.082993 g / cm^3
# Si number density = 20.877449 Si / 1000 Ang^3
#
#
#
# Elastic Constant Matrix: (Units=GPa)
#
#
# Indices 1 2 3 4 5 6 
#
# 1 75.1552 56.6471 24.6274 0.0000 -12.5323 0.0000
# 2 56.6471 115.8603 81.2704 0.0000 -14.9750 0.0000
# 3 24.6274 81.2704 116.9579 0.0000 -15.0757 0.0000
# 4 0.0000 0.0000 0.0000 20.0826 0.0000 1.7738
# 5 -12.5323 -14.9750 -15.0757 0.0000 31.2140 0.0000
# 6 0.0000 0.0000 0.0000 1.7738 0.0000 32.5263
#
#
#
# Elastic Compliance Matrix: (Units=1/GPa)
#
#
# Indices 1 2 3 4 5 6 
#
# 1 0.023667 -0.015361 0.006361 0.000000 0.005205 0.000000
# 2 -0.015361 0.027006 -0.015629 0.000000 -0.000760 0.000000
# 3 0.006361 -0.015629 0.018591 0.000000 0.004035 0.000000
# 4 0.000000 0.000000 0.000000 0.050035 0.000000 -0.002729
# 5 0.005205 -0.000760 0.004035 0.000000 0.035711 0.000000
# 6 0.000000 0.000000 0.000000 -0.002729 0.000000 0.030893
#
#
# Mechanical properties :
#
#
# Convention : Reuss Voigt Hill
#
# Bulk Modulus (GPa) = 49.98307 70.34035 60.16171
# Shear Modulus (GPa) = 20.67557 26.45983 23.56770
#
# Velocity S-wave (km/s) = 3.15037 3.56390 3.36350
# Velocity P-wave (km/s) = 6.10133 7.12042 6.63048
#
# Compressibility (1/GPa) = 0.02000677
#
# Stress axis : x y z
#
# Youngs Moduli (GPa) = 42.25245 37.02823 53.78929
#
# Poissons Ratio (x) = 0.56878 -0.34216
# Poissons Ratio (y) = 0.64903 0.84069
# Poissons Ratio (z) = -0.26877 0.57873
#
# Static dielectric constant tensor:
#      x y z
#    x 3.952520 0.000000 -0.043550 
#    y 0.000000 3.731500 0.000000 
#    z -0.043550 0.000000 4.002800 
# 
# 
# High freq. dielectric constant tensor:
#      x y z
#    x 1.836770 0.000000 -0.005980 
#    y 0.000000 1.796500 0.000000 
#    z -0.005980 0.000000 1.824530 
# 
# From -- ./inp_files/135501.got.cif
#   From: 2010.06.25/outbox.cif.g09.slc.cpg/sg15_68_cif.got.tgz:135501.got - 2010.06.28 07:06:18.
