data_PCOD8150520
_publ_section_title
;
Structure prediction by ZEFSAII (Michael W. Deem and Ramdas Pophale) SiO2 
 PCOD8150520
Probable space group: C 2/C
;
_chemical_formula_sum "Si O2"
_cell_formula_units_Z 36
_cell_length_a 8.340336
_cell_length_b 30.043482
_cell_length_c 8.328683
_cell_angle_alpha 90.000000
_cell_angle_beta 50.480825
_cell_angle_gamma 90.000000
_cell_volume 1609.890536
_symmetry_space_group_name_H-M "C 2/C"
_symmetry_group_IT_number 15
_symmetry_cell_setting 'monoclinic'
loop_
_space_group_symop_operation_xyz
x,y,z
-x,y,1/2-z
-x,-y,-z
x,-y,1/2+z
1/2+x,1/2+y,z
1/2-x,1/2+y,1/2-z
1/2-x,1/2-y,-z
1/2+x,1/2-y,1/2+z
loop_
_atom_site_type_symbol
_atom_site_label
_atom_site_fract_x
_atom_site_fract_y
_atom_site_fract_z
Si Si1 0.127793 0.297229 0.313680
Si Si2 0.772959 0.952148 0.823692
Si Si3 0.500000 0.001109 0.750000
Si Si4 0.125781 0.361311 0.818013
Si Si5 0.932398 0.209399 0.975087
O O1 0.348729 0.303682 0.082573
O O2 0.000000 0.276441 0.250000
O O3 0.031644 0.342600 0.445940
O O4 0.137407 0.260746 0.451977
O O5 0.695613 0.973622 0.703014
O O6 0.771075 0.898753 0.804282
O O7 0.000000 0.966441 0.750000
O O8 0.595756 0.966052 0.059207
O O9 0.256028 0.321369 0.659091
O O10 0.000000 0.383266 0.750000
O O11 0.000000 0.199032 0.750000
#
# Coordination Sequence:
#
# PCOD8150520 Si02
#       5
#     8   8   4   8   8
#     4  12  26  40  64  96 132 181 236 291 338 400
#     4  11  25  46  76 107 141 180 227 283 351 422
#     4  10  24  50  76 106 140 178 222 288 352 426
#     4  12  26  44  65 100 140 181 233 285 339 413
#     4  12  24  43  65  88 130 190 234 277 342 398
#
# _framework density 22.361768000000001
#
# number of rings (size 3 to 8) (size 9 to 14) (size 15 to 20)
#    0.000    0.444    5.556    2.667    4.667    0.000 
#    0.000    1.111    0.000    0.000    0.000    0.000 
#    0.000    0.000    0.000    0.000    0.000    0.000 
#
# Total GULP energy -223038.337915 kJ/mol
# GULP energy per Si atom -12391.018773 kJ/mol
# Density = 2.231087 g / cm^3
# Si number density = 22.361768 Si / 1000 Ang^3
#
#
#
# Elastic Constant Matrix: (Units=GPa)
#
#
# Indices 1 2 3 4 5 6 
#
# 1 128.0244 17.7714 2.0814 0.0000 -6.2123 0.0000
# 2 17.7714 89.7990 20.0895 0.0000 4.7550 0.0000
# 3 2.0814 20.0895 65.8061 0.0000 -10.5763 0.0000
# 4 0.0000 0.0000 0.0000 15.6549 0.0000 -3.4096
# 5 -6.2123 4.7550 -10.5763 0.0000 41.8548 0.0000
# 6 0.0000 0.0000 0.0000 -3.4096 0.0000 28.7305
#
#
#
# Elastic Compliance Matrix: (Units=1/GPa)
#
#
# Indices 1 2 3 4 5 6 
#
# 1 0.008129 -0.001813 0.000545 0.000000 0.001550 0.000000
# 2 -0.001813 0.012588 -0.004230 0.000000 -0.002768 0.000000
# 3 0.000545 -0.004230 0.017262 0.000000 0.004923 0.000000
# 4 0.000000 0.000000 0.000000 0.065573 0.000000 0.007782
# 5 0.001550 -0.002768 0.004923 0.000000 0.025681 0.000000
# 6 0.000000 0.000000 0.000000 0.007782 0.000000 0.035730
#
#
# Mechanical properties :
#
#
# Convention : Reuss Voigt Hill
#
# Bulk Modulus (GPa) = 37.06049 40.39044 38.72547
# Shear Modulus (GPa) = 27.03410 33.49386 30.26398
#
# Velocity S-wave (km/s) = 3.48076 3.87436 3.68282
# Velocity P-wave (km/s) = 5.72393 6.17380 5.95311
#
# Compressibility (1/GPa) = 0.02698291
#
# Stress axis : x y z
#
# Youngs Moduli (GPa) = 123.01604 79.44245 57.93188
#
# Poissons Ratio (x) = 0.14402 -0.03160
# Poissons Ratio (y) = 0.22301 0.24507
# Poissons Ratio (z) = -0.06711 0.33607
#
# Static dielectric constant tensor:
#      x y z
#    x 5.474370 0.000000 -0.958670 
#    y 0.000000 3.641590 0.000000 
#    z -0.958670 0.000000 4.921110 
# 
# 
# High freq. dielectric constant tensor:
#      x y z
#    x 1.915490 0.000000 -0.001710 
#    y 0.000000 1.855750 0.000000 
#    z -0.001710 0.000000 1.882740 
# 
# From -- ./inp_files/25277.got.cif
#   From: 2010.06.25/outbox.cif.g09.slc.cpg/sg15_13_cif.got.tgz:25277.got - 2010.06.28 07:06:18.
