data_PCOD8150712
_publ_section_title
;
Structure prediction by ZEFSAII (Michael W. Deem and Ramdas Pophale) SiO2 
 PCOD8150712
Probable space group: C 2/C
;
_chemical_formula_sum "Si O2"
_cell_formula_units_Z 40
_cell_length_a 14.930515
_cell_length_b 11.048524
_cell_length_c 11.876192
_cell_angle_alpha 90.000000
_cell_angle_beta 62.475045
_cell_angle_gamma 90.000000
_cell_volume 1737.347386
_symmetry_space_group_name_H-M "C 2/C"
_symmetry_group_IT_number 15
_symmetry_cell_setting 'monoclinic'
loop_
_space_group_symop_operation_xyz
x,y,z
-x,y,1/2-z
-x,-y,-z
x,-y,1/2+z
1/2+x,1/2+y,z
1/2-x,1/2+y,1/2-z
1/2-x,1/2-y,-z
1/2+x,1/2-y,1/2+z
loop_
_atom_site_type_symbol
_atom_site_label
_atom_site_fract_x
_atom_site_fract_y
_atom_site_fract_z
Si Si1 0.110788 0.507384 0.486076
Si Si2 0.396942 0.555975 0.018640
Si Si3 0.746421 0.820330 0.748772
Si Si4 0.271497 0.136024 0.914088
Si Si5 0.898553 0.715826 0.370884
O O1 0.183546 0.579998 0.357941
O O2 0.124086 0.575203 0.601027
O O3 0.135548 0.367949 0.502979
O O4 0.000000 0.500000 0.500000
O O5 0.351200 0.616945 0.156930
O O6 0.320643 0.455858 0.015626
O O7 0.500000 0.500000 0.000000
O O8 0.418008 0.650056 0.906179
O O9 0.774769 0.689938 0.786516
O O10 0.690903 0.787054 0.666209
O O11 0.250000 0.250000 0.000000
O O12 0.000000 0.669183 0.250000
#
# Coordination Sequence:
#
# PCOD8150712 Si02
#       5
#     8   8   8   8   8
#     4  11  24  46  77 111 147 191 254 310 371 445
#     4  12  28  47  73 108 150 199 249 305 378 442
#     4  11  25  48  76 107 154 192 251 314 370 448
#     4  10  25  47  72 107 146 192 245 307 376 436
#     4  12  25  46  77 110 149 201 251 307 381 447
#
# _framework density 23.023606000000001
#
# number of rings (size 3 to 8) (size 9 to 14) (size 15 to 20)
#    0.000    0.800    4.000    1.800    5.600    4.800 
#    0.000    2.000    0.000    0.000    0.000    0.000 
#    0.000    0.000    0.000    0.000    0.000    0.000 
#
# Total GULP energy -247795.545634 kJ/mol
# GULP energy per Si atom -12389.777282 kJ/mol
# Density = 2.297120 g / cm^3
# Si number density = 23.023606 Si / 1000 Ang^3
#
#
#
# Elastic Constant Matrix: (Units=GPa)
#
#
# Indices 1 2 3 4 5 6 
#
# 1 200.2324 78.9601 62.8330 0.0000 22.5175 0.0000
# 2 78.9601 155.4343 47.5341 0.0000 19.1936 0.0000
# 3 62.8330 47.5341 96.2642 0.0000 8.9748 0.0000
# 4 0.0000 0.0000 0.0000 48.4554 0.0000 14.8768
# 5 22.5175 19.1936 8.9748 0.0000 43.0828 0.0000
# 6 0.0000 0.0000 0.0000 14.8768 0.0000 46.4277
#
#
#
# Elastic Compliance Matrix: (Units=1/GPa)
#
#
# Indices 1 2 3 4 5 6 
#
# 1 0.007212 -0.002395 -0.003337 0.000000 -0.002007 0.000000
# 2 -0.002395 0.008682 -0.002529 0.000000 -0.002089 0.000000
# 3 -0.003337 -0.002529 0.013816 0.000000 -0.000007 0.000000
# 4 0.000000 0.000000 0.000000 0.022889 0.000000 -0.007334
# 5 -0.002007 -0.002089 -0.000007 0.000000 0.025192 0.000000
# 6 0.000000 0.000000 0.000000 -0.007334 0.000000 0.023889
#
#
# Mechanical properties :
#
#
# Convention : Reuss Voigt Hill
#
# Bulk Modulus (GPa) = 75.83486 92.28725 84.06106
# Shear Modulus (GPa) = 40.78383 45.10011 42.94197
#
# Velocity S-wave (km/s) = 4.21336 4.43071 4.32340
# Velocity P-wave (km/s) = 7.52856 8.14528 7.84299
#
# Compressibility (1/GPa) = 0.01318655
#
# Stress axis : x y z
#
# Youngs Moduli (GPa) = 138.66489 115.18649 72.38091
#
# Poissons Ratio (x) = 0.27588 0.24156
# Poissons Ratio (y) = 0.33211 0.18304
# Poissons Ratio (z) = 0.46278 0.29128
#
# Static dielectric constant tensor:
#      x y z
#    x 3.578560 0.000000 -0.388460 
#    y 0.000000 7.604080 0.000000 
#    z -0.388460 0.000000 3.659490 
# 
# 
# High freq. dielectric constant tensor:
#      x y z
#    x 1.916940 0.000000 0.021380 
#    y 0.000000 1.934800 0.000000 
#    z 0.021380 0.000000 1.905230 
# 
# From -- ./inp_files/94892.got.cif
#   From: 2010.06.25/outbox.cif.g09.slc.cpg/sg15_48_cif.got.tgz:94892.got - 2010.06.28 07:06:18.
