data_PCOD8150001
_publ_section_title
;
Structure prediction by ZEFSAII (Michael W. Deem and Ramdas Pophale) SiO2 
 PCOD8150001
Probable space group: C 2/C
;
_chemical_formula_sum "Si O2"
_cell_formula_units_Z 44
_cell_length_a 16.084587
_cell_length_b 9.136818
_cell_length_c 17.458485
_cell_angle_alpha 90.000000
_cell_angle_beta 124.083805
_cell_angle_gamma 90.000000
_cell_volume 2124.988142
_symmetry_space_group_name_H-M "C 2/C"
_symmetry_group_IT_number 15
_symmetry_cell_setting 'monoclinic'
loop_
_space_group_symop_operation_xyz
x,y,z
-x,y,1/2-z
-x,-y,-z
x,-y,1/2+z
1/2+x,1/2+y,z
1/2-x,1/2+y,1/2-z
1/2-x,1/2-y,-z
1/2+x,1/2-y,1/2+z
loop_
_atom_site_type_symbol
_atom_site_label
_atom_site_fract_x
_atom_site_fract_y
_atom_site_fract_z
Si Si1 0.639579 0.739223 0.908914
Si Si2 0.000000 0.242710 0.250000
Si Si3 0.541082 0.975622 0.395402
Si Si4 0.648093 0.491966 0.787995
Si Si5 0.867551 0.611487 0.405106
Si Si6 0.466375 0.600590 0.914062
O O1 0.640461 0.643555 0.831843
O O2 0.568495 0.673655 0.937397
O O3 0.594197 0.901454 0.868649
O O4 0.750000 0.750000 0.000000
O O5 0.001494 0.341332 0.325854
O O6 0.098711 0.141873 0.308449
O O7 0.622518 0.924401 0.499931
O O8 0.444699 0.028938 0.391057
O O9 0.759493 0.445395 0.823193
O O10 0.584892 0.505841 0.678104
O O11 0.883462 0.784094 0.400920
O O12 0.500000 0.500000 0.000000
#
# Coordination Sequence:
#
# PCOD8150001 Si02
#       6
#     8   4   8   8   8   8
#     4  11  23  45  71  96 132 179 225 278 347 406
#     4  12  26  40  68  96 140 172 228 280 328 400
#     4  10  24  45  66  96 132 177 222 277 337 403
#     4  12  25  44  66 105 134 177 228 282 339 406
#     4  10  24  43  68  96 133 174 227 272 336 407
#     4  11  25  44  68  97 141 178 222 281 338 404
#
# _framework density 20.705998999999998
#
# number of rings (size 3 to 8) (size 9 to 14) (size 15 to 20)
#    0.000    1.091    3.636    1.091    7.636    3.636 
#    0.000    0.000    0.000    0.000    0.000    0.000 
#    0.000    0.000    0.000    0.000    0.000    0.000 
#
# Total GULP energy -272850.952439 kJ/mol
# GULP energy per Si atom -12402.316020 kJ/mol
# Density = 2.065887 g / cm^3
# Si number density = 20.705999 Si / 1000 Ang^3
#
#
#
# Elastic Constant Matrix: (Units=GPa)
#
#
# Indices 1 2 3 4 5 6 
#
# 1 86.1051 31.5448 39.5471 0.0000 14.7417 0.0000
# 2 31.5448 106.9409 45.0503 0.0000 -8.0185 0.0000
# 3 39.5471 45.0503 122.3963 0.0000 -0.0598 0.0000
# 4 0.0000 0.0000 0.0000 43.1576 0.0000 -1.5113
# 5 14.7417 -8.0185 -0.0598 0.0000 34.7529 0.0000
# 6 0.0000 0.0000 0.0000 -1.5113 0.0000 35.1010
#
#
#
# Elastic Compliance Matrix: (Units=1/GPa)
#
#
# Indices 1 2 3 4 5 6 
#
# 1 0.016035 -0.003693 -0.003826 0.000000 -0.007660 0.000000
# 2 -0.003693 0.012147 -0.003276 0.000000 0.004364 0.000000
# 3 -0.003826 -0.003276 0.010612 0.000000 0.000885 0.000000
# 4 0.000000 0.000000 0.000000 0.023206 0.000000 0.000999
# 5 -0.007660 0.004364 0.000885 0.000000 0.033032 0.000000
# 6 0.000000 0.000000 0.000000 0.000999 0.000000 0.028532
#
#
# Mechanical properties :
#
#
# Convention : Reuss Voigt Hill
#
# Bulk Modulus (GPa) = 58.11718 60.85852 59.48785
# Shear Modulus (GPa) = 33.13688 35.88897 34.51292
#
# Velocity S-wave (km/s) = 4.00478 4.16777 4.08709
# Velocity P-wave (km/s) = 7.03655 7.25368 7.14594
#
# Compressibility (1/GPa) = 0.01720662
#
# Stress axis : x y z
#
# Youngs Moduli (GPa) = 62.36298 82.32240 94.22922
#
# Poissons Ratio (x) = 0.30400 0.36049
# Poissons Ratio (y) = 0.23029 0.30867
# Poissons Ratio (z) = 0.23858 0.26967
#
# Static dielectric constant tensor:
#      x y z
#    x 3.789550 0.000000 0.038320 
#    y 0.000000 4.190060 0.000000 
#    z 0.038320 0.000000 3.725010 
# 
# 
# High freq. dielectric constant tensor:
#      x y z
#    x 1.812480 0.000000 0.004850 
#    y 0.000000 1.824110 0.000000 
#    z 0.004850 0.000000 1.813310 
# 
# From -- ./inp_files/159467.got.cif
#   From: 2010.06.25/outbox.cif.g09.slc.cpg/sg15_80_cif.got.tgz:159467.got - 2010.06.28 07:06:18.
