data_PCOD8150118
_publ_section_title
;
Structure prediction by ZEFSAII (Michael W. Deem and Ramdas Pophale) SiO2 
 PCOD8150118
Probable space group: C 2/C
;
_chemical_formula_sum "Si O2"
_cell_formula_units_Z 52
_cell_length_a 9.952870
_cell_length_b 11.419190
_cell_length_c 26.201005
_cell_angle_alpha 90.000000
_cell_angle_beta 135.831545
_cell_angle_gamma 90.000000
_cell_volume 2074.871504
_symmetry_space_group_name_H-M "C 2/C"
_symmetry_group_IT_number 15
_symmetry_cell_setting 'monoclinic'
loop_
_space_group_symop_operation_xyz
x,y,z
-x,y,1/2-z
-x,-y,-z
x,-y,1/2+z
1/2+x,1/2+y,z
1/2-x,1/2+y,1/2-z
1/2-x,1/2-y,-z
1/2+x,1/2-y,1/2+z
loop_
_atom_site_type_symbol
_atom_site_label
_atom_site_fract_x
_atom_site_fract_y
_atom_site_fract_z
Si Si1 0.596406 0.884565 0.504545
Si Si2 0.935612 0.678975 0.342626
Si Si3 0.002429 0.033769 0.415428
Si Si4 0.500000 0.266830 0.250000
Si Si5 0.127691 0.830934 0.523789
Si Si6 0.698779 0.892442 0.280539
Si Si7 0.848888 0.416980 0.345575
O O1 0.827698 0.894442 0.566638
O O2 0.523189 0.777125 0.519549
O O3 0.500000 0.000000 0.500000
O O4 0.530010 0.871219 0.427576
O O5 0.933737 0.685781 0.279731
O O6 0.793160 0.774425 0.328748
O O7 0.852516 0.557258 0.341359
O O8 0.149853 0.706549 0.422749
O O9 0.887597 0.112993 0.424163
O O10 0.082884 0.921154 0.466809
O O11 0.852155 0.997126 0.330424
O O12 0.657562 0.357582 0.317470
O O13 0.500000 0.931455 0.250000
O O14 0.644028 0.862894 0.208130
#
# Coordination Sequence:
#
# PCOD8150118 Si02
#       7
#     8   8   8   4   8   8   8
#     4  12  26  45  72 107 142 187 236 298 357 425
#     4  11  23  44  72  99 139 190 221 301 357 420
#     4  11  26  46  72 105 138 192 236 296 354 426
#     4  10  24  44  68 102 142 190 238 288 360 432
#     4  11  24  46  74  98 143 181 241 289 356 427
#     4  11  27  46  70 104 140 179 239 290 356 428
#     4  11  25  44  71  99 144 183 239 286 360 429
#
# _framework density 25.061793999999999
#
# number of rings (size 3 to 8) (size 9 to 14) (size 15 to 20)
#    0.000    0.923    3.077    2.308   10.769    1.231 
#    2.769    0.000    0.000    0.000    0.000    0.000 
#    0.000    0.000    0.000    0.000    0.000    0.000 
#
# Total GULP energy -322331.162972 kJ/mol
# GULP energy per Si atom -12397.352422 kJ/mol
# Density = 2.500475 g / cm^3
# Si number density = 25.061794 Si / 1000 Ang^3
#
#
#
# Elastic Constant Matrix: (Units=GPa)
#
#
# Indices 1 2 3 4 5 6 
#
# 1 65.6675 8.8823 32.9030 0.0000 21.8895 0.0000
# 2 8.8823 96.0494 9.7135 0.0000 20.3326 0.0000
# 3 32.9030 9.7135 85.6097 0.0000 28.4361 0.0000
# 4 0.0000 0.0000 0.0000 10.2908 0.0000 0.2810
# 5 21.8895 20.3326 28.4361 0.0000 38.8142 0.0000
# 6 0.0000 0.0000 0.0000 0.2810 0.0000 34.0048
#
#
#
# Elastic Compliance Matrix: (Units=1/GPa)
#
#
# Indices 1 2 3 4 5 6 
#
# 1 0.020444 0.000297 -0.005299 0.000000 -0.007803 0.000000
# 2 0.000297 0.011771 0.000864 0.000000 -0.006967 0.000000
# 3 -0.005299 0.000864 0.016887 0.000000 -0.009836 0.000000
# 4 0.000000 0.000000 0.000000 0.097196 0.000000 -0.000803
# 5 -0.007803 -0.006967 -0.009836 0.000000 0.041020 0.000000
# 6 0.000000 0.000000 0.000000 -0.000803 0.000000 0.029414
#
#
# Mechanical properties :
#
#
# Convention : Reuss Voigt Hill
#
# Bulk Modulus (GPa) = 24.49395 38.92491 31.70943
# Shear Modulus (GPa) = 20.95409 29.67716 25.31562
#
# Velocity S-wave (km/s) = 2.89467 3.44489 3.18170
# Velocity P-wave (km/s) = 4.57895 5.60253 5.11640
#
# Compressibility (1/GPa) = 0.04082640
#
# Stress axis : x y z
#
# Youngs Moduli (GPa) = 48.91331 84.95245 59.21850
#
# Poissons Ratio (x) = -0.02524 0.31382
# Poissons Ratio (y) = -0.01453 -0.05119
# Poissons Ratio (z) = 0.25921 -0.07343
#
# Static dielectric constant tensor:
#      x y z
#    x 10.528220 0.000000 1.893220 
#    y 0.000000 4.621060 0.000000 
#    z 1.893220 0.000000 5.512640 
# 
# 
# High freq. dielectric constant tensor:
#      x y z
#    x 1.990550 0.000000 -0.001010 
#    y 0.000000 2.007290 0.000000 
#    z -0.001010 0.000000 2.008940 
# 
# From -- ./inp_files/310848.got.cif
#   From: 2010.06.25/outbox.cif.g09.slc.cpg/sg15_156_cif.got.tgz:310848.got - 2010.06.28 07:06:18.
