data_PCOD8150328
_publ_section_title
;
Structure prediction by ZEFSAII (Michael W. Deem and Ramdas Pophale) SiO2 
 PCOD8150328
Probable space group: C 2/C
;
_chemical_formula_sum "Si O2"
_cell_formula_units_Z 52
_cell_length_a 8.446050
_cell_length_b 18.830065
_cell_length_c 18.780238
_cell_angle_alpha 90.000000
_cell_angle_beta 50.300376
_cell_angle_gamma 90.000000
_cell_volume 2298.057314
_symmetry_space_group_name_H-M "C 2/C"
_symmetry_group_IT_number 15
_symmetry_cell_setting 'monoclinic'
loop_
_space_group_symop_operation_xyz
x,y,z
-x,y,1/2-z
-x,-y,-z
x,-y,1/2+z
1/2+x,1/2+y,z
1/2-x,1/2+y,1/2-z
1/2-x,1/2-y,-z
1/2+x,1/2-y,1/2+z
loop_
_atom_site_type_symbol
_atom_site_label
_atom_site_fract_x
_atom_site_fract_y
_atom_site_fract_z
Si Si1 0.775817 0.950158 0.081423
Si Si2 0.347381 0.981373 0.181987
Si Si3 0.840108 0.670671 0.545764
Si Si4 0.809759 0.557132 0.049080
Si Si5 0.130461 0.074598 0.341610
Si Si6 0.397370 0.667832 0.026423
Si Si7 0.500000 0.380356 0.250000
O O1 0.533147 0.943064 0.170827
O O2 0.889274 0.873948 0.051175
O O3 0.889617 0.009309 0.095424
O O4 0.750277 0.980187 0.008110
O O5 0.149942 0.931409 0.252701
O O6 0.383421 0.997715 0.086355
O O7 0.302943 0.057092 0.233108
O O8 0.768571 0.651829 0.486895
O O9 0.938783 0.748694 0.520022
O O10 0.643611 0.665869 0.656004
O O11 0.024837 0.618886 0.513768
O O12 0.586623 0.588248 0.137404
O O13 0.193258 0.142552 0.371020
#
# Coordination Sequence:
#
# PCOD8150328 Si02
#       7
#     8   8   8   8   8   8   4
#     4  11  23  38  67  98 130 174 223 280 329 387
#     4  12  23  40  67 104 135 172 220 284 338 392
#     4  11  25  46  68  93 133 188 225 270 332 408
#     4  11  22  40  68  96 131 179 221 266 338 405
#     4  11  23  40  67 103 142 165 223 284 330 386
#     4  10  24  46  67  93 132 180 231 269 332 405
#     4  12  24  42  68  96 132 168 228 274 334 396
#
# _framework density 22.627808000000002
#
# number of rings (size 3 to 8) (size 9 to 14) (size 15 to 20)
#    0.000    0.923    3.077    4.615    2.154    2.462 
#    8.308    0.000    0.000    1.846    0.000    0.000 
#    0.000    0.000    0.000    0.000    0.000    0.000 
#
# Total GULP energy -322132.868848 kJ/mol
# GULP energy per Si atom -12389.725725 kJ/mol
# Density = 2.257631 g / cm^3
# Si number density = 22.627808 Si / 1000 Ang^3
#
#
#
# Elastic Constant Matrix: (Units=GPa)
#
#
# Indices 1 2 3 4 5 6 
#
# 1 132.8780 68.2159 40.2927 0.0000 -24.8949 0.0001
# 2 68.2159 112.4952 36.7845 0.0000 -10.4435 0.0000
# 3 40.2927 36.7845 93.3788 0.0000 -8.4478 0.0000
# 4 0.0000 0.0000 0.0000 33.3220 0.0000 -2.1266
# 5 -24.8949 -10.4435 -8.4478 0.0000 44.0477 -0.0001
# 6 0.0001 0.0000 0.0000 -2.1266 -0.0001 36.1336
#
#
#
# Elastic Compliance Matrix: (Units=1/GPa)
#
#
# Indices 1 2 3 4 5 6 
#
# 1 0.012435 -0.006273 -0.002436 0.000000 0.005074 0.000000
# 2 -0.006273 0.013491 -0.002686 0.000000 -0.000862 0.000000
# 3 -0.002436 -0.002686 0.012859 0.000000 0.000453 0.000000
# 4 0.000000 0.000000 0.000000 0.030123 0.000000 0.001773
# 5 0.005074 -0.000862 0.000453 0.000000 0.025453 0.000000
# 6 0.000000 0.000000 0.000000 0.001773 0.000000 0.027779
#
#
# Mechanical properties :
#
#
# Convention : Reuss Voigt Hill
#
# Bulk Modulus (GPa) = 62.51316 69.92648 66.21982
# Shear Modulus (GPa) = 33.27506 35.59792 34.43649
#
# Velocity S-wave (km/s) = 3.83892 3.97065 3.90534
# Velocity P-wave (km/s) = 6.88015 7.21051 7.04726
#
# Compressibility (1/GPa) = 0.01599663
#
# Stress axis : x y z
#
# Youngs Moduli (GPa) = 80.41602 74.12083 77.76656
#
# Poissons Ratio (x) = 0.46498 0.18941
# Poissons Ratio (y) = 0.50447 0.20886
# Poissons Ratio (z) = 0.19586 0.19907
#
# Static dielectric constant tensor:
#      x y z
#    x 4.624640 0.000000 -0.269970 
#    y 0.000000 3.736180 0.000000 
#    z -0.269970 0.000000 4.473520 
# 
# 
# High freq. dielectric constant tensor:
#      x y z
#    x 1.922830 0.000000 -0.008380 
#    y 0.000000 1.851330 0.000000 
#    z -0.008380 0.000000 1.904860 
# 
# From -- ./inp_files/232985.got.cif
#   From: 2010.06.25/outbox.cif.g09.slc.cpg/sg15_117_cif.got.tgz:232985.got - 2010.06.28 07:06:18.
