data_PCOD8150225
_publ_section_title
;
Structure prediction by ZEFSAII (Michael W. Deem and Ramdas Pophale) SiO2 
 PCOD8150225
Probable space group: C 2/C
;
_chemical_formula_sum "Si O2"
_cell_formula_units_Z 56
_cell_length_a 14.145768
_cell_length_b 9.408968
_cell_length_c 21.240348
_cell_angle_alpha 90.000000
_cell_angle_beta 112.102780
_cell_angle_gamma 90.000000
_cell_volume 2619.271018
_symmetry_space_group_name_H-M "C 2/C"
_symmetry_group_IT_number 15
_symmetry_cell_setting 'monoclinic'
loop_
_space_group_symop_operation_xyz
x,y,z
-x,y,1/2-z
-x,-y,-z
x,-y,1/2+z
1/2+x,1/2+y,z
1/2-x,1/2+y,1/2-z
1/2-x,1/2-y,-z
1/2+x,1/2-y,1/2+z
loop_
_atom_site_type_symbol
_atom_site_label
_atom_site_fract_x
_atom_site_fract_y
_atom_site_fract_z
Si Si1 0.905544 0.737246 0.852095
Si Si2 0.102550 0.145145 0.452051
Si Si3 0.718819 0.940413 0.800896
Si Si4 0.099361 0.067334 0.853765
Si Si5 0.000000 0.294574 0.750000
Si Si6 0.239266 0.200411 0.598256
Si Si7 0.213190 0.513099 0.160500
Si Si8 0.000000 0.170518 0.250000
O O1 0.800280 0.820782 0.840288
O O2 0.894110 0.570671 0.866247
O O3 0.936948 0.739116 0.785702
O O4 0.988624 0.795626 0.921388
O O5 0.144196 0.144019 0.533213
O O6 0.171703 0.245221 0.424904
O O7 0.095071 0.980460 0.425701
O O8 0.602094 0.884449 0.764847
O O9 0.756625 0.992232 0.742330
O O10 0.718648 0.071163 0.849519
O O11 0.021498 0.194026 0.816889
O O12 0.216026 0.092870 0.863824
O O13 0.078914 0.923980 0.808484
O O14 0.197691 0.328028 0.631240
#
# Coordination Sequence:
#
# PCOD8150225 Si02
#       8
#     8   8   8   8   4   8   8   4
#     4  11  22  37  65  95 124 171 223 262 324 384
#     4   9  22  43  69  88 127 187 221 252 315 402
#     4  12  25  39  63  98 130 164 213 277 327 386
#     4   9  18  38  64  87 127 174 208 262 324 376
#     4  11  24  39  60 100 139 157 210 284 333 365
#     4  10  24  45  63  93 135 172 222 261 322 391
#     4  11  22  37  63  94 129 167 209 274 323 379
#     4   9  18  33  58  92 125 167 212 262 317 391
#
# _framework density 21.379994
#
# number of rings (size 3 to 8) (size 9 to 14) (size 15 to 20)
#    0.000    1.714    2.857    0.857    6.000    1.143 
#    0.000    0.714    0.000    0.000    0.000    0.000 
#    0.000    0.000    0.000    0.000    0.000    0.000 
#
# Total GULP energy -346933.557070 kJ/mol
# GULP energy per Si atom -12390.484181 kJ/mol
# Density = 2.133133 g / cm^3
# Si number density = 21.379994 Si / 1000 Ang^3
#
#
#
# Elastic Constant Matrix: (Units=GPa)
#
#
# Indices 1 2 3 4 5 6 
#
# 1 95.5754 51.1707 34.4087 0.0000 17.1829 0.0000
# 2 51.1707 117.0223 46.8089 0.0000 -0.2354 0.0000
# 3 34.4087 46.8089 111.7819 0.0000 11.0992 0.0000
# 4 0.0000 0.0000 0.0000 33.3336 0.0000 4.3367
# 5 17.1829 -0.2354 11.0992 0.0000 26.7383 0.0000
# 6 0.0000 0.0000 0.0000 4.3367 0.0000 30.0429
#
#
#
# Elastic Compliance Matrix: (Units=1/GPa)
#
#
# Indices 1 2 3 4 5 6 
#
# 1 0.016256 -0.006635 -0.001233 0.000000 -0.009993 0.000000
# 2 -0.006635 0.013072 -0.004032 0.000000 0.006053 0.000000
# 3 -0.001233 -0.004032 0.011409 0.000000 -0.003979 0.000000
# 4 0.000000 0.000000 0.000000 0.030574 0.000000 -0.004413
# 5 -0.009993 0.006053 -0.003979 0.000000 0.045526 0.000000
# 6 0.000000 0.000000 0.000000 -0.004413 0.000000 0.033923
#
#
# Mechanical properties :
#
#
# Convention : Reuss Voigt Hill
#
# Bulk Modulus (GPa) = 59.04730 65.46179 62.25454
# Shear Modulus (GPa) = 27.74586 30.82237 29.28412
#
# Velocity S-wave (km/s) = 3.60634 3.80102 3.70496
# Velocity P-wave (km/s) = 6.70961 7.06742 6.89084
#
# Compressibility (1/GPa) = 0.01693557
#
# Stress axis : x y z
#
# Youngs Moduli (GPa) = 61.51608 76.49998 87.64787
#
# Poissons Ratio (x) = 0.50759 0.10809
# Poissons Ratio (y) = 0.40817 0.35344
# Poissons Ratio (z) = 0.07586 0.30848
#
# Static dielectric constant tensor:
#      x y z
#    x 3.870100 0.000000 0.069920 
#    y 0.000000 3.854150 0.000000 
#    z 0.069920 0.000000 4.003040 
# 
# 
# High freq. dielectric constant tensor:
#      x y z
#    x 1.841940 0.000000 0.011130 
#    y 0.000000 1.833320 0.000000 
#    z 0.011130 0.000000 1.821060 
# 
# From -- ./inp_files/272881.got.cif
#   From: 2010.06.25/outbox.cif.g09.slc.cpg/sg15_137_cif.got.tgz:272881.got - 2010.06.28 07:06:18.
