data_PCOD8150033
_publ_section_title
;
Structure prediction by ZEFSAII (Michael W. Deem and Ramdas Pophale) SiO2 
 PCOD8150033
Probable space group: C 2/C
;
_chemical_formula_sum "Si O2"
_cell_formula_units_Z 32
_cell_length_a 4.977419
_cell_length_b 29.959105
_cell_length_c 8.876380
_cell_angle_alpha 90.000000
_cell_angle_beta 68.651524
_cell_angle_gamma 90.000000
_cell_volume 1232.813809
_symmetry_space_group_name_H-M "C 2/C"
_symmetry_group_IT_number 15
_symmetry_cell_setting 'monoclinic'
loop_
_space_group_symop_operation_xyz
x,y,z
-x,y,1/2-z
-x,-y,-z
x,-y,1/2+z
1/2+x,1/2+y,z
1/2-x,1/2+y,1/2-z
1/2-x,1/2-y,-z
1/2+x,1/2-y,1/2+z
loop_
_atom_site_type_symbol
_atom_site_label
_atom_site_fract_x
_atom_site_fract_y
_atom_site_fract_z
Si Si1 0.284364 0.881161 0.927726
Si Si2 0.758848 0.440172 0.542910
Si Si3 0.000000 0.498179 0.750000
Si Si4 0.969887 0.210020 0.950660
Si Si5 0.000000 0.246306 0.250000
O O1 0.500000 0.865720 0.750000
O O2 0.462753 0.907663 0.018236
O O3 0.034596 0.911970 0.907297
O O4 0.159155 0.838905 0.043163
O O5 0.782437 0.472970 0.395783
O O6 0.784378 0.467651 0.694923
O O7 0.226158 0.219862 0.775930
O O8 0.750000 0.250000 0.000000
O O9 0.098008 0.213443 0.095378
#
# Coordination Sequence:
#
# PCOD8150033 Si02
#       5
#     8   8   4   8   4
#     4  12  27  46  74 111 147 194 254 304 372 442
#     4  11  27  48  78 108 147 194 247 310 377 462
#     4  10  26  53  78 106 150 192 244 310 401 440
#     4  11  25  46  72 104 151 198 246 306 371 441
#     4  10  24  43  72 104 134 208 246 296 373 436
#
# _framework density 25.956880000000002
#
# number of rings (size 3 to 8) (size 9 to 14) (size 15 to 20)
#    0.000    1.000    1.250    3.000   10.500    8.000 
#    4.500    0.000    0.000    0.000    0.000    0.000 
#    0.000    0.000    0.000    0.000    0.000    0.000 
#
# Total GULP energy -198399.933525 kJ/mol
# GULP energy per Si atom -12399.995845 kJ/mol
# Density = 2.589780 g / cm^3
# Si number density = 25.956880 Si / 1000 Ang^3
#
#
#
# Elastic Constant Matrix: (Units=GPa)
#
#
# Indices 1 2 3 4 5 6 
#
# 1 153.6320 53.7374 30.7008 0.0000 -28.8358 0.0000
# 2 53.7374 168.0478 62.3399 0.0000 -20.7621 0.0000
# 3 30.7008 62.3399 121.6542 0.0000 -14.9933 0.0000
# 4 0.0000 0.0000 0.0000 8.0861 0.0000 -19.1824
# 5 -28.8358 -20.7621 -14.9933 0.0000 33.6363 0.0000
# 6 0.0000 0.0000 0.0000 -19.1824 0.0000 34.9515
#
#
#
# Elastic Compliance Matrix: (Units=1/GPa)
#
#
# Indices 1 2 3 4 5 6 
#
# 1 0.008314 -0.001762 -0.000477 0.000000 0.005828 0.000000
# 2 -0.001762 0.008023 -0.003431 0.000000 0.001913 0.000000
# 3 -0.000477 -0.003431 0.010356 0.000000 0.002089 0.000000
# 4 0.000000 0.000000 0.000000 -0.409552 0.000000 -0.224774
# 5 0.005828 0.001913 0.002089 0.000000 0.036838 0.000000
# 6 0.000000 0.000000 0.000000 -0.224774 0.000000 -0.094751
#
#
# Mechanical properties :
#
#
# Convention : Reuss Voigt Hill
#
# Bulk Modulus (GPa) = 65.13058 81.87669 73.50363
# Shear Modulus (GPa) = -11.78371 35.10517 11.66073
#
# Velocity S-wave (km/s) = -2.13297 3.68155 2.12181
# Velocity P-wave (km/s) = 4.36809 7.04865 5.86361
#
# Compressibility (1/GPa) = 0.01535377
#
# Stress axis : x y z
#
# Youngs Moduli (GPa) = 120.27229 124.63967 96.56119
#
# Poissons Ratio (x) = 0.21958 0.04608
# Poissons Ratio (y) = 0.21188 0.33130
# Poissons Ratio (z) = 0.05740 0.42764
#
# Static dielectric constant tensor:
#      x y z
#    x 30.191290 0.000000 75.291790 
#    y 0.000000 4.820730 0.000000 
#    z 75.291790 0.000000 227.700940 
# 
# 
# High freq. dielectric constant tensor:
#      x y z
#    x 2.058970 0.000000 0.004100 
#    y 0.000000 2.038490 0.000000 
#    z 0.004100 0.000000 2.047200 
# 
# From -- ./inp_files/20179.got.cif
#   From: 2010.06.25/outbox.cif.g09.slc.cpg/sg15_11_cif.got.tgz:20179.got - 2010.06.28 07:06:18.
