data_PCOD8150188
_publ_section_title
;
Structure prediction by ZEFSAII (Michael W. Deem and Ramdas Pophale) SiO2 
 PCOD8150188
Probable space group: C 2/C
;
_chemical_formula_sum "Si O2"
_cell_formula_units_Z 48
_cell_length_a 14.674488
_cell_length_b 10.891233
_cell_length_c 20.054778
_cell_angle_alpha 90.000000
_cell_angle_beta 138.813336
_cell_angle_gamma 90.000000
_cell_volume 2110.683348
_symmetry_space_group_name_H-M "C 2/C"
_symmetry_group_IT_number 15
_symmetry_cell_setting 'monoclinic'
loop_
_space_group_symop_operation_xyz
x,y,z
-x,y,1/2-z
-x,-y,-z
x,-y,1/2+z
1/2+x,1/2+y,z
1/2-x,1/2+y,1/2-z
1/2-x,1/2-y,-z
1/2+x,1/2-y,1/2+z
loop_
_atom_site_type_symbol
_atom_site_label
_atom_site_fract_x
_atom_site_fract_y
_atom_site_fract_z
Si Si1 0.096981 0.291557 0.432085
Si Si2 0.000000 0.823725 0.750000
Si Si3 0.776748 0.966088 0.701273
Si Si4 0.066270 0.101281 0.082159
Si Si5 0.728558 0.204318 0.599335
Si Si6 0.490494 0.068046 0.104491
Si Si7 0.000000 0.674117 0.250000
O O1 0.250000 0.250000 0.500000
O O2 0.075254 0.432541 0.441316
O O3 0.006719 0.264711 0.317011
O O4 0.046784 0.205620 0.464517
O O5 0.141017 0.904644 0.816281
O O6 0.876548 0.963476 0.819971
O O7 0.627015 0.905795 0.634665
O O8 0.739781 0.106001 0.664777
O O9 0.186304 0.165447 0.106884
O O10 0.000000 0.000000 0.000000
O O11 0.628564 0.161497 0.484829
O O12 0.881356 0.234340 0.657573
O O13 0.534205 0.088336 0.205323
#
# Coordination Sequence:
#
# PCOD8150188 Si02
#       7
#     8   4   8   8   8   8   4
#     4  11  25  44  71 105 139 184 232 299 353 424
#     4  10  24  44  72 102 144 182 242 290 358 426
#     4  11  24  49  71 104 144 194 241 300 360 429
#     4  11  27  44  71 106 144 189 240 297 361 429
#     4  12  26  47  74 106 142 195 238 301 363 433
#     4  12  26  47  76 105 147 190 246 295 369 433
#     4  12  28  48  72 108 148 190 240 302 364 438
#
# _framework density 22.741451000000001
#
# number of rings (size 3 to 8) (size 9 to 14) (size 15 to 20)
#    0.000    0.667    3.333    3.000    7.000    2.667 
#    0.000    0.000    0.000    0.000    0.000    0.000 
#    0.000    0.000    0.000    0.000    0.000    0.000 
#
# Total GULP energy -297595.291535 kJ/mol
# GULP energy per Si atom -12399.803814 kJ/mol
# Density = 2.268969 g / cm^3
# Si number density = 22.741451 Si / 1000 Ang^3
#
#
#
# Elastic Constant Matrix: (Units=GPa)
#
#
# Indices 1 2 3 4 5 6 
#
# 1 116.9250 31.3304 36.6046 0.0000 19.0640 0.0000
# 2 31.3304 92.6408 40.8952 0.0000 -4.6490 0.0000
# 3 36.6046 40.8952 89.0005 0.0000 9.2446 0.0000
# 4 0.0000 0.0000 0.0000 42.3519 0.0000 -2.6496
# 5 19.0640 -4.6490 9.2446 0.0000 48.8376 0.0000
# 6 0.0000 0.0000 0.0000 -2.6496 0.0000 33.5533
#
#
#
# Elastic Compliance Matrix: (Units=1/GPa)
#
#
# Indices 1 2 3 4 5 6 
#
# 1 0.010772 -0.002588 -0.002834 0.000000 -0.003915 0.000000
# 2 -0.002588 0.014473 -0.005951 0.000000 0.003514 0.000000
# 3 -0.002834 -0.005951 0.015382 0.000000 -0.002372 0.000000
# 4 0.000000 0.000000 0.000000 0.023729 0.000000 0.001874
# 5 -0.003915 0.003514 -0.002372 0.000000 0.022788 0.000000
# 6 0.000000 0.000000 0.000000 0.001874 0.000000 0.029951
#
#
# Mechanical properties :
#
#
# Convention : Reuss Voigt Hill
#
# Bulk Modulus (GPa) = 55.92755 57.35853 56.64304
# Shear Modulus (GPa) = 34.29324 37.59764 35.94544
#
# Velocity S-wave (km/s) = 3.88746 4.07045 3.98001
# Velocity P-wave (km/s) = 6.69298 6.88245 6.78838
#
# Compressibility (1/GPa) = 0.01788027
#
# Stress axis : x y z
#
# Youngs Moduli (GPa) = 92.83719 69.09446 65.00955
#
# Poissons Ratio (x) = 0.17882 0.18426
# Poissons Ratio (y) = 0.24027 0.38686
# Poissons Ratio (z) = 0.26313 0.41117
#
# Static dielectric constant tensor:
#      x y z
#    x 4.157520 0.000000 0.829720 
#    y 0.000000 4.063550 0.000000 
#    z 0.829720 0.000000 1.608460 
# 
# 
# High freq. dielectric constant tensor:
#      x y z
#    x 1.908860 0.000000 0.006160 
#    y 0.000000 1.891820 0.000000 
#    z 0.006160 0.000000 1.907410 
# 
# From -- ./inp_files/243952.got.cif
#   From: 2010.06.25/outbox.cif.g09.slc.cpg/sg15_122_cif.got.tgz:243952.got - 2010.06.28 07:06:18.
