data_PCOD8150530
_publ_section_title
;
Structure prediction by ZEFSAII (Michael W. Deem and Ramdas Pophale) SiO2 
 PCOD8150530
Probable space group: C 2/C
;
_chemical_formula_sum "Si O2"
_cell_formula_units_Z 40
_cell_length_a 10.134099
_cell_length_b 20.921666
_cell_length_c 11.830702
_cell_angle_alpha 90.000000
_cell_angle_beta 129.748196
_cell_angle_gamma 90.000000
_cell_volume 1928.591727
_symmetry_space_group_name_H-M "C 2/C"
_symmetry_group_IT_number 15
_symmetry_cell_setting 'monoclinic'
loop_
_space_group_symop_operation_xyz
x,y,z
-x,y,1/2-z
-x,-y,-z
x,-y,1/2+z
1/2+x,1/2+y,z
1/2-x,1/2+y,1/2-z
1/2-x,1/2-y,-z
1/2+x,1/2-y,1/2+z
loop_
_atom_site_type_symbol
_atom_site_label
_atom_site_fract_x
_atom_site_fract_y
_atom_site_fract_z
Si Si1 0.066891 0.715744 0.904650
Si Si2 0.061983 0.153204 0.153542
Si Si3 0.875530 0.405678 0.912897
Si Si4 0.534764 0.436667 0.085952
Si Si5 0.734389 0.039733 0.586279
O O1 0.000000 0.689122 0.750000
O O2 0.933945 0.771189 0.872778
O O3 0.250000 0.750000 0.000000
O O4 0.072341 0.654478 0.984476
O O5 0.249786 0.120937 0.245945
O O6 0.000000 0.142522 0.250000
O O7 0.942827 0.120545 0.992513
O O8 0.777811 0.462169 0.929124
O O9 0.048452 0.432695 0.952400
O O10 0.709463 0.441775 0.254668
O O11 0.370964 0.428386 0.077849
O O12 0.500000 0.500000 0.000000
#
# Coordination Sequence:
#
# PCOD8150530 Si02
#       5
#     8   8   8   8   8
#     4  11  23  38  65  94 126 171 220 266 316 372
#     4  11  22  40  64  95 128 168 211 264 322 374
#     4  11  22  42  59  94 134 156 220 266 311 385
#     4  11  22  40  66  89 131 171 208 261 325 387
#     4  10  25  40  62  98 127 172 210 260 325 386
#
# _framework density 20.740523
#
# number of rings (size 3 to 8) (size 9 to 14) (size 15 to 20)
#    0.000    1.200    6.000    1.200    2.800    0.800 
#    0.000    1.000    0.000    0.000    0.000    0.000 
#    0.000    0.000    0.000    0.000    0.000    0.000 
#
# Total GULP energy -247859.176300 kJ/mol
# GULP energy per Si atom -12392.958815 kJ/mol
# Density = 2.069332 g / cm^3
# Si number density = 20.740523 Si / 1000 Ang^3
#
#
#
# Elastic Constant Matrix: (Units=GPa)
#
#
# Indices 1 2 3 4 5 6 
#
# 1 47.7955 17.9319 19.8443 0.0000 11.3551 0.0000
# 2 17.9319 141.5857 41.2737 0.0000 -5.3811 0.0000
# 3 19.8443 41.2737 107.9756 0.0000 3.5109 0.0000
# 4 0.0000 0.0000 0.0000 48.5640 0.0000 8.0364
# 5 11.3551 -5.3811 3.5109 0.0000 38.8105 0.0000
# 6 0.0000 0.0000 0.0000 8.0364 0.0000 23.4316
#
#
#
# Elastic Compliance Matrix: (Units=1/GPa)
#
#
# Indices 1 2 3 4 5 6 
#
# 1 0.025007 -0.002449 -0.003421 0.000000 -0.007347 0.000000
# 2 -0.002449 0.008263 -0.002777 0.000000 0.002113 0.000000
# 3 -0.003421 -0.002777 0.010964 0.000000 -0.000376 0.000000
# 4 0.000000 0.000000 0.000000 0.021830 0.000000 -0.007487
# 5 -0.007347 0.002113 -0.000376 0.000000 0.028243 0.000000
# 6 0.000000 0.000000 0.000000 -0.007487 0.000000 0.045245
#
#
# Mechanical properties :
#
#
# Convention : Reuss Voigt Hill
#
# Bulk Modulus (GPa) = 37.12010 50.60628 43.86319
# Shear Modulus (GPa) = 30.15201 36.71500 33.43351
#
# Velocity S-wave (km/s) = 3.81697 4.21195 4.01931
# Velocity P-wave (km/s) = 6.11244 6.93590 6.53715
#
# Compressibility (1/GPa) = 0.02693958
#
# Stress axis : x y z
#
# Youngs Moduli (GPa) = 39.98871 121.02250 91.20904
#
# Poissons Ratio (x) = 0.29640 0.31201
# Poissons Ratio (y) = 0.09794 0.25330
# Poissons Ratio (z) = 0.13680 0.33609
#
# Static dielectric constant tensor:
#      x y z
#    x 3.927870 0.000000 -0.172540 
#    y 0.000000 4.994300 0.000000 
#    z -0.172540 0.000000 4.785190 
# 
# 
# High freq. dielectric constant tensor:
#      x y z
#    x 1.774010 0.000000 0.024110 
#    y 0.000000 1.820320 0.000000 
#    z 0.024110 0.000000 1.829980 
# 
# From -- ./inp_files/88632.got.cif
#   From: 2010.06.25/outbox.cif.g09.slc.cpg/sg15_45_cif.got.tgz:88632.got - 2010.06.28 07:06:18.
