data_PCOD8150524
_publ_section_title
;
Structure prediction by ZEFSAII (Michael W. Deem and Ramdas Pophale) SiO2 
 PCOD8150524
Probable space group: C 2/C
;
_chemical_formula_sum "Si O2"
_cell_formula_units_Z 60
_cell_length_a 8.869520
_cell_length_b 11.215432
_cell_length_c 26.574299
_cell_angle_alpha 90.000000
_cell_angle_beta 96.306474
_cell_angle_gamma 90.000000
_cell_volume 2627.494681
_symmetry_space_group_name_H-M "C 2/C"
_symmetry_group_IT_number 15
_symmetry_cell_setting 'monoclinic'
loop_
_space_group_symop_operation_xyz
x,y,z
-x,y,1/2-z
-x,-y,-z
x,-y,1/2+z
1/2+x,1/2+y,z
1/2-x,1/2+y,1/2-z
1/2-x,1/2-y,-z
1/2+x,1/2-y,1/2+z
loop_
_atom_site_type_symbol
_atom_site_label
_atom_site_fract_x
_atom_site_fract_y
_atom_site_fract_z
Si Si1 0.951357 0.660637 0.594863
Si Si2 0.022231 0.667185 0.488013
Si Si3 0.700044 0.487406 0.625203
Si Si4 0.351680 0.584448 0.483143
Si Si5 0.208989 0.092146 0.432189
Si Si6 0.705417 0.755327 0.176138
Si Si7 0.000000 0.150476 0.250000
Si Si8 0.904496 0.967162 0.166967
O O1 0.838161 0.574398 0.619736
O O2 0.879788 0.788490 0.582599
O O3 0.998877 0.606507 0.542228
O O4 0.098635 0.676022 0.633402
O O5 0.176620 0.619896 0.470144
O O6 0.040140 0.809917 0.493237
O O7 0.882614 0.631485 0.447715
O O8 0.603562 0.453034 0.571868
O O9 0.763479 0.369186 0.655052
O O10 0.578451 0.552766 0.656529
O O11 0.366058 0.471673 0.521195
O O12 0.202175 0.005347 0.383882
O O13 0.617845 0.735133 0.225150
O O14 0.847607 0.843452 0.189349
O O15 0.900135 0.070878 0.208449
#
# Coordination Sequence:
#
# PCOD8150524 Si02
#       8
#     8   8   8   8   8   8   4   8
#     4  12  24  43  66 104 146 189 239 285 345 409
#     4  11  24  39  61 101 148 198 244 282 332 410
#     4  11  25  44  67 105 147 188 232 283 340 421
#     4  11  24  40  64  97 153 201 237 283 339 401
#     4  12  24  40  66 105 143 195 241 286 339 423
#     4  11  25  51  76 103 137 180 229 295 359 425
#     4  10  24  54  76 104 136 170 228 306 368 426
#     4  11  26  49  76 103 140 178 233 294 361 422
#
# _framework density 22.835443000000001
#
# number of rings (size 3 to 8) (size 9 to 14) (size 15 to 20)
#    0.000    0.800    5.333    1.600    5.600    3.200 
#    0.000    0.000    0.000    0.000    0.000    0.000 
#    0.000    0.000    0.000    0.000    0.000    0.000 
#
# Total GULP energy -372104.540924 kJ/mol
# GULP energy per Si atom -12403.484697 kJ/mol
# Density = 2.278347 g / cm^3
# Si number density = 22.835443 Si / 1000 Ang^3
#
#
#
# Elastic Constant Matrix: (Units=GPa)
#
#
# Indices 1 2 3 4 5 6 
#
# 1 70.2590 38.3853 21.7489 0.0000 -17.0755 0.0000
# 2 38.3853 105.7752 21.3653 0.0000 -21.4939 0.0000
# 3 21.7489 21.3653 93.7099 0.0000 -20.4545 0.0000
# 4 0.0000 0.0000 0.0000 26.6182 0.0000 -15.6189
# 5 -17.0755 -21.4939 -20.4545 0.0000 29.2197 0.0000
# 6 0.0000 0.0000 0.0000 -15.6189 0.0000 46.8629
#
#
#
# Elastic Compliance Matrix: (Units=1/GPa)
#
#
# Indices 1 2 3 4 5 6 
#
# 1 0.019208 -0.005377 -0.001942 0.000000 0.005910 0.000000
# 2 -0.005377 0.012683 -0.000346 0.000000 0.005945 0.000000
# 3 -0.001942 -0.000346 0.012863 0.000000 0.007615 0.000000
# 4 0.000000 0.000000 0.000000 0.046701 0.000000 0.015565
# 5 0.005910 0.005945 0.007615 0.000000 0.047381 0.000000
# 6 0.000000 0.000000 0.000000 0.015565 0.000000 0.026526
#
#
# Mechanical properties :
#
#
# Convention : Reuss Voigt Hill
#
# Bulk Modulus (GPa) = 33.98598 48.08258 41.03428
# Shear Modulus (GPa) = 26.24631 33.08980 29.66806
#
# Velocity S-wave (km/s) = 3.39391 3.81077 3.60837
# Velocity P-wave (km/s) = 5.50213 6.36117 5.94718
#
# Compressibility (1/GPa) = 0.02942390
#
# Stress axis : x y z
#
# Youngs Moduli (GPa) = 52.06035 78.84300 77.74240
#
# Poissons Ratio (x) = 0.42397 0.15098
# Poissons Ratio (y) = 0.27995 0.02690
# Poissons Ratio (z) = 0.10110 0.02728
#
# Static dielectric constant tensor:
#      x y z
#    x 4.180640 0.000000 -0.187610 
#    y 0.000000 4.274830 0.000000 
#    z -0.187610 0.000000 4.238900 
# 
# 
# High freq. dielectric constant tensor:
#      x y z
#    x 1.913990 0.000000 -0.012710 
#    y 0.000000 1.915500 0.000000 
#    z -0.012710 0.000000 1.887890 
# 
# From -- ./inp_files/288036.got.cif
#   From: 2010.06.25/outbox.cif.g09.slc.cpg/sg15_145_cif.got.tgz:288036.got - 2010.06.28 07:06:18.
