data_PCOD8150021
_publ_section_title
;
Structure prediction by ZEFSAII (Michael W. Deem and Ramdas Pophale) SiO2 
 PCOD8150021
Probable space group: C 2/C
;
_chemical_formula_sum "Si O2"
_cell_formula_units_Z 48
_cell_length_a 8.531159
_cell_length_b 11.137934
_cell_length_c 22.562980
_cell_angle_alpha 90.000000
_cell_angle_beta 79.252201
_cell_angle_gamma 90.000000
_cell_volume 2106.313128
_symmetry_space_group_name_H-M "C 2/C"
_symmetry_group_IT_number 15
_symmetry_cell_setting 'monoclinic'
loop_
_space_group_symop_operation_xyz
x,y,z
-x,y,1/2-z
-x,-y,-z
x,-y,1/2+z
1/2+x,1/2+y,z
1/2-x,1/2+y,1/2-z
1/2-x,1/2-y,-z
1/2+x,1/2-y,1/2+z
loop_
_atom_site_type_symbol
_atom_site_label
_atom_site_fract_x
_atom_site_fract_y
_atom_site_fract_z
Si Si1 0.614615 0.637260 0.186542
Si Si2 0.253687 0.016560 0.969627
Si Si3 0.819445 0.711481 0.406356
Si Si4 0.002995 0.668652 0.608798
Si Si5 0.540848 0.465909 0.089674
Si Si6 0.458149 0.939711 0.687352
O O1 0.500000 0.653536 0.250000
O O2 0.610753 0.753585 0.145133
O O3 0.561226 0.518479 0.153932
O O4 0.793066 0.631870 0.198466
O O5 0.325536 0.880769 0.961945
O O6 0.389077 0.118522 0.953238
O O7 0.162520 0.038253 0.037617
O O8 0.138857 0.019585 0.920163
O O9 0.637652 0.747747 0.405349
O O10 0.923427 0.825671 0.415685
O O11 0.898424 0.645543 0.344436
O O12 0.931300 0.554915 0.647930
O O13 0.500000 0.983706 0.750000
#
# Coordination Sequence:
#
# PCOD8150021 Si02
#       6
#     8   8   8   8   8   8
#     4  12  25  44  67  95 135 174 220 274 329 396
#     4  10  24  43  70  95 136 173 217 278 327 397
#     4  11  22  44  66  97 132 171 220 270 335 392
#     4  11  23  44  68  96 131 173 220 275 331 394
#     4  11  23  44  66 101 132 174 221 270 337 391
#     4  11  25  43  66  93 129 177 223 270 330 392
#
# _framework density 22.788634999999999
#
# number of rings (size 3 to 8) (size 9 to 14) (size 15 to 20)
#    0.000    1.000    3.333    3.000    2.333    2.000 
#    6.000    0.000    0.000    0.000    0.000    0.000 
#    0.000    0.000    0.000    0.000    0.000    0.000 
#
# Total GULP energy -297720.210525 kJ/mol
# GULP energy per Si atom -12405.008772 kJ/mol
# Density = 2.273677 g / cm^3
# Si number density = 22.788635 Si / 1000 Ang^3
#
#
#
# Elastic Constant Matrix: (Units=GPa)
#
#
# Indices 1 2 3 4 5 6 
#
# 1 71.2631 28.3413 2.8675 0.0000 -14.7561 0.0000
# 2 28.3413 80.4850 4.2537 0.0000 -8.4949 0.0000
# 3 2.8675 4.2537 61.3213 0.0000 -11.0798 0.0000
# 4 0.0000 0.0000 0.0000 14.5496 0.0000 -3.6560
# 5 -14.7561 -8.4949 -11.0798 0.0000 34.4108 0.0000
# 6 0.0000 0.0000 0.0000 -3.6560 0.0000 40.2500
#
#
#
# Elastic Compliance Matrix: (Units=1/GPa)
#
#
# Indices 1 2 3 4 5 6 
#
# 1 0.017526 -0.005536 0.000717 0.000000 0.006380 0.000000
# 2 -0.005536 0.014512 -0.000562 0.000000 0.001028 0.000000
# 3 0.000717 -0.000562 0.017353 0.000000 0.005756 0.000000
# 4 0.000000 0.000000 0.000000 0.070336 0.000000 0.006389
# 5 0.006380 0.001028 0.005756 0.000000 0.033904 0.000000
# 6 0.000000 0.000000 0.000000 0.006389 0.000000 0.025425
#
#
# Mechanical properties :
#
#
# Convention : Reuss Voigt Hill
#
# Bulk Modulus (GPa) = 25.88679 31.55491 28.72085
# Shear Modulus (GPa) = 24.66759 29.68253 27.17506
#
# Velocity S-wave (km/s) = 3.29363 3.61295 3.45698
# Velocity P-wave (km/s) = 5.08411 5.59298 5.34460
#
# Compressibility (1/GPa) = 0.03862975
#
# Stress axis : x y z
#
# Youngs Moduli (GPa) = 57.05667 68.90714 57.62667
#
# Poissons Ratio (x) = 0.38148 -0.04133
# Poissons Ratio (y) = 0.31587 0.03239
# Poissons Ratio (z) = -0.04092 0.03873
#
# Static dielectric constant tensor:
#      x y z
#    x 4.041600 0.000000 -0.165190 
#    y 0.000000 4.214940 0.000000 
#    z -0.165190 0.000000 4.015970 
# 
# 
# High freq. dielectric constant tensor:
#      x y z
#    x 1.904270 0.000000 -0.010700 
#    y 0.000000 1.910630 0.000000 
#    z -0.010700 0.000000 1.894560 
# 
# From -- ./inp_files/263162.got.cif
#   From: 2010.06.25/outbox.cif.g09.slc.cpg/sg15_132_cif.got.tgz:263162.got - 2010.06.28 07:06:18.
