data_PCOD8150298
_publ_section_title
;
Structure prediction by ZEFSAII (Michael W. Deem and Ramdas Pophale) SiO2 
 PCOD8150298
Probable space group: C 2/C
;
_chemical_formula_sum "Si O2"
_cell_formula_units_Z 40
_cell_length_a 24.354315
_cell_length_b 7.574477
_cell_length_c 15.911705
_cell_angle_alpha 90.000000
_cell_angle_beta 32.903509
_cell_angle_gamma 90.000000
_cell_volume 1594.504440
_symmetry_space_group_name_H-M "C 2/C"
_symmetry_group_IT_number 15
_symmetry_cell_setting 'monoclinic'
loop_
_space_group_symop_operation_xyz
x,y,z
-x,y,1/2-z
-x,-y,-z
x,-y,1/2+z
1/2+x,1/2+y,z
1/2-x,1/2+y,1/2-z
1/2-x,1/2-y,-z
1/2+x,1/2-y,1/2+z
loop_
_atom_site_type_symbol
_atom_site_label
_atom_site_fract_x
_atom_site_fract_y
_atom_site_fract_z
Si Si1 0.316169 0.087358 0.830897
Si Si2 0.890270 0.443510 0.910044
Si Si3 0.563583 0.439211 0.838741
Si Si4 0.122339 0.807036 0.499624
Si Si5 0.201066 0.777276 0.216487
O O1 0.338371 0.033273 0.896749
O O2 0.380086 0.253726 0.715703
O O3 0.339621 0.920708 0.740963
O O4 0.195558 0.130826 0.981040
O O5 0.905519 0.600997 0.957308
O O6 0.000000 0.358918 0.750000
O O7 0.820162 0.291544 0.040811
O O8 0.484441 0.413398 0.863393
O O9 0.645259 0.594348 0.719984
O O10 0.500000 0.500000 0.000000
O O11 0.182527 0.840862 0.335149
#
# Coordination Sequence:
#
# PCOD8150298 Si02
#       5
#     8   8   8   8   8
#     4  12  25  45  75 105 152 191 247 314 377 434
#     4  12  25  48  74 113 151 196 249 315 384 441
#     4  10  24  45  72 110 148 194 255 300 378 447
#     4  11  24  47  74 104 150 202 243 308 378 452
#     4  11  26  47  74 109 150 197 255 304 370 467
#
# _framework density 25.086162999999999
#
# number of rings (size 3 to 8) (size 9 to 14) (size 15 to 20)
#    0.000    0.800    4.000    2.400    2.800    4.800 
#    3.600    1.000    0.000    0.000    0.000    0.000 
#    0.000    0.000    0.000    0.000    0.000    0.000 
#
# Total GULP energy -247970.461042 kJ/mol
# GULP energy per Si atom -12398.523052 kJ/mol
# Density = 2.502907 g / cm^3
# Si number density = 25.086163 Si / 1000 Ang^3
#
#
#
# Elastic Constant Matrix: (Units=GPa)
#
#
# Indices 1 2 3 4 5 6 
#
# 1 86.3291 -1.7394 22.6754 -0.0185 -35.7524 0.0040
# 2 -1.7394 99.6937 15.3106 -0.0443 -22.4492 0.0097
# 3 22.6754 15.3106 107.6468 -0.0391 -35.2429 0.0041
# 4 -0.0185 -0.0443 -0.0391 40.7419 0.0009 -3.3111
# 5 -35.7524 -22.4492 -35.2429 0.0009 43.6574 0.0025
# 6 0.0040 0.0097 0.0041 -3.3111 0.0025 30.4099
#
#
#
# Elastic Compliance Matrix: (Units=1/GPa)
#
#
# Indices 1 2 3 4 5 6 
#
# 1 0.019280 0.004455 0.001664 0.000014 0.019423 -0.000004
# 2 0.004455 0.012386 0.000788 0.000016 0.010653 -0.000004
# 3 0.001664 0.000788 0.012785 0.000013 0.012089 -0.000002
# 4 0.000014 0.000016 0.000013 0.024764 0.000030 0.002696
# 5 0.019423 0.010653 0.012089 0.000030 0.054048 -0.000009
# 6 -0.000004 -0.000004 -0.000002 0.002696 -0.000009 0.033178
#
#
# Mechanical properties :
#
#
# Convention : Reuss Voigt Hill
#
# Bulk Modulus (GPa) = 17.16322 40.68476 28.92399
# Shear Modulus (GPa) = 30.85473 40.12337 35.48905
#
# Velocity S-wave (km/s) = 3.51087 4.00362 3.76531
# Velocity P-wave (km/s) = 4.82613 6.13393 5.51891
#
# Compressibility (1/GPa) = 0.05826413
#
# Stress axis : x y z
#
# Youngs Moduli (GPa) = 51.86689 80.73395 78.21793
#
# Poissons Ratio (x) = -0.35963 -0.13017
# Poissons Ratio (y) = -0.23104 -0.06161
# Poissons Ratio (z) = -0.08631 -0.06360
#
# Static dielectric constant tensor:
#      x y z
#    x 4.746790 0.000000 -0.512250 
#    y 0.000000 4.644090 0.000020 
#    z -0.512250 0.000020 4.576320 
# 
# 
# High freq. dielectric constant tensor:
#      x y z
#    x 2.000760 0.000000 -0.017740 
#    y 0.000000 1.997750 0.000000 
#    z -0.017740 0.000000 2.001550 
# 
# From -- ./inp_files/221804.got.cif
#   From: 2010.06.25/outbox.cif.g09.slc.cpg/sg15_111_cif.got.tgz:221804.got - 2010.06.28 07:06:18.
