data_PCOD8150911
_publ_section_title
;
Structure prediction by ZEFSAII (Michael W. Deem and Ramdas Pophale) SiO2 
 PCOD8150911
Probable space group: C 2/C
;
_chemical_formula_sum "Si O2"
_cell_formula_units_Z 44
_cell_length_a 8.335560
_cell_length_b 30.184000
_cell_length_c 8.808201
_cell_angle_alpha 90.000000
_cell_angle_beta 120.971060
_cell_angle_gamma 90.000000
_cell_volume 1900.186009
_symmetry_space_group_name_H-M "C 2/C"
_symmetry_group_IT_number 15
_symmetry_cell_setting 'monoclinic'
loop_
_space_group_symop_operation_xyz
x,y,z
-x,y,1/2-z
-x,-y,-z
x,-y,1/2+z
1/2+x,1/2+y,z
1/2-x,1/2+y,1/2-z
1/2-x,1/2-y,-z
1/2+x,1/2-y,1/2+z
loop_
_atom_site_type_symbol
_atom_site_label
_atom_site_fract_x
_atom_site_fract_y
_atom_site_fract_z
Si Si1 0.456105 0.305296 0.434812
Si Si2 0.599740 0.134437 0.134255
Si Si3 0.574172 0.783225 0.116487
Si Si4 0.500000 0.005924 0.250000
Si Si5 0.000000 0.880405 0.250000
Si Si6 0.500000 0.652651 0.250000
Si Si7 0.145116 0.439762 0.082740
O O1 0.577394 0.260831 0.513070
O O2 0.287558 0.298527 0.234713
O O3 0.564296 0.348252 0.420559
O O4 0.390587 0.317809 0.572296
O O5 0.500000 0.132024 0.250000
O O6 0.826788 0.127303 0.248621
O O7 0.548992 0.180794 0.030729
O O8 0.528370 0.094236 0.994686
O O9 0.500000 0.773571 0.250000
O O10 0.642871 0.036173 0.417323
O O11 0.629137 0.976282 0.205269
O O12 0.830202 0.912334 0.207768
#
# Coordination Sequence:
#
# PCOD8150911 Si02
#       7
#     8   8   8   4   4   4   8
#     4  12  26  43  67 108 147 205 255 311 359 437
#     4  12  26  47  76 109 154 199 254 322 365 456
#     4  12  24  46  66 102 152 207 260 307 365 430
#     4  10  26  50  80 102 146 190 229 321 384 468
#     4  12  28  46  76 112 150 192 253 307 374 464
#     4  12  26  44  72 104 144 210 254 302 384 424
#     4  11  25  51  74 112 144 186 245 303 393 457
#
# _framework density 23.155626999999999
#
# number of rings (size 3 to 8) (size 9 to 14) (size 15 to 20)
#    0.000    0.364    5.455    2.727    5.091    1.455 
#    0.000    3.636    0.000    0.000    0.000    0.000 
#    0.000    0.000    0.000    0.000    0.000    0.000 
#
# Total GULP energy -272628.990251 kJ/mol
# GULP energy per Si atom -12392.226830 kJ/mol
# Density = 2.310292 g / cm^3
# Si number density = 23.155627 Si / 1000 Ang^3
#
#
#
# Elastic Constant Matrix: (Units=GPa)
#
#
# Indices 1 2 3 4 5 6 
#
# 1 116.5505 41.7209 41.7369 0.0000 16.2280 0.0000
# 2 41.7209 143.0746 44.8579 0.0000 -2.3446 0.0000
# 3 41.7369 44.8579 93.1806 0.0000 -5.0775 0.0000
# 4 0.0000 0.0000 0.0000 17.1141 0.0000 -2.1244
# 5 16.2280 -2.3446 -5.0775 0.0000 41.0284 0.0000
# 6 0.0000 0.0000 0.0000 -2.1244 0.0000 21.5138
#
#
#
# Elastic Compliance Matrix: (Units=1/GPa)
#
#
# Indices 1 2 3 4 5 6 
#
# 1 0.011679 -0.002075 -0.004521 0.000000 -0.005298 0.000000
# 2 -0.002075 0.008601 -0.003161 0.000000 0.000921 0.000000
# 3 -0.004521 -0.003161 0.014464 0.000000 0.003398 0.000000
# 4 0.000000 0.000000 0.000000 0.059157 0.000000 0.005841
# 5 -0.005298 0.000921 0.003398 0.000000 0.026942 0.000000
# 6 0.000000 0.000000 0.000000 0.005841 0.000000 0.047059
#
#
# Mechanical properties :
#
#
# Convention : Reuss Voigt Hill
#
# Bulk Modulus (GPa) = 65.66069 67.71525 66.68797
# Shear Modulus (GPa) = 25.97527 30.89727 28.43627
#
# Velocity S-wave (km/s) = 3.35292 3.65681 3.50816
# Velocity P-wave (km/s) = 6.58842 6.86562 6.72844
#
# Compressibility (1/GPa) = 0.01522981
#
# Stress axis : x y z
#
# Youngs Moduli (GPa) = 85.62086 116.27201 69.13894
#
# Poissons Ratio (x) = 0.24127 0.31258
# Poissons Ratio (y) = 0.17767 0.21853
# Poissons Ratio (z) = 0.38710 0.36750
#
# Static dielectric constant tensor:
#      x y z
#    x 3.983110 0.000000 -0.120170 
#    y 0.000000 4.339140 0.000000 
#    z -0.120170 0.000000 4.445560 
# 
# 
# High freq. dielectric constant tensor:
#      x y z
#    x 1.902980 0.000000 -0.010650 
#    y 0.000000 1.916870 0.000000 
#    z -0.010650 0.000000 1.934860 
# 
# From -- ./inp_files/26292.got.cif
#   From: 2010.06.25/outbox.cif.g09.slc.cpg/sg15_14_cif.got.tgz:26292.got - 2010.06.28 07:06:18.
