data_PCOD8150609
_publ_section_title
;
Structure prediction by ZEFSAII (Michael W. Deem and Ramdas Pophale) SiO2 
 PCOD8150609
Probable space group: C 2/C
;
_chemical_formula_sum "Si O2"
_cell_formula_units_Z 60
_cell_length_a 16.134190
_cell_length_b 21.080438
_cell_length_c 13.372491
_cell_angle_alpha 90.000000
_cell_angle_beta 142.578445
_cell_angle_gamma 90.000000
_cell_volume 2763.823074
_symmetry_space_group_name_H-M "C 2/C"
_symmetry_group_IT_number 15
_symmetry_cell_setting 'monoclinic'
loop_
_space_group_symop_operation_xyz
x,y,z
-x,y,1/2-z
-x,-y,-z
x,-y,1/2+z
1/2+x,1/2+y,z
1/2-x,1/2+y,1/2-z
1/2-x,1/2-y,-z
1/2+x,1/2-y,1/2+z
loop_
_atom_site_type_symbol
_atom_site_label
_atom_site_fract_x
_atom_site_fract_y
_atom_site_fract_z
Si Si1 0.500000 0.850703 0.250000
Si Si2 0.137471 0.124861 0.169794
Si Si3 0.679241 0.100229 0.523707
Si Si4 0.846353 0.843624 0.343054
Si Si5 0.212369 0.437804 0.358195
Si Si6 0.129053 0.983100 0.812421
Si Si7 0.130455 0.581925 0.252550
Si Si8 0.205468 0.725239 0.063247
O O1 0.586599 0.894060 0.260823
O O2 0.566901 0.810647 0.403762
O O3 0.091196 0.059771 0.180346
O O4 0.272565 0.116362 0.233092
O O5 0.174720 0.179263 0.284295
O O6 0.008767 0.148175 0.980098
O O7 0.761536 0.157848 0.656964
O O8 0.662550 0.113875 0.390347
O O9 0.528679 0.091586 0.428374
O O10 0.768678 0.037221 0.626010
O O11 0.796984 0.907844 0.349380
O O12 0.818123 0.780697 0.379250
O O13 0.300836 0.435712 0.543009
O O14 0.162374 0.507712 0.282737
O O15 0.000000 0.012638 0.750000
O O16 0.250000 0.750000 0.000000
#
# Coordination Sequence:
#
# PCOD8150609 Si02
#       8
#     4   8   8   8   8   8   8   8
#     4  12  22  40  70  96 138 188 216 272 344 400
#     4  12  26  42  67 103 140 181 229 283 340 415
#     4  10  25  44  67  95 135 180 230 288 340 406
#     4  12  26  41  64  99 134 184 232 276 339 406
#     4  11  22  38  66 100 139 172 225 273 346 409
#     4  11  21  39  66 101 145 177 216 277 352 413
#     4  10  25  46  69 100 135 175 236 288 346 410
#     4  12  26  45  67  97 140 182 231 280 335 408
#
# _framework density 21.709060999999998
#
# number of rings (size 3 to 8) (size 9 to 14) (size 15 to 20)
#    0.000    0.800    4.000    3.200    5.600    2.133 
#    0.000    0.667    0.000    0.000    0.000    0.000 
#    0.000    0.000    0.000    0.000    0.000    0.000 
#
# Total GULP energy -371889.192759 kJ/mol
# GULP energy per Si atom -12396.306425 kJ/mol
# Density = 2.165965 g / cm^3
# Si number density = 21.709061 Si / 1000 Ang^3
#
#
#
# Elastic Constant Matrix: (Units=GPa)
#
#
# Indices 1 2 3 4 5 6 
#
# 1 115.8715 38.9322 39.1171 0.0000 20.6870 0.0000
# 2 38.9322 78.1088 49.7575 0.0000 -0.2455 0.0000
# 3 39.1171 49.7575 140.0934 0.0000 15.3350 0.0000
# 4 0.0000 0.0000 0.0000 12.7323 0.0000 -1.9452
# 5 20.6870 -0.2455 15.3350 0.0000 37.3268 0.0000
# 6 0.0000 0.0000 0.0000 -1.9452 0.0000 32.6962
#
#
#
# Elastic Compliance Matrix: (Units=1/GPa)
#
#
# Indices 1 2 3 4 5 6 
#
# 1 0.011828 -0.005495 -0.000659 0.000000 -0.006320 0.000000
# 2 -0.005495 0.019352 -0.005954 0.000000 0.005619 0.000000
# 3 -0.000659 -0.005954 0.009844 0.000000 -0.003718 0.000000
# 4 0.000000 0.000000 0.000000 0.079261 0.000000 0.004716
# 5 -0.006320 0.005619 -0.003718 0.000000 0.031858 0.000000
# 6 0.000000 0.000000 0.000000 0.004716 0.000000 0.030865
#
#
# Mechanical properties :
#
#
# Convention : Reuss Voigt Hill
#
# Bulk Modulus (GPa) = 59.49900 65.52080 62.50990
# Shear Modulus (GPa) = 23.49331 30.30217 26.89774
#
# Velocity S-wave (km/s) = 3.29323 3.74013 3.52378
# Velocity P-wave (km/s) = 6.47514 6.99273 6.73891
#
# Compressibility (1/GPa) = 0.01680701
#
# Stress axis : x y z
#
# Youngs Moduli (GPa) = 84.54864 51.67326 101.58688
#
# Poissons Ratio (x) = 0.28397 0.06693
# Poissons Ratio (y) = 0.46463 0.60486
# Poissons Ratio (z) = 0.05570 0.30767
#
# Static dielectric constant tensor:
#      x y z
#    x 4.324670 0.000000 0.112850 
#    y 0.000000 3.546400 0.000000 
#    z 0.112850 0.000000 4.200960 
# 
# 
# High freq. dielectric constant tensor:
#      x y z
#    x 1.852870 0.000000 0.007970 
#    y 0.000000 1.835680 0.000000 
#    z 0.007970 0.000000 1.871340 
# 
# From -- ./inp_files/164128.got.cif
#   From: 2010.06.25/outbox.cif.g09.slc.cpg/sg15_83_cif.got.tgz:164128.got - 2010.06.28 07:06:18.
