data_PCOD8150707
_publ_section_title
;
Structure prediction by ZEFSAII (Michael W. Deem and Ramdas Pophale) SiO2 
 PCOD8150707
Probable space group: C 2/C
;
_chemical_formula_sum "Si O2"
_cell_formula_units_Z 48
_cell_length_a 8.640646
_cell_length_b 26.865726
_cell_length_c 14.124304
_cell_angle_alpha 90.000000
_cell_angle_beta 137.231945
_cell_angle_gamma 90.000000
_cell_volume 2226.394716
_symmetry_space_group_name_H-M "C 2/C"
_symmetry_group_IT_number 15
_symmetry_cell_setting 'monoclinic'
loop_
_space_group_symop_operation_xyz
x,y,z
-x,y,1/2-z
-x,-y,-z
x,-y,1/2+z
1/2+x,1/2+y,z
1/2-x,1/2+y,1/2-z
1/2-x,1/2-y,-z
1/2+x,1/2-y,1/2+z
loop_
_atom_site_type_symbol
_atom_site_label
_atom_site_fract_x
_atom_site_fract_y
_atom_site_fract_z
Si Si1 0.243191 0.949589 0.640771
Si Si2 0.560305 0.538034 0.666905
Si Si3 0.057659 0.224445 0.977885
Si Si4 0.687084 0.355115 0.253840
Si Si5 0.149232 0.677010 0.049035
Si Si6 0.612334 0.348147 0.658276
O O1 0.500000 0.930452 0.750000
O O2 0.090376 0.904142 0.610334
O O3 0.163349 0.966173 0.500018
O O4 0.232304 0.995038 0.710337
O O5 0.500000 0.530204 0.750000
O O6 0.676454 0.591403 0.698089
O O7 0.870598 0.191046 0.839700
O O8 0.909527 0.265084 0.966506
O O9 0.250000 0.250000 0.000000
O O10 0.193903 0.189441 0.112512
O O11 0.500000 0.354481 0.250000
O O12 0.937025 0.351573 0.409315
O O13 0.202728 0.653239 0.175172
O O14 0.364404 0.670687 0.078135
#
# Coordination Sequence:
#
# PCOD8150707 Si02
#       6
#     8   8   8   8   8   8
#     4  11  26  47  74 104 139 184 232 295 356 419
#     4  10  25  47  71 104 138 176 238 286 361 417
#     4  12  24  44  71 102 142 185 235 290 343 412
#     4  11  23  44  69 105 133 185 230 285 343 412
#     4  11  26  43  69  98 147 183 237 279 345 414
#     4  11  27  46  66 104 140 185 231 290 348 412
#
# _framework density 21.559518000000001
#
# number of rings (size 3 to 8) (size 9 to 14) (size 15 to 20)
#    0.000    1.000    3.333    1.500    9.333    5.333 
#    0.000    0.000    0.000    0.000    0.000    0.000 
#    0.000    0.000    0.000    0.000    0.000    0.000 
#
# Total GULP energy -297665.487903 kJ/mol
# GULP energy per Si atom -12402.728663 kJ/mol
# Density = 2.151045 g / cm^3
# Si number density = 21.559518 Si / 1000 Ang^3
#
#
#
# Elastic Constant Matrix: (Units=GPa)
#
#
# Indices 1 2 3 4 5 6 
#
# 1 90.8790 61.4233 53.1509 0.0000 -1.3519 0.0000
# 2 61.4233 158.5605 37.3857 0.0000 -1.0317 0.0000
# 3 53.1509 37.3857 135.2026 0.0000 -3.4836 0.0000
# 4 0.0000 0.0000 0.0000 33.9400 0.0000 -13.3182
# 5 -1.3519 -1.0317 -3.4836 0.0000 36.2561 0.0000
# 6 0.0000 0.0000 0.0000 -13.3182 0.0000 35.9720
#
#
#
# Elastic Compliance Matrix: (Units=1/GPa)
#
#
# Indices 1 2 3 4 5 6 
#
# 1 0.018098 -0.005705 -0.005538 0.000000 -0.000020 0.000000
# 2 -0.005705 0.008545 -0.000119 0.000000 0.000019 0.000000
# 3 -0.005538 -0.000119 0.009625 0.000000 0.000715 0.000000
# 4 0.000000 0.000000 0.000000 0.034472 0.000000 0.012763
# 5 -0.000020 0.000019 0.000715 0.000000 0.027650 0.000000
# 6 0.000000 0.000000 0.000000 0.012763 0.000000 0.032525
#
#
# Mechanical properties :
#
#
# Convention : Reuss Voigt Hill
#
# Bulk Modulus (GPa) = 73.83832 76.50689 75.17261
# Shear Modulus (GPa) = 31.61471 36.74578 34.18025
#
# Velocity S-wave (km/s) = 3.83350 4.13290 3.98602
# Velocity P-wave (km/s) = 7.34284 7.63793 7.49184
#
# Compressibility (1/GPa) = 0.01354310
#
# Stress axis : x y z
#
# Youngs Moduli (GPa) = 55.25409 117.02496 103.89892
#
# Poissons Ratio (x) = 0.66767 0.57536
# Poissons Ratio (y) = 0.31524 0.01242
# Poissons Ratio (z) = 0.30598 0.01398
#
# Static dielectric constant tensor:
#      x y z
#    x 3.748440 0.000000 -0.279010 
#    y 0.000000 4.214500 0.000000 
#    z -0.279010 0.000000 3.891280 
# 
# 
# High freq. dielectric constant tensor:
#      x y z
#    x 1.838730 0.000000 -0.012970 
#    y 0.000000 1.862270 0.000000 
#    z -0.012970 0.000000 1.856540 
# 
# From -- ./inp_files/139052.got.cif
#   From: 2010.06.25/outbox.cif.g09.slc.cpg/sg15_70_cif.got.tgz:139052.got - 2010.06.28 07:06:18.
