data_PCOD8150774
_publ_section_title
;
Structure prediction by ZEFSAII (Michael W. Deem and Ramdas Pophale) SiO2 
 PCOD8150774
Probable space group: C 2/C
;
_chemical_formula_sum "Si O2"
_cell_formula_units_Z 52
_cell_length_a 22.674362
_cell_length_b 11.305847
_cell_length_c 14.579162
_cell_angle_alpha 90.000000
_cell_angle_beta 41.526714
_cell_angle_gamma 90.000000
_cell_volume 2477.787614
_symmetry_space_group_name_H-M "C 2/C"
_symmetry_group_IT_number 15
_symmetry_cell_setting 'monoclinic'
loop_
_space_group_symop_operation_xyz
x,y,z
-x,y,1/2-z
-x,-y,-z
x,-y,1/2+z
1/2+x,1/2+y,z
1/2-x,1/2+y,1/2-z
1/2-x,1/2-y,-z
1/2+x,1/2-y,1/2+z
loop_
_atom_site_type_symbol
_atom_site_label
_atom_site_fract_x
_atom_site_fract_y
_atom_site_fract_z
Si Si1 0.247162 0.112392 0.523950
Si Si2 0.823861 0.865112 0.200122
Si Si3 0.018727 0.267056 0.075921
Si Si4 0.422095 0.008966 0.405166
Si Si5 0.141265 0.060940 0.483171
Si Si6 0.123566 0.300302 0.406081
Si Si7 0.500000 0.417611 0.750000
O O1 0.250000 0.250000 0.500000
O O2 0.177051 0.103241 0.690584
O O3 0.332201 0.036748 0.454916
O O4 0.228481 0.062847 0.444518
O O5 0.730627 0.810002 0.272435
O O6 0.841317 0.987587 0.128312
O O7 0.904355 0.775519 0.083817
O O8 0.061374 0.372391 0.086716
O O9 0.982280 0.163907 0.183039
O O10 0.927008 0.297596 0.131453
O O11 0.500000 0.055168 0.250000
O O12 0.420098 0.083850 0.499667
O O13 0.104007 0.187671 0.493972
O O14 0.078741 0.003694 0.632031
#
# Coordination Sequence:
#
# PCOD8150774 Si02
#       7
#     8   8   8   8   8   8   4
#     4  11  24  44  69 101 136 178 228 286 338 419
#     4  10  26  43  67 101 135 182 229 283 354 408
#     4  11  25  46  68  98 141 180 229 289 349 423
#     4  11  25  42  68 101 133 177 227 280 350 410
#     4  11  25  43  69  99 139 179 234 283 347 410
#     4  11  26  41  70 100 134 184 231 286 347 414
#     4  10  26  44  64 102 132 180 234 278 354 408
#
# _framework density 20.986464999999999
#
# number of rings (size 3 to 8) (size 9 to 14) (size 15 to 20)
#    0.000    1.231    3.846    0.462   14.000    1.231 
#    0.000    3.077    0.000    0.000    0.000    0.000 
#    0.000    0.000    0.000    0.000    0.000    0.000 
#
# Total GULP energy -322095.126728 kJ/mol
# GULP energy per Si atom -12388.274105 kJ/mol
# Density = 2.093870 g / cm^3
# Si number density = 20.986465 Si / 1000 Ang^3
#
#
#
# Elastic Constant Matrix: (Units=GPa)
#
#
# Indices 1 2 3 4 5 6 
#
# 1 78.6720 8.9983 -9.3033 0.0000 1.3762 0.0000
# 2 8.9983 84.2786 11.6741 0.0000 -9.3132 0.0000
# 3 -9.3033 11.6741 93.9415 0.0000 4.5116 0.0000
# 4 0.0000 0.0000 0.0000 6.7483 0.0000 -6.6293
# 5 1.3762 -9.3132 4.5116 0.0000 22.4067 0.0000
# 6 0.0000 0.0000 0.0000 -6.6293 0.0000 21.7073
#
#
#
# Elastic Compliance Matrix: (Units=1/GPa)
#
#
# Indices 1 2 3 4 5 6 
#
# 1 0.013146 -0.001838 0.001621 0.000000 -0.001898 0.000000
# 2 -0.001838 0.013006 -0.002084 0.000000 0.005938 0.000000
# 3 0.001621 -0.002084 0.011219 0.000000 -0.003225 0.000000
# 4 0.000000 0.000000 0.000000 0.211698 0.000000 0.064651
# 5 -0.001898 0.005938 -0.003225 0.000000 0.047864 0.000000
# 6 0.000000 0.000000 0.000000 0.064651 0.000000 0.065811
#
#
# Mechanical properties :
#
#
# Convention : Reuss Voigt Hill
#
# Bulk Modulus (GPa) = 30.51391 31.07002 30.79196
# Shear Modulus (GPa) = 13.21813 26.54066 19.87940
#
# Velocity S-wave (km/s) = 2.51239 3.56006 3.08108
# Velocity P-wave (km/s) = 4.79453 5.63344 5.23083
#
# Compressibility (1/GPa) = 0.03277194
#
# Stress axis : x y z
#
# Youngs Moduli (GPa) = 76.06788 76.88478 89.13230
#
# Poissons Ratio (x) = 0.14131 -0.14452
# Poissons Ratio (y) = 0.13981 0.18571
# Poissons Ratio (z) = -0.12334 0.16019
#
# Static dielectric constant tensor:
#      x y z
#    x 3.628460 0.000000 0.205410 
#    y 0.000000 3.952310 0.000000 
#    z 0.205410 0.000000 3.902170 
# 
# 
# High freq. dielectric constant tensor:
#      x y z
#    x 1.827310 0.000000 0.012100 
#    y 0.000000 1.831930 0.000000 
#    z 0.012100 0.000000 1.827920 
# 
# From -- ./inp_files/173117.got.cif
#   From: 2010.06.25/outbox.cif.g09.slc.cpg/sg15_87_cif.got.tgz:173117.got - 2010.06.28 07:06:18.
