data_PCOD8150555
_publ_section_title
;
Structure prediction by ZEFSAII (Michael W. Deem and Ramdas Pophale) SiO2 
 PCOD8150555
Probable space group: C 2/C
;
_chemical_formula_sum "Si O2"
_cell_formula_units_Z 40
_cell_length_a 7.564941
_cell_length_b 19.988333
_cell_length_c 19.398757
_cell_angle_alpha 90.000000
_cell_angle_beta 137.661472
_cell_angle_gamma 90.000000
_cell_volume 1975.603975
_symmetry_space_group_name_H-M "C 2/C"
_symmetry_group_IT_number 15
_symmetry_cell_setting 'monoclinic'
loop_
_space_group_symop_operation_xyz
x,y,z
-x,y,1/2-z
-x,-y,-z
x,-y,1/2+z
1/2+x,1/2+y,z
1/2-x,1/2+y,1/2-z
1/2-x,1/2-y,-z
1/2+x,1/2-y,1/2+z
loop_
_atom_site_type_symbol
_atom_site_label
_atom_site_fract_x
_atom_site_fract_y
_atom_site_fract_z
Si Si1 0.347348 0.872726 0.269189
Si Si2 0.010100 0.899191 0.829288
Si Si3 0.611329 0.180190 0.965884
Si Si4 0.000000 0.026625 0.750000
Si Si5 0.614156 0.269718 0.389030
Si Si6 0.000000 0.655492 0.250000
O O1 0.500000 0.907367 0.250000
O O2 0.592935 0.843349 0.382269
O O3 0.227368 0.928007 0.284823
O O4 0.151872 0.813944 0.185135
O O5 0.000000 0.863628 0.750000
O O6 0.739131 0.891260 0.793710
O O7 0.084462 0.977499 0.837805
O O8 0.241336 0.869044 0.940609
O O9 0.312812 0.183712 0.905063
O O10 0.750000 0.250000 0.000000
O O11 0.750000 0.250000 0.500000
O O12 0.575517 0.200893 0.336866
#
# Coordination Sequence:
#
# PCOD8150555 Si02
#       6
#     8   8   8   4   8   4
#     4  12  25  46  68 100 139 182 224 284 339 401
#     4  10  25  42  67  97 135 178 231 280 328 402
#     4  12  21  42  68 103 137 172 222 286 349 407
#     4  10  25  50  64  94 139 186 238 272 324 414
#     4  12  23  40  70 103 142 171 220 283 354 406
#     4  12  21  44  66 102 137 172 226 280 350 408
#
# _framework density 20.246973000000001
#
# number of rings (size 3 to 8) (size 9 to 14) (size 15 to 20)
#    0.600    0.000    6.000    2.400    1.400    2.400 
#    0.000    1.000    0.000    0.000    0.000    0.000 
#    0.000    0.000    0.000    0.000    0.000    0.000 
#
# Total GULP energy -247780.413099 kJ/mol
# GULP energy per Si atom -12389.020655 kJ/mol
# Density = 2.020089 g / cm^3
# Si number density = 20.246973 Si / 1000 Ang^3
#
#
#
# Elastic Constant Matrix: (Units=GPa)
#
#
# Indices 1 2 3 4 5 6 
#
# 1 132.3714 50.1995 25.9471 -0.0001 -0.9365 0.0001
# 2 50.1995 119.2933 51.7286 0.0000 -5.7612 0.0000
# 3 25.9471 51.7286 133.4283 -0.0001 -12.1145 0.0000
# 4 -0.0001 0.0000 -0.0001 25.5744 0.0000 -13.8960
# 5 -0.9365 -5.7612 -12.1145 0.0000 30.0638 0.0000
# 6 0.0001 0.0000 0.0000 -13.8960 0.0000 31.6331
#
#
#
# Elastic Compliance Matrix: (Units=1/GPa)
#
#
# Indices 1 2 3 4 5 6 
#
# 1 0.009011 -0.003651 -0.000389 0.000000 -0.000576 0.000000
# 2 -0.003651 0.011560 -0.003717 0.000000 0.000604 0.000000
# 3 -0.000389 -0.003717 0.009285 0.000000 0.003017 0.000000
# 4 0.000000 0.000000 0.000000 0.051361 0.000000 0.022562
# 5 -0.000576 0.000604 0.003017 0.000000 0.034576 0.000000
# 6 0.000000 0.000000 0.000000 0.022562 0.000000 0.041524
#
#
# Mechanical properties :
#
#
# Convention : Reuss Voigt Hill
#
# Bulk Modulus (GPa) = 69.72350 71.20480 70.46415
# Shear Modulus (GPa) = 28.15123 34.60212 31.37668
#
# Velocity S-wave (km/s) = 3.73284 4.13849 3.94089
# Velocity P-wave (km/s) = 7.28629 7.62107 7.45556
#
# Compressibility (1/GPa) = 0.01434237
#
# Stress axis : x y z
#
# Youngs Moduli (GPa) = 110.97152 86.50541 107.69758
#
# Poissons Ratio (x) = 0.31584 0.04191
# Poissons Ratio (y) = 0.40517 0.40029
# Poissons Ratio (z) = 0.04319 0.32153
#
# Static dielectric constant tensor:
#      x y z
#    x 3.887170 0.000000 -0.025300 
#    y 0.000000 3.739940 0.000000 
#    z -0.025300 0.000000 3.653580 
# 
# 
# High freq. dielectric constant tensor:
#      x y z
#    x 1.807670 0.000000 -0.006830 
#    y 0.000000 1.777200 0.000000 
#    z -0.006830 0.000000 1.796760 
# 
# From -- ./inp_files/232966.got.cif
#   From: 2010.06.25/outbox.cif.g09.slc.cpg/sg15_117_cif.got.tgz:232966.got - 2010.06.28 07:06:18.
