data_PCOD8150447
_publ_section_title
;
Structure prediction by ZEFSAII (Michael W. Deem and Ramdas Pophale) SiO2 
 PCOD8150447
Probable space group: C 2/C
;
_chemical_formula_sum "Si O2"
_cell_formula_units_Z 64
_cell_length_a 10.303239
_cell_length_b 27.530421
_cell_length_c 14.041068
_cell_angle_alpha 90.000000
_cell_angle_beta 134.516086
_cell_angle_gamma 90.000000
_cell_volume 2839.938724
_symmetry_space_group_name_H-M "C 2/C"
_symmetry_group_IT_number 15
_symmetry_cell_setting 'monoclinic'
loop_
_space_group_symop_operation_xyz
x,y,z
-x,y,1/2-z
-x,-y,-z
x,-y,1/2+z
1/2+x,1/2+y,z
1/2-x,1/2+y,1/2-z
1/2-x,1/2-y,-z
1/2+x,1/2-y,1/2+z
loop_
_atom_site_type_symbol
_atom_site_label
_atom_site_fract_x
_atom_site_fract_y
_atom_site_fract_z
Si Si1 0.211066 0.490782 0.369863
Si Si2 0.691059 0.316483 0.387662
Si Si3 0.467820 0.899788 0.487660
Si Si4 0.286271 0.793416 0.643898
Si Si5 0.517850 0.656490 0.148728
Si Si6 0.716675 0.439317 0.755738
Si Si7 0.808168 0.978647 0.122363
Si Si8 0.830863 0.616946 0.601323
O O1 0.312628 0.517493 0.335172
O O2 0.285786 0.520357 0.498133
O O3 0.244543 0.432682 0.388108
O O4 0.000000 0.501694 0.250000
O O5 0.500000 0.337032 0.250000
O O6 0.853044 0.351352 0.440861
O O7 0.731357 0.264560 0.361137
O O8 0.683335 0.313733 0.498085
O O9 0.590423 0.910090 0.645453
O O10 0.343150 0.946287 0.403622
O O11 0.602947 0.894673 0.469936
O O12 0.500000 0.808553 0.750000
O O13 0.179834 0.813346 0.681739
O O14 0.500000 0.674113 0.250000
O O15 0.556524 0.599122 0.163728
O O16 0.326297 0.658538 0.991337
O O17 0.706242 0.465679 0.852299
O O18 0.000000 0.955013 0.250000
O O19 0.000000 0.638265 0.750000
#
# Coordination Sequence:
#
# PCOD8150447 Si02
#       8
#     8   8   8   8   8   8   8   8
#     4  11  22  39  62  90 131 191 237 282 348 415
#     4  10  24  47  75 105 141 180 232 304 365 434
#     4  12  23  42  67  96 139 187 229 297 358 421
#     4  10  24  48  78 108 142 181 237 297 367 440
#     4  12  25  45  74 107 142 189 239 294 359 436
#     4  12  24  41  67  94 142 186 241 290 356 417
#     4  12  24  39  60  96 135 181 243 297 340 414
#     4  11  25  42  64  97 147 188 231 293 359 415
#
# _framework density 22.535698
#
# number of rings (size 3 to 8) (size 9 to 14) (size 15 to 20)
#    0.000    0.750    3.750    4.125    3.500    3.500 
#    0.000    1.250    0.000    0.000    0.000    0.000 
#    0.000    0.000    0.000    0.000    0.000    0.000 
#
# Total GULP energy -396735.362393 kJ/mol
# GULP energy per Si atom -12397.980075 kJ/mol
# Density = 2.248441 g / cm^3
# Si number density = 22.535698 Si / 1000 Ang^3
#
#
#
# Elastic Constant Matrix: (Units=GPa)
#
#
# Indices 1 2 3 4 5 6 
#
# 1 109.9748 40.9358 44.6286 0.0000 -2.8007 0.0000
# 2 40.9358 74.5510 26.6975 0.0000 -2.0656 0.0000
# 3 44.6286 26.6975 145.7592 0.0000 8.4332 0.0000
# 4 0.0000 0.0000 0.0000 20.1047 0.0000 2.7091
# 5 -2.8007 -2.0656 8.4332 0.0000 36.9209 0.0000
# 6 0.0000 0.0000 0.0000 2.7091 0.0000 25.2865
#
#
#
# Elastic Compliance Matrix: (Units=1/GPa)
#
#
# Indices 1 2 3 4 5 6 
#
# 1 0.012418 -0.005775 -0.002817 0.000000 0.001262 0.000000
# 2 -0.005775 0.017115 -0.001415 0.000000 0.000843 0.000000
# 3 -0.002817 -0.001415 0.008107 0.000000 -0.002145 0.000000
# 4 0.000000 0.000000 0.000000 0.050468 0.000000 -0.005407
# 5 0.001262 0.000843 -0.002145 0.000000 0.027718 0.000000
# 6 0.000000 0.000000 0.000000 -0.005407 0.000000 0.040126
#
#
# Mechanical properties :
#
#
# Convention : Reuss Voigt Hill
#
# Bulk Modulus (GPa) = 56.74049 61.64542 59.19295
# Shear Modulus (GPa) = 27.49648 30.99729 29.24689
#
# Velocity S-wave (km/s) = 3.49683 3.71276 3.60641
# Velocity P-wave (km/s) = 6.44488 6.76708 6.60794
#
# Compressibility (1/GPa) = 0.01762410
#
# Stress axis : x y z
#
# Youngs Moduli (GPa) = 80.52802 58.42905 123.35606
#
# Poissons Ratio (x) = 0.33741 0.34755
# Poissons Ratio (y) = 0.46503 0.17460
# Poissons Ratio (z) = 0.22689 0.08270
#
# Static dielectric constant tensor:
#      x y z
#    x 4.013550 0.000000 0.150510 
#    y 0.000000 3.795870 0.000000 
#    z 0.150510 0.000000 4.566280 
# 
# 
# High freq. dielectric constant tensor:
#      x y z
#    x 1.881650 0.000000 0.009440 
#    y 0.000000 1.862060 0.000000 
#    z 0.009440 0.000000 1.915060 
# 
# From -- ./inp_files/148781.got.cif
#   From: 2010.06.25/outbox.cif.g09.slc.cpg/sg15_75_cif.got.tgz:148781.got - 2010.06.28 07:06:18.
