data_PCOD8150099
_publ_section_title
;
Structure prediction by ZEFSAII (Michael W. Deem and Ramdas Pophale) SiO2 
 PCOD8150099
Probable space group: C 2/C
;
_chemical_formula_sum "Si O2"
_cell_formula_units_Z 44
_cell_length_a 22.663386
_cell_length_b 6.822645
_cell_length_c 22.253736
_cell_angle_alpha 90.000000
_cell_angle_beta 145.113982
_cell_angle_gamma 90.000000
_cell_volume 1968.046298
_symmetry_space_group_name_H-M "C 2/C"
_symmetry_group_IT_number 15
_symmetry_cell_setting 'monoclinic'
loop_
_space_group_symop_operation_xyz
x,y,z
-x,y,1/2-z
-x,-y,-z
x,-y,1/2+z
1/2+x,1/2+y,z
1/2-x,1/2+y,1/2-z
1/2-x,1/2-y,-z
1/2+x,1/2-y,1/2+z
loop_
_atom_site_type_symbol
_atom_site_label
_atom_site_fract_x
_atom_site_fract_y
_atom_site_fract_z
Si Si1 0.888972 0.600742 0.594640
Si Si2 0.440410 0.720198 0.012126
Si Si3 0.740578 0.969609 0.678372
Si Si4 0.638319 0.648562 0.110030
Si Si5 0.337785 0.435120 0.638647
Si Si6 0.000000 0.734600 0.250000
O O1 0.935006 0.719800 0.576973
O O2 0.771765 0.530906 0.485615
O O3 0.894041 0.746638 0.656349
O O4 0.958175 0.407533 0.662286
O O5 0.360194 0.835814 0.903984
O O6 0.413392 0.488738 0.983619
O O7 0.553049 0.759719 0.079302
O O8 0.790578 0.977497 0.785732
O O9 0.819727 0.890359 0.694025
O O10 0.705965 0.190041 0.631997
O O11 0.406058 0.630642 0.693123
#
# Coordination Sequence:
#
# PCOD8150099 Si02
#       6
#     8   8   8   8   8   4
#     4  10  24  46  68  95 137 176 213 275 338 387
#     4  10  24  44  66  93 134 172 217 273 327 393
#     4  11  23  43  66  97 131 172 223 267 328 397
#     4  11  23  41  67  96 129 175 218 270 326 390
#     4  10  25  44  66  97 136 172 220 274 332 393
#     4  12  24  40  70 104 124 170 228 268 330 398
#
# _framework density 22.357195000000001
#
# number of rings (size 3 to 8) (size 9 to 14) (size 15 to 20)
#    0.000    1.455    1.818    1.636    5.091    8.727 
#    6.545    0.000    0.000    0.000    0.000    0.000 
#    0.000    0.000    0.000    0.000    0.000    0.000 
#
# Total GULP energy -272839.564238 kJ/mol
# GULP energy per Si atom -12401.798374 kJ/mol
# Density = 2.230631 g / cm^3
# Si number density = 22.357195 Si / 1000 Ang^3
#
#
#
# Elastic Constant Matrix: (Units=GPa)
#
#
# Indices 1 2 3 4 5 6 
#
# 1 51.4382 40.3519 23.3660 -0.0002 6.6496 -0.0019
# 2 40.3519 114.3815 33.0174 -0.0002 11.2011 -0.0023
# 3 23.3660 33.0174 55.9800 -0.0001 10.4167 -0.0005
# 4 -0.0002 -0.0002 -0.0001 50.7330 0.0001 8.3697
# 5 6.6496 11.2011 10.4167 0.0001 26.0148 0.0001
# 6 -0.0019 -0.0023 -0.0005 8.3697 0.0001 32.9916
#
#
#
# Elastic Compliance Matrix: (Units=1/GPa)
#
#
# Indices 1 2 3 4 5 6 
#
# 1 0.029228 -0.008125 -0.007205 0.000000 -0.001087 0.000001
# 2 -0.008125 0.012914 -0.003865 0.000000 -0.001936 0.000000
# 3 -0.007205 -0.003865 0.024310 0.000000 -0.006228 0.000000
# 4 0.000000 0.000000 0.000000 0.020572 0.000000 -0.005219
# 5 -0.001087 -0.001936 -0.006228 0.000000 0.042045 0.000000
# 6 0.000001 0.000000 0.000000 -0.005219 0.000000 0.031635
#
#
# Mechanical properties :
#
#
# Convention : Reuss Voigt Hill
#
# Bulk Modulus (GPa) = 35.63658 46.14114 40.88886
# Shear Modulus (GPa) = 23.98669 30.28551 27.13610
#
# Velocity S-wave (km/s) = 3.27905 3.68451 3.48767
# Velocity P-wave (km/s) = 5.50549 6.22766 5.87768
#
# Compressibility (1/GPa) = 0.02806105
#
# Stress axis : x y z
#
# Youngs Moduli (GPa) = 34.21365 77.43329 41.13566
#
# Poissons Ratio (x) = 0.62913 0.29640
# Poissons Ratio (y) = 0.27798 0.15901
# Poissons Ratio (z) = 0.24652 0.29931
#
# Static dielectric constant tensor:
#      x y z
#    x 3.833810 0.000000 0.181660 
#    y 0.000000 3.984700 0.000000 
#    z 0.181660 0.000000 4.104190 
# 
# 
# High freq. dielectric constant tensor:
#      x y z
#    x 1.870760 0.000000 0.012930 
#    y 0.000000 1.882270 0.000000 
#    z 0.012930 0.000000 1.893610 
# 
# From -- ./inp_files/170824.got.cif
#   From: 2010.06.25/outbox.cif.g09.slc.cpg/sg15_86_cif.got.tgz:170824.got - 2010.06.28 07:06:18.
