data_PCOD8150510
_publ_section_title
;
Structure prediction by ZEFSAII (Michael W. Deem and Ramdas Pophale) SiO2 
 PCOD8150510
Probable space group: C 2/C
;
_chemical_formula_sum "Si O2"
_cell_formula_units_Z 52
_cell_length_a 12.477442
_cell_length_b 15.126243
_cell_length_c 12.425960
_cell_angle_alpha 90.000000
_cell_angle_beta 107.943441
_cell_angle_gamma 90.000000
_cell_volume 2231.166456
_symmetry_space_group_name_H-M "C 2/C"
_symmetry_group_IT_number 15
_symmetry_cell_setting 'monoclinic'
loop_
_space_group_symop_operation_xyz
x,y,z
-x,y,1/2-z
-x,-y,-z
x,-y,1/2+z
1/2+x,1/2+y,z
1/2-x,1/2+y,1/2-z
1/2-x,1/2-y,-z
1/2+x,1/2-y,1/2+z
loop_
_atom_site_type_symbol
_atom_site_label
_atom_site_fract_x
_atom_site_fract_y
_atom_site_fract_z
Si Si1 0.384926 0.259919 0.822570
Si Si2 0.338096 0.554656 0.607957
Si Si3 0.879184 0.516628 0.344275
Si Si4 0.011517 0.319243 0.942159
Si Si5 0.500000 0.416537 0.750000
Si Si6 0.000000 0.193602 0.750000
Si Si7 0.276626 0.124434 0.120843
Si Si8 0.000000 0.617500 0.750000
O O1 0.417495 0.357697 0.795034
O O2 0.263004 0.282345 0.835724
O O3 0.392000 0.187148 0.726414
O O4 0.476351 0.226509 0.938444
O O5 0.215398 0.534171 0.618619
O O6 0.423253 0.473083 0.645095
O O7 0.390453 0.636865 0.687629
O O8 0.325168 0.578594 0.477634
O O9 0.930419 0.595999 0.430150
O O10 0.827062 0.553123 0.217734
O O11 0.980670 0.447098 0.346932
O O12 0.958809 0.253590 0.837273
O O13 0.133003 0.348600 0.939282
#
# Coordination Sequence:
#
# PCOD8150510 Si02
#       8
#     8   8   8   8   4   4   8   4
#     4  11  25  43  71  94 143 176 230 279 349 401
#     4  11  26  42  73  97 138 182 236 277 353 409
#     4  12  25  44  67 103 144 173 231 291 337 411
#     4  12  24  43  68 102 139 177 233 287 337 412
#     4  10  24  50  62 106 134 184 226 296 342 416
#     4  11  23  43  67 102 128 180 237 281 333 411
#     4  12  23  43  70  99 132 186 225 281 348 411
#     4  11  25  43  65 104 138 178 219 285 341 405
#
# _framework density 23.306194999999999
#
# number of rings (size 3 to 8) (size 9 to 14) (size 15 to 20)
#    0.000    0.615    6.154    1.385    4.308    3.077 
#    0.000    0.769    0.000    0.000    0.000    0.000 
#    0.000    0.000    0.000    0.000    0.000    0.000 
#
# Total GULP energy -322172.726678 kJ/mol
# GULP energy per Si atom -12391.258718 kJ/mol
# Density = 2.325315 g / cm^3
# Si number density = 23.306195 Si / 1000 Ang^3
#
#
#
# Elastic Constant Matrix: (Units=GPa)
#
#
# Indices 1 2 3 4 5 6 
#
# 1 76.4210 32.0959 13.7002 0.0000 7.3821 0.0000
# 2 32.0959 144.2703 42.8768 0.0000 10.7996 0.0000
# 3 13.7002 42.8768 95.1369 0.0000 14.4143 0.0000
# 4 0.0000 0.0000 0.0000 36.8838 0.0000 -32.8344
# 5 7.3821 10.7996 14.4143 0.0000 21.6040 0.0000
# 6 0.0000 0.0000 0.0000 -32.8344 0.0000 -80.9202
#
#
#
# Elastic Compliance Matrix: (Units=1/GPa)
#
#
# Indices 1 2 3 4 5 6 
#
# 1 0.014693 -0.002932 -0.000284 0.000000 -0.003365 0.000000
# 2 -0.002932 0.008650 -0.003307 0.000000 -0.001116 0.000000
# 3 -0.000284 -0.003307 0.013102 0.000000 -0.006991 0.000000
# 4 0.000000 0.000000 0.000000 0.019918 0.000000 -0.008082
# 5 -0.003365 -0.001116 -0.006991 0.000000 0.052660 0.000000
# 6 0.000000 0.000000 0.000000 -0.008082 0.000000 -0.009079
#
#
# Mechanical properties :
#
#
# Convention : Reuss Voigt Hill
#
# Bulk Modulus (GPa) = 42.74047 54.79709 48.76878
# Shear Modulus (GPa) = 41.39387 10.65722 26.02555
#
# Velocity S-wave (km/s) = 4.21894 2.14071 3.34530
# Velocity P-wave (km/s) = 6.48930 5.44730 5.99100
#
# Compressibility (1/GPa) = 0.02339703
#
# Stress axis : x y z
#
# Youngs Moduli (GPa) = 68.05968 115.60439 76.32484
#
# Poissons Ratio (x) = 0.33899 0.02171
# Poissons Ratio (y) = 0.19957 0.25242
# Poissons Ratio (z) = 0.01936 0.38233
#
# Static dielectric constant tensor:
#      x y z
#    x 4.244450 0.000000 -0.137800 
#    y 0.000000 4.642580 0.000000 
#    z -0.137800 0.000000 4.229230 
# 
# 
# High freq. dielectric constant tensor:
#      x y z
#    x 1.912960 0.000000 -0.010740 
#    y 0.000000 1.949650 0.000000 
#    z -0.010740 0.000000 1.910250 
# 
# From -- ./inp_files/144195.got.cif
#   From: 2010.06.25/outbox.cif.g09.slc.cpg/sg15_73_cif.got.tgz:144195.got - 2010.06.28 07:06:18.
