data_PCOD8150170
_publ_section_title
;
Structure prediction by ZEFSAII (Michael W. Deem and Ramdas Pophale) SiO2 
 PCOD8150170
Probable space group: C 2/C
;
_chemical_formula_sum "Si O2"
_cell_formula_units_Z 40
_cell_length_a 27.412422
_cell_length_b 11.669151
_cell_length_c 9.569337
_cell_angle_alpha 90.000000
_cell_angle_beta 29.995072
_cell_angle_gamma 90.000000
_cell_volume 1530.290272
_symmetry_space_group_name_H-M "C 2/C"
_symmetry_group_IT_number 15
_symmetry_cell_setting 'monoclinic'
loop_
_space_group_symop_operation_xyz
x,y,z
-x,y,1/2-z
-x,-y,-z
x,-y,1/2+z
1/2+x,1/2+y,z
1/2-x,1/2+y,1/2-z
1/2-x,1/2-y,-z
1/2+x,1/2-y,1/2+z
loop_
_atom_site_type_symbol
_atom_site_label
_atom_site_fract_x
_atom_site_fract_y
_atom_site_fract_z
Si Si1 0.893137 0.159780 0.975295
Si Si2 0.391476 0.958496 0.761733
Si Si3 0.404440 0.286174 0.141658
Si Si4 0.705481 0.877422 0.209682
Si Si5 0.386587 0.402935 0.929090
O O1 0.859982 0.177788 0.898226
O O2 0.000000 0.208360 0.750000
O O3 0.891170 0.024137 0.998986
O O4 0.817710 0.239621 0.251686
O O5 0.403317 0.849818 0.631085
O O6 0.500000 0.000000 0.500000
O O7 0.322329 0.054603 0.862206
O O8 0.353657 0.926637 0.009980
O O9 0.339155 0.326302 0.171355
O O10 0.509603 0.350248 0.871350
O O11 0.820268 0.899367 0.955107
#
# Coordination Sequence:
#
# PCOD8150170 Si02
#       5
#     8   8   8   8   8
#     4  11  23  45  66  96 138 180 227 279 345 412
#     4  11  25  47  72 100 142 184 231 279 355 414
#     4  10  24  44  70  92 142 185 224 274 359 413
#     4  11  27  42  72 105 138 178 234 294 334 411
#     4  11  25  41  70 101 130 184 227 283 339 413
#
# _framework density 26.138833000000002
#
# number of rings (size 3 to 8) (size 9 to 14) (size 15 to 20)
#    0.000    1.200    2.000    3.600   11.200    1.600 
#    0.000    3.000    0.000    0.000    0.000    0.000 
#    0.000    0.000    0.000    0.000    0.000    0.000 
#
# Total GULP energy -247879.665470 kJ/mol
# GULP energy per Si atom -12393.983274 kJ/mol
# Density = 2.607934 g / cm^3
# Si number density = 26.138833 Si / 1000 Ang^3
#
#
#
# Elastic Constant Matrix: (Units=GPa)
#
#
# Indices 1 2 3 4 5 6 
#
# 1 75.0320 -6.2768 -24.7325 0.0000 -13.7046 0.0000
# 2 -6.2768 151.4670 -9.1456 0.0000 -1.1863 0.0000
# 3 -24.7325 -9.1456 40.7600 0.0000 -12.8092 0.0000
# 4 0.0000 0.0000 0.0000 0.7303 0.0000 -6.6740
# 5 -13.7046 -1.1863 -12.8092 0.0000 46.1328 0.0000
# 6 0.0000 0.0000 0.0000 -6.6740 0.0000 44.6742
#
#
#
# Elastic Compliance Matrix: (Units=1/GPa)
#
#
# Indices 1 2 3 4 5 6 
#
# 1 0.020932 0.001952 0.016553 0.000000 0.010865 0.000000
# 2 0.001952 0.006892 0.003253 0.000000 0.001660 0.000000
# 3 0.016553 0.003253 0.040405 0.000000 0.016220 0.000000
# 4 0.000000 0.000000 0.000000 -3.749155 0.000000 -0.560097
# 5 0.010865 0.001660 0.016220 0.000000 0.029450 0.000000
# 6 0.000000 0.000000 0.000000 -0.560097 0.000000 -0.061290
#
#
# Mechanical properties :
#
#
# Convention : Reuss Voigt Hill
#
# Bulk Modulus (GPa) = 8.94893 20.77216 14.86055
# Shear Modulus (GPa) = -1.34444 38.80172 18.72864
#
# Velocity S-wave (km/s) = -0.71796 3.85703 2.67967
# Velocity P-wave (km/s) = 1.65643 5.27254 3.90791
#
# Compressibility (1/GPa) = 0.11174514
#
# Stress axis : x y z
#
# Youngs Moduli (GPa) = 47.77438 145.08763 24.74929
#
# Poissons Ratio (x) = -0.28321 -0.40968
# Poissons Ratio (y) = -0.09325 -0.08050
# Poissons Ratio (z) = -0.79082 -0.47192
#
# Static dielectric constant tensor:
#      x y z
#    x 5.324410 0.000000 0.190880 
#    y 0.000000 31.713900 0.000000 
#    z 0.190880 0.000000 4.659180 
# 
# 
# High freq. dielectric constant tensor:
#      x y z
#    x 2.062470 0.000000 0.006930 
#    y 0.000000 2.066960 0.000000 
#    z 0.006930 0.000000 2.044060 
# 
# From -- ./inp_files/126365.got.cif
#   From: 2010.06.25/outbox.cif.g09.slc.cpg/sg15_64_cif.got.tgz:126365.got - 2010.06.28 07:06:18.
