data_PCOD8150749
_publ_section_title
;
Structure prediction by ZEFSAII (Michael W. Deem and Ramdas Pophale) SiO2 
 PCOD8150749
Probable space group: C 2/C
;
_chemical_formula_sum "Si O2"
_cell_formula_units_Z 60
_cell_length_a 25.061098
_cell_length_b 18.649474
_cell_length_c 11.385929
_cell_angle_alpha 90.000000
_cell_angle_beta 148.723833
_cell_angle_gamma 90.000000
_cell_volume 2762.736238
_symmetry_space_group_name_H-M "C 2/C"
_symmetry_group_IT_number 15
_symmetry_cell_setting 'monoclinic'
loop_
_space_group_symop_operation_xyz
x,y,z
-x,y,1/2-z
-x,-y,-z
x,-y,1/2+z
1/2+x,1/2+y,z
1/2-x,1/2+y,1/2-z
1/2-x,1/2-y,-z
1/2+x,1/2-y,1/2+z
loop_
_atom_site_type_symbol
_atom_site_label
_atom_site_fract_x
_atom_site_fract_y
_atom_site_fract_z
Si Si1 0.289884 0.807513 0.306517
Si Si2 0.605494 0.592319 0.111571
Si Si3 0.328323 0.812838 0.634760
Si Si4 0.278047 0.910249 0.752876
Si Si5 0.000000 0.008038 0.250000
Si Si6 0.053215 0.750954 0.566967
Si Si7 0.388148 0.203886 0.580276
Si Si8 0.297452 0.557238 0.969454
O O1 0.319564 0.843123 0.486211
O O2 0.393383 0.770503 0.454055
O O3 0.199098 0.748911 0.153006
O O4 0.257964 0.868007 0.154858
O O5 0.672381 0.610696 0.120814
O O6 0.551629 0.662326 0.066936
O O7 0.676356 0.552477 0.342366
O O8 0.515732 0.539747 0.897355
O O9 0.250000 0.750000 0.500000
O O10 0.293200 0.874906 0.655044
O O11 0.442003 0.783528 0.874373
O O12 0.277795 0.994580 0.720864
O O13 0.369328 0.880322 0.010409
O O14 0.902118 0.057694 0.090420
O O15 0.124339 0.719483 0.805450
O O16 0.500000 0.229847 0.750000
#
# Coordination Sequence:
#
# PCOD8150749 Si02
#       8
#     8   8   8   8   4   8   8   8
#     4  12  25  43  68 103 135 179 231 287 340 417
#     4  11  23  44  71 101 137 177 230 285 350 417
#     4  12  25  42  68 102 137 173 229 294 345 406
#     4  11  25  44  65  99 136 182 219 286 344 402
#     4  10  26  40  66 106 140 182 214 288 360 414
#     4  12  24  43  74 101 133 179 233 292 349 409
#     4  12  22  44  68 102 132 177 232 281 345 405
#     4  11  26  44  67  98 139 185 227 278 346 417
#
# _framework density 21.717597999999999
#
# number of rings (size 3 to 8) (size 9 to 14) (size 15 to 20)
#    0.000    0.533    5.333    2.000   10.267    1.067 
#    0.000    2.000    0.000    0.000    0.000    0.000 
#    0.000    0.000    0.000    0.000    0.000    0.000 
#
# Total GULP energy -371943.129330 kJ/mol
# GULP energy per Si atom -12398.104311 kJ/mol
# Density = 2.166817 g / cm^3
# Si number density = 21.717598 Si / 1000 Ang^3
#
#
#
# Elastic Constant Matrix: (Units=GPa)
#
#
# Indices 1 2 3 4 5 6 
#
# 1 91.3589 15.2673 18.8044 0.0000 -1.1487 0.0000
# 2 15.2673 82.2951 25.1495 0.0000 7.1461 0.0000
# 3 18.8044 25.1495 81.2234 0.0000 -11.3826 0.0000
# 4 0.0000 0.0000 0.0000 22.5799 0.0000 -5.8787
# 5 -1.1487 7.1461 -11.3826 0.0000 46.9680 0.0000
# 6 0.0000 0.0000 0.0000 -5.8787 0.0000 27.9941
#
#
#
# Elastic Compliance Matrix: (Units=1/GPa)
#
#
# Indices 1 2 3 4 5 6 
#
# 1 0.011654 -0.001472 -0.002247 0.000000 -0.000036 0.000000
# 2 -0.001472 0.014075 -0.004474 0.000000 -0.003262 0.000000
# 3 -0.002247 -0.004474 0.014808 0.000000 0.004215 0.000000
# 4 0.000000 0.000000 0.000000 0.046849 0.000000 0.009838
# 5 -0.000036 -0.003262 0.004215 0.000000 0.022808 0.000000
# 6 0.000000 0.000000 0.000000 0.009838 0.000000 0.037788
#
#
# Mechanical properties :
#
#
# Convention : Reuss Voigt Hill
#
# Bulk Modulus (GPa) = 41.40872 41.47997 41.44434
# Shear Modulus (GPa) = 28.99915 32.55213 30.77564
#
# Velocity S-wave (km/s) = 3.65812 3.87574 3.76850
# Velocity P-wave (km/s) = 6.07871 6.25857 6.16929
#
# Compressibility (1/GPa) = 0.02414950
#
# Stress axis : x y z
#
# Youngs Moduli (GPa) = 85.80769 71.04720 67.53087
#
# Poissons Ratio (x) = 0.10460 0.15176
# Poissons Ratio (y) = 0.12633 0.30216
# Poissons Ratio (z) = 0.19283 0.31790
#
# Static dielectric constant tensor:
#      x y z
#    x 3.978310 0.000000 -0.289670 
#    y 0.000000 3.721600 0.000000 
#    z -0.289670 0.000000 4.148870 
# 
# 
# High freq. dielectric constant tensor:
#      x y z
#    x 1.867010 0.000000 -0.013820 
#    y 0.000000 1.836780 0.000000 
#    z -0.013820 0.000000 1.852870 
# 
# From -- ./inp_files/124013.got.cif
#   From: 2010.06.25/outbox.cif.g09.slc.cpg/sg15_63_cif.got.tgz:124013.got - 2010.06.28 07:06:18.
