data_PCOD8150391
_publ_section_title
;
Structure prediction by ZEFSAII (Michael W. Deem and Ramdas Pophale) SiO2 
 PCOD8150391
Probable space group: C 2/C
;
_chemical_formula_sum "Si O2"
_cell_formula_units_Z 52
_cell_length_a 19.764911
_cell_length_b 12.561421
_cell_length_c 19.378015
_cell_angle_alpha 90.000000
_cell_angle_beta 27.909882
_cell_angle_gamma 90.000000
_cell_volume 2251.982854
_symmetry_space_group_name_H-M "C 2/C"
_symmetry_group_IT_number 15
_symmetry_cell_setting 'monoclinic'
loop_
_space_group_symop_operation_xyz
x,y,z
-x,y,1/2-z
-x,-y,-z
x,-y,1/2+z
1/2+x,1/2+y,z
1/2-x,1/2+y,1/2-z
1/2-x,1/2-y,-z
1/2+x,1/2-y,1/2+z
loop_
_atom_site_type_symbol
_atom_site_label
_atom_site_fract_x
_atom_site_fract_y
_atom_site_fract_z
Si Si1 0.000000 0.303517 0.250000
Si Si2 0.388171 0.407267 0.591783
Si Si3 0.163732 0.586314 0.499129
Si Si4 0.845275 0.762031 0.754079
Si Si5 0.211382 0.873168 0.090302
Si Si6 0.401552 0.967216 0.154025
Si Si7 0.430924 0.298799 0.410954
O O1 0.859672 0.371206 0.401613
O O2 0.948604 0.238230 0.228908
O O3 0.500000 0.500000 0.500000
O O4 0.413000 0.341524 0.638430
O O5 0.224291 0.446453 0.729033
O O6 0.427997 0.334054 0.491889
O O7 0.196310 0.683081 0.416123
O O8 0.287430 0.495793 0.385581
O O9 0.010800 0.530546 0.619552
O O10 0.825875 0.650545 0.729759
O O11 0.167625 0.874023 0.049140
O O12 0.096882 0.803518 0.236832
O O13 0.369203 0.821116 0.959665
O O14 0.500000 0.000000 0.000000
#
# Coordination Sequence:
#
# PCOD8150391 Si02
#       7
#     4   8   8   8   8   8   8
#     4  10  26  44  72 106 144 192 240 304 362 434
#     4  12  28  44  73 107 146 192 238 301 361 435
#     4  11  24  46  73 106 143 197 243 308 362 439
#     4  11  26  47  73 104 147 189 248 296 367 431
#     4  10  24  46  73 105 150 191 253 295 372 427
#     4  11  27  47  71 106 145 189 240 297 371 433
#     4  10  25  44  71 109 145 196 240 309 353 438
#
# _framework density 23.090764
#
# number of rings (size 3 to 8) (size 9 to 14) (size 15 to 20)
#    0.000    1.231    1.538    1.385   12.923    3.692 
#    0.000    0.000    0.000    0.000    0.000    0.000 
#    0.000    0.000    0.000    0.000    0.000    0.000 
#
# Total GULP energy -322137.847599 kJ/mol
# GULP energy per Si atom -12389.917215 kJ/mol
# Density = 2.303821 g / cm^3
# Si number density = 23.090764 Si / 1000 Ang^3
#
#
#
# Elastic Constant Matrix: (Units=GPa)
#
#
# Indices 1 2 3 4 5 6 
#
# 1 123.2434 42.5524 41.6119 -0.0019 23.0346 0.0015
# 2 42.5524 118.8523 50.0088 -0.0037 13.6571 0.0034
# 3 41.6119 50.0088 123.4853 -0.0041 20.9914 0.0035
# 4 -0.0019 -0.0037 -0.0041 37.4735 0.0022 6.6375
# 5 23.0346 13.6571 20.9914 0.0022 44.8520 -0.0016
# 6 0.0015 0.0034 0.0035 6.6375 -0.0016 31.5406
#
#
#
# Elastic Compliance Matrix: (Units=1/GPa)
#
#
# Indices 1 2 3 4 5 6 
#
# 1 0.010276 -0.002487 -0.001833 0.000000 -0.003662 0.000000
# 2 -0.002487 0.010811 -0.003474 0.000001 -0.000389 -0.000001
# 3 -0.001833 -0.003474 0.010628 0.000001 -0.002975 -0.000001
# 4 0.000000 0.000001 0.000001 0.027719 -0.000002 -0.005833
# 5 -0.003662 -0.000389 -0.002975 -0.000002 0.025687 0.000002
# 6 0.000000 -0.000001 -0.000001 -0.005833 0.000002 0.032933
#
#
# Mechanical properties :
#
#
# Convention : Reuss Voigt Hill
#
# Bulk Modulus (GPa) = 62.00734 70.43638 66.22186
# Shear Modulus (GPa) = 35.96671 38.20042 37.08357
#
# Velocity S-wave (km/s) = 3.95096 4.07179 4.01183
# Velocity P-wave (km/s) = 6.90836 7.25785 7.08526
#
# Compressibility (1/GPa) = 0.01612712
#
# Stress axis : x y z
#
# Youngs Moduli (GPa) = 97.31276 92.50201 94.08722
#
# Poissons Ratio (x) = 0.23005 0.17247
# Poissons Ratio (y) = 0.24202 0.32685
# Poissons Ratio (z) = 0.17838 0.32134
#
# Static dielectric constant tensor:
#      x y z
#    x 4.050110 0.000010 0.162200 
#    y 0.000010 4.401220 0.000010 
#    z 0.162200 0.000010 4.371560 
# 
# 
# High freq. dielectric constant tensor:
#      x y z
#    x 1.913170 0.000000 0.009630 
#    y 0.000000 1.908280 0.000000 
#    z 0.009630 0.000000 1.923030 
# 
# From -- ./inp_files/252727.got.cif
#   From: 2010.06.25/outbox.cif.g09.slc.cpg/sg15_127_cif.got.tgz:252727.got - 2010.06.28 07:06:18.
