data_PCOD8150157
_publ_section_title
;
Structure prediction by ZEFSAII (Michael W. Deem and Ramdas Pophale) SiO2 
 PCOD8150157
Probable space group: C 2/C
;
_chemical_formula_sum "Si O2"
_cell_formula_units_Z 56
_cell_length_a 13.873823
_cell_length_b 12.485897
_cell_length_c 14.696815
_cell_angle_alpha 90.000000
_cell_angle_beta 91.658209
_cell_angle_gamma 90.000000
_cell_volume 2544.820874
_symmetry_space_group_name_H-M "C 2/C"
_symmetry_group_IT_number 15
_symmetry_cell_setting 'monoclinic'
loop_
_space_group_symop_operation_xyz
x,y,z
-x,y,1/2-z
-x,-y,-z
x,-y,1/2+z
1/2+x,1/2+y,z
1/2-x,1/2+y,1/2-z
1/2-x,1/2-y,-z
1/2+x,1/2-y,1/2+z
loop_
_atom_site_type_symbol
_atom_site_label
_atom_site_fract_x
_atom_site_fract_y
_atom_site_fract_z
Si Si1 0.622597 0.193890 0.676452
Si Si2 0.776190 0.357030 0.667306
Si Si3 0.925288 0.826968 0.169486
Si Si4 0.757077 0.997056 0.164120
Si Si5 0.766041 0.446344 0.042783
Si Si6 0.442587 0.393367 0.478049
Si Si7 0.583502 0.222498 0.879204
O O1 0.692073 0.278450 0.626938
O O2 0.669240 0.078500 0.690711
O O3 0.607367 0.243527 0.775541
O O4 0.525034 0.176182 0.616956
O O5 0.871121 0.284955 0.685715
O O6 0.741638 0.409647 0.760895
O O7 0.799083 0.442858 0.589796
O O8 0.855178 0.929284 0.162754
O O9 0.000000 0.851685 0.250000
O O10 0.988543 0.816840 0.079329
O O11 0.734437 0.046206 0.065575
O O12 0.658406 0.418539 0.076691
O O13 0.840907 0.354952 0.070847
O O14 0.500000 0.500000 0.500000
O O15 0.413828 0.337213 0.571861
#
# Coordination Sequence:
#
# PCOD8150157 Si02
#       7
#     8   8   8   8   8   8   8
#     4  10  24  44  69  99 142 181 234 279 347 416
#     4  11  25  46  69 102 138 183 230 290 341 413
#     4  11  27  44  71 103 139 181 231 285 344 414
#     4  11  24  46  72 103 139 183 229 288 350 408
#     4  12  25  44  75 100 142 182 229 287 352 406
#     4  12  25  46  70 104 137 177 233 284 342 415
#     4  11  25  44  70 102 136 187 229 285 344 414
#
# _framework density 22.005479000000001
#
# number of rings (size 3 to 8) (size 9 to 14) (size 15 to 20)
#    0.000    0.857    2.857    3.000    6.000    2.857 
#    0.000    0.000    0.000    0.000    0.000    0.000 
#    0.000    0.000    0.000    0.000    0.000    0.000 
#
# Total GULP energy -347277.606219 kJ/mol
# GULP energy per Si atom -12402.771651 kJ/mol
# Density = 2.195539 g / cm^3
# Si number density = 22.005479 Si / 1000 Ang^3
#
#
#
# Elastic Constant Matrix: (Units=GPa)
#
#
# Indices 1 2 3 4 5 6 
#
# 1 132.4903 68.5598 43.4816 0.0000 23.0928 0.0000
# 2 68.5598 114.0554 28.5488 0.0000 5.3474 0.0000
# 3 43.4816 28.5488 90.4990 0.0000 1.5685 0.0000
# 4 0.0000 0.0000 0.0000 44.1827 0.0000 -6.7394
# 5 23.0928 5.3474 1.5685 0.0000 39.4998 0.0000
# 6 0.0000 0.0000 0.0000 -6.7394 0.0000 33.5014
#
#
#
# Elastic Compliance Matrix: (Units=1/GPa)
#
#
# Indices 1 2 3 4 5 6 
#
# 1 0.013704 -0.006835 -0.004308 0.000000 -0.006915 0.000000
# 2 -0.006835 0.012983 -0.000851 0.000000 0.002272 0.000000
# 3 -0.004308 -0.000851 0.013352 0.000000 0.002104 0.000000
# 4 0.000000 0.000000 0.000000 0.023350 0.000000 0.004697
# 5 -0.006915 0.002272 0.002104 0.000000 0.028968 0.000000
# 6 0.000000 0.000000 0.000000 0.004697 0.000000 0.030794
#
#
# Mechanical properties :
#
#
# Convention : Reuss Voigt Hill
#
# Bulk Modulus (GPa) = 62.30488 68.69167 65.49827
# Shear Modulus (GPa) = 32.78927 36.53375 34.66151
#
# Velocity S-wave (km/s) = 3.86430 4.07899 3.97310
# Velocity P-wave (km/s) = 6.94876 7.31216 7.13278
#
# Compressibility (1/GPa) = 0.01605011
#
# Stress axis : x y z
#
# Youngs Moduli (GPa) = 72.97251 77.02584 74.89640
#
# Poissons Ratio (x) = 0.52646 0.32267
# Poissons Ratio (y) = 0.49876 0.06373
# Poissons Ratio (z) = 0.31438 0.06555
#
# Static dielectric constant tensor:
#      x y z
#    x 4.408120 0.000000 -0.140890 
#    y 0.000000 3.868590 0.000000 
#    z -0.140890 0.000000 4.055900 
# 
# 
# High freq. dielectric constant tensor:
#      x y z
#    x 1.884060 0.000000 -0.001370 
#    y 0.000000 1.868040 0.000000 
#    z -0.001370 0.000000 1.865770 
# 
# From -- ./inp_files/152600.got.cif
#   From: 2010.06.25/outbox.cif.g09.slc.cpg/sg15_77_cif.got.tgz:152600.got - 2010.06.28 07:06:18.
