data_PCOD8150484
_publ_section_title
;
Structure prediction by ZEFSAII (Michael W. Deem and Ramdas Pophale) SiO2 
 PCOD8150484
Probable space group: C 2/C
;
_chemical_formula_sum "Si O2"
_cell_formula_units_Z 36
_cell_length_a 9.200103
_cell_length_b 18.057370
_cell_length_c 14.351486
_cell_angle_alpha 90.000000
_cell_angle_beta 41.965541
_cell_angle_gamma 90.000000
_cell_volume 1594.280344
_symmetry_space_group_name_H-M "C 2/C"
_symmetry_group_IT_number 15
_symmetry_cell_setting 'monoclinic'
loop_
_space_group_symop_operation_xyz
x,y,z
-x,y,1/2-z
-x,-y,-z
x,-y,1/2+z
1/2+x,1/2+y,z
1/2-x,1/2+y,1/2-z
1/2-x,1/2-y,-z
1/2+x,1/2-y,1/2+z
loop_
_atom_site_type_symbol
_atom_site_label
_atom_site_fract_x
_atom_site_fract_y
_atom_site_fract_z
Si Si1 0.509131 0.825200 0.388158
Si Si2 0.500000 0.056862 0.750000
Si Si3 0.507649 0.337563 0.641830
Si Si4 0.263392 0.084860 0.383506
Si Si5 0.702269 0.321717 0.083316
O O1 0.604357 0.891595 0.280485
O O2 0.600199 0.744822 0.311709
O O3 0.253886 0.829710 0.492476
O O4 0.581049 0.838806 0.460172
O O5 0.703139 0.004171 0.622797
O O6 0.500000 0.369220 0.750000
O O7 0.390121 0.394750 0.629653
O O8 0.500000 0.122242 0.250000
O O9 0.162387 0.112112 0.529444
O O10 0.500000 0.312659 0.250000
O O11 0.750000 0.250000 0.000000
#
# Coordination Sequence:
#
# PCOD8150484 Si02
#       5
#     8   4   8   8   8
#     4  11  25  42  72 105 144 189 247 299 370 432
#     4  10  26  48  72 102 160 186 244 308 378 430
#     4  11  23  42  76 105 142 189 255 302 366 437
#     4  10  24  48  72 104 150 197 240 305 372 442
#     4  12  26  43  76 109 145 192 249 301 361 439
#
# _framework density 22.580719999999999
#
# number of rings (size 3 to 8) (size 9 to 14) (size 15 to 20)
#    0.667    0.444    3.333    2.000    6.222    1.778 
#    0.000    0.000    0.000    0.000    0.000    0.000 
#    0.000    0.000    0.000    0.000    0.000    0.000 
#
# Total GULP energy -223145.570929 kJ/mol
# GULP energy per Si atom -12396.976163 kJ/mol
# Density = 2.252933 g / cm^3
# Si number density = 22.580720 Si / 1000 Ang^3
#
#
#
# Elastic Constant Matrix: (Units=GPa)
#
#
# Indices 1 2 3 4 5 6 
#
# 1 174.3441 49.4017 33.7139 0.0007 31.9056 -0.0008
# 2 49.4017 130.8556 34.5758 0.0012 20.3277 -0.0003
# 3 33.7139 34.5758 105.8737 0.0022 21.5768 -0.0002
# 4 0.0007 0.0012 0.0022 37.7437 -0.0009 7.6591
# 5 31.9056 20.3277 21.5768 -0.0009 46.6312 0.0006
# 6 -0.0008 -0.0003 -0.0002 7.6591 0.0006 26.9379
#
#
#
# Elastic Compliance Matrix: (Units=1/GPa)
#
#
# Indices 1 2 3 4 5 6 
#
# 1 0.007107 -0.001880 -0.000911 0.000000 -0.003622 0.000000
# 2 -0.001880 0.009164 -0.002034 0.000000 -0.001767 0.000000
# 3 -0.000911 -0.002034 0.011143 -0.000001 -0.003646 0.000000
# 4 0.000000 0.000000 -0.000001 0.028117 0.000001 -0.007994
# 5 -0.003622 -0.001767 -0.003646 0.000001 0.026380 -0.000001
# 6 0.000000 0.000000 0.000000 -0.007994 -0.000001 0.039395
#
#
# Mechanical properties :
#
#
# Convention : Reuss Voigt Hill
#
# Bulk Modulus (GPa) = 56.29399 71.82846 64.06122
# Shear Modulus (GPa) = 36.52904 41.82135 39.17519
#
# Velocity S-wave (km/s) = 4.02644 4.30825 4.16973
# Velocity P-wave (km/s) = 6.82646 7.52507 7.18426
#
# Compressibility (1/GPa) = 0.01776389
#
# Stress axis : x y z
#
# Youngs Moduli (GPa) = 140.69673 109.12671 89.74594
#
# Poissons Ratio (x) = 0.20514 0.08178
# Poissons Ratio (y) = 0.26449 0.18253
# Poissons Ratio (z) = 0.12821 0.22195
#
# Static dielectric constant tensor:
#      x y z
#    x 4.169620 0.000000 0.191320 
#    y 0.000000 4.107080 0.000010 
#    z 0.191320 0.000010 4.344290 
# 
# 
# High freq. dielectric constant tensor:
#      x y z
#    x 1.903850 0.000000 0.005660 
#    y 0.000000 1.882640 0.000000 
#    z 0.005660 0.000000 1.880500 
# 
# From -- ./inp_files/134178.got.cif
#   From: 2010.06.25/outbox.cif.g09.slc.cpg/sg15_68_cif.got.tgz:134178.got - 2010.06.28 07:06:18.
