data_PCOD8150623
_publ_section_title
;
Structure prediction by ZEFSAII (Michael W. Deem and Ramdas Pophale) SiO2 
 PCOD8150623
Probable space group: C 2/C
;
_chemical_formula_sum "Si O2"
_cell_formula_units_Z 56
_cell_length_a 19.042420
_cell_length_b 18.382472
_cell_length_c 19.591176
_cell_angle_alpha 90.000000
_cell_angle_beta 19.268072
_cell_angle_gamma 90.000000
_cell_volume 2263.003601
_symmetry_space_group_name_H-M "C 2/C"
_symmetry_group_IT_number 15
_symmetry_cell_setting 'monoclinic'
loop_
_space_group_symop_operation_xyz
x,y,z
-x,y,1/2-z
-x,-y,-z
x,-y,1/2+z
1/2+x,1/2+y,z
1/2-x,1/2+y,1/2-z
1/2-x,1/2-y,-z
1/2+x,1/2-y,1/2+z
loop_
_atom_site_type_symbol
_atom_site_label
_atom_site_fract_x
_atom_site_fract_y
_atom_site_fract_z
Si Si1 0.000000 0.368184 0.250000
Si Si2 0.875057 0.082326 0.994727
Si Si3 0.323088 0.805409 0.739889
Si Si4 0.127215 0.917795 0.502960
Si Si5 0.752322 0.821303 0.394859
Si Si6 0.826781 0.694672 0.737161
Si Si7 0.500000 0.132109 0.250000
Si Si8 0.255749 0.678789 0.392544
O O1 0.850178 0.418033 0.339567
O O2 0.837543 0.321244 0.445462
O O3 0.072432 0.115477 0.771758
O O4 0.844504 0.129862 0.092512
O O5 0.653521 0.082518 0.156117
O O6 0.931517 0.999978 0.962971
O O7 0.563598 0.836068 0.510500
O O8 0.344703 0.758395 0.791451
O O9 0.246948 0.750417 0.752327
O O10 0.158167 0.870015 0.404911
O O11 0.931729 0.884137 0.724780
O O12 0.659036 0.820754 0.556808
O O13 0.846875 0.741203 0.790502
O O14 0.067156 0.663982 0.508043
#
# Coordination Sequence:
#
# PCOD8150623 Si02
#       8
#     4   8   8   8   8   8   4   8
#     4  10  25  44  70 102 149 186 238 288 359 430
#     4  11  25  45  71 106 144 186 233 293 362 422
#     4  11  24  45  72 102 140 188 240 296 354 422
#     4  11  25  45  71 106 144 186 233 293 362 422
#     4  11  23  41  72 103 135 186 239 290 351 418
#     4  11  24  45  72 102 140 188 240 296 354 422
#     4  10  25  44  70 102 149 186 238 288 359 430
#     4  11  23  41  72 103 135 186 239 290 351 418
#
# _framework density 24.745871999999999
#
# number of rings (size 3 to 8) (size 9 to 14) (size 15 to 20)
#    0.000    1.143    2.857    2.143    0.000   11.429 
#    0.000    2.857    0.000    8.571    0.000    0.000 
#    0.000    0.000    0.000    0.000    0.000    0.000 
#
# Total GULP energy -346946.331387 kJ/mol
# GULP energy per Si atom -12390.940407 kJ/mol
# Density = 2.468955 g / cm^3
# Si number density = 24.745872 Si / 1000 Ang^3
#
#
#
# Elastic Constant Matrix: (Units=GPa)
#
#
# Indices 1 2 3 4 5 6 
#
# 1 84.9347 24.9445 30.3573 -0.0093 -10.5830 0.0180
# 2 24.9445 176.0987 63.7084 0.0136 14.8456 0.0326
# 3 30.3573 63.7084 154.8337 -0.3795 -2.1040 0.2785
# 4 -0.0093 0.0136 -0.3795 22.5155 0.1058 -4.2910
# 5 -10.5830 14.8456 -2.1040 0.1058 28.5336 0.0324
# 6 0.0180 0.0326 0.2785 -4.2910 0.0324 27.7760
#
#
#
# Elastic Compliance Matrix: (Units=1/GPa)
#
#
# Indices 1 2 3 4 5 6 
#
# 1 0.013690 -0.001751 -0.001884 -0.000053 0.005850 -0.000003
# 2 -0.001751 0.007305 -0.002726 -0.000025 -0.004651 0.000021
# 3 -0.001884 -0.002726 0.007968 0.000118 0.001306 -0.000059
# 4 -0.000053 -0.000025 0.000118 0.045764 -0.000176 0.007069
# 5 0.005850 -0.004651 0.001306 -0.000176 0.039733 -0.000085
# 6 -0.000003 0.000021 -0.000059 0.007069 -0.000085 0.037095
#
#
# Mechanical properties :
#
#
# Convention : Reuss Voigt Hill
#
# Bulk Modulus (GPa) = 61.57201 72.65417 67.11309
# Shear Modulus (GPa) = 29.46550 35.55548 32.51049
#
# Velocity S-wave (km/s) = 3.45443 3.79466 3.62853
# Velocity P-wave (km/s) = 6.39113 6.97303 6.68841
#
# Compressibility (1/GPa) = 0.01624115
#
# Stress axis : x y z
#
# Youngs Moduli (GPa) = 73.04426 136.89653 125.50668
#
# Poissons Ratio (x) = 0.23965 0.23652
# Poissons Ratio (y) = 0.12787 0.34210
# Poissons Ratio (z) = 0.13765 0.37314
#
# Static dielectric constant tensor:
#      x y z
#    x 4.728550 -0.000490 0.014450 
#    y -0.000490 4.071390 0.002000 
#    z 0.014450 0.002000 5.044440 
# 
# 
# High freq. dielectric constant tensor:
#      x y z
#    x 1.981850 -0.000040 -0.008780 
#    y -0.000040 1.944230 0.000120 
#    z -0.008780 0.000120 2.017140 
# 
# From -- ./inp_files/253365.got.cif
#   From: 2010.06.25/outbox.cif.g09.slc.cpg/sg15_127_cif.got.tgz:253365.got - 2010.06.28 07:06:18.
