data_PCOD8150122
_publ_section_title
;
Structure prediction by ZEFSAII (Michael W. Deem and Ramdas Pophale) SiO2 
 PCOD8150122
Probable space group: C 2/C
;
_chemical_formula_sum "Si O2"
_cell_formula_units_Z 60
_cell_length_a 9.105100
_cell_length_b 22.456020
_cell_length_c 25.544187
_cell_angle_alpha 90.000000
_cell_angle_beta 147.270336
_cell_angle_gamma 90.000000
_cell_volume 2823.882519
_symmetry_space_group_name_H-M "C 2/C"
_symmetry_group_IT_number 15
_symmetry_cell_setting 'monoclinic'
loop_
_space_group_symop_operation_xyz
x,y,z
-x,y,1/2-z
-x,-y,-z
x,-y,1/2+z
1/2+x,1/2+y,z
1/2-x,1/2+y,1/2-z
1/2-x,1/2-y,-z
1/2+x,1/2-y,1/2+z
loop_
_atom_site_type_symbol
_atom_site_label
_atom_site_fract_x
_atom_site_fract_y
_atom_site_fract_z
Si Si1 0.287465 0.344663 0.838691
Si Si2 0.216856 0.965891 0.717511
Si Si3 0.549295 0.148402 0.454630
Si Si4 0.037235 0.840670 0.028333
Si Si5 0.299101 0.014065 0.984987
Si Si6 0.000000 0.104875 0.250000
Si Si7 0.752798 0.274194 0.941496
Si Si8 0.779874 0.534791 0.586471
O O1 0.226642 0.411800 0.804156
O O2 0.481653 0.313343 0.854055
O O3 0.000000 0.309904 0.750000
O O4 0.407928 0.344754 0.932358
O O5 0.072366 0.940668 0.725571
O O6 0.495828 0.001799 0.810976
O O7 0.012873 0.010188 0.626565
O O8 0.650971 0.081335 0.485307
O O9 0.504179 0.182587 0.497222
O O10 0.794653 0.177153 0.495232
O O11 0.255926 0.148259 0.338082
O O12 0.243317 0.784529 0.093664
O O13 0.218215 0.899805 0.091784
O O14 0.500000 0.000000 0.000000
O O15 0.375803 0.967330 0.054561
O O16 0.750000 0.250000 0.000000
O O17 0.500000 0.500000 0.500000
#
# Coordination Sequence:
#
# PCOD8150122 Si02
#       8
#     8   8   8   8   8   4   8   8
#     4  11  21  39  69  99 129 176 230 283 332 417
#     4  12  23  38  66 101 138 179 227 281 352 425
#     4  12  23  42  67 100 137 175 236 286 340 416
#     4  11  24  43  66  97 136 185 218 288 358 409
#     4  12  23  38  65  97 138 178 217 286 353 414
#     4  12  20  38  66 104 128 170 230 288 344 406
#     4  10  24  44  68  91 128 178 234 279 347 407
#     4  12  23  42  63  99 140 175 225 285 353 420
#
# _framework density 21.247343000000001
#
# number of rings (size 3 to 8) (size 9 to 14) (size 15 to 20)
#    0.000    0.533    6.667    2.000    1.867    0.000 
#    0.000    2.667    2.933    0.000    0.000    0.000 
#    0.000    0.000    0.000    0.000    0.000    0.000 
#
# Total GULP energy -371662.516890 kJ/mol
# GULP energy per Si atom -12388.750563 kJ/mol
# Density = 2.119898 g / cm^3
# Si number density = 21.247343 Si / 1000 Ang^3
#
#
#
# Elastic Constant Matrix: (Units=GPa)
#
#
# Indices 1 2 3 4 5 6 
#
# 1 132.3473 48.1446 33.2501 -0.0041 26.2990 -0.0012
# 2 48.1446 85.8987 36.6977 0.0025 23.7583 0.0012
# 3 33.2501 36.6977 115.3439 0.0327 19.4259 0.0077
# 4 -0.0041 0.0025 0.0327 16.1645 -0.0055 2.3179
# 5 26.2990 23.7583 19.4259 -0.0055 36.6969 -0.0014
# 6 -0.0012 0.0012 0.0077 2.3179 -0.0014 39.6261
#
#
#
# Elastic Compliance Matrix: (Units=1/GPa)
#
#
# Indices 1 2 3 4 5 6 
#
# 1 0.010102 -0.004148 -0.000906 0.000004 -0.004075 0.000000
# 2 -0.004148 0.017093 -0.003161 0.000001 -0.006420 0.000000
# 3 -0.000906 -0.003161 0.010411 -0.000022 -0.002815 -0.000001
# 4 0.000004 0.000001 -0.000022 0.062387 0.000018 -0.003649
# 5 -0.004075 -0.006420 -0.002815 0.000018 0.035817 0.000001
# 6 0.000000 0.000000 -0.000001 -0.003649 0.000001 0.025449
#
#
# Mechanical properties :
#
#
# Convention : Reuss Voigt Hill
#
# Bulk Modulus (GPa) = 47.22568 63.30830 55.26699
# Shear Modulus (GPa) = 27.06384 32.86400 29.96392
#
# Velocity S-wave (km/s) = 3.57284 3.93712 3.75939
# Velocity P-wave (km/s) = 6.26858 7.10834 6.70163
#
# Compressibility (1/GPa) = 0.02117492
#
# Stress axis : x y z
#
# Youngs Moduli (GPa) = 98.98906 58.50455 96.05383
#
# Poissons Ratio (x) = 0.24267 0.08704
# Poissons Ratio (y) = 0.41060 0.30365
# Poissons Ratio (z) = 0.08970 0.18495
#
# Static dielectric constant tensor:
#      x y z
#    x 4.415220 -0.000140 0.590700 
#    y -0.000140 3.986850 0.000170 
#    z 0.590700 0.000170 3.764890 
# 
# 
# High freq. dielectric constant tensor:
#      x y z
#    x 1.868810 0.000000 0.018800 
#    y 0.000000 1.825600 0.000000 
#    z 0.018800 0.000000 1.810910 
# 
# From -- ./inp_files/290267.got.cif
#   From: 2010.06.25/outbox.cif.g09.slc.cpg/sg15_146_cif.got.tgz:290267.got - 2010.06.28 07:06:18.
