data_PCOD8150030
_publ_section_title
;
Structure prediction by ZEFSAII (Michael W. Deem and Ramdas Pophale) SiO2 
 PCOD8150030
Probable space group: C 2/C
;
_chemical_formula_sum "Si O2"
_cell_formula_units_Z 44
_cell_length_a 17.415784
_cell_length_b 16.574952
_cell_length_c 7.930923
_cell_angle_alpha 90.000000
_cell_angle_beta 125.799943
_cell_angle_gamma 90.000000
_cell_volume 1856.839569
_symmetry_space_group_name_H-M "C 2/C"
_symmetry_group_IT_number 15
_symmetry_cell_setting 'monoclinic'
loop_
_space_group_symop_operation_xyz
x,y,z
-x,y,1/2-z
-x,-y,-z
x,-y,1/2+z
1/2+x,1/2+y,z
1/2-x,1/2+y,1/2-z
1/2-x,1/2-y,-z
1/2+x,1/2-y,1/2+z
loop_
_atom_site_type_symbol
_atom_site_label
_atom_site_fract_x
_atom_site_fract_y
_atom_site_fract_z
Si Si1 0.380069 0.622388 0.334029
Si Si2 0.185416 0.008931 0.985753
Si Si3 0.690642 0.079749 0.622656
Si Si4 0.029556 0.258980 0.471844
Si Si5 0.500000 0.123585 0.250000
Si Si6 0.744141 0.747347 0.791733
O O1 0.390211 0.554931 0.493700
O O2 0.472368 0.677629 0.442981
O O3 0.286350 0.673663 0.257496
O O4 0.364621 0.573268 0.141384
O O5 0.286344 0.984644 0.202677
O O6 0.219415 0.070697 0.886890
O O7 0.588623 0.065056 0.404852
O O8 0.692485 0.172086 0.691028
O O9 0.020125 0.322918 0.610304
O O10 0.138239 0.234469 0.592344
O O11 0.000000 0.294198 0.250000
O O12 0.750000 0.750000 0.000000
#
# Coordination Sequence:
#
# PCOD8150030 Si02
#       6
#     8   8   8   8   4   8
#     4  11  23  47  71 106 143 187 239 297 356 436
#     4  10  24  43  71  99 149 190 225 293 374 430
#     4  11  23  44  67 103 135 194 233 290 367 422
#     4  12  26  42  72 114 135 184 249 298 356 419
#     4  12  24  44  72 102 142 186 240 312 344 420
#     4  12  22  44  75  99 143 188 243 296 354 428
#
# _framework density 23.696176000000001
#
# number of rings (size 3 to 8) (size 9 to 14) (size 15 to 20)
#    0.000    0.727    5.455    1.091    2.545    2.182 
#    0.000   10.000    0.000    0.000    0.000    0.000 
#    0.000    0.000    0.000    0.000    0.000    0.000 
#
# Total GULP energy -272751.293072 kJ/mol
# GULP energy per Si atom -12397.786049 kJ/mol
# Density = 2.364224 g / cm^3
# Si number density = 23.696176 Si / 1000 Ang^3
#
#
#
# Elastic Constant Matrix: (Units=GPa)
#
#
# Indices 1 2 3 4 5 6 
#
# 1 74.3303 21.6173 26.7658 0.0000 5.2429 0.0000
# 2 21.6173 88.6016 18.5897 0.0000 -5.2243 0.0000
# 3 26.7658 18.5897 111.9658 0.0000 7.0478 0.0000
# 4 0.0000 0.0000 0.0000 36.8615 0.0000 -0.4820
# 5 5.2429 -5.2243 7.0478 0.0000 47.0451 0.0000
# 6 0.0000 0.0000 0.0000 -0.4820 0.0000 18.5111
#
#
#
# Elastic Compliance Matrix: (Units=1/GPa)
#
#
# Indices 1 2 3 4 5 6 
#
# 1 0.015631 -0.003262 -0.003092 0.000000 -0.001641 0.000000
# 2 -0.003262 0.012496 -0.001419 0.000000 0.001964 0.000000
# 3 -0.003092 -0.001419 0.009988 0.000000 -0.001309 0.000000
# 4 0.000000 0.000000 0.000000 0.027138 0.000000 0.000707
# 5 -0.001641 0.001964 -0.001309 0.000000 0.021853 0.000000
# 6 0.000000 0.000000 0.000000 0.000707 0.000000 0.054040
#
#
# Mechanical properties :
#
#
# Convention : Reuss Voigt Hill
#
# Bulk Modulus (GPa) = 44.30481 45.42705 44.86593
# Shear Modulus (GPa) = 30.44800 34.34519 32.39660
#
# Velocity S-wave (km/s) = 3.58849 3.81123 3.70153
# Velocity P-wave (km/s) = 5.99227 6.21124 6.10274
#
# Compressibility (1/GPa) = 0.02257091
#
# Stress axis : x y z
#
# Youngs Moduli (GPa) = 63.97469 80.02747 100.11669
#
# Poissons Ratio (x) = 0.26103 0.30954
# Poissons Ratio (y) = 0.20867 0.14202
# Poissons Ratio (z) = 0.19780 0.11352
#
# Static dielectric constant tensor:
#      x y z
#    x 4.196850 0.000000 -0.114190 
#    y 0.000000 4.279160 0.000000 
#    z -0.114190 0.000000 4.629290 
# 
# 
# High freq. dielectric constant tensor:
#      x y z
#    x 1.933100 0.000000 -0.006660 
#    y 0.000000 1.936750 0.000000 
#    z -0.006660 0.000000 1.946080 
# 
# From -- ./inp_files/39134.got.cif
#   From: 2010.06.25/outbox.cif.g09.slc.cpg/sg15_20_cif.got.tgz:39134.got - 2010.06.28 07:06:18.
