data_PCOD8150617
_publ_section_title
;
Structure prediction by ZEFSAII (Michael W. Deem and Ramdas Pophale) SiO2 
 PCOD8150617
Probable space group: C 2/C
;
_chemical_formula_sum "Si O2"
_cell_formula_units_Z 48
_cell_length_a 25.129544
_cell_length_b 7.827238
_cell_length_c 10.971767
_cell_angle_alpha 90.000000
_cell_angle_beta 75.703853
_cell_angle_gamma 90.000000
_cell_volume 2091.259826
_symmetry_space_group_name_H-M "C 2/C"
_symmetry_group_IT_number 15
_symmetry_cell_setting 'monoclinic'
loop_
_space_group_symop_operation_xyz
x,y,z
-x,y,1/2-z
-x,-y,-z
x,-y,1/2+z
1/2+x,1/2+y,z
1/2-x,1/2+y,1/2-z
1/2-x,1/2-y,-z
1/2+x,1/2-y,1/2+z
loop_
_atom_site_type_symbol
_atom_site_label
_atom_site_fract_x
_atom_site_fract_y
_atom_site_fract_z
Si Si1 0.769355 0.190294 0.121914
Si Si2 0.648820 0.490971 0.552704
Si Si3 0.853141 0.692091 0.758749
Si Si4 0.063432 0.846195 0.425294
Si Si5 0.650430 0.819426 0.713694
Si Si6 0.030323 0.191981 0.354578
O O1 0.809156 0.318156 0.173356
O O2 0.712982 0.179531 0.231235
O O3 0.750000 0.250000 0.000000
O O4 0.803059 0.011935 0.077781
O O5 0.664466 0.349097 0.644056
O O6 0.591693 0.440757 0.523926
O O7 0.640897 0.679063 0.615158
O O8 0.856294 0.513930 0.831773
O O9 0.912226 0.713089 0.663017
O O10 0.106061 0.711047 0.345647
O O11 0.008711 0.756497 0.509313
O O12 0.044138 0.989071 0.339833
O O13 0.000000 0.250675 0.250000
#
# Coordination Sequence:
#
# PCOD8150617 Si02
#       6
#     8   8   8   8   8   8
#     4  10  25  44  68  99 142 181 229 284 350 419
#     4  11  22  47  68 100 141 181 226 288 356 420
#     4  12  25  43  72 104 139 178 241 290 345 425
#     4  11  22  43  76  94 139 190 228 288 358 416
#     4  11  26  43  69 106 135 182 239 284 350 427
#     4  11  22  43  69 102 137 185 233 288 355 421
#
# _framework density 22.952670999999999
#
# number of rings (size 3 to 8) (size 9 to 14) (size 15 to 20)
#    0.000    1.000    5.000    0.000    7.000    4.000 
#    0.000    4.167    0.000    0.000    0.000    0.000 
#    0.000    0.000    0.000    0.000    0.000    0.000 
#
# Total GULP energy -297375.332363 kJ/mol
# GULP energy per Si atom -12390.638848 kJ/mol
# Density = 2.290043 g / cm^3
# Si number density = 22.952671 Si / 1000 Ang^3
#
#
#
# Elastic Constant Matrix: (Units=GPa)
#
#
# Indices 1 2 3 4 5 6 
#
# 1 105.6303 0.8310 20.5558 0.0000 -33.0934 0.0000
# 2 0.8310 108.5165 29.3918 0.0000 -14.4944 0.0000
# 3 20.5558 29.3918 56.2635 0.0000 -13.1036 0.0000
# 4 0.0000 0.0000 0.0000 19.5501 0.0000 -2.4998
# 5 -33.0934 -14.4944 -13.1036 0.0000 52.6285 0.0000
# 6 0.0000 0.0000 0.0000 -2.4998 0.0000 18.0749
#
#
#
# Elastic Compliance Matrix: (Units=1/GPa)
#
#
# Indices 1 2 3 4 5 6 
#
# 1 0.012540 0.001946 -0.003861 0.000000 0.007460 0.000000
# 2 0.001946 0.011174 -0.005888 0.000000 0.002835 0.000000
# 3 -0.003861 -0.005888 0.022629 0.000000 0.001585 0.000000
# 4 0.000000 0.000000 0.000000 0.052071 0.000000 0.007202
# 5 0.007460 0.002835 0.001585 0.000000 0.024868 0.000000
# 6 0.000000 0.000000 0.000000 0.007202 0.000000 0.056321
#
#
# Mechanical properties :
#
#
# Convention : Reuss Voigt Hill
#
# Bulk Modulus (GPa) = 32.53312 41.32971 36.93141
# Shear Modulus (GPa) = 24.33636 32.69284 28.51460
#
# Velocity S-wave (km/s) = 3.25973 3.77816 3.52848
# Velocity P-wave (km/s) = 5.32659 6.08919 5.72061
#
# Compressibility (1/GPa) = 0.03073791
#
# Stress axis : x y z
#
# Youngs Moduli (GPa) = 79.74358 89.49601 44.19125
#
# Poissons Ratio (x) = -0.17417 0.17061
# Poissons Ratio (y) = -0.15519 0.26019
# Poissons Ratio (z) = 0.30787 0.52693
#
# Static dielectric constant tensor:
#      x y z
#    x 4.724120 0.000000 -0.527760 
#    y 0.000000 3.946150 0.000000 
#    z -0.527760 0.000000 4.182880 
# 
# 
# High freq. dielectric constant tensor:
#      x y z
#    x 1.929270 0.000000 -0.019550 
#    y 0.000000 1.877680 0.000000 
#    z -0.019550 0.000000 1.896360 
# 
# From -- ./inp_files/116271.got.cif
#   From: 2010.06.25/outbox.cif.g09.slc.cpg/sg15_59_cif.got.tgz:116271.got - 2010.06.28 07:06:18.
