data_PCOD8150401
_publ_section_title
;
Structure prediction by ZEFSAII (Michael W. Deem and Ramdas Pophale) SiO2 
 PCOD8150401
Probable space group: C 2/C
;
_chemical_formula_sum "Si O2"
_cell_formula_units_Z 36
_cell_length_a 5.289317
_cell_length_b 28.383907
_cell_length_c 12.384487
_cell_angle_alpha 90.000000
_cell_angle_beta 55.302519
_cell_angle_gamma 90.000000
_cell_volume 1528.660088
_symmetry_space_group_name_H-M "C 2/C"
_symmetry_group_IT_number 15
_symmetry_cell_setting 'monoclinic'
loop_
_space_group_symop_operation_xyz
x,y,z
-x,y,1/2-z
-x,-y,-z
x,-y,1/2+z
1/2+x,1/2+y,z
1/2-x,1/2+y,1/2-z
1/2-x,1/2-y,-z
1/2+x,1/2-y,1/2+z
loop_
_atom_site_type_symbol
_atom_site_label
_atom_site_fract_x
_atom_site_fract_y
_atom_site_fract_z
Si Si1 0.243231 0.305635 0.999229
Si Si2 0.000000 0.643116 0.750000
Si Si3 0.013241 0.926301 0.437595
Si Si4 0.109508 0.648487 0.103813
Si Si5 0.336663 0.522201 0.400295
O O1 0.989207 0.324300 0.146017
O O2 0.250000 0.250000 0.000000
O O3 0.570772 0.323472 0.962573
O O4 0.143797 0.322931 0.903736
O O5 0.293852 0.609214 0.682509
O O6 0.138933 0.931808 0.529739
O O7 0.671757 0.902759 0.531895
O O8 0.050008 0.977834 0.379210
O O9 0.000000 0.638897 0.250000
O O10 0.500000 0.538939 0.250000
O O11 0.000000 0.500000 0.500000
#
# Coordination Sequence:
#
# PCOD8150401 Si02
#       5
#     8   4   8   8   8
#     4  11  26  47  73 108 138 192 237 311 378 446
#     4  10  24  46  74  98 146 184 248 302 376 452
#     4  10  25  42  64 107 134 191 243 297 371 435
#     4  11  26  44  74 102 146 185 240 302 364 455
#     4  11  25  41  71  97 148 190 248 312 364 452
#
# _framework density 23.550035999999999
#
# number of rings (size 3 to 8) (size 9 to 14) (size 15 to 20)
#    0.000    1.333    0.000    2.667   15.556    4.444 
#    0.000    0.000    0.000    0.000    0.000    0.000 
#    0.000    0.000    0.000    0.000    0.000    0.000 
#
# Total GULP energy -223013.460713 kJ/mol
# GULP energy per Si atom -12389.636706 kJ/mol
# Density = 2.349644 g / cm^3
# Si number density = 23.550036 Si / 1000 Ang^3
#
#
#
# Elastic Constant Matrix: (Units=GPa)
#
#
# Indices 1 2 3 4 5 6 
#
# 1 72.4758 -6.0282 -0.4622 0.0000 6.2070 0.0000
# 2 -6.0282 93.8834 11.4759 0.0000 2.1773 0.0000
# 3 -0.4622 11.4759 125.4980 0.0000 -7.1382 0.0000
# 4 0.0000 0.0000 0.0000 37.6817 0.0000 8.8904
# 5 6.2070 2.1773 -7.1382 0.0000 33.0316 0.0000
# 6 0.0000 0.0000 0.0000 8.8904 0.0000 28.2879
#
#
#
# Elastic Compliance Matrix: (Units=1/GPa)
#
#
# Indices 1 2 3 4 5 6 
#
# 1 0.014116 0.000994 -0.000196 0.000000 -0.002760 0.000000
# 2 0.000994 0.010871 -0.001055 0.000000 -0.001131 0.000000
# 3 -0.000196 -0.001055 0.008170 0.000000 0.001872 0.000000
# 4 0.000000 0.000000 0.000000 0.028664 0.000000 -0.009008
# 5 -0.002760 -0.001131 0.001872 0.000000 0.031272 0.000000
# 6 0.000000 0.000000 0.000000 -0.009008 0.000000 0.038182
#
#
# Mechanical properties :
#
#
# Convention : Reuss Voigt Hill
#
# Bulk Modulus (GPa) = 30.63364 33.53648 32.08506
# Shear Modulus (GPa) = 35.04642 38.92501 36.98571
#
# Velocity S-wave (km/s) = 3.86186 4.06995 3.96727
# Velocity P-wave (km/s) = 5.73772 6.02972 5.88553
#
# Compressibility (1/GPa) = 0.03264385
#
# Stress axis : x y z
#
# Youngs Moduli (GPa) = 70.84373 91.99197 122.39214
#
# Poissons Ratio (x) = -0.09147 0.02398
# Poissons Ratio (y) = -0.07044 0.12909
# Poissons Ratio (z) = 0.01388 0.09703
#
# Static dielectric constant tensor:
#      x y z
#    x 4.312330 0.000000 0.073010 
#    y 0.000000 4.622010 0.000000 
#    z 0.073010 0.000000 4.795120 
# 
# 
# High freq. dielectric constant tensor:
#      x y z
#    x 1.919290 0.000000 -0.000570 
#    y 0.000000 1.944280 0.000000 
#    z -0.000570 0.000000 1.948040 
# 
# From -- ./inp_files/73554.got.cif
#   From: 2010.06.25/outbox.cif.g09.slc.cpg/sg15_37_cif.got.tgz:73554.got - 2010.06.28 07:06:18.
