data_PCOD8150412
_publ_section_title
;
Structure prediction by ZEFSAII (Michael W. Deem and Ramdas Pophale) SiO2 
 PCOD8150412
Probable space group: C 2/C
;
_chemical_formula_sum "Si O2"
_cell_formula_units_Z 44
_cell_length_a 32.282289
_cell_length_b 7.624060
_cell_length_c 8.523958
_cell_angle_alpha 90.000000
_cell_angle_beta 71.726326
_cell_angle_gamma 90.000000
_cell_volume 1992.134940
_symmetry_space_group_name_H-M "C 2/C"
_symmetry_group_IT_number 15
_symmetry_cell_setting 'monoclinic'
loop_
_space_group_symop_operation_xyz
x,y,z
-x,y,1/2-z
-x,-y,-z
x,-y,1/2+z
1/2+x,1/2+y,z
1/2-x,1/2+y,1/2-z
1/2-x,1/2-y,-z
1/2+x,1/2-y,1/2+z
loop_
_atom_site_type_symbol
_atom_site_label
_atom_site_fract_x
_atom_site_fract_y
_atom_site_fract_z
Si Si1 0.121786 0.381823 0.980105
Si Si2 0.204368 0.765239 0.258342
Si Si3 0.384074 0.235202 0.655509
Si Si4 0.799521 0.870491 0.593397
Si Si5 0.062435 0.908317 0.423679
Si Si6 0.000000 0.010799 0.750000
O O1 0.172032 0.386918 0.859557
O O2 0.100698 0.572323 0.972224
O O3 0.099642 0.234378 0.897718
O O4 0.117130 0.331284 0.165404
O O5 0.253153 0.695920 0.208896
O O6 0.198915 0.921021 0.389689
O O7 0.191538 0.824333 0.098055
O O8 0.335928 0.288485 0.660842
O O9 0.417539 0.395428 0.597859
O O10 0.025596 0.885126 0.599927
O O11 0.036923 0.872160 0.291577
#
# Coordination Sequence:
#
# PCOD8150412 Si02
#       6
#     8   8   8   8   8   4
#     4  12  26  43  71 103 139 185 232 282 346 413
#     4  11  24  41  64  97 139 184 233 285 337 401
#     4  12  26  43  71 103 139 185 232 282 346 413
#     4  11  24  41  64  97 139 184 233 285 337 401
#     4  11  24  48  72 104 138 180 226 286 354 415
#     4  10  24  46  78  98 138 178 224 290 354 420
#
# _framework density 22.086857999999999
#
# number of rings (size 3 to 8) (size 9 to 14) (size 15 to 20)
#    0.000    0.727    3.636    3.273    5.091    5.818 
#    0.000    5.455    0.000    0.000    0.000    0.000 
#    0.000    0.000    0.000    0.000    0.000    0.000 
#
# Total GULP energy -272829.347094 kJ/mol
# GULP energy per Si atom -12401.333959 kJ/mol
# Density = 2.203659 g / cm^3
# Si number density = 22.086858 Si / 1000 Ang^3
#
#
#
# Elastic Constant Matrix: (Units=GPa)
#
#
# Indices 1 2 3 4 5 6 
#
# 1 132.6411 42.4776 37.9672 0.0000 17.8905 0.0000
# 2 42.4776 119.3016 21.7869 0.0000 1.0955 0.0000
# 3 37.9672 21.7869 65.9043 0.0000 -0.9371 0.0000
# 4 0.0000 0.0000 0.0000 29.9418 0.0000 4.3493
# 5 17.8905 1.0955 -0.9371 0.0000 36.2584 0.0000
# 6 0.0000 0.0000 0.0000 4.3493 0.0000 10.7773
#
#
#
# Elastic Compliance Matrix: (Units=1/GPa)
#
#
# Indices 1 2 3 4 5 6 
#
# 1 0.010663 -0.002780 -0.005300 0.000000 -0.005314 0.000000
# 2 -0.002780 0.009650 -0.001574 0.000000 0.001039 0.000000
# 3 -0.005300 -0.001574 0.018792 0.000000 0.003148 0.000000
# 4 0.000000 0.000000 0.000000 0.035478 0.000000 -0.014317
# 5 -0.005314 0.001039 0.003148 0.000000 0.030252 0.000000
# 6 0.000000 0.000000 0.000000 -0.014317 0.000000 0.098565
#
#
# Mechanical properties :
#
#
# Convention : Reuss Voigt Hill
#
# Bulk Modulus (GPa) = 50.51029 58.03449 54.27239
# Shear Modulus (GPa) = 21.80496 29.76985 25.78740
#
# Velocity S-wave (km/s) = 3.14544 3.67530 3.42064
# Velocity P-wave (km/s) = 6.00919 6.65905 6.34245
#
# Compressibility (1/GPa) = 0.01979795
#
# Stress axis : x y z
#
# Youngs Moduli (GPa) = 93.78067 103.62899 53.21532
#
# Poissons Ratio (x) = 0.28809 0.28202
# Poissons Ratio (y) = 0.26071 0.08375
# Poissons Ratio (z) = 0.49700 0.16308
#
# Static dielectric constant tensor:
#      x y z
#    x 4.296760 0.000000 0.191640 
#    y 0.000000 3.992260 0.000000 
#    z 0.191640 0.000000 4.005760 
# 
# 
# High freq. dielectric constant tensor:
#      x y z
#    x 1.883900 0.000000 0.007650 
#    y 0.000000 1.856590 0.000000 
#    z 0.007650 0.000000 1.881570 
# 
# From -- ./inp_files/68296.got.cif
#   From: 2010.06.25/outbox.cif.g09.slc.cpg/sg15_35_cif.got.tgz:68296.got - 2010.06.28 07:06:18.
