data_PCOD8150899
_publ_section_title
;
Structure prediction by ZEFSAII (Michael W. Deem and Ramdas Pophale) SiO2 
 PCOD8150899
Probable space group: C 2/C
;
_chemical_formula_sum "Si O2"
_cell_formula_units_Z 52
_cell_length_a 8.151098
_cell_length_b 14.671076
_cell_length_c 25.308609
_cell_angle_alpha 90.000000
_cell_angle_beta 53.135276
_cell_angle_gamma 90.000000
_cell_volume 2421.395627
_symmetry_space_group_name_H-M "C 2/C"
_symmetry_group_IT_number 15
_symmetry_cell_setting 'monoclinic'
loop_
_space_group_symop_operation_xyz
x,y,z
-x,y,1/2-z
-x,-y,-z
x,-y,1/2+z
1/2+x,1/2+y,z
1/2-x,1/2+y,1/2-z
1/2-x,1/2-y,-z
1/2+x,1/2-y,1/2+z
loop_
_atom_site_type_symbol
_atom_site_label
_atom_site_fract_x
_atom_site_fract_y
_atom_site_fract_z
Si Si1 0.500000 0.763177 0.750000
Si Si2 0.068474 0.819725 0.851957
Si Si3 0.628294 0.687215 0.462320
Si Si4 0.265240 0.472236 0.908516
Si Si5 0.550173 0.668847 0.629158
Si Si6 0.668304 0.005050 0.043603
Si Si7 0.246218 0.665607 0.598530
O O1 0.295349 0.824107 0.782518
O O2 0.519292 0.702816 0.694215
O O3 0.090750 0.835797 0.909293
O O4 0.964191 0.722170 0.860345
O O5 0.932373 0.900987 0.854269
O O6 0.801845 0.765047 0.434366
O O7 0.686401 0.592609 0.479612
O O8 0.414409 0.718959 0.530054
O O9 0.340256 0.573622 0.886116
O O10 0.064631 0.458897 0.911222
O O11 0.215568 0.452801 0.979709
O O12 0.332927 0.658548 0.641460
O O13 0.702977 0.935628 0.085112
#
# Coordination Sequence:
#
# PCOD8150899 Si02
#       7
#     4   8   8   8   8   8   8
#     4  10  26  50  62  86 118 180 224 276 298 374
#     4  11  24  42  67  90 131 167 220 256 323 368
#     4  11  21  38  62 100 135 165 198 262 318 394
#     4  11  23  39  64  99 131 174 199 267 315 395
#     4  11  24  42  67  91 133 167 220 255 319 369
#     4  11  22  36  63 104 144 156 203 247 342 393
#     4  12  22  38  65 101 129 168 201 266 322 393
#
# _framework density 21.475218999999999
#
# number of rings (size 3 to 8) (size 9 to 14) (size 15 to 20)
#    0.000    0.923    3.077    5.077    4.308    0.615 
#    0.000    9.231    0.000    0.000    0.000    0.000 
#    0.000    0.000    0.000    0.000    0.000    0.000 
#
# Total GULP energy -322506.765367 kJ/mol
# GULP energy per Si atom -12404.106360 kJ/mol
# Density = 2.142634 g / cm^3
# Si number density = 21.475219 Si / 1000 Ang^3
#
#
#
# Elastic Constant Matrix: (Units=GPa)
#
#
# Indices 1 2 3 4 5 6 
#
# 1 113.3899 25.2417 33.2863 0.0002 -22.8083 -0.0002
# 2 25.2417 92.3734 15.8237 0.0002 -16.5504 -0.0002
# 3 33.2863 15.8237 83.4218 0.0006 -21.4683 -0.0004
# 4 0.0002 0.0002 0.0006 17.3549 -0.0003 -3.9276
# 5 -22.8083 -16.5504 -21.4683 -0.0003 39.3279 0.0002
# 6 -0.0002 -0.0002 -0.0004 -3.9276 0.0002 41.6394
#
#
#
# Elastic Compliance Matrix: (Units=1/GPa)
#
#
# Indices 1 2 3 4 5 6 
#
# 1 0.010881 -0.001755 -0.002996 0.000000 0.003937 0.000000
# 2 -0.001755 0.012080 -0.000634 0.000000 0.003720 0.000000
# 3 -0.002996 -0.000634 0.014877 0.000000 0.006117 0.000000
# 4 0.000000 0.000000 0.000000 0.058878 0.000000 0.005554
# 5 0.003937 0.003720 0.006117 0.000000 0.032615 0.000000
# 6 0.000000 0.000000 0.000000 0.005554 0.000000 0.024540
#
#
# Mechanical properties :
#
#
# Convention : Reuss Voigt Hill
#
# Bulk Modulus (GPa) = 36.94200 48.65426 42.79813
# Shear Modulus (GPa) = 28.79151 33.98666 31.38908
#
# Velocity S-wave (km/s) = 3.66551 3.98250 3.82729
# Velocity P-wave (km/s) = 5.92909 6.62211 6.28516
#
# Compressibility (1/GPa) = 0.02706946
#
# Stress axis : x y z
#
# Youngs Moduli (GPa) = 91.90295 82.77984 67.21779
#
# Poissons Ratio (x) = 0.14526 0.20137
# Poissons Ratio (y) = 0.16127 0.04261
# Poissons Ratio (z) = 0.27531 0.05247
#
# Static dielectric constant tensor:
#      x y z
#    x 4.250160 0.000000 -0.200400 
#    y 0.000000 3.722920 0.000000 
#    z -0.200400 0.000000 3.812010 
# 
# 
# High freq. dielectric constant tensor:
#      x y z
#    x 1.870530 0.000000 -0.009400 
#    y 0.000000 1.840480 0.000000 
#    z -0.009400 0.000000 1.810680 
# 
# From -- ./inp_files/307728.got.cif
#   From: 2010.06.25/outbox.cif.g09.slc.cpg/sg15_154_cif.got.tgz:307728.got - 2010.06.28 07:06:18.
