data_PCOD8150241
_publ_section_title
;
Structure prediction by ZEFSAII (Michael W. Deem and Ramdas Pophale) SiO2 
 PCOD8150241
Probable space group: C 2/C
;
_chemical_formula_sum "Si O2"
_cell_formula_units_Z 48
_cell_length_a 25.463785
_cell_length_b 10.733967
_cell_length_c 8.955677
_cell_angle_alpha 90.000000
_cell_angle_beta 65.184091
_cell_angle_gamma 90.000000
_cell_volume 2221.801728
_symmetry_space_group_name_H-M "C 2/C"
_symmetry_group_IT_number 15
_symmetry_cell_setting 'monoclinic'
loop_
_space_group_symop_operation_xyz
x,y,z
-x,y,1/2-z
-x,-y,-z
x,-y,1/2+z
1/2+x,1/2+y,z
1/2-x,1/2+y,1/2-z
1/2-x,1/2-y,-z
1/2+x,1/2-y,1/2+z
loop_
_atom_site_type_symbol
_atom_site_label
_atom_site_fract_x
_atom_site_fract_y
_atom_site_fract_z
Si Si1 0.141353 0.619472 0.775553
Si Si2 0.375306 0.502969 0.362885
Si Si3 0.915015 0.828715 0.065116
Si Si4 0.488910 0.870396 0.092591
Si Si5 0.172939 0.623433 0.397612
Si Si6 0.693183 0.640831 0.307259
O O1 0.076701 0.675720 0.849584
O O2 0.167690 0.606253 0.580164
O O3 0.138321 0.486611 0.858437
O O4 0.181068 0.711402 0.826387
O O5 0.414092 0.413060 0.214170
O O6 0.418888 0.585650 0.411770
O O7 0.334508 0.590207 0.312181
O O8 0.333111 0.423215 0.516823
O O9 0.855218 0.752104 0.124274
O O10 0.970183 0.739662 0.015623
O O11 0.500000 0.898297 0.250000
O O12 0.500000 0.000000 0.000000
O O13 0.238912 0.618297 0.269639
#
# Coordination Sequence:
#
# PCOD8150241 Si02
#       6
#     8   8   8   8   8   8
#     4  12  25  43  67 103 133 180 226 280 342 395
#     4  10  24  45  67  98 138 182 222 270 339 414
#     4  11  24  45  69  98 138 179 226 276 338 399
#     4  12  23  45  70 101 139 174 226 288 332 394
#     4  12  25  41  69  99 138 176 226 284 338 399
#     4  11  24  43  66  98 138 180 227 276 338 408
#
# _framework density 21.604088000000001
#
# number of rings (size 3 to 8) (size 9 to 14) (size 15 to 20)
#    0.000    0.667    5.000    1.500    7.000    2.000 
#    0.000    9.167    0.000    0.000    0.000    0.000 
#    0.000    0.000    0.000    0.000    0.000    0.000 
#
# Total GULP energy -297757.719119 kJ/mol
# GULP energy per Si atom -12406.571630 kJ/mol
# Density = 2.155492 g / cm^3
# Si number density = 21.604088 Si / 1000 Ang^3
#
#
#
# Elastic Constant Matrix: (Units=GPa)
#
#
# Indices 1 2 3 4 5 6 
#
# 1 105.2983 39.3285 41.0173 0.0000 -18.4470 0.0000
# 2 39.3285 132.5390 58.5728 0.0000 2.8212 0.0000
# 3 41.0173 58.5728 101.8802 0.0000 1.1683 0.0000
# 4 0.0000 0.0000 0.0000 61.7411 0.0000 -0.7487
# 5 -18.4470 2.8212 1.1683 0.0000 22.5074 0.0000
# 6 0.0000 0.0000 0.0000 -0.7487 0.0000 34.7629
#
#
#
# Elastic Compliance Matrix: (Units=1/GPa)
#
#
# Indices 1 2 3 4 5 6 
#
# 1 0.014337 -0.002551 -0.004446 0.000000 0.012301 0.000000
# 2 -0.002551 0.010590 -0.005025 0.000000 -0.003157 0.000000
# 3 -0.004446 -0.005025 0.014538 0.000000 -0.003769 0.000000
# 4 0.000000 0.000000 0.000000 0.016201 0.000000 0.000349
# 5 0.012301 -0.003157 -0.003769 0.000000 0.055103 0.000000
# 6 0.000000 0.000000 0.000000 0.000349 0.000000 0.028774
#
#
# Mechanical properties :
#
#
# Convention : Reuss Voigt Hill
#
# Bulk Modulus (GPa) = 64.85352 68.61716 66.73534
# Shear Modulus (GPa) = 29.63379 37.18888 33.41134
#
# Velocity S-wave (km/s) = 3.70763 4.15345 3.93686
# Velocity P-wave (km/s) = 6.95794 7.40484 7.18487
#
# Compressibility (1/GPa) = 0.01541936
#
# Stress axis : x y z
#
# Youngs Moduli (GPa) = 69.75172 94.43031 68.78613
#
# Poissons Ratio (x) = 0.24089 0.30585
# Poissons Ratio (y) = 0.17793 0.34565
# Poissons Ratio (z) = 0.31015 0.47452
#
# Static dielectric constant tensor:
#      x y z
#    x 3.868690 0.000000 0.027930 
#    y 0.000000 4.137820 0.000000 
#    z 0.027930 0.000000 3.939760 
# 
# 
# High freq. dielectric constant tensor:
#      x y z
#    x 1.847210 0.000000 -0.000440 
#    y 0.000000 1.865090 0.000000 
#    z -0.000440 0.000000 1.857240 
# 
# From -- ./inp_files/60665.got.cif
#   From: 2010.06.25/outbox.cif.g09.slc.cpg/sg15_31_cif.got.tgz:60665.got - 2010.06.28 07:06:18.
