data_PCOD8150167
_publ_section_title
;
Structure prediction by ZEFSAII (Michael W. Deem and Ramdas Pophale) SiO2 
 PCOD8150167
Probable space group: C 2/C
;
_chemical_formula_sum "Si O2"
_cell_formula_units_Z 48
_cell_length_a 14.262536
_cell_length_b 12.416338
_cell_length_c 14.011981
_cell_angle_alpha 90.000000
_cell_angle_beta 53.469191
_cell_angle_gamma 90.000000
_cell_volume 1993.864512
_symmetry_space_group_name_H-M "C 2/C"
_symmetry_group_IT_number 15
_symmetry_cell_setting 'monoclinic'
loop_
_space_group_symop_operation_xyz
x,y,z
-x,y,1/2-z
-x,-y,-z
x,-y,1/2+z
1/2+x,1/2+y,z
1/2-x,1/2+y,1/2-z
1/2-x,1/2-y,-z
1/2+x,1/2-y,1/2+z
loop_
_atom_site_type_symbol
_atom_site_label
_atom_site_fract_x
_atom_site_fract_y
_atom_site_fract_z
Si Si1 0.803049 0.188454 0.319466
Si Si2 0.000000 0.887249 0.250000
Si Si3 0.449582 0.965841 0.931666
Si Si4 0.602130 0.414627 0.926619
Si Si5 0.792903 0.002147 0.464166
Si Si6 0.060522 0.249425 0.877563
Si Si7 0.500000 0.144449 0.750000
O O1 0.848867 0.104875 0.210142
O O2 0.677839 0.239464 0.368424
O O3 0.893846 0.284728 0.275715
O O4 0.790191 0.126702 0.429379
O O5 0.920038 0.960512 0.362361
O O6 0.915116 0.820290 0.231486
O O7 0.521477 0.862781 0.855348
O O8 0.452491 0.068248 0.861215
O O9 0.312117 0.937896 0.023326
O O10 0.500000 0.000000 0.000000
O O11 0.500000 0.500000 0.000000
O O12 0.709906 0.470594 0.920827
O O13 0.547896 0.300456 0.996036
#
# Coordination Sequence:
#
# PCOD8150167 Si02
#       7
#     8   4   8   8   8   8   4
#     4  12  26  48  76 109 148 197 251 311 373 448
#     4  10  24  44  70 104 140 192 240 304 366 442
#     4  12  27  47  70 110 150 192 243 310 375 440
#     4  11  26  47  77 110 149 198 250 308 373 446
#     4  11  26  46  76 104 150 190 250 306 372 445
#     4  11  26  44  73 107 148 192 251 301 377 445
#     4  12  30  46  76 108 152 196 254 304 376 444
#
# _framework density 24.073853
#
# number of rings (size 3 to 8) (size 9 to 14) (size 15 to 20)
#    0.000    0.667    1.667    5.000   11.667    2.000 
#    0.000    0.000    0.000    0.000    0.000    0.000 
#    0.000    0.000    0.000    0.000    0.000    0.000 
#
# Total GULP energy -297419.484458 kJ/mol
# GULP energy per Si atom -12392.478519 kJ/mol
# Density = 2.401906 g / cm^3
# Si number density = 24.073853 Si / 1000 Ang^3
#
#
#
# Elastic Constant Matrix: (Units=GPa)
#
#
# Indices 1 2 3 4 5 6 
#
# 1 175.1113 52.4992 19.2398 0.0000 -0.8652 0.0000
# 2 52.4992 110.5105 13.1266 0.0000 5.0583 0.0000
# 3 19.2398 13.1266 61.5022 0.0000 12.5751 0.0000
# 4 0.0000 0.0000 0.0000 36.2579 0.0000 12.3958
# 5 -0.8652 5.0583 12.5751 0.0000 39.5073 0.0000
# 6 0.0000 0.0000 0.0000 12.3958 0.0000 49.1479
#
#
#
# Elastic Compliance Matrix: (Units=1/GPa)
#
#
# Indices 1 2 3 4 5 6 
#
# 1 0.006830 -0.003093 -0.001699 0.000000 0.001086 0.000000
# 2 -0.003093 0.010698 -0.001093 0.000000 -0.001090 0.000000
# 3 -0.001699 -0.001093 0.018187 0.000000 -0.005686 0.000000
# 4 0.000000 0.000000 0.000000 0.030183 0.000000 -0.007613
# 5 0.001086 -0.001090 -0.005686 0.000000 0.027285 0.000000
# 6 0.000000 0.000000 0.000000 -0.007613 0.000000 0.022267
#
#
# Mechanical properties :
#
#
# Convention : Reuss Voigt Hill
#
# Bulk Modulus (GPa) = 41.76053 57.42834 49.59444
# Shear Modulus (GPa) = 36.98245 42.46651 39.72448
#
# Velocity S-wave (km/s) = 3.92370 4.20457 4.06656
# Velocity P-wave (km/s) = 6.15725 6.89043 6.53413
#
# Compressibility (1/GPa) = 0.02394605
#
# Stress axis : x y z
#
# Youngs Moduli (GPa) = 146.41711 93.47752 54.98473
#
# Poissons Ratio (x) = 0.28908 0.09340
# Poissons Ratio (y) = 0.45280 0.06010
# Poissons Ratio (z) = 0.24871 0.10218
#
# Static dielectric constant tensor:
#      x y z
#    x 4.877590 0.000000 0.143100 
#    y 0.000000 3.120860 0.000000 
#    z 0.143100 0.000000 4.602230 
# 
# 
# High freq. dielectric constant tensor:
#      x y z
#    x 1.979780 0.000000 0.006140 
#    y 0.000000 1.960310 0.000000 
#    z 0.006140 0.000000 1.947990 
# 
# From -- ./inp_files/152505.got.cif
#   From: 2010.06.25/outbox.cif.g09.slc.cpg/sg15_77_cif.got.tgz:152505.got - 2010.06.28 07:06:18.
