data_PCOD8150545
_publ_section_title
;
Structure prediction by ZEFSAII (Michael W. Deem and Ramdas Pophale) SiO2 
 PCOD8150545
Probable space group: C 2/C
;
_chemical_formula_sum "Si O2"
_cell_formula_units_Z 44
_cell_length_a 18.797324
_cell_length_b 11.369993
_cell_length_c 9.271512
_cell_angle_alpha 90.000000
_cell_angle_beta 111.463245
_cell_angle_gamma 90.000000
_cell_volume 1844.141881
_symmetry_space_group_name_H-M "C 2/C"
_symmetry_group_IT_number 15
_symmetry_cell_setting 'monoclinic'
loop_
_space_group_symop_operation_xyz
x,y,z
-x,y,1/2-z
-x,-y,-z
x,-y,1/2+z
1/2+x,1/2+y,z
1/2-x,1/2+y,1/2-z
1/2-x,1/2-y,-z
1/2+x,1/2-y,1/2+z
loop_
_atom_site_type_symbol
_atom_site_label
_atom_site_fract_x
_atom_site_fract_y
_atom_site_fract_z
Si Si1 0.500000 0.781243 0.250000
Si Si2 0.921405 0.475249 0.023182
Si Si3 0.629800 0.645221 0.691465
Si Si4 0.331755 0.476868 0.015454
Si Si5 0.529274 0.367703 0.507090
Si Si6 0.166264 0.607032 0.309723
O O1 0.432942 0.859545 0.129417
O O2 0.458035 0.699499 0.334416
O O3 0.896062 0.582208 0.109693
O O4 0.856292 0.455046 0.856668
O O5 0.000000 0.500000 0.000000
O O6 0.647387 0.604112 0.538857
O O7 0.541155 0.689901 0.635870
O O8 0.678843 0.754614 0.786626
O O9 0.651919 0.526939 0.799749
O O10 0.388433 0.370055 0.007877
O O11 0.245109 0.448031 0.918278
O O12 0.500000 0.500000 0.500000
#
# Coordination Sequence:
#
# PCOD8150545 Si02
#       6
#     4   8   8   8   8   8
#     4  12  24  46  72 106 138 186 244 294 342 418
#     4  12  26  46  73 105 139 188 244 289 351 431
#     4  11  25  45  71 103 142 194 234 299 354 427
#     4  11  26  44  69 105 148 183 239 291 364 430
#     4  10  25  41  71  99 138 182 243 276 351 423
#     4  12  26  47  71 108 145 185 239 301 364 418
#
# _framework density 23.859334
#
# number of rings (size 3 to 8) (size 9 to 14) (size 15 to 20)
#    0.000    0.727    3.636    2.182   12.727    2.909 
#    0.000    2.727    0.000    0.000    0.000    0.000 
#    0.000    0.000    0.000    0.000    0.000    0.000 
#
# Total GULP energy -272685.900884 kJ/mol
# GULP energy per Si atom -12394.813677 kJ/mol
# Density = 2.380503 g / cm^3
# Si number density = 23.859334 Si / 1000 Ang^3
#
#
#
# Elastic Constant Matrix: (Units=GPa)
#
#
# Indices 1 2 3 4 5 6 
#
# 1 100.5231 16.1366 23.2521 0.0000 16.2065 0.0000
# 2 16.1366 94.9860 24.1463 0.0000 -16.9674 0.0000
# 3 23.2521 24.1463 125.8867 0.0000 5.8361 0.0000
# 4 0.0000 0.0000 0.0000 51.2646 0.0000 -7.2813
# 5 16.2065 -16.9674 5.8361 0.0000 30.1630 0.0000
# 6 0.0000 0.0000 0.0000 -7.2813 0.0000 21.7773
#
#
#
# Elastic Compliance Matrix: (Units=1/GPa)
#
#
# Indices 1 2 3 4 5 6 
#
# 1 0.012033 -0.003156 -0.001246 0.000000 -0.007999 0.000000
# 2 -0.003156 0.013421 -0.002442 0.000000 0.009718 0.000000
# 3 -0.001246 -0.002442 0.008753 0.000000 -0.002398 0.000000
# 4 0.000000 0.000000 0.000000 0.020479 0.000000 0.006847
# 5 -0.007999 0.009718 -0.002398 0.000000 0.043382 0.000000
# 6 0.000000 0.000000 0.000000 0.006847 0.000000 0.048209
#
#
# Mechanical properties :
#
#
# Convention : Reuss Voigt Hill
#
# Bulk Modulus (GPa) = 48.73754 49.82954 49.28354
# Shear Modulus (GPa) = 29.97524 37.83168 33.90346
#
# Velocity S-wave (km/s) = 3.54832 3.98630 3.77367
# Velocity P-wave (km/s) = 6.10400 6.48980 6.29985
#
# Compressibility (1/GPa) = 0.02051807
#
# Stress axis : x y z
#
# Youngs Moduli (GPa) = 83.10767 74.51189 114.24204
#
# Poissons Ratio (x) = 0.23518 0.14237
# Poissons Ratio (y) = 0.26231 0.27895
# Poissons Ratio (z) = 0.10357 0.18194
#
# Static dielectric constant tensor:
#      x y z
#    x 4.649480 0.000000 0.146500 
#    y 0.000000 4.279020 0.000000 
#    z 0.146500 0.000000 4.882530 
# 
# 
# High freq. dielectric constant tensor:
#      x y z
#    x 1.932570 0.000000 0.008310 
#    y 0.000000 1.930530 0.000000 
#    z 0.008310 0.000000 1.972270 
# 
# From -- ./inp_files/54526.got.cif
#   From: 2010.06.25/outbox.cif.g09.slc.cpg/sg15_28_cif.got.tgz:54526.got - 2010.06.28 07:06:18.
