data_PCOD8150117
_publ_section_title
;
Structure prediction by ZEFSAII (Michael W. Deem and Ramdas Pophale) SiO2 
 PCOD8150117
Probable space group: C 2/C
;
_chemical_formula_sum "Si O2"
_cell_formula_units_Z 60
_cell_length_a 26.729416
_cell_length_b 22.879163
_cell_length_c 14.981670
_cell_angle_alpha 90.000000
_cell_angle_beta 162.116135
_cell_angle_gamma 90.000000
_cell_volume 2813.543043
_symmetry_space_group_name_H-M "C 2/C"
_symmetry_group_IT_number 15
_symmetry_cell_setting 'monoclinic'
loop_
_space_group_symop_operation_xyz
x,y,z
-x,y,1/2-z
-x,-y,-z
x,-y,1/2+z
1/2+x,1/2+y,z
1/2-x,1/2+y,1/2-z
1/2-x,1/2-y,-z
1/2+x,1/2-y,1/2+z
loop_
_atom_site_type_symbol
_atom_site_label
_atom_site_fract_x
_atom_site_fract_y
_atom_site_fract_z
Si Si1 0.072933 0.265711 0.052113
Si Si2 0.331196 0.478993 0.753552
Si Si3 0.500000 0.286157 0.250000
Si Si4 0.345288 0.644198 0.041242
Si Si5 0.550467 0.641913 0.084547
Si Si6 0.819415 0.970838 0.425555
Si Si7 0.243692 0.339258 0.951225
Si Si8 0.342661 0.033122 0.202426
O O1 0.209551 0.307063 0.323024
O O2 0.119678 0.205378 0.179981
O O3 0.089196 0.255521 0.973257
O O4 0.885655 0.286450 0.753798
O O5 0.347820 0.408872 0.795273
O O6 0.281711 0.507407 0.763206
O O7 0.193568 0.503039 0.453896
O O8 0.500000 0.500000 0.000000
O O9 0.636061 0.325227 0.428565
O O10 0.500000 0.669340 0.250000
O O11 0.422600 0.625202 0.267083
O O12 0.237377 0.591472 0.811762
O O13 0.358881 0.644710 0.731776
O O14 0.793235 0.021529 0.453278
O O15 0.000000 0.948750 0.750000
O O16 0.134458 0.397285 0.755775
O O17 0.500000 0.000000 0.500000
#
# Coordination Sequence:
#
# PCOD8150117 Si02
#       8
#     8   8   4   8   8   8   8   8
#     4  11  26  43  68 101 140 176 227 289 343 400
#     4  12  22  42  72  98 132 178 225 281 339 414
#     4  10  24  44  68 100 126 182 232 272 334 418
#     4  11  24  41  69  98 136 179 229 280 342 412
#     4  11  22  44  67  97 132 181 225 279 342 409
#     4  11  22  40  69  99 126 175 229 268 336 415
#     4  11  25  42  73  96 137 178 229 281 343 411
#     4  12  26  43  67 101 141 174 220 290 346 399
#
# _framework density 21.325424000000002
#
# number of rings (size 3 to 8) (size 9 to 14) (size 15 to 20)
#    0.000    0.800    4.000    3.600    8.400    0.533 
#    0.000    0.000    0.000    0.000    0.000    0.000 
#    0.000    0.000    0.000    0.000    0.000    0.000 
#
# Total GULP energy -371685.443420 kJ/mol
# GULP energy per Si atom -12389.514781 kJ/mol
# Density = 2.127689 g / cm^3
# Si number density = 21.325424 Si / 1000 Ang^3
#
#
#
# Elastic Constant Matrix: (Units=GPa)
#
#
# Indices 1 2 3 4 5 6 
#
# 1 132.2653 51.2660 45.9577 0.0000 -25.2202 0.0000
# 2 51.2660 146.0460 37.7613 0.0000 -7.5092 0.0000
# 3 45.9577 37.7613 82.9138 -0.0001 -15.0821 0.0000
# 4 0.0000 0.0000 -0.0001 36.0264 0.0000 3.2059
# 5 -25.2202 -7.5092 -15.0821 0.0000 32.2854 0.0000
# 6 0.0000 0.0000 0.0000 3.2059 0.0000 31.3233
#
#
#
# Elastic Compliance Matrix: (Units=1/GPa)
#
#
# Indices 1 2 3 4 5 6 
#
# 1 0.011087 -0.002579 -0.003830 0.000000 0.006272 0.000000
# 2 -0.002579 0.008362 -0.002613 0.000000 -0.001291 0.000000
# 3 -0.003830 -0.002613 0.016086 0.000000 0.003915 0.000000
# 4 0.000000 0.000000 0.000000 0.028013 0.000000 -0.002867
# 5 0.006272 -0.001291 0.003915 0.000000 0.037402 0.000000
# 6 0.000000 0.000000 0.000000 -0.002867 0.000000 0.032219
#
#
# Mechanical properties :
#
#
# Convention : Reuss Voigt Hill
#
# Bulk Modulus (GPa) = 57.17607 70.13278 63.65443
# Shear Modulus (GPa) = 31.83864 35.00972 33.42418
#
# Velocity S-wave (km/s) = 3.86811 4.05617 3.96326
# Velocity P-wave (km/s) = 6.84245 7.40912 7.13142
#
# Compressibility (1/GPa) = 0.01748983
#
# Stress axis : x y z
#
# Youngs Moduli (GPa) = 90.19724 119.59081 62.16620
#
# Poissons Ratio (x) = 0.30843 0.23809
# Poissons Ratio (y) = 0.23262 0.16247
# Poissons Ratio (z) = 0.34544 0.31255
#
# Static dielectric constant tensor:
#      x y z
#    x 3.820910 0.000000 -0.123490 
#    y 0.000000 4.848080 0.000000 
#    z -0.123490 0.000000 4.087660 
# 
# 
# High freq. dielectric constant tensor:
#      x y z
#    x 1.832090 0.000000 -0.012120 
#    y 0.000000 1.858870 0.000000 
#    z -0.012120 0.000000 1.828060 
# 
# From -- ./inp_files/179119.got.cif
#   From: 2010.06.25/outbox.cif.g09.slc.cpg/sg15_90_cif.got.tgz:179119.got - 2010.06.28 07:06:18.
