data_PCOD8150460
_publ_section_title
;
Structure prediction by ZEFSAII (Michael W. Deem and Ramdas Pophale) SiO2 
 PCOD8150460
Probable space group: C 2/C
;
_chemical_formula_sum "Si O2"
_cell_formula_units_Z 44
_cell_length_a 14.257966
_cell_length_b 14.323200
_cell_length_c 11.551734
_cell_angle_alpha 90.000000
_cell_angle_beta 119.876881
_cell_angle_gamma 90.000000
_cell_volume 2045.563213
_symmetry_space_group_name_H-M "C 2/C"
_symmetry_group_IT_number 15
_symmetry_cell_setting 'monoclinic'
loop_
_space_group_symop_operation_xyz
x,y,z
-x,y,1/2-z
-x,-y,-z
x,-y,1/2+z
1/2+x,1/2+y,z
1/2-x,1/2+y,1/2-z
1/2-x,1/2-y,-z
1/2+x,1/2-y,1/2+z
loop_
_atom_site_type_symbol
_atom_site_label
_atom_site_fract_x
_atom_site_fract_y
_atom_site_fract_z
Si Si1 0.808873 0.194820 0.937566
Si Si2 0.736842 0.669823 0.224801
Si Si3 0.719128 0.469808 0.925208
Si Si4 0.105838 0.609827 0.376223
Si Si5 0.028221 0.215559 0.972698
Si Si6 0.500000 0.417937 0.250000
O O1 0.749519 0.223981 0.781317
O O2 0.932794 0.231082 0.006814
O O3 0.750000 0.250000 0.000000
O O4 0.800099 0.085887 0.965429
O O5 0.750050 0.595158 0.335921
O O6 0.828396 0.658458 0.185557
O O7 0.621672 0.658785 0.094747
O O8 0.607871 0.521652 0.829563
O O9 0.821514 0.536320 0.009732
O O10 0.070144 0.687757 0.446326
O O11 0.000000 0.563507 0.250000
O O12 0.979285 0.147444 0.846616
#
# Coordination Sequence:
#
# PCOD8150460 Si02
#       6
#     8   8   8   8   8   4
#     4  10  24  48  66 100 140 186 235 285 363 422
#     4  11  24  46  71 100 145 186 237 289 360 425
#     4  11  27  43  71 109 141 180 240 302 347 414
#     4  12  25  46  70 105 141 191 239 281 356 432
#     4  12  24  43  75  98 140 190 230 294 354 426
#     4  12  24  42  74 106 138 174 244 294 356 408
#
# _framework density 21.509969000000002
#
# number of rings (size 3 to 8) (size 9 to 14) (size 15 to 20)
#    0.000    0.727    4.545    1.636    5.091    4.364 
#    6.545    0.000    0.000    0.000    0.000    0.000 
#    0.000    0.000    0.000    0.000    0.000    0.000 
#
# Total GULP energy -272747.768213 kJ/mol
# GULP energy per Si atom -12397.625828 kJ/mol
# Density = 2.146101 g / cm^3
# Si number density = 21.509969 Si / 1000 Ang^3
#
#
#
# Elastic Constant Matrix: (Units=GPa)
#
#
# Indices 1 2 3 4 5 6 
#
# 1 166.2701 55.0614 49.7472 0.0000 4.8747 0.0000
# 2 55.0614 127.6536 63.4585 0.0000 5.1381 0.0000
# 3 49.7472 63.4585 122.8049 0.0000 15.2720 0.0000
# 4 0.0000 0.0000 0.0000 45.0766 0.0000 7.1158
# 5 4.8747 5.1381 15.2720 0.0000 38.6959 0.0000
# 6 0.0000 0.0000 0.0000 7.1158 0.0000 12.1793
#
#
#
# Elastic Compliance Matrix: (Units=1/GPa)
#
#
# Indices 1 2 3 4 5 6 
#
# 1 0.007298 -0.002256 -0.001802 0.000000 0.000091 0.000000
# 2 -0.002256 0.011262 -0.005000 0.000000 0.000762 0.000000
# 3 -0.001802 -0.005000 0.011932 0.000000 -0.003818 0.000000
# 4 0.000000 0.000000 0.000000 0.024438 0.000000 -0.014278
# 5 0.000091 0.000762 -0.003818 0.000000 0.027237 0.000000
# 6 0.000000 0.000000 0.000000 -0.014278 0.000000 0.090449
#
#
# Mechanical properties :
#
#
# Convention : Reuss Voigt Hill
#
# Bulk Modulus (GPa) = 80.80837 83.69588 82.25213
# Shear Modulus (GPa) = 25.65990 35.75447 30.70718
#
# Velocity S-wave (km/s) = 3.45763 4.08147 3.78243
# Velocity P-wave (km/s) = 7.32050 7.82342 7.57613
#
# Compressibility (1/GPa) = 0.01237496
#
# Stress axis : x y z
#
# Youngs Moduli (GPa) = 137.02824 88.79602 83.80986
#
# Poissons Ratio (x) = 0.20029 0.15103
# Poissons Ratio (y) = 0.30909 0.41909
# Poissons Ratio (z) = 0.24693 0.44402
#
# Static dielectric constant tensor:
#      x y z
#    x 4.170620 0.000000 -0.065220 
#    y 0.000000 4.185350 0.000000 
#    z -0.065220 0.000000 4.437390 
# 
# 
# High freq. dielectric constant tensor:
#      x y z
#    x 1.865280 0.000000 0.000610 
#    y 0.000000 1.839310 0.000000 
#    z 0.000610 0.000000 1.854780 
# 
# From -- ./inp_files/96092.got.cif
#   From: 2010.06.25/outbox.cif.g09.slc.cpg/sg15_49_cif.got.tgz:96092.got - 2010.06.28 07:06:18.
