data_PCOD8150062
_publ_section_title
;
Structure prediction by ZEFSAII (Michael W. Deem and Ramdas Pophale) SiO2 
 PCOD8150062
Probable space group: C 2/C
;
_chemical_formula_sum "Si O2"
_cell_formula_units_Z 32
_cell_length_a 6.382025
_cell_length_b 32.123487
_cell_length_c 7.598423
_cell_angle_alpha 90.000000
_cell_angle_beta 106.448230
_cell_angle_gamma 90.000000
_cell_volume 1494.024290
_symmetry_space_group_name_H-M "C 2/C"
_symmetry_group_IT_number 15
_symmetry_cell_setting 'monoclinic'
loop_
_space_group_symop_operation_xyz
x,y,z
-x,y,1/2-z
-x,-y,-z
x,-y,1/2+z
1/2+x,1/2+y,z
1/2-x,1/2+y,1/2-z
1/2-x,1/2-y,-z
1/2+x,1/2-y,1/2+z
loop_
_atom_site_type_symbol
_atom_site_label
_atom_site_fract_x
_atom_site_fract_y
_atom_site_fract_z
Si Si1 0.182368 0.607538 0.928970
Si Si2 0.054992 0.953503 0.564851
Si Si3 0.000000 0.762366 0.750000
Si Si4 0.000000 0.580255 0.250000
Si Si5 0.859904 0.195140 0.883163
O O1 0.215554 0.656097 0.904062
O O2 0.000000 0.590722 0.750000
O O3 0.399180 0.580353 0.931246
O O4 0.110647 0.606153 0.117969
O O5 0.314782 0.946649 0.603685
O O6 0.000000 0.946481 0.750000
O O7 0.000000 0.000000 0.500000
O O8 0.013077 0.791879 0.582378
O O9 0.785044 0.734492 0.703910
O O10 0.000000 0.181327 0.750000
#
# Coordination Sequence:
#
# PCOD8150062 Si02
#       5
#     8   8   4   4   8
#     4  11  26  42  68  99 131 180 224 269 340 397
#     4  10  25  42  67  98 131 176 220 276 338 393
#     4  10  24  44  63 100 134 174 218 277 340 388
#     4  10  26  46  63  98 136 172 222 279 328 396
#     4  11  24  43  68  98 131 175 224 274 333 399
#
# _framework density 21.418662000000001
#
# number of rings (size 3 to 8) (size 9 to 14) (size 15 to 20)
#    0.000    1.500    1.250    0.750   14.000    2.000 
#    9.000    0.000    0.000    0.000    0.000    0.000 
#    0.000    0.000    0.000    0.000    0.000    0.000 
#
# Total GULP energy -198345.576089 kJ/mol
# GULP energy per Si atom -12396.598506 kJ/mol
# Density = 2.136991 g / cm^3
# Si number density = 21.418662 Si / 1000 Ang^3
#
#
#
# Elastic Constant Matrix: (Units=GPa)
#
#
# Indices 1 2 3 4 5 6 
#
# 1 118.3810 44.3885 55.9818 0.0000 10.2302 0.0000
# 2 44.3885 106.0292 49.0910 0.0000 10.2674 0.0000
# 3 55.9818 49.0910 134.4091 0.0000 14.9240 0.0000
# 4 0.0000 0.0000 0.0000 54.5216 0.0000 15.2239
# 5 10.2302 10.2674 14.9240 0.0000 48.1374 0.0000
# 6 0.0000 0.0000 0.0000 15.2239 0.0000 29.5718
#
#
#
# Elastic Compliance Matrix: (Units=1/GPa)
#
#
# Indices 1 2 3 4 5 6 
#
# 1 0.011312 -0.003038 -0.003528 0.000000 -0.000662 0.000000
# 2 -0.003038 0.012231 -0.003090 0.000000 -0.001005 0.000000
# 3 -0.003528 -0.003090 0.010234 0.000000 -0.001764 0.000000
# 4 0.000000 0.000000 0.000000 0.021421 0.000000 -0.011028
# 5 -0.000662 -0.001005 -0.001764 0.000000 0.021676 0.000000
# 6 0.000000 0.000000 0.000000 -0.011028 0.000000 0.039493
#
#
# Mechanical properties :
#
#
# Convention : Reuss Voigt Hill
#
# Bulk Modulus (GPa) = 69.13700 73.08244 71.10972
# Shear Modulus (GPa) = 35.58658 40.40336 37.99497
#
# Velocity S-wave (km/s) = 4.08054 4.34794 4.21636
# Velocity P-wave (km/s) = 7.38580 7.70721 7.54822
#
# Compressibility (1/GPa) = 0.01446404
#
# Stress axis : x y z
#
# Youngs Moduli (GPa) = 88.39954 81.75688 97.71188
#
# Poissons Ratio (x) = 0.24838 0.34477
# Poissons Ratio (y) = 0.26856 0.30197
# Poissons Ratio (z) = 0.31192 0.25266
#
# Static dielectric constant tensor:
#      x y z
#    x 3.187080 0.000000 -0.681720 
#    y 0.000000 3.623940 0.000000 
#    z -0.681720 0.000000 3.289830 
# 
# 
# High freq. dielectric constant tensor:
#      x y z
#    x 1.841000 0.000000 0.008980 
#    y 0.000000 1.837050 0.000000 
#    z 0.008980 0.000000 1.860650 
# 
# From -- ./inp_files/20168.got.cif
#   From: 2010.06.25/outbox.cif.g09.slc.cpg/sg15_11_cif.got.tgz:20168.got - 2010.06.28 07:06:18.
