data_PCOD8150960
_publ_section_title
;
Structure prediction by ZEFSAII (Michael W. Deem and Ramdas Pophale) SiO2 
 PCOD8150960
Probable space group: C 2/C
;
_chemical_formula_sum "Si O2"
_cell_formula_units_Z 52
_cell_length_a 24.053915
_cell_length_b 14.872831
_cell_length_c 9.638398
_cell_angle_alpha 90.000000
_cell_angle_beta 129.148196
_cell_angle_gamma 90.000000
_cell_volume 2674.082619
_symmetry_space_group_name_H-M "C 2/C"
_symmetry_group_IT_number 15
_symmetry_cell_setting 'monoclinic'
loop_
_space_group_symop_operation_xyz
x,y,z
-x,y,1/2-z
-x,-y,-z
x,-y,1/2+z
1/2+x,1/2+y,z
1/2-x,1/2+y,1/2-z
1/2-x,1/2-y,-z
1/2+x,1/2-y,1/2+z
loop_
_atom_site_type_symbol
_atom_site_label
_atom_site_fract_x
_atom_site_fract_y
_atom_site_fract_z
Si Si1 0.000000 0.143714 0.750000
Si Si2 0.890609 0.077924 0.774591
Si Si3 0.576792 0.182152 0.406645
Si Si4 0.731507 0.836870 0.648412
Si Si5 0.197807 0.645884 0.789302
Si Si6 0.814144 0.999776 0.896678
Si Si7 0.171933 0.729073 0.319641
O O1 0.030296 0.080596 0.672353
O O2 0.063186 0.209629 0.908712
O O3 0.837372 0.024741 0.588207
O O4 0.870013 0.179884 0.769922
O O5 0.883346 0.032069 0.914725
O O6 0.500000 0.135075 0.250000
O O7 0.616697 0.137413 0.601335
O O8 0.629848 0.166347 0.361168
O O9 0.774172 0.744272 0.703021
O O10 0.691736 0.865648 0.444816
O O11 0.787795 0.912088 0.777027
O O12 0.673091 0.826265 0.677953
O O13 0.251515 0.574104 0.804611
O O14 0.250000 0.750000 0.500000
#
# Coordination Sequence:
#
# PCOD8150960 Si02
#       7
#     4   8   8   8   8   8   8
#     4   8  20  38  60  82 122 172 206 236 298 386
#     4  11  21  36  56  89 124 162 205 245 305 374
#     4   9  19  36  62  87 117 162 202 247 298 375
#     4  11  22  35  60  92 121 153 201 270 307 348
#     4  11  22  37  57  93 124 154 202 263 310 350
#     4  12  22  36  60  93 124 156 205 264 308 358
#     4  11  17  35  62  85 112 163 211 246 297 360
#
# _framework density 19.445920000000001
#
# number of rings (size 3 to 8) (size 9 to 14) (size 15 to 20)
#    0.462    0.923    6.154    0.923    0.000    0.615 
#    0.000    0.769    0.000    3.692    0.000    0.000 
#    0.000    0.000    0.000    0.000    0.000    0.000 
#
# Total GULP energy -322208.362342 kJ/mol
# GULP energy per Si atom -12392.629321 kJ/mol
# Density = 1.940166 g / cm^3
# Si number density = 19.445920 Si / 1000 Ang^3
#
#
#
# Elastic Constant Matrix: (Units=GPa)
#
#
# Indices 1 2 3 4 5 6 
#
# 1 116.4813 5.0402 28.5687 0.0000 -4.9252 0.0000
# 2 5.0402 47.7124 -8.0816 0.0000 -2.3862 0.0000
# 3 28.5687 -8.0816 71.9703 0.0000 -5.8018 0.0000
# 4 0.0000 0.0000 0.0000 16.6811 0.0000 -3.1113
# 5 -4.9252 -2.3862 -5.8018 0.0000 32.8348 0.0000
# 6 0.0000 0.0000 0.0000 -3.1113 0.0000 29.5450
#
#
#
# Elastic Compliance Matrix: (Units=1/GPa)
#
#
# Indices 1 2 3 4 5 6 
#
# 1 0.009657 -0.001661 -0.003969 0.000000 0.000626 0.000000
# 2 -0.001661 0.021782 0.003259 0.000000 0.001910 0.000000
# 3 -0.003969 0.003259 0.016036 0.000000 0.002475 0.000000
# 4 0.000000 0.000000 0.000000 0.061149 0.000000 0.006439
# 5 0.000626 0.001910 0.002475 0.000000 0.031126 0.000000
# 6 0.000000 0.000000 0.000000 0.006439 0.000000 0.034525
#
#
# Mechanical properties :
#
#
# Convention : Reuss Voigt Hill
#
# Bulk Modulus (GPa) = 23.40157 31.91319 27.65738
# Shear Modulus (GPa) = 25.87175 29.85462 27.86318
#
# Velocity S-wave (km/s) = 3.65149 3.92249 3.78941
# Velocity P-wave (km/s) = 5.46243 6.07960 5.77926
#
# Compressibility (1/GPa) = 0.04273218
#
# Stress axis : x y z
#
# Youngs Moduli (GPa) = 103.55199 45.90951 62.36058
#
# Poissons Ratio (x) = 0.07626 0.24753
# Poissons Ratio (y) = 0.17202 -0.20325
# Poissons Ratio (z) = 0.41104 -0.14963
#
# Static dielectric constant tensor:
#      x y z
#    x 3.712600 0.000000 -0.266390 
#    y 0.000000 3.454350 0.000000 
#    z -0.266390 0.000000 3.535350 
# 
# 
# High freq. dielectric constant tensor:
#      x y z
#    x 1.759960 0.000000 -0.019730 
#    y 0.000000 1.741460 0.000000 
#    z -0.019730 0.000000 1.740600 
# 
# From -- ./inp_files/61676.got.cif
#   From: 2010.06.25/outbox.cif.g09.slc.cpg/sg15_31_cif.got.tgz:61676.got - 2010.06.28 07:06:18.
