data_PCOD8150498
_publ_section_title
;
Structure prediction by ZEFSAII (Michael W. Deem and Ramdas Pophale) SiO2 
 PCOD8150498
Probable space group: C 2/C
;
_chemical_formula_sum "Si O2"
_cell_formula_units_Z 48
_cell_length_a 8.128626
_cell_length_b 27.357305
_cell_length_c 13.060764
_cell_angle_alpha 90.000000
_cell_angle_beta 136.752130
_cell_angle_gamma 90.000000
_cell_volume 1989.978783
_symmetry_space_group_name_H-M "C 2/C"
_symmetry_group_IT_number 15
_symmetry_cell_setting 'monoclinic'
loop_
_space_group_symop_operation_xyz
x,y,z
-x,y,1/2-z
-x,-y,-z
x,-y,1/2+z
1/2+x,1/2+y,z
1/2-x,1/2+y,1/2-z
1/2-x,1/2-y,-z
1/2+x,1/2-y,1/2+z
loop_
_atom_site_type_symbol
_atom_site_label
_atom_site_fract_x
_atom_site_fract_y
_atom_site_fract_z
Si Si1 0.000000 0.663492 0.750000
Si Si2 0.700385 0.206379 0.266296
Si Si3 0.505260 0.628455 0.011222
Si Si4 0.552391 0.199456 0.563001
Si Si5 0.000000 0.022514 0.750000
Si Si6 0.296043 0.951549 0.738891
Si Si7 0.818488 0.393981 0.477194
O O1 0.768374 0.628387 0.651193
O O2 0.058832 0.699109 0.873136
O O3 0.500000 0.182361 0.250000
O O4 0.746035 0.259028 0.339260
O O5 0.935576 0.171400 0.379553
O O6 0.623886 0.210324 0.112308
O O7 0.570888 0.574194 0.081222
O O8 0.674076 0.639347 0.991167
O O9 0.653364 0.143582 0.603815
O O10 0.821293 0.056083 0.605582
O O11 0.824435 0.992741 0.745674
O O12 0.500000 0.971351 0.750000
O O13 0.418473 0.909456 0.863600
#
# Coordination Sequence:
#
# PCOD8150498 Si02
#       7
#     4   8   8   8   4   8   8
#     4  12  30  44  67 116 152 206 243 314 392 452
#     4  12  24  46  82 110 141 205 261 309 383 458
#     4  11  24  49  75 108 153 201 254 320 381 461
#     4  12  27  45  76 111 154 195 253 314 378 465
#     4  12  26  42  79 112 156 204 255 322 392 458
#     4  10  24  48  77 110 149 203 257 319 391 457
#     4  11  24  50  73 111 152 194 258 318 372 462
#
# _framework density 24.120857999999998
#
# number of rings (size 3 to 8) (size 9 to 14) (size 15 to 20)
#    0.000    0.667    3.333    3.500    5.833    6.000 
#    9.000    0.000    0.000    0.000    0.000    0.000 
#    0.000    0.000    0.000    0.000    0.000    0.000 
#
# Total GULP energy -297367.481800 kJ/mol
# GULP energy per Si atom -12390.311742 kJ/mol
# Density = 2.406596 g / cm^3
# Si number density = 24.120858 Si / 1000 Ang^3
#
#
#
# Elastic Constant Matrix: (Units=GPa)
#
#
# Indices 1 2 3 4 5 6 
#
# 1 95.8584 56.8458 60.2078 0.0000 -13.9677 0.0000
# 2 56.8458 113.4113 55.0304 0.0000 2.5175 0.0000
# 3 60.2078 55.0304 168.0674 0.0000 -6.6318 0.0000
# 4 0.0000 0.0000 0.0000 45.0246 0.0000 3.6713
# 5 -13.9677 2.5175 -6.6318 0.0000 44.1258 0.0000
# 6 0.0000 0.0000 0.0000 3.6713 0.0000 14.4978
#
#
#
# Elastic Compliance Matrix: (Units=1/GPa)
#
#
# Indices 1 2 3 4 5 6 
#
# 1 0.017950 -0.007258 -0.003836 0.000000 0.005520 0.000000
# 2 -0.007258 0.013473 -0.001944 0.000000 -0.003358 0.000000
# 3 -0.003836 -0.001944 0.007964 0.000000 0.000094 0.000000
# 4 0.000000 0.000000 0.000000 0.022678 0.000000 -0.005743
# 5 0.005520 -0.003358 0.000094 0.000000 0.024615 0.000000
# 6 0.000000 0.000000 0.000000 -0.005743 0.000000 0.070430
#
#
# Mechanical properties :
#
#
# Convention : Reuss Voigt Hill
#
# Bulk Modulus (GPa) = 75.12412 80.16725 77.64569
# Shear Modulus (GPa) = 26.64889 34.41318 30.53104
#
# Velocity S-wave (km/s) = 3.32747 3.78126 3.56160
# Velocity P-wave (km/s) = 6.78050 7.23683 7.01238
#
# Compressibility (1/GPa) = 0.01331130
#
# Stress axis : x y z
#
# Youngs Moduli (GPa) = 55.71031 74.22014 125.55957
#
# Poissons Ratio (x) = 0.53872 0.48164
# Poissons Ratio (y) = 0.40437 0.24408
# Poissons Ratio (z) = 0.21370 0.14428
#
# Static dielectric constant tensor:
#      x y z
#    x 4.253670 0.000000 -0.183450 
#    y 0.000000 4.127870 0.000000 
#    z -0.183450 0.000000 4.540140 
# 
# 
# High freq. dielectric constant tensor:
#      x y z
#    x 1.947250 0.000000 -0.010310 
#    y 0.000000 1.953700 0.000000 
#    z -0.010310 0.000000 1.975480 
# 
# From -- ./inp_files/139076.got.cif
#   From: 2010.06.25/outbox.cif.g09.slc.cpg/sg15_70_cif.got.tgz:139076.got - 2010.06.28 07:06:18.
