data_PCOD8150179
_publ_section_title
;
Structure prediction by ZEFSAII (Michael W. Deem and Ramdas Pophale) SiO2 
 PCOD8150179
Probable space group: C 2/C
;
_chemical_formula_sum "Si O2"
_cell_formula_units_Z 52
_cell_length_a 32.109246
_cell_length_b 7.774155
_cell_length_c 16.145490
_cell_angle_alpha 90.000000
_cell_angle_beta 141.587189
_cell_angle_gamma 90.000000
_cell_volume 2504.101677
_symmetry_space_group_name_H-M "C 2/C"
_symmetry_group_IT_number 15
_symmetry_cell_setting 'monoclinic'
loop_
_space_group_symop_operation_xyz
x,y,z
-x,y,1/2-z
-x,-y,-z
x,-y,1/2+z
1/2+x,1/2+y,z
1/2-x,1/2+y,1/2-z
1/2-x,1/2-y,-z
1/2+x,1/2-y,1/2+z
loop_
_atom_site_type_symbol
_atom_site_label
_atom_site_fract_x
_atom_site_fract_y
_atom_site_fract_z
Si Si1 0.886153 0.312337 0.486858
Si Si2 0.000000 0.879661 0.250000
Si Si3 0.553253 0.093819 0.027167
Si Si4 0.271876 0.121734 0.927523
Si Si5 0.182548 0.565023 0.326100
Si Si6 0.338590 0.324170 0.748384
Si Si7 0.472582 0.585554 0.373970
O O1 0.923826 0.477362 0.512031
O O2 0.816115 0.380488 0.414168
O O3 0.872497 0.176028 0.391923
O O4 0.933411 0.229758 0.629490
O O5 0.979305 0.979278 0.300607
O O6 0.520006 0.253777 0.930953
O O7 0.614853 0.144354 0.182672
O O8 0.500000 0.000000 0.000000
O O9 0.242810 0.315060 0.887734
O O10 0.216089 0.973470 0.838578
O O11 0.320907 0.081393 0.080484
O O12 0.193694 0.365181 0.317760
O O13 0.394996 0.361265 0.766799
O O14 0.500000 0.500000 0.500000
#
# Coordination Sequence:
#
# PCOD8150179 Si02
#       7
#     8   4   8   8   8   8   8
#     4  11  27  44  69 103 140 186 236 295 344 432
#     4  12  28  44  72 108 138 182 248 292 360 434
#     4  11  22  46  71  96 137 186 231 289 365 409
#     4  11  26  43  70 102 143 184 235 292 345 426
#     4  10  24  44  71 101 134 190 232 287 355 422
#     4  11  24  47  70 101 144 188 230 293 359 420
#     4  12  24  46  72 105 144 184 233 302 356 420
#
# _framework density 20.765930000000001
#
# number of rings (size 3 to 8) (size 9 to 14) (size 15 to 20)
#    0.000    0.923    4.615    1.385   12.923    1.846 
#    2.769    0.000    0.000    0.000    0.000    0.000 
#    0.000    0.000    0.000    0.000    0.000    0.000 
#
# Total GULP energy -322387.021942 kJ/mol
# GULP energy per Si atom -12399.500844 kJ/mol
# Density = 2.071867 g / cm^3
# Si number density = 20.765930 Si / 1000 Ang^3
#
#
#
# Elastic Constant Matrix: (Units=GPa)
#
#
# Indices 1 2 3 4 5 6 
#
# 1 153.0371 62.7913 53.6452 0.0000 -0.6049 0.0000
# 2 62.7913 121.1968 57.7664 0.0000 7.1580 0.0000
# 3 53.6452 57.7664 127.4958 0.0000 -7.6359 0.0000
# 4 0.0000 0.0000 0.0000 33.3745 0.0000 -3.4404
# 5 -0.6049 7.1580 -7.6359 0.0000 31.0860 0.0000
# 6 0.0000 0.0000 0.0000 -3.4404 0.0000 30.4334
#
#
#
# Elastic Compliance Matrix: (Units=1/GPa)
#
#
# Indices 1 2 3 4 5 6 
#
# 1 0.008712 -0.003584 -0.002012 0.000000 0.000501 0.000000
# 2 -0.003584 0.012423 -0.004360 0.000000 -0.004001 0.000000
# 3 -0.002012 -0.004360 0.010883 0.000000 0.003638 0.000000
# 4 0.000000 0.000000 0.000000 0.030316 0.000000 0.003427
# 5 0.000501 -0.004001 0.003638 0.000000 0.033994 0.000000
# 6 0.000000 0.000000 0.000000 0.003427 0.000000 0.033246
#
#
# Mechanical properties :
#
#
# Convention : Reuss Voigt Hill
#
# Bulk Modulus (GPa) = 82.60536 83.34839 82.97687
# Shear Modulus (GPa) = 32.56879 34.14722 33.35801
#
# Velocity S-wave (km/s) = 3.96457 4.05950 4.01232
# Velocity P-wave (km/s) = 7.79889 7.88651 7.84282
#
# Compressibility (1/GPa) = 0.01210575
#
# Stress axis : x y z
#
# Youngs Moduli (GPa) = 114.78108 80.49890 91.88532
#
# Poissons Ratio (x) = 0.28855 0.18485
# Poissons Ratio (y) = 0.41143 0.40061
# Poissons Ratio (z) = 0.23090 0.35097
#
# Static dielectric constant tensor:
#      x y z
#    x 3.563660 0.000000 -0.290160 
#    y 0.000000 3.615040 0.000000 
#    z -0.290160 0.000000 3.704070 
# 
# 
# High freq. dielectric constant tensor:
#      x y z
#    x 1.816310 0.000000 0.001670 
#    y 0.000000 1.821180 0.000000 
#    z 0.001670 0.000000 1.824530 
# 
# From -- ./inp_files/181220.got.cif
#   From: 2010.06.25/outbox.cif.g09.slc.cpg/sg15_91_cif.got.tgz:181220.got - 2010.06.28 07:06:18.
