data_PCOD8150638
_publ_section_title
;
Structure prediction by ZEFSAII (Michael W. Deem and Ramdas Pophale) SiO2 
 PCOD8150638
Probable space group: C 2/C
;
_chemical_formula_sum "Si O2"
_cell_formula_units_Z 52
_cell_length_a 10.913072
_cell_length_b 22.290275
_cell_length_c 12.332463
_cell_angle_alpha 90.000000
_cell_angle_beta 53.085783
_cell_angle_gamma 90.000000
_cell_volume 2398.557316
_symmetry_space_group_name_H-M "C 2/C"
_symmetry_group_IT_number 15
_symmetry_cell_setting 'monoclinic'
loop_
_space_group_symop_operation_xyz
x,y,z
-x,y,1/2-z
-x,-y,-z
x,-y,1/2+z
1/2+x,1/2+y,z
1/2-x,1/2+y,1/2-z
1/2-x,1/2-y,-z
1/2+x,1/2-y,1/2+z
loop_
_atom_site_type_symbol
_atom_site_label
_atom_site_fract_x
_atom_site_fract_y
_atom_site_fract_z
Si Si1 0.289362 0.183290 0.002784
Si Si2 0.128290 0.531540 0.861158
Si Si3 0.000000 0.214165 0.750000
Si Si4 0.000000 0.884790 0.750000
Si Si5 0.000000 0.385237 0.250000
Si Si6 0.944573 0.676000 0.134083
Si Si7 0.734316 0.616350 0.541204
Si Si8 0.296284 0.578182 0.173957
O O1 0.349665 0.153491 0.859838
O O2 0.250000 0.250000 0.000000
O O3 0.430492 0.181542 0.012407
O O4 0.138101 0.153758 0.130489
O O5 0.037602 0.577008 0.835166
O O6 0.249548 0.566458 0.873007
O O7 0.208354 0.483729 0.740451
O O8 0.000000 0.500000 0.000000
O O9 0.936730 0.257292 0.688666
O O10 0.865259 0.172230 0.865906
O O11 0.058716 0.923854 0.821247
O O12 0.803522 0.637067 0.251326
O O13 0.100959 0.642356 0.082126
O O14 0.656572 0.583416 0.478149
#
# Coordination Sequence:
#
# PCOD8150638 Si02
#       8
#     8   8   4   4   4   8   8   8
#     4  11  25  43  70  99 142 188 231 290 352 420
#     4  12  24  45  73 101 137 184 246 290 346 423
#     4  12  28  40  70 106 150 176 228 292 358 430
#     4  10  25  45  64 104 141 181 232 282 366 410
#     4  12  25  43  70 108 135 185 244 286 344 438
#     4  11  23  44  69 100 138 183 235 282 347 422
#     4  12  25  45  69 108 136 185 236 288 361 410
#     4  11  24  45  72  99 138 186 228 295 347 413
#
# _framework density 21.679697999999998
#
# number of rings (size 3 to 8) (size 9 to 14) (size 15 to 20)
#    0.000    0.615    4.615    2.769    4.308    1.846 
#    0.000    2.308    0.000    0.000    0.000    0.000 
#    0.000    0.000    0.000    0.000    0.000    0.000 
#
# Total GULP energy -322415.623080 kJ/mol
# GULP energy per Si atom -12400.600888 kJ/mol
# Density = 2.163035 g / cm^3
# Si number density = 21.679698 Si / 1000 Ang^3
#
#
#
# Elastic Constant Matrix: (Units=GPa)
#
#
# Indices 1 2 3 4 5 6 
#
# 1 110.9532 34.0829 35.6254 0.0000 15.8581 0.0000
# 2 34.0829 131.5501 49.6257 0.0000 6.5806 0.0000
# 3 35.6254 49.6257 106.5516 0.0000 6.5364 0.0000
# 4 0.0000 0.0000 0.0000 66.2547 0.0000 23.1446
# 5 15.8581 6.5806 6.5364 0.0000 36.3458 0.0000
# 6 0.0000 0.0000 0.0000 23.1446 0.0000 46.1293
#
#
#
# Elastic Compliance Matrix: (Units=1/GPa)
#
#
# Indices 1 2 3 4 5 6 
#
# 1 0.010937 -0.001634 -0.002651 0.000000 -0.004000 0.000000
# 2 -0.001634 0.009496 -0.003857 0.000000 -0.000313 0.000000
# 3 -0.002651 -0.003857 0.012087 0.000000 -0.000319 0.000000
# 4 0.000000 0.000000 0.000000 0.018301 0.000000 -0.009182
# 5 -0.004000 -0.000313 -0.000319 0.000000 0.029373 0.000000
# 6 0.000000 0.000000 0.000000 -0.009182 0.000000 0.026285
#
#
# Mechanical properties :
#
#
# Convention : Reuss Voigt Hill
#
# Bulk Modulus (GPa) = 61.58617 65.30254 63.44435
# Shear Modulus (GPa) = 39.00932 45.06067 42.03500
#
# Velocity S-wave (km/s) = 4.24647 4.56397 4.40808
# Velocity P-wave (km/s) = 7.24654 7.61315 7.43211
#
# Compressibility (1/GPa) = 0.01623741
#
# Stress axis : x y z
#
# Youngs Moduli (GPa) = 91.42945 105.31146 82.73107
#
# Poissons Ratio (x) = 0.17205 0.21929
# Poissons Ratio (y) = 0.14937 0.31910
# Poissons Ratio (z) = 0.24235 0.40620
#
# Static dielectric constant tensor:
#      x y z
#    x 1.559410 0.000000 -1.853550 
#    y 0.000000 4.025610 0.000000 
#    z -1.853550 0.000000 2.097450 
# 
# 
# High freq. dielectric constant tensor:
#      x y z
#    x 1.858170 0.000000 0.017270 
#    y 0.000000 1.860410 0.000000 
#    z 0.017270 0.000000 1.855220 
# 
# From -- ./inp_files/89759.got.cif
#   From: 2010.06.25/outbox.cif.g09.slc.cpg/sg15_45_cif.got.tgz:89759.got - 2010.06.28 07:06:18.
