data_PCOD8150981
_publ_section_title
;
Structure prediction by ZEFSAII (Michael W. Deem and Ramdas Pophale) SiO2 
 PCOD8150981
Probable space group: C 2/C
;
_chemical_formula_sum "Si O2"
_cell_formula_units_Z 64
_cell_length_a 31.036257
_cell_length_b 12.951502
_cell_length_c 9.534597
_cell_angle_alpha 90.000000
_cell_angle_beta 92.279645
_cell_angle_gamma 90.000000
_cell_volume 3829.552048
_symmetry_space_group_name_H-M "C 2/C"
_symmetry_group_IT_number 15
_symmetry_cell_setting 'monoclinic'
loop_
_space_group_symop_operation_xyz
x,y,z
-x,y,1/2-z
-x,-y,-z
x,-y,1/2+z
1/2+x,1/2+y,z
1/2-x,1/2+y,1/2-z
1/2-x,1/2-y,-z
1/2+x,1/2-y,1/2+z
loop_
_atom_site_type_symbol
_atom_site_label
_atom_site_fract_x
_atom_site_fract_y
_atom_site_fract_z
Si Si1 0.769389 0.899510 0.361066
Si Si2 0.188957 0.693482 0.210705
Si Si3 0.275718 0.596135 0.188081
Si Si4 0.367112 0.906189 0.019381
Si Si5 0.635195 0.848155 0.968514
Si Si6 0.680206 0.198802 0.755820
Si Si7 0.547658 0.911088 0.611210
Si Si8 0.955446 0.387529 0.568160
O O1 0.803373 0.807076 0.350154
O O2 0.765858 0.929023 0.524221
O O3 0.722785 0.868108 0.294472
O O4 0.788791 0.993552 0.273310
O O5 0.234187 0.643232 0.263225
O O6 0.155241 0.700086 0.331786
O O7 0.172459 0.619918 0.085884
O O8 0.313566 0.681051 0.204429
O O9 0.360119 0.848632 0.165402
O O10 0.367829 0.028309 0.042500
O O11 0.410863 0.859794 0.956890
O O12 0.584670 0.810835 0.977333
O O13 0.666843 0.809422 0.092965
O O14 0.504337 0.840703 0.578310
O O15 0.555619 0.929255 0.777178
O O16 0.541869 0.023824 0.546674
#
# Coordination Sequence:
#
# PCOD8150981 Si02
#       8
#     8   8   8   8   8   8   8   8
#     4  11  23  38  54  71 101 133 166 213 255 294
#     4  11  21  36  52  73 102 130 175 206 246 296
#     4  11  23  38  54  72 100 132 167 212 256 292
#     4  11  18  34  50  74  99 143 166 205 245 292
#     4  11  22  30  52  77 101 136 171 207 240 297
#     4  11  23  36  51  74 103 130 174 210 245 296
#     4   9  18  29  47  65 100 135 168 199 247 293
#     4   9  18  31  42  70  99 134 167 203 241 296
#
# _framework density 16.712137999999999
#
# number of rings (size 3 to 8) (size 9 to 14) (size 15 to 20)
#    0.000    1.500    3.750    3.000    8.750    1.000 
#    0.000    0.000    0.000    0.000    0.000    0.000 
#    0.000    6.000    0.000    0.000    0.000    0.000 
#
# Total GULP energy -396584.746494 kJ/mol
# GULP energy per Si atom -12393.273328 kJ/mol
# Density = 1.667410 g / cm^3
# Si number density = 16.712138 Si / 1000 Ang^3
#
#
#
# Elastic Constant Matrix: (Units=GPa)
#
#
# Indices 1 2 3 4 5 6 
#
# 1 79.7701 25.9118 17.6548 0.0000 -5.4361 0.0000
# 2 25.9118 46.4034 24.3306 0.0000 -3.6435 0.0000
# 3 17.6548 24.3306 76.8858 0.0000 0.7942 0.0000
# 4 0.0000 0.0000 0.0000 24.0059 0.0000 -2.1668
# 5 -5.4361 -3.6435 0.7942 0.0000 27.5385 0.0000
# 6 0.0000 0.0000 0.0000 -2.1668 0.0000 13.6469
#
#
#
# Elastic Compliance Matrix: (Units=1/GPa)
#
#
# Indices 1 2 3 4 5 6 
#
# 1 0.015487 -0.007927 -0.001069 0.000000 0.002039 0.000000
# 2 -0.007927 0.030268 -0.007786 0.000000 0.002664 0.000000
# 3 -0.001069 -0.007786 0.015733 0.000000 -0.001695 0.000000
# 4 0.000000 0.000000 0.000000 0.042262 0.000000 0.006710
# 5 0.002039 0.002664 -0.001695 0.000000 0.037117 0.000000
# 6 0.000000 0.000000 0.000000 0.006710 0.000000 0.074342
#
#
# Mechanical properties :
#
#
# Convention : Reuss Voigt Hill
#
# Bulk Modulus (GPa) = 35.81062 37.65040 36.73051
# Shear Modulus (GPa) = 19.37384 22.04907 20.71146
#
# Velocity S-wave (km/s) = 3.40850 3.63622 3.52420
# Velocity P-wave (km/s) = 6.07988 6.34091 6.21176
#
# Compressibility (1/GPa) = 0.02792468
#
# Stress axis : x y z
#
# Youngs Moduli (GPa) = 64.57236 33.03798 63.56092
#
# Poissons Ratio (x) = 0.26190 0.06792
# Poissons Ratio (y) = 0.51189 0.49486
# Poissons Ratio (z) = 0.06900 0.25722
#
# Static dielectric constant tensor:
#      x y z
#    x 3.637120 0.000000 0.009290 
#    y 0.000000 2.835600 0.000000 
#    z 0.009290 0.000000 3.298970 
# 
# 
# High freq. dielectric constant tensor:
#      x y z
#    x 1.647850 0.000000 -0.002600 
#    y 0.000000 1.588410 0.000000 
#    z -0.002600 0.000000 1.663520 
# 
# From -- ./inp_files/69394.got.cif
#   From: 2010.06.25/outbox.cif.g09.slc.cpg/sg15_35_cif.got.tgz:69394.got - 2010.06.28 07:06:18.
