data_PCOD8150759
_publ_section_title
;
Structure prediction by ZEFSAII (Michael W. Deem and Ramdas Pophale) SiO2 
 PCOD8150759
Probable space group: C 2/C
;
_chemical_formula_sum "Si O2"
_cell_formula_units_Z 52
_cell_length_a 5.070796
_cell_length_b 24.162326
_cell_length_c 20.733177
_cell_angle_alpha 90.000000
_cell_angle_beta 102.974211
_cell_angle_gamma 90.000000
_cell_volume 2475.424870
_symmetry_space_group_name_H-M "C 2/C"
_symmetry_group_IT_number 15
_symmetry_cell_setting 'monoclinic'
loop_
_space_group_symop_operation_xyz
x,y,z
-x,y,1/2-z
-x,-y,-z
x,-y,1/2+z
1/2+x,1/2+y,z
1/2-x,1/2+y,1/2-z
1/2-x,1/2-y,-z
1/2+x,1/2-y,1/2+z
loop_
_atom_site_type_symbol
_atom_site_label
_atom_site_fract_x
_atom_site_fract_y
_atom_site_fract_z
Si Si1 0.796672 0.242297 0.369663
Si Si2 0.408886 0.541799 0.402909
Si Si3 0.998357 0.919109 0.050687
Si Si4 0.000000 0.673589 0.250000
Si Si5 0.132582 0.698021 0.062840
Si Si6 0.135744 0.403441 0.645000
Si Si7 0.511683 0.848164 0.074812
O O1 0.708234 0.213811 0.298115
O O2 0.554246 0.241551 0.409053
O O3 0.869786 0.307561 0.362767
O O4 0.051610 0.207247 0.407951
O O5 0.463004 0.477120 0.411895
O O6 0.488699 0.573272 0.473190
O O7 0.584703 0.565435 0.353503
O O8 0.100034 0.550800 0.364892
O O9 0.723025 0.893236 0.061832
O O10 0.246123 0.879729 0.084190
O O11 0.164857 0.633836 0.210626
O O12 0.055070 0.636527 0.081861
O O13 0.069113 0.698211 0.983388
#
# Coordination Sequence:
#
# PCOD8150759 Si02
#       7
#     8   8   8   4   8   8   8
#     4  11  24  38  58  86 124 160 210 253 295 363
#     4  11  21  38  60  91 125 160 193 256 302 373
#     4  11  22  36  61  93 126 159 202 235 320 382
#     4  10  26  42  64  90 114 168 212 254 304 366
#     4  11  20  36  57  89 121 162 198 246 311 368
#     4  11  21  38  62  87 124 157 205 254 307 353
#     4  12  21  37  59  90 128 164 197 249 308 377
#
# _framework density 21.006495000000001
#
# number of rings (size 3 to 8) (size 9 to 14) (size 15 to 20)
#    0.000    0.923    3.077    5.538    0.000    8.000 
#    0.000    0.000    0.000    3.692    0.000    0.000 
#    0.000    0.000    0.000    0.000    0.000    0.000 
#
# Total GULP energy -322448.579426 kJ/mol
# GULP energy per Si atom -12401.868439 kJ/mol
# Density = 2.095868 g / cm^3
# Si number density = 21.006495 Si / 1000 Ang^3
#
#
#
# Elastic Constant Matrix: (Units=GPa)
#
#
# Indices 1 2 3 4 5 6 
#
# 1 80.8408 9.5610 14.5362 0.0000 6.5978 0.0000
# 2 9.5610 98.6573 37.7731 0.0000 6.1079 0.0000
# 3 14.5362 37.7731 73.7371 0.0000 -0.8635 0.0000
# 4 0.0000 0.0000 0.0000 31.5916 0.0000 8.3543
# 5 6.5978 6.1079 -0.8635 0.0000 22.2696 0.0000
# 6 0.0000 0.0000 0.0000 8.3543 0.0000 31.3752
#
#
#
# Elastic Compliance Matrix: (Units=1/GPa)
#
#
# Indices 1 2 3 4 5 6 
#
# 1 0.013172 -0.000021 -0.002633 0.000000 -0.003999 0.000000
# 2 -0.000021 0.012923 -0.006661 0.000000 -0.003797 0.000000
# 3 -0.002633 -0.006661 0.017531 0.000000 0.003287 0.000000
# 4 0.000000 0.000000 0.000000 0.034052 0.000000 -0.009067
# 5 -0.003999 -0.003797 0.003287 0.000000 0.047258 0.000000
# 6 0.000000 0.000000 0.000000 -0.009067 0.000000 0.034287
#
#
# Mechanical properties :
#
#
# Convention : Reuss Voigt Hill
#
# Bulk Modulus (GPa) = 40.00293 41.88620 40.94457
# Shear Modulus (GPa) = 26.85517 29.80495 28.33006
#
# Velocity S-wave (km/s) = 3.57938 3.77084 3.67636
# Velocity P-wave (km/s) = 6.01391 6.24035 6.12817
#
# Compressibility (1/GPa) = 0.02499817
#
# Stress axis : x y z
#
# Youngs Moduli (GPa) = 75.91721 77.37958 57.04123
#
# Poissons Ratio (x) = 0.00162 0.15018
# Poissons Ratio (y) = 0.00159 0.37992
# Poissons Ratio (z) = 0.19988 0.51539
#
# Static dielectric constant tensor:
#      x y z
#    x 3.888530 0.000000 -0.050760 
#    y 0.000000 3.858580 0.000000 
#    z -0.050760 0.000000 3.578430 
# 
# 
# High freq. dielectric constant tensor:
#      x y z
#    x 1.841690 0.000000 0.005520 
#    y 0.000000 1.829820 0.000000 
#    z 0.005520 0.000000 1.782700 
# 
# From -- ./inp_files/227971.got.cif
#   From: 2010.06.25/outbox.cif.g09.slc.cpg/sg15_114_cif.got.tgz:227971.got - 2010.06.28 07:06:18.
