data_PCOD8150306
_publ_section_title
;
Structure prediction by ZEFSAII (Michael W. Deem and Ramdas Pophale) SiO2 
 PCOD8150306
Probable space group: C 2/C
;
_chemical_formula_sum "Si O2"
_cell_formula_units_Z 32
_cell_length_a 15.948708
_cell_length_b 17.974117
_cell_length_c 9.125693
_cell_angle_alpha 90.000000
_cell_angle_beta 148.765281
_cell_angle_gamma 90.000000
_cell_volume 1356.518030
_symmetry_space_group_name_H-M "C 2/C"
_symmetry_group_IT_number 15
_symmetry_cell_setting 'monoclinic'
loop_
_space_group_symop_operation_xyz
x,y,z
-x,y,1/2-z
-x,-y,-z
x,-y,1/2+z
1/2+x,1/2+y,z
1/2-x,1/2+y,1/2-z
1/2-x,1/2-y,-z
1/2+x,1/2-y,1/2+z
loop_
_atom_site_type_symbol
_atom_site_label
_atom_site_fract_x
_atom_site_fract_y
_atom_site_fract_z
Si Si1 0.334178 0.720951 0.434834
Si Si2 0.000000 0.497734 0.750000
Si Si3 0.500000 0.449196 0.750000
Si Si4 0.479765 0.693967 0.060222
Si Si5 0.289386 0.061015 0.187153
O O1 0.367184 0.716447 0.309708
O O2 0.190483 0.777647 0.260651
O O3 0.296090 0.640405 0.444533
O O4 0.500000 0.751784 0.750000
O O5 0.879761 0.550832 0.477933
O O6 0.911587 0.443765 0.733332
O O7 0.475726 0.396094 0.570555
O O8 0.341455 0.497206 0.533811
O O9 0.500000 0.732423 0.250000
#
# Coordination Sequence:
#
# PCOD8150306 Si02
#       5
#     8   4   4   8   8
#     4  12  25  45  71 103 138 181 230 287 341 405
#     4  10  26  41  66 109 138 178 222 298 336 405
#     4  10  24  45  74  97 136 184 226 280 338 415
#     4  10  26  46  70  97 138 188 229 275 343 416
#     4  11  24  46  72 103 140 179 233 281 347 404
#
# _framework density 23.589807
#
# number of rings (size 3 to 8) (size 9 to 14) (size 15 to 20)
#    0.750    0.500    1.250    3.000    5.250    6.000 
#    4.500    0.000    0.000    0.000    0.000    0.000 
#    0.000    0.000    0.000    0.000    0.000    0.000 
#
# Total GULP energy -198408.484899 kJ/mol
# GULP energy per Si atom -12400.530306 kJ/mol
# Density = 2.353612 g / cm^3
# Si number density = 23.589807 Si / 1000 Ang^3
#
#
#
# Elastic Constant Matrix: (Units=GPa)
#
#
# Indices 1 2 3 4 5 6 
#
# 1 124.6834 24.4082 14.2643 0.0000 8.8321 0.0000
# 2 24.4082 105.4436 56.1978 0.0000 11.8676 0.0000
# 3 14.2643 56.1978 121.4359 0.0000 14.4617 0.0000
# 4 0.0000 0.0000 0.0000 21.6824 0.0000 2.2083
# 5 8.8321 11.8676 14.4617 0.0000 39.2113 0.0000
# 6 0.0000 0.0000 0.0000 2.2083 0.0000 24.0747
#
#
#
# Elastic Compliance Matrix: (Units=1/GPa)
#
#
# Indices 1 2 3 4 5 6 
#
# 1 0.008471 -0.001810 0.000005 0.000000 -0.001362 0.000000
# 2 -0.001810 0.013090 -0.005671 0.000000 -0.001463 0.000000
# 3 0.000005 -0.005671 0.011144 0.000000 -0.002395 0.000000
# 4 0.000000 0.000000 0.000000 0.046555 0.000000 -0.004270
# 5 -0.001362 -0.001463 -0.002395 0.000000 0.027136 0.000000
# 6 0.000000 0.000000 0.000000 -0.004270 0.000000 0.041929
#
#
# Mechanical properties :
#
#
# Convention : Reuss Voigt Hill
#
# Bulk Modulus (GPa) = 56.33190 60.14482 58.23836
# Shear Modulus (GPa) = 29.55199 34.10651 31.82925
#
# Velocity S-wave (km/s) = 3.54325 3.80651 3.67724
# Velocity P-wave (km/s) = 6.37739 6.69857 6.53995
#
# Compressibility (1/GPa) = 0.01775193
#
# Stress axis : x y z
#
# Youngs Moduli (GPa) = 118.05577 76.39591 89.73640
#
# Poissons Ratio (x) = 0.13828 -0.00044
# Poissons Ratio (y) = 0.21369 0.50888
# Poissons Ratio (z) = -0.00057 0.43323
#
# Static dielectric constant tensor:
#      x y z
#    x 4.458280 0.000000 -0.023010 
#    y 0.000000 3.860460 0.000000 
#    z -0.023010 0.000000 4.279390 
# 
# 
# High freq. dielectric constant tensor:
#      x y z
#    x 1.957500 0.000000 0.001100 
#    y 0.000000 1.914600 0.000000 
#    z 0.001100 0.000000 1.939360 
# 
# From -- ./inp_files/42813.got.cif
#   From: 2010.06.25/outbox.cif.g09.slc.cpg/sg15_22_cif.got.tgz:42813.got - 2010.06.28 07:06:18.
