data_PCOD8150065
_publ_section_title
;
Structure prediction by ZEFSAII (Michael W. Deem and Ramdas Pophale) SiO2 
 PCOD8150065
Probable space group: C 2/C
;
_chemical_formula_sum "Si O2"
_cell_formula_units_Z 44
_cell_length_a 24.808973
_cell_length_b 8.959479
_cell_length_c 23.390871
_cell_angle_alpha 90.000000
_cell_angle_beta 156.417857
_cell_angle_gamma 90.000000
_cell_volume 2080.016478
_symmetry_space_group_name_H-M "C 2/C"
_symmetry_group_IT_number 15
_symmetry_cell_setting 'monoclinic'
loop_
_space_group_symop_operation_xyz
x,y,z
-x,y,1/2-z
-x,-y,-z
x,-y,1/2+z
1/2+x,1/2+y,z
1/2-x,1/2+y,1/2-z
1/2-x,1/2-y,-z
1/2+x,1/2-y,1/2+z
loop_
_atom_site_type_symbol
_atom_site_label
_atom_site_fract_x
_atom_site_fract_y
_atom_site_fract_z
Si Si1 0.873894 0.451198 0.915071
Si Si2 0.550944 0.461207 0.740571
Si Si3 0.353406 0.979147 0.519068
Si Si4 0.586365 0.324690 0.469757
Si Si5 0.814102 0.228009 0.768596
Si Si6 0.500000 0.172533 0.750000
O O1 0.816627 0.296674 0.834787
O O2 0.753049 0.568124 0.792137
O O3 0.910924 0.436284 0.018338
O O4 0.000000 0.500000 0.000000
O O5 0.500000 0.535125 0.750000
O O6 0.441925 0.515052 0.587313
O O7 0.562001 0.280496 0.760501
O O8 0.692312 0.528000 0.858621
O O9 0.391462 0.065797 0.614178
O O10 0.405500 0.808452 0.569774
O O11 0.726305 0.333590 0.640631
O O12 0.467422 0.281650 0.397245
#
# Coordination Sequence:
#
# PCOD8150065 Si02
#       6
#     8   8   8   8   8   4
#     4  11  23  44  67 101 139 173 224 278 333 405
#     4  10  24  44  63  98 135 169 233 274 331 407
#     4  11  23  45  68  94 141 173 228 280 333 402
#     4  11  22  44  69  97 133 178 224 279 325 406
#     4  11  23  43  69 100 135 175 225 268 344 395
#     4  10  26  42  68  98 130 178 226 280 350 376
#
# _framework density 21.153679
#
# number of rings (size 3 to 8) (size 9 to 14) (size 15 to 20)
#    0.545    0.727    7.273    0.545    1.273    5.818 
#    0.000    0.000    0.000    0.000    0.000    0.000 
#    0.000    0.000    0.000    0.000    0.000    0.000 
#
# Total GULP energy -272624.103849 kJ/mol
# GULP energy per Si atom -12392.004720 kJ/mol
# Density = 2.110553 g / cm^3
# Si number density = 21.153679 Si / 1000 Ang^3
#
#
#
# Elastic Constant Matrix: (Units=GPa)
#
#
# Indices 1 2 3 4 5 6 
#
# 1 79.9110 13.3961 14.2737 0.0003 0.1659 0.0000
# 2 13.3961 68.8123 -2.1284 0.0010 -14.0589 0.0003
# 3 14.2737 -2.1284 44.8784 0.0013 -0.0760 0.0004
# 4 0.0003 0.0010 0.0013 31.6646 0.0004 -12.8321
# 5 0.1659 -14.0589 -0.0760 0.0004 47.4188 0.0001
# 6 0.0000 0.0003 0.0004 -12.8321 0.0001 38.2873
#
#
#
# Elastic Compliance Matrix: (Units=1/GPa)
#
#
# Indices 1 2 3 4 5 6 
#
# 1 0.013836 -0.003029 -0.004546 0.000000 -0.000954 0.000000
# 2 -0.003029 0.016157 0.001738 -0.000001 0.004804 0.000000
# 3 -0.004546 0.001738 0.023812 -0.000001 0.000569 -0.000001
# 4 0.000000 -0.000001 -0.000001 0.036545 -0.000001 0.012248
# 5 -0.000954 0.004804 0.000569 -0.000001 0.022517 0.000000
# 6 0.000000 0.000000 -0.000001 0.012248 0.000000 0.030223
#
#
# Mechanical properties :
#
#
# Convention : Reuss Voigt Hill
#
# Bulk Modulus (GPa) = 23.73573 27.18716 25.46145
# Shear Modulus (GPa) = 29.61970 34.67817 32.14894
#
# Velocity S-wave (km/s) = 3.74600 4.05327 3.90266
# Velocity P-wave (km/s) = 5.47312 5.89792 5.68949
#
# Compressibility (1/GPa) = 0.04213057
#
# Stress axis : x y z
#
# Youngs Moduli (GPa) = 72.27717 61.89223 41.99636
#
# Poissons Ratio (x) = 0.18747 0.19090
# Poissons Ratio (y) = 0.21892 -0.07298
# Poissons Ratio (z) = 0.32855 -0.10755
#
# Static dielectric constant tensor:
#      x y z
#    x 4.015360 0.000000 -0.129240 
#    y 0.000000 3.990990 0.000000 
#    z -0.129240 0.000000 3.790990 
# 
# 
# High freq. dielectric constant tensor:
#      x y z
#    x 1.829880 0.000000 0.002390 
#    y 0.000000 1.816040 0.000000 
#    z 0.002390 0.000000 1.826930 
# 
# From -- ./inp_files/303176.got.cif
#   From: 2010.06.25/outbox.cif.g09.slc.cpg/sg15_152_cif.got.tgz:303176.got - 2010.06.28 07:06:18.
