data_PCOD8150396
_publ_section_title
;
Structure prediction by ZEFSAII (Michael W. Deem and Ramdas Pophale) SiO2 
 PCOD8150396
Probable space group: C 2/C
;
_chemical_formula_sum "Si O2"
_cell_formula_units_Z 48
_cell_length_a 18.927458
_cell_length_b 7.023346
_cell_length_c 22.195730
_cell_angle_alpha 90.000000
_cell_angle_beta 41.985468
_cell_angle_gamma 90.000000
_cell_volume 1973.759884
_symmetry_space_group_name_H-M "C 2/C"
_symmetry_group_IT_number 15
_symmetry_cell_setting 'monoclinic'
loop_
_space_group_symop_operation_xyz
x,y,z
-x,y,1/2-z
-x,-y,-z
x,-y,1/2+z
1/2+x,1/2+y,z
1/2-x,1/2+y,1/2-z
1/2-x,1/2-y,-z
1/2+x,1/2-y,1/2+z
loop_
_atom_site_type_symbol
_atom_site_label
_atom_site_fract_x
_atom_site_fract_y
_atom_site_fract_z
Si Si1 0.334484 0.775216 0.876990
Si Si2 0.272910 0.410726 0.852177
Si Si3 0.413829 0.923098 0.100241
Si Si4 0.041545 0.677303 0.320492
Si Si5 0.308579 0.380189 0.009651
Si Si6 0.948160 0.082942 0.149960
O O1 0.297516 0.555150 0.892590
O O2 0.378353 0.846507 0.785347
O O3 0.423015 0.793701 0.871968
O O4 0.265005 0.596612 0.039815
O O5 0.201930 0.518213 0.847295
O O6 0.211327 0.223552 0.913490
O O7 0.381303 0.348051 0.750833
O O8 0.446557 0.992940 0.146008
O O9 0.414691 0.693074 0.109425
O O10 0.500000 0.000000 0.000000
O O11 0.071784 0.856878 0.344081
O O12 0.250000 0.250000 0.000000
O O13 0.429635 0.379742 0.914145
#
# Coordination Sequence:
#
# PCOD8150396 Si02
#       6
#     8   8   8   8   8   8
#     4  10  24  46  74 104 144 191 244 302 369 440
#     4  11  27  47  70 108 148 189 246 307 372 437
#     4  12  26  46  71 105 144 189 246 301 364 440
#     4  10  24  47  73 103 143 193 242 303 366 441
#     4  12  25  43  75 108 142 192 244 303 367 444
#     4  11  26  45  71 103 145 189 241 299 369 439
#
# _framework density 24.319068999999999
#
# number of rings (size 3 to 8) (size 9 to 14) (size 15 to 20)
#    0.000    1.000    1.667    3.000    7.000    6.667 
#    0.000    1.667    0.000    0.000    0.000    0.000 
#    0.000    0.000    0.000    0.000    0.000    0.000 
#
# Total GULP energy -297652.105401 kJ/mol
# GULP energy per Si atom -12402.171058 kJ/mol
# Density = 2.426372 g / cm^3
# Si number density = 24.319069 Si / 1000 Ang^3
#
#
#
# Elastic Constant Matrix: (Units=GPa)
#
#
# Indices 1 2 3 4 5 6 
#
# 1 89.9458 16.5217 18.4896 -0.0014 -17.8741 0.0022
# 2 16.5217 85.3112 28.3759 -0.0019 -5.8698 0.0022
# 3 18.4896 28.3759 138.9399 -0.0007 -31.9756 0.0023
# 4 -0.0014 -0.0019 -0.0007 49.1974 0.0006 8.4058
# 5 -17.8741 -5.8698 -31.9756 0.0006 37.5413 -0.0003
# 6 0.0022 0.0022 0.0023 8.4058 -0.0003 46.5294
#
#
#
# Elastic Compliance Matrix: (Units=1/GPa)
#
#
# Indices 1 2 3 4 5 6 
#
# 1 0.012626 -0.002072 0.000064 0.000000 0.005743 -0.000001
# 2 -0.002072 0.012918 -0.002643 0.000000 -0.001217 0.000000
# 3 0.000064 -0.002643 0.009503 0.000000 0.007712 0.000000
# 4 0.000000 0.000000 0.000000 0.020974 0.000000 -0.003789
# 5 0.005743 -0.001217 0.007712 0.000000 0.035750 0.000000
# 6 -0.000001 0.000000 0.000000 -0.003789 0.000000 0.022176
#
#
# Mechanical properties :
#
#
# Convention : Reuss Voigt Hill
#
# Bulk Modulus (GPa) = 38.83817 48.99682 43.91750
# Shear Modulus (GPa) = 37.92762 43.37425 40.65094
#
# Velocity S-wave (km/s) = 3.95344 4.22779 4.09291
# Velocity P-wave (km/s) = 6.06997 6.63502 6.35877
#
# Compressibility (1/GPa) = 0.02574786
#
# Stress axis : x y z
#
# Youngs Moduli (GPa) = 79.20019 77.40980 105.22619
#
# Poissons Ratio (x) = 0.16036 -0.00678
# Poissons Ratio (y) = 0.16407 0.27809
# Poissons Ratio (z) = -0.00510 0.20458
#
# Static dielectric constant tensor:
#      x y z
#    x 4.294930 -0.000020 -0.050250 
#    y -0.000020 4.647550 0.000000 
#    z -0.050250 0.000000 4.653450 
# 
# 
# High freq. dielectric constant tensor:
#      x y z
#    x 1.953790 0.000000 -0.006930 
#    y 0.000000 1.974390 0.000000 
#    z -0.006930 0.000000 1.984320 
# 
# From -- ./inp_files/251788.got.cif
#   From: 2010.06.25/outbox.cif.g09.slc.cpg/sg15_126_cif.got.tgz:251788.got - 2010.06.28 07:06:18.
