data_PCOD8150866
_publ_section_title
;
Structure prediction by ZEFSAII (Michael W. Deem and Ramdas Pophale) SiO2 
 PCOD8150866
Probable space group: C 2/C
;
_chemical_formula_sum "Si O2"
_cell_formula_units_Z 52
_cell_length_a 9.029233
_cell_length_b 11.962742
_cell_length_c 26.912216
_cell_angle_alpha 90.000000
_cell_angle_beta 127.854363
_cell_angle_gamma 90.000000
_cell_volume 2295.215207
_symmetry_space_group_name_H-M "C 2/C"
_symmetry_group_IT_number 15
_symmetry_cell_setting 'monoclinic'
loop_
_space_group_symop_operation_xyz
x,y,z
-x,y,1/2-z
-x,-y,-z
x,-y,1/2+z
1/2+x,1/2+y,z
1/2-x,1/2+y,1/2-z
1/2-x,1/2-y,-z
1/2+x,1/2-y,1/2+z
loop_
_atom_site_type_symbol
_atom_site_label
_atom_site_fract_x
_atom_site_fract_y
_atom_site_fract_z
Si Si1 0.761286 0.963691 0.890144
Si Si2 0.140234 0.232403 0.824547
Si Si3 0.241912 0.393125 0.650914
Si Si4 0.319147 0.128927 0.027217
Si Si5 0.000000 0.711079 0.750000
Si Si6 0.396187 0.087025 0.819395
Si Si7 0.898318 0.051449 0.603767
O O1 0.664002 0.863716 0.838715
O O2 0.814342 0.915089 0.955246
O O3 0.615048 0.062655 0.870835
O O4 0.926193 0.021570 0.894324
O O5 0.339337 0.178687 0.849154
O O6 0.069312 0.168812 0.859872
O O7 0.000000 0.211399 0.750000
O O8 0.351149 0.282170 0.688155
O O9 0.368338 0.451650 0.635705
O O10 0.036410 0.369330 0.587020
O O11 0.225014 0.473889 0.695994
O O12 0.250000 0.250000 0.000000
O O13 0.282325 0.056895 0.969884
O O14 0.868609 0.634141 0.758082
#
# Coordination Sequence:
#
# PCOD8150866 Si02
#       7
#     8   8   8   8   4   8   8
#     4  11  25  45  71 106 136 188 239 290 360 419
#     4  11  26  43  67 102 145 185 236 290 354 421
#     4  10  26  47  69 103 140 188 234 291 360 421
#     4  11  23  46  73 102 141 186 238 297 354 414
#     4  12  26  44  72 102 142 180 238 288 352 422
#     4  10  27  40  66 101 138 180 228 286 348 417
#     4  11  24  47  72  98 141 189 233 297 354 423
#
# _framework density 22.655828
#
# number of rings (size 3 to 8) (size 9 to 14) (size 15 to 20)
#    0.000    1.231    1.538    1.846   14.000    0.000 
#    0.000    0.769    0.000    0.000    0.000    0.000 
#    0.000    0.000    0.000    0.000    0.000    0.000 
#
# Total GULP energy -322331.212102 kJ/mol
# GULP energy per Si atom -12397.354312 kJ/mol
# Density = 2.260426 g / cm^3
# Si number density = 22.655828 Si / 1000 Ang^3
#
#
#
# Elastic Constant Matrix: (Units=GPa)
#
#
# Indices 1 2 3 4 5 6 
#
# 1 128.4290 36.1248 48.1784 0.0000 -5.0147 0.0000
# 2 36.1248 90.1016 50.8737 0.0000 2.6439 0.0000
# 3 48.1784 50.8737 139.2157 0.0000 -7.1890 0.0000
# 4 0.0000 0.0000 0.0000 45.8773 0.0000 -9.4803
# 5 -5.0147 2.6439 -7.1890 0.0000 32.7270 0.0000
# 6 0.0000 0.0000 0.0000 -9.4803 0.0000 27.5666
#
#
#
# Elastic Compliance Matrix: (Units=1/GPa)
#
#
# Indices 1 2 3 4 5 6 
#
# 1 0.009391 -0.002516 -0.002271 0.000000 0.001143 0.000000
# 2 -0.002516 0.014828 -0.004683 0.000000 -0.002612 0.000000
# 3 -0.002271 -0.004683 0.009793 0.000000 0.002181 0.000000
# 4 0.000000 0.000000 0.000000 0.023465 0.000000 0.008070
# 5 0.001143 -0.002612 0.002181 0.000000 0.031421 0.000000
# 6 0.000000 0.000000 0.000000 0.008070 0.000000 0.039051
#
#
# Mechanical properties :
#
#
# Convention : Reuss Voigt Hill
#
# Bulk Modulus (GPa) = 66.35108 69.78891 68.07000
# Shear Modulus (GPa) = 32.91351 36.07214 34.49282
#
# Velocity S-wave (km/s) = 3.81565 3.99454 3.90612
# Velocity P-wave (km/s) = 6.98300 7.22122 7.10311
#
# Compressibility (1/GPa) = 0.01507134
#
# Stress axis : x y z
#
# Youngs Moduli (GPa) = 106.48631 67.43974 102.11359
#
# Poissons Ratio (x) = 0.16969 0.23194
# Poissons Ratio (y) = 0.26794 0.47817
# Poissons Ratio (z) = 0.24187 0.31580
#
# Static dielectric constant tensor:
#      x y z
#    x 4.332280 0.000000 -0.387460 
#    y 0.000000 4.205000 0.000000 
#    z -0.387460 0.000000 4.847640 
# 
# 
# High freq. dielectric constant tensor:
#      x y z
#    x 1.906030 0.000000 -0.016780 
#    y 0.000000 1.900490 0.000000 
#    z -0.016780 0.000000 1.887930 
# 
# From -- ./inp_files/288127.got.cif
#   From: 2010.06.25/outbox.cif.g09.slc.cpg/sg15_145_cif.got.tgz:288127.got - 2010.06.28 07:06:18.
