data_PCOD8150455
_publ_section_title
;
Structure prediction by ZEFSAII (Michael W. Deem and Ramdas Pophale) SiO2 
 PCOD8150455
Probable space group: C 2/C
;
_chemical_formula_sum "Si O2"
_cell_formula_units_Z 56
_cell_length_a 23.173077
_cell_length_b 8.262666
_cell_length_c 13.872157
_cell_angle_alpha 90.000000
_cell_angle_beta 108.188082
_cell_angle_gamma 90.000000
_cell_volume 2523.413470
_symmetry_space_group_name_H-M "C 2/C"
_symmetry_group_IT_number 15
_symmetry_cell_setting 'monoclinic'
loop_
_space_group_symop_operation_xyz
x,y,z
-x,y,1/2-z
-x,-y,-z
x,-y,1/2+z
1/2+x,1/2+y,z
1/2-x,1/2+y,1/2-z
1/2-x,1/2-y,-z
1/2+x,1/2-y,1/2+z
loop_
_atom_site_type_symbol
_atom_site_label
_atom_site_fract_x
_atom_site_fract_y
_atom_site_fract_z
Si Si1 0.401573 0.562705 0.729953
Si Si2 0.818002 0.070981 0.344255
Si Si3 0.178199 0.239699 0.962660
Si Si4 0.742078 0.238789 0.852733
Si Si5 0.000000 0.312162 0.750000
Si Si6 0.500000 0.310204 0.750000
Si Si7 0.162241 0.605277 0.969697
Si Si8 0.028845 0.434338 0.417199
O O1 0.373322 0.510293 0.816669
O O2 0.346639 0.619077 0.632411
O O3 0.448508 0.706556 0.776039
O O4 0.439292 0.415415 0.702513
O O5 0.845665 0.170714 0.447807
O O6 0.779875 0.197132 0.260836
O O7 0.772773 0.935475 0.360719
O O8 0.155615 0.420250 0.933381
O O9 0.250000 0.250000 0.000000
O O10 0.683559 0.219709 0.892181
O O11 0.789787 0.369884 0.919017
O O12 0.034642 0.413026 0.849361
O O13 0.511239 0.200664 0.659892
O O14 0.094466 0.649226 0.969751
O O15 0.000000 0.500000 0.500000
#
# Coordination Sequence:
#
# PCOD8150455 Si02
#       8
#     8   8   8   8   4   4   8   8
#     4  11  25  45  70  98 143 181 231 292 341 418
#     4  12  26  41  72 104 136 184 234 275 355 428
#     4  12  24  46  69 104 141 183 224 290 352 415
#     4  11  25  43  68 106 137 182 226 285 355 423
#     4  10  24  48  64 102 134 182 228 282 358 388
#     4  10  26  46  68 100 140 180 234 294 348 408
#     4  11  24  45  70  96 146 177 226 292 350 412
#     4  11  25  44  72 100 131 183 235 287 348 419
#
# _framework density 22.192162
#
# number of rings (size 3 to 8) (size 9 to 14) (size 15 to 20)
#    0.000    0.857    2.857    3.429    8.000    0.000 
#    2.571    2.857    0.000    0.000    0.000    0.000 
#    0.000    0.000    0.000    0.000    0.000    0.000 
#
# Total GULP energy -347236.960399 kJ/mol
# GULP energy per Si atom -12401.320014 kJ/mol
# Density = 2.214165 g / cm^3
# Si number density = 22.192162 Si / 1000 Ang^3
#
#
#
# Elastic Constant Matrix: (Units=GPa)
#
#
# Indices 1 2 3 4 5 6 
#
# 1 136.1703 35.2602 50.5077 0.0000 4.1351 0.0000
# 2 35.2602 99.2989 33.2775 0.0000 3.2474 0.0000
# 3 50.5077 33.2775 93.8609 0.0000 -5.2294 0.0000
# 4 0.0000 0.0000 0.0000 33.3771 0.0000 -3.8474
# 5 4.1351 3.2474 -5.2294 0.0000 34.0607 0.0000
# 6 0.0000 0.0000 0.0000 -3.8474 0.0000 33.6426
#
#
#
# Elastic Compliance Matrix: (Units=1/GPa)
#
#
# Indices 1 2 3 4 5 6 
#
# 1 0.009570 -0.001799 -0.004606 0.000000 -0.001697 0.000000
# 2 -0.001799 0.011868 -0.003319 0.000000 -0.001423 0.000000
# 3 -0.004606 -0.003319 0.014482 0.000000 0.003099 0.000000
# 4 0.000000 0.000000 0.000000 0.030361 0.000000 0.003472
# 5 -0.001697 -0.001423 0.003099 0.000000 0.030177 0.000000
# 6 0.000000 0.000000 0.000000 0.003472 0.000000 0.030121
#
#
# Mechanical properties :
#
#
# Convention : Reuss Voigt Hill
#
# Bulk Modulus (GPa) = 60.71083 63.04679 61.87881
# Shear Modulus (GPa) = 32.99937 34.23508 33.61723
#
# Velocity S-wave (km/s) = 3.86033 3.93194 3.89630
# Velocity P-wave (km/s) = 6.87646 7.00605 6.94156
#
# Compressibility (1/GPa) = 0.01647152
#
# Stress axis : x y z
#
# Youngs Moduli (GPa) = 104.49685 84.25886 69.05032
#
# Poissons Ratio (x) = 0.15157 0.31807
# Poissons Ratio (y) = 0.18798 0.22918
# Poissons Ratio (z) = 0.48135 0.27966
#
# Static dielectric constant tensor:
#      x y z
#    x 4.118440 0.000000 0.127750 
#    y 0.000000 4.323530 0.000000 
#    z 0.127750 0.000000 4.004430 
# 
# 
# High freq. dielectric constant tensor:
#      x y z
#    x 1.876300 0.000000 0.006540 
#    y 0.000000 1.889710 0.000000 
#    z 0.006540 0.000000 1.865940 
# 
# From -- ./inp_files/172006.got.cif
#   From: 2010.06.25/outbox.cif.g09.slc.cpg/sg15_87_cif.got.tgz:172006.got - 2010.06.28 07:06:18.
