data_PCOD8150286
_publ_section_title
;
Structure prediction by ZEFSAII (Michael W. Deem and Ramdas Pophale) SiO2 
 PCOD8150286
Probable space group: C 2/C
;
_chemical_formula_sum "Si O2"
_cell_formula_units_Z 32
_cell_length_a 19.159624
_cell_length_b 10.608285
_cell_length_c 8.012489
_cell_angle_alpha 90.000000
_cell_angle_beta 59.558983
_cell_angle_gamma 90.000000
_cell_volume 1404.051501
_symmetry_space_group_name_H-M "C 2/C"
_symmetry_group_IT_number 15
_symmetry_cell_setting 'monoclinic'
loop_
_space_group_symop_operation_xyz
x,y,z
-x,y,1/2-z
-x,-y,-z
x,-y,1/2+z
1/2+x,1/2+y,z
1/2-x,1/2+y,1/2-z
1/2-x,1/2-y,-z
1/2+x,1/2-y,1/2+z
loop_
_atom_site_type_symbol
_atom_site_label
_atom_site_fract_x
_atom_site_fract_y
_atom_site_fract_z
Si Si1 0.540260 0.373529 0.879406
Si Si2 0.729696 0.375003 0.614833
Si Si3 0.433494 0.124529 0.452553
Si Si4 0.170194 0.563344 0.204381
O O1 0.500000 0.342374 0.750000
O O2 0.635492 0.397112 0.758042
O O3 0.500000 0.500000 0.000000
O O4 0.528539 0.250636 0.011190
O O5 0.750000 0.250000 0.500000
O O6 0.757988 0.485271 0.462981
O O7 0.784575 0.356772 0.711885
O O8 0.500000 0.060394 0.250000
O O9 0.362328 0.154678 0.403904
O O10 0.401330 0.024917 0.628926
#
# Coordination Sequence:
#
# PCOD8150286 Si02
#       4
#     8   8   8   8
#     4  12  27  47  70 105 148 188 235 294 368 435
#     4  11  23  47  73 101 141 185 240 298 354 433
#     4  11  24  42  71 103 139 186 235 303 356 426
#     4  10  24  45  71 102 134 187 246 295 358 425
#
# _framework density 22.791187000000001
#
# number of rings (size 3 to 8) (size 9 to 14) (size 15 to 20)
#    0.000    1.000    2.500    3.000    3.500    2.000 
#    4.500    0.000    0.000    0.000    0.000    0.000 
#    0.000    0.000    0.000    0.000    0.000    0.000 
#
# Total GULP energy -198216.753266 kJ/mol
# GULP energy per Si atom -12388.547079 kJ/mol
# Density = 2.273931 g / cm^3
# Si number density = 22.791187 Si / 1000 Ang^3
#
#
#
# Elastic Constant Matrix: (Units=GPa)
#
#
# Indices 1 2 3 4 5 6 
#
# 1 145.3992 83.5905 52.4295 0.0000 30.9333 0.0000
# 2 83.5905 91.7533 28.9610 0.0000 24.7647 0.0000
# 3 52.4295 28.9610 104.9308 0.0000 0.5105 0.0000
# 4 0.0000 0.0000 0.0000 17.0517 0.0000 4.6560
# 5 30.9333 24.7647 0.5105 0.0000 63.9282 0.0000
# 6 0.0000 0.0000 0.0000 4.6560 0.0000 42.1961
#
#
#
# Elastic Compliance Matrix: (Units=1/GPa)
#
#
# Indices 1 2 3 4 5 6 
#
# 1 0.016592 -0.012800 -0.004742 0.000000 -0.003032 0.000000
# 2 -0.012800 0.023339 -0.000032 0.000000 -0.002847 0.000000
# 3 -0.004742 -0.000032 0.011898 0.000000 0.002212 0.000000
# 4 0.000000 0.000000 0.000000 0.060467 0.000000 -0.006672
# 5 -0.003032 -0.002847 0.002212 0.000000 0.018195 0.000000
# 6 0.000000 0.000000 0.000000 -0.006672 0.000000 0.024435
#
#
# Mechanical properties :
#
#
# Convention : Reuss Voigt Hill
#
# Bulk Modulus (GPa) = 59.95646 74.67171 67.31408
# Shear Modulus (GPa) = 25.55787 36.44202 30.99995
#
# Velocity S-wave (km/s) = 3.35235 4.00303 3.69205
# Velocity P-wave (km/s) = 6.43027 7.36208 6.91189
#
# Compressibility (1/GPa) = 0.01667877
#
# Stress axis : x y z
#
# Youngs Moduli (GPa) = 60.27108 42.84693 84.04949
#
# Poissons Ratio (x) = 0.54846 0.39860
# Poissons Ratio (y) = 0.77149 0.00268
# Poissons Ratio (z) = 0.28584 0.00137
#
# Static dielectric constant tensor:
#      x y z
#    x 4.399340 0.000000 0.107910 
#    y 0.000000 3.681730 0.000000 
#    z 0.107910 0.000000 4.468890 
# 
# 
# High freq. dielectric constant tensor:
#      x y z
#    x 1.928810 0.000000 0.006470 
#    y 0.000000 1.879570 0.000000 
#    z 0.006470 0.000000 1.923210 
# 
# From -- ./inp_files/45839.got.cif
#   From: 2010.06.25/outbox.cif.g09.slc.cpg/sg15_23_cif.got.tgz:45839.got - 2010.06.28 07:06:18.
