data_PCOD8150826
_publ_section_title
;
Structure prediction by ZEFSAII (Michael W. Deem and Ramdas Pophale) SiO2 
 PCOD8150826
Probable space group: C 2/C
;
_chemical_formula_sum "Si O2"
_cell_formula_units_Z 52
_cell_length_a 23.755265
_cell_length_b 14.203489
_cell_length_c 8.302057
_cell_angle_alpha 90.000000
_cell_angle_beta 116.930685
_cell_angle_gamma 90.000000
_cell_volume 2497.404083
_symmetry_space_group_name_H-M "C 2/C"
_symmetry_group_IT_number 15
_symmetry_cell_setting 'monoclinic'
loop_
_space_group_symop_operation_xyz
x,y,z
-x,y,1/2-z
-x,-y,-z
x,-y,1/2+z
1/2+x,1/2+y,z
1/2-x,1/2+y,1/2-z
1/2-x,1/2-y,-z
1/2+x,1/2-y,1/2+z
loop_
_atom_site_type_symbol
_atom_site_label
_atom_site_fract_x
_atom_site_fract_y
_atom_site_fract_z
Si Si1 0.378189 0.407990 0.007772
Si Si2 0.806562 0.413111 0.340110
Si Si3 0.617698 0.765679 0.221476
Si Si4 0.000000 0.203452 0.250000
Si Si5 0.415173 0.397735 0.401554
Si Si6 0.732338 0.898387 0.850421
Si Si7 0.301807 0.715448 0.885109
O O1 0.388969 0.316548 0.915618
O O2 0.396430 0.498120 0.928740
O O3 0.305956 0.421042 0.972658
O O4 0.424433 0.399929 0.221487
O O5 0.871011 0.365192 0.355027
O O6 0.802263 0.392281 0.523506
O O7 0.804662 0.524351 0.304520
O O8 0.748193 0.368382 0.167917
O O9 0.555353 0.770627 0.252540
O O10 0.679669 0.744504 0.409827
O O11 0.021917 0.135534 0.424394
O O12 0.362667 0.320491 0.370410
O O13 0.728002 0.800162 0.753958
#
# Coordination Sequence:
#
# PCOD8150826 Si02
#       7
#     8   8   8   4   8   8   8
#     4  12  22  37  63  96 128 166 197 251 309 384
#     4  12  23  37  61  92 127 165 196 249 311 375
#     4  11  25  40  63  86 123 166 213 252 307 358
#     4  10  26  46  60  84 120 172 216 266 294 354
#     4  11  23  39  62  89 127 165 211 248 306 363
#     4  12  23  37  62  99 136 157 193 249 319 378
#     4  11  21  38  61  91 127 163 198 249 308 376
#
# _framework density 20.821619999999999
#
# number of rings (size 3 to 8) (size 9 to 14) (size 15 to 20)
#    0.000    0.615    4.615    4.615    2.154    3.077 
#    0.000    0.000    0.000    8.308    0.000    0.000 
#    0.000    0.000    0.000    0.000    0.000    0.000 
#
# Total GULP energy -322504.369232 kJ/mol
# GULP energy per Si atom -12404.014201 kJ/mol
# Density = 2.077423 g / cm^3
# Si number density = 20.821620 Si / 1000 Ang^3
#
#
#
# Elastic Constant Matrix: (Units=GPa)
#
#
# Indices 1 2 3 4 5 6 
#
# 1 64.6539 7.0198 18.0736 0.0000 -5.5546 0.0000
# 2 7.0198 56.8195 1.5234 0.0000 6.5072 0.0000
# 3 18.0736 1.5234 114.4051 0.0000 -9.7416 0.0000
# 4 0.0000 0.0000 0.0000 31.8369 0.0000 -5.8144
# 5 -5.5546 6.5072 -9.7416 0.0000 31.9827 0.0000
# 6 0.0000 0.0000 0.0000 -5.8144 0.0000 27.1126
#
#
#
# Elastic Compliance Matrix: (Units=1/GPa)
#
#
# Indices 1 2 3 4 5 6 
#
# 1 0.016603 -0.002289 -0.002369 0.000000 0.002628 0.000000
# 2 -0.002289 0.018371 -0.000241 0.000000 -0.004209 0.000000
# 3 -0.002369 -0.000241 0.009329 0.000000 0.002479 0.000000
# 4 0.000000 0.000000 0.000000 0.032690 0.000000 0.007011
# 5 0.002628 -0.004209 0.002479 0.000000 0.033335 0.000000
# 6 0.000000 0.000000 0.000000 0.007011 0.000000 0.038387
#
#
# Mechanical properties :
#
#
# Convention : Reuss Voigt Hill
#
# Bulk Modulus (GPa) = 28.98060 32.12356 30.55208
# Shear Modulus (GPa) = 29.40910 32.13721 30.77316
#
# Velocity S-wave (km/s) = 3.76231 3.93294 3.84857
# Velocity P-wave (km/s) = 5.72905 6.00712 5.86973
#
# Compressibility (1/GPa) = 0.03450584
#
# Stress axis : x y z
#
# Youngs Moduli (GPa) = 60.22861 54.43409 107.18783
#
# Poissons Ratio (x) = 0.12458 0.25390
# Poissons Ratio (y) = 0.13785 0.02588
# Poissons Ratio (z) = 0.14267 0.01314
#
# Static dielectric constant tensor:
#      x y z
#    x 3.775160 0.000000 -0.039160 
#    y 0.000000 3.764290 0.000000 
#    z -0.039160 0.000000 3.913620 
# 
# 
# High freq. dielectric constant tensor:
#      x y z
#    x 1.806840 0.000000 -0.018690 
#    y 0.000000 1.809590 0.000000 
#    z -0.018690 0.000000 1.824560 
# 
# From -- ./inp_files/61655.got.cif
#   From: 2010.06.25/outbox.cif.g09.slc.cpg/sg15_31_cif.got.tgz:61655.got - 2010.06.28 07:06:18.
