data_PCOD8150656
_publ_section_title
;
Structure prediction by ZEFSAII (Michael W. Deem and Ramdas Pophale) SiO2 
 PCOD8150656
Probable space group: C 2/C
;
_chemical_formula_sum "Si O2"
_cell_formula_units_Z 44
_cell_length_a 17.133322
_cell_length_b 5.468958
_cell_length_c 24.321818
_cell_angle_alpha 90.000000
_cell_angle_beta 60.680622
_cell_angle_gamma 90.000000
_cell_volume 1987.058826
_symmetry_space_group_name_H-M "C 2/C"
_symmetry_group_IT_number 15
_symmetry_cell_setting 'monoclinic'
loop_
_space_group_symop_operation_xyz
x,y,z
-x,y,1/2-z
-x,-y,-z
x,-y,1/2+z
1/2+x,1/2+y,z
1/2-x,1/2+y,1/2-z
1/2-x,1/2-y,-z
1/2+x,1/2-y,1/2+z
loop_
_atom_site_type_symbol
_atom_site_label
_atom_site_fract_x
_atom_site_fract_y
_atom_site_fract_z
Si Si1 0.674984 0.010392 0.971355
Si Si2 0.663943 0.049670 0.350229
Si Si3 0.347483 0.726691 0.250673
Si Si4 0.134236 0.014986 0.043434
Si Si5 0.473594 0.348359 0.161481
Si Si6 0.500000 0.030005 0.250000
O O1 0.658776 0.057548 0.912876
O O2 0.779908 0.981341 0.947021
O O3 0.629796 0.753610 0.005789
O O4 0.632493 0.251456 0.013802
O O5 0.753299 0.211693 0.314097
O O6 0.573839 0.203913 0.371646
O O7 0.668702 0.835043 0.304159
O O8 0.395216 0.468511 0.224901
O O9 0.410708 0.879573 0.268826
O O10 0.045021 0.036706 0.111428
O O11 0.526528 0.178282 0.186098
#
# Coordination Sequence:
#
# PCOD8150656 Si02
#       6
#     8   8   8   8   8   4
#     4  10  25  45  70 100 133 191 222 299 336 414
#     4  11  25  42  69  98 143 175 228 278 360 404
#     4  11  24  44  64 106 136 178 225 288 349 423
#     4  10  25  46  69  99 138 176 248 275 348 407
#     4  11  25  44  66 102 134 181 224 291 339 426
#     4  10  26  40  70 100 132 182 226 284 356 404
#
# _framework density 22.143280000000001
#
# number of rings (size 3 to 8) (size 9 to 14) (size 15 to 20)
#    0.000    1.455    1.818    0.545   12.727    4.364 
#    0.000    0.000    0.000    0.000    0.000    0.000 
#    0.000    0.000    0.000    0.000    0.000    0.000 
#
# Total GULP energy -272795.362019 kJ/mol
# GULP energy per Si atom -12399.789183 kJ/mol
# Density = 2.209288 g / cm^3
# Si number density = 22.143280 Si / 1000 Ang^3
#
#
#
# Elastic Constant Matrix: (Units=GPa)
#
#
# Indices 1 2 3 4 5 6 
#
# 1 107.6383 30.8961 54.9137 -0.0247 21.8001 0.0807
# 2 30.8961 109.0622 23.7980 0.0682 13.4702 -0.0357
# 3 54.9137 23.7980 79.9756 -0.0135 12.3154 0.0041
# 4 -0.0247 0.0682 -0.0135 23.8591 0.0375 -8.5214
# 5 21.8001 13.4702 12.3154 0.0375 42.2132 -0.0009
# 6 0.0807 -0.0357 0.0041 -8.5214 -0.0009 5.1427
#
#
#
# Elastic Compliance Matrix: (Units=1/GPa)
#
#
# Indices 1 2 3 4 5 6 
#
# 1 0.015569 -0.001768 -0.009437 -0.000162 -0.004723 -0.000518
# 2 -0.001768 0.010241 -0.001540 0.000016 -0.001906 0.000127
# 3 -0.009437 -0.001540 0.019491 0.000122 -0.000322 0.000324
# 4 -0.000162 0.000016 0.000122 0.102678 -0.000045 0.170137
# 5 -0.004723 -0.001906 -0.000322 -0.000045 0.026830 -0.000008
# 6 -0.000518 0.000127 0.000324 0.170137 -0.000008 0.476371
#
#
# Mechanical properties :
#
#
# Convention : Reuss Voigt Hill
#
# Bulk Modulus (GPa) = 50.47488 57.32129 53.89808
# Shear Modulus (GPa) = 7.31770 26.71422 17.01596
#
# Velocity S-wave (km/s) = 1.81986 3.47713 2.77510
# Velocity P-wave (km/s) = 5.22111 6.48563 5.88742
#
# Compressibility (1/GPa) = 0.01981184
#
# Stress axis : x y z
#
# Youngs Moduli (GPa) = 64.22947 97.64288 51.30511
#
# Poissons Ratio (x) = 0.17265 0.48416
# Poissons Ratio (y) = 0.11357 0.07901
# Poissons Ratio (z) = 0.60613 0.15037
#
# Static dielectric constant tensor:
#      x y z
#    x 4.197830 -0.000220 0.004340 
#    y -0.000220 4.040850 -0.000220 
#    z 0.004340 -0.000220 3.740040 
# 
# 
# High freq. dielectric constant tensor:
#      x y z
#    x 1.888200 -0.000010 0.002950 
#    y -0.000010 1.874610 -0.000020 
#    z 0.002950 -0.000020 1.861610 
# 
# From -- ./inp_files/246424.got.cif
#   From: 2010.06.25/outbox.cif.g09.slc.cpg/sg15_124_cif.got.tgz:246424.got - 2010.06.28 07:06:18.
