data_PCOD8150910
_publ_section_title
;
Structure prediction by ZEFSAII (Michael W. Deem and Ramdas Pophale) SiO2 
 PCOD8150910
Probable space group: C 2/C
;
_chemical_formula_sum "Si O2"
_cell_formula_units_Z 48
_cell_length_a 14.747515
_cell_length_b 28.762602
_cell_length_c 8.227190
_cell_angle_alpha 90.000000
_cell_angle_beta 37.592575
_cell_angle_gamma 90.000000
_cell_volume 2128.916497
_symmetry_space_group_name_H-M "C 2/C"
_symmetry_group_IT_number 15
_symmetry_cell_setting 'monoclinic'
loop_
_space_group_symop_operation_xyz
x,y,z
-x,y,1/2-z
-x,-y,-z
x,-y,1/2+z
1/2+x,1/2+y,z
1/2-x,1/2+y,1/2-z
1/2-x,1/2-y,-z
1/2+x,1/2-y,1/2+z
loop_
_atom_site_type_symbol
_atom_site_label
_atom_site_fract_x
_atom_site_fract_y
_atom_site_fract_z
Si Si1 0.000000 0.016431 0.750000
Si Si2 0.465826 0.344886 0.619907
Si Si3 0.776083 0.681821 0.614512
Si Si4 0.671875 0.555817 0.221765
Si Si5 0.762098 0.273008 0.657884
Si Si6 0.500000 0.919751 0.250000
Si Si7 0.969896 0.337899 0.524611
O O1 0.113094 0.049057 0.488676
O O2 0.896780 0.984755 0.786578
O O3 0.500000 0.323008 0.750000
O O4 0.627153 0.348782 0.307189
O O5 0.382522 0.393753 0.760589
O O6 0.370775 0.310417 0.642334
O O7 0.747473 0.737109 0.676985
O O8 0.868506 0.668616 0.326207
O O9 0.859856 0.669339 0.664561
O O10 0.850218 0.549866 0.944338
O O11 0.750000 0.250000 0.500000
O O12 0.916435 0.301041 0.463901
O O13 0.462448 0.889277 0.462360
#
# Coordination Sequence:
#
# PCOD8150910 Si02
#       7
#     4   8   8   8   8   4   8
#     4  10  26  50  76 111 136 178 217 306 352 462
#     4  12  23  42  70 101 134 193 234 286 351 423
#     4  11  25  40  63  96 144 193 241 293 336 402
#     4  11  25  47  77 105 145 173 235 281 376 427
#     4  12  23  41  65  96 140 192 245 297 346 403
#     4  12  24  46  74 103 136 190 225 296 348 440
#     4  11  25  43  59  99 139 185 241 292 344 402
#
# _framework density 22.546679999999999
#
# number of rings (size 3 to 8) (size 9 to 14) (size 15 to 20)
#    0.000    0.667    4.167    3.500    2.333    2.667 
#    0.000    0.000    0.000    0.000    0.000    0.000 
#    0.000    0.000    0.000    0.000    0.000    0.000 
#
# Total GULP energy -297536.576697 kJ/mol
# GULP energy per Si atom -12397.357362 kJ/mol
# Density = 2.249536 g / cm^3
# Si number density = 22.546680 Si / 1000 Ang^3
#
#
#
# Elastic Constant Matrix: (Units=GPa)
#
#
# Indices 1 2 3 4 5 6 
#
# 1 103.6260 23.9622 51.1105 0.0000 -14.6098 0.0000
# 2 23.9622 57.8383 33.7856 0.0000 -5.2422 0.0000
# 3 51.1105 33.7856 129.8775 0.0000 -13.4786 0.0000
# 4 0.0000 0.0000 0.0000 21.9941 0.0000 -14.0607
# 5 -14.6098 -5.2422 -13.4786 0.0000 43.8367 0.0000
# 6 0.0000 0.0000 0.0000 -14.0607 0.0000 10.7125
#
#
#
# Elastic Compliance Matrix: (Units=1/GPa)
#
#
# Indices 1 2 3 4 5 6 
#
# 1 0.012608 -0.002648 -0.003997 0.000000 0.002656 0.000000
# 2 -0.002648 0.020973 -0.004385 0.000000 0.000277 0.000000
# 3 -0.003997 -0.004385 0.010558 0.000000 0.001390 0.000000
# 4 0.000000 0.000000 0.000000 0.282584 0.000000 0.370905
# 5 0.002656 0.000277 0.001390 0.000000 0.024158 0.000000
# 6 0.000000 0.000000 0.000000 0.370905 0.000000 0.580180
#
#
# Mechanical properties :
#
#
# Convention : Reuss Voigt Hill
#
# Bulk Modulus (GPa) = 45.29256 56.56207 50.92732
# Shear Modulus (GPa) = 5.20573 27.47423 16.33998
#
# Velocity S-wave (km/s) = 1.52114 3.49456 2.69498
# Velocity P-wave (km/s) = 4.81842 6.43612 5.68510
#
# Compressibility (1/GPa) = 0.02207868
#
# Stress axis : x y z
#
# Youngs Moduli (GPa) = 79.31188 47.67990 94.71921
#
# Poissons Ratio (x) = 0.12625 0.37862
# Poissons Ratio (y) = 0.21001 0.41535
# Poissons Ratio (z) = 0.31703 0.20908
#
# Static dielectric constant tensor:
#      x y z
#    x 4.597790 0.000000 -0.106390 
#    y 0.000000 3.839660 0.000000 
#    z -0.106390 0.000000 4.389910 
# 
# 
# High freq. dielectric constant tensor:
#      x y z
#    x 1.905510 0.000000 -0.008210 
#    y 0.000000 1.863430 0.000000 
#    z -0.008210 0.000000 1.902540 
# 
# From -- ./inp_files/43879.got.cif
#   From: 2010.06.25/outbox.cif.g09.slc.cpg/sg15_22_cif.got.tgz:43879.got - 2010.06.28 07:06:18.
