data_PCOD8150221
_publ_section_title
;
Structure prediction by ZEFSAII (Michael W. Deem and Ramdas Pophale) SiO2 
 PCOD8150221
Probable space group: C 2/C
;
_chemical_formula_sum "Si O2"
_cell_formula_units_Z 56
_cell_length_a 14.125367
_cell_length_b 17.016992
_cell_length_c 12.981372
_cell_angle_alpha 90.000000
_cell_angle_beta 64.641075
_cell_angle_gamma 90.000000
_cell_volume 2819.679900
_symmetry_space_group_name_H-M "C 2/C"
_symmetry_group_IT_number 15
_symmetry_cell_setting 'monoclinic'
loop_
_space_group_symop_operation_xyz
x,y,z
-x,y,1/2-z
-x,-y,-z
x,-y,1/2+z
1/2+x,1/2+y,z
1/2-x,1/2+y,1/2-z
1/2-x,1/2-y,-z
1/2+x,1/2-y,1/2+z
loop_
_atom_site_type_symbol
_atom_site_label
_atom_site_fract_x
_atom_site_fract_y
_atom_site_fract_z
Si Si1 0.751264 0.063960 0.946197
Si Si2 0.615472 0.308775 0.222175
Si Si3 0.379763 0.724687 0.341807
Si Si4 0.684854 0.676417 0.910925
Si Si5 0.621748 0.498842 0.437154
Si Si6 0.231948 0.923833 0.708821
Si Si7 0.880945 0.632826 0.320247
O O1 0.792580 0.130888 0.849861
O O2 0.722816 0.983886 0.898271
O O3 0.650746 0.091863 0.057639
O O4 0.841994 0.054936 0.988320
O O5 0.500000 0.342246 0.250000
O O6 0.621231 0.294624 0.341487
O O7 0.634840 0.225982 0.156740
O O8 0.500000 0.736412 0.250000
O O9 0.376069 0.717849 0.466762
O O10 0.307884 0.799615 0.345285
O O11 0.325354 0.648678 0.318011
O O12 0.679584 0.583424 0.926430
O O13 0.500000 0.500000 0.500000
O O14 0.644041 0.530391 0.313125
O O15 0.321224 0.897061 0.746346
O O16 0.000000 0.609408 0.250000
#
# Coordination Sequence:
#
# PCOD8150221 Si02
#       7
#     8   8   8   8   8   8   8
#     4  11  23  38  64  94 126 163 213 265 318 379
#     4  11  22  41  66  94 127 163 208 268 323 380
#     4  11  24  42  65  91 131 173 209 260 321 380
#     4  11  22  42  62  93 132 163 218 261 313 390
#     4  11  22  37  63  94 129 163 205 268 320 368
#     4  11  22  39  65  93 126 163 212 267 311 378
#     4  10  24  45  62  89 128 173 214 261 324 383
#
# _framework density 19.860410000000002
#
# number of rings (size 3 to 8) (size 9 to 14) (size 15 to 20)
#    0.000    1.143    4.286    2.143    0.000    1.714 
#    5.143    2.857    0.000    0.000    0.000    0.000 
#    0.000    0.000    0.000    0.000    0.000    0.000 
#
# Total GULP energy -347189.795724 kJ/mol
# GULP energy per Si atom -12399.635562 kJ/mol
# Density = 1.981521 g / cm^3
# Si number density = 19.860410 Si / 1000 Ang^3
#
#
#
# Elastic Constant Matrix: (Units=GPa)
#
#
# Indices 1 2 3 4 5 6 
#
# 1 111.9604 40.5423 65.6040 0.0000 -18.3455 0.0000
# 2 40.5423 101.7799 42.3163 0.0000 -18.1719 0.0000
# 3 65.6040 42.3163 115.2543 0.0000 -6.6585 0.0000
# 4 0.0000 0.0000 0.0000 33.5569 0.0000 -0.4277
# 5 -18.3455 -18.1719 -6.6585 0.0000 38.9692 0.0000
# 6 0.0000 0.0000 0.0000 -0.4277 0.0000 14.1048
#
#
#
# Elastic Compliance Matrix: (Units=1/GPa)
#
#
# Indices 1 2 3 4 5 6 
#
# 1 0.014762 -0.001946 -0.007413 0.000000 0.004776 0.000000
# 2 -0.001946 0.012783 -0.003327 0.000000 0.004476 0.000000
# 3 -0.007413 -0.003327 0.013964 0.000000 -0.002655 0.000000
# 4 0.000000 0.000000 0.000000 0.029812 0.000000 0.000904
# 5 0.004776 0.004476 -0.002655 0.000000 0.029543 0.000000
# 6 0.000000 0.000000 0.000000 0.000904 0.000000 0.070925
#
#
# Mechanical properties :
#
#
# Convention : Reuss Voigt Hill
#
# Bulk Modulus (GPa) = 61.96521 69.54665 65.75593
# Shear Modulus (GPa) = 24.68656 29.36164 27.02410
#
# Velocity S-wave (km/s) = 3.52945 3.84917 3.69277
# Velocity P-wave (km/s) = 6.91935 7.40598 7.16680
#
# Compressibility (1/GPa) = 0.01613809
#
# Stress axis : x y z
#
# Youngs Moduli (GPa) = 67.74013 78.23102 71.61308
#
# Poissons Ratio (x) = 0.15222 0.53084
# Poissons Ratio (y) = 0.13181 0.23826
# Poissons Ratio (z) = 0.50213 0.26028
#
# Static dielectric constant tensor:
#      x y z
#    x 3.615670 0.000000 0.249190 
#    y 0.000000 3.764830 0.000000 
#    z 0.249190 0.000000 3.920420 
# 
# 
# High freq. dielectric constant tensor:
#      x y z
#    x 1.768290 0.000000 0.013850 
#    y 0.000000 1.780300 0.000000 
#    z 0.013850 0.000000 1.788200 
# 
# From -- ./inp_files/98677.got.cif
#   From: 2010.06.25/outbox.cif.g09.slc.cpg/sg15_50_cif.got.tgz:98677.got - 2010.06.28 07:06:18.
