data_PCOD8150125
_publ_section_title
;
Structure prediction by ZEFSAII (Michael W. Deem and Ramdas Pophale) SiO2 
 PCOD8150125
Probable space group: C 2/C
;
_chemical_formula_sum "Si O2"
_cell_formula_units_Z 52
_cell_length_a 11.712595
_cell_length_b 25.775060
_cell_length_c 8.725747
_cell_angle_alpha 90.000000
_cell_angle_beta 69.405774
_cell_angle_gamma 90.000000
_cell_volume 2465.899360
_symmetry_space_group_name_H-M "C 2/C"
_symmetry_group_IT_number 15
_symmetry_cell_setting 'monoclinic'
loop_
_space_group_symop_operation_xyz
x,y,z
-x,y,1/2-z
-x,-y,-z
x,-y,1/2+z
1/2+x,1/2+y,z
1/2-x,1/2+y,1/2-z
1/2-x,1/2-y,-z
1/2+x,1/2-y,1/2+z
loop_
_atom_site_type_symbol
_atom_site_label
_atom_site_fract_x
_atom_site_fract_y
_atom_site_fract_z
Si Si1 0.741470 0.050919 0.052389
Si Si2 0.477510 0.812857 0.503661
Si Si3 0.955408 0.198533 0.606835
Si Si4 0.704217 0.443695 0.329833
Si Si5 0.500000 0.890814 0.750000
Si Si6 0.973118 0.098139 0.086076
Si Si7 0.692122 0.165686 0.686837
O O1 0.605993 0.073675 0.130158
O O2 0.834431 0.083586 0.113153
O O3 0.735714 0.992314 0.114866
O O4 0.785003 0.051900 0.857201
O O5 0.505353 0.755929 0.555516
O O6 0.439708 0.853487 0.651595
O O7 0.368517 0.809251 0.433794
O O8 0.602199 0.833334 0.372495
O O9 0.809237 0.199719 0.673668
O O10 0.000000 0.177842 0.750000
O O11 0.007141 0.159265 0.454727
O O12 0.561654 0.437535 0.439974
O O13 0.774540 0.393793 0.362332
O O14 0.000000 0.086234 0.250000
#
# Coordination Sequence:
#
# PCOD8150125 Si02
#       7
#     8   8   8   8   4   8   8
#     4  12  26  45  69 101 138 177 232 277 345 405
#     4  11  24  45  66  96 140 183 225 276 338 404
#     4  11  24  42  69 102 134 179 225 282 346 397
#     4  11  24  46  71 100 134 178 221 290 341 397
#     4  12  28  42  68 102 138 190 224 276 330 414
#     4  11  25  44  72 102 134 175 229 287 341 402
#     4  10  24  44  68  94 137 179 227 281 337 410
#
# _framework density 21.08764
#
# number of rings (size 3 to 8) (size 9 to 14) (size 15 to 20)
#    0.000    0.923    2.308    4.154    8.615    3.692 
#    0.000    0.000    0.000    0.000    0.000    0.000 
#    0.000    0.000    0.000    0.000    0.000    0.000 
#
# Total GULP energy -322580.742111 kJ/mol
# GULP energy per Si atom -12406.951620 kJ/mol
# Density = 2.103964 g / cm^3
# Si number density = 21.087640 Si / 1000 Ang^3
#
#
#
# Elastic Constant Matrix: (Units=GPa)
#
#
# Indices 1 2 3 4 5 6 
#
# 1 102.8837 24.8218 40.5436 0.0000 -12.4819 0.0000
# 2 24.8218 116.8861 30.3856 0.0000 -5.9410 0.0000
# 3 40.5436 30.3856 125.6489 0.0000 5.3073 0.0000
# 4 0.0000 0.0000 0.0000 29.3977 0.0000 7.3912
# 5 -12.4819 -5.9410 5.3073 0.0000 27.6307 0.0000
# 6 0.0000 0.0000 0.0000 7.3912 0.0000 25.7547
#
#
#
# Elastic Compliance Matrix: (Units=1/GPa)
#
#
# Indices 1 2 3 4 5 6 
#
# 1 0.012305 -0.001289 -0.003914 0.000000 0.006033 0.000000
# 2 -0.001289 0.009426 -0.001940 0.000000 0.001817 0.000000
# 3 -0.003914 -0.001940 0.009863 0.000000 -0.004080 0.000000
# 4 0.000000 0.000000 0.000000 0.036662 0.000000 -0.010521
# 5 0.006033 0.001817 -0.004080 0.000000 0.040091 0.000000
# 6 0.000000 0.000000 0.000000 -0.010521 0.000000 0.041847
#
#
# Mechanical properties :
#
#
# Convention : Reuss Voigt Hill
#
# Bulk Modulus (GPa) = 57.77675 59.65787 58.71731
# Shear Modulus (GPa) = 29.36875 33.20114 31.28495
#
# Velocity S-wave (km/s) = 3.73594 3.97222 3.85589
# Velocity P-wave (km/s) = 6.78731 7.02780 6.90860
#
# Compressibility (1/GPa) = 0.01730800
#
# Stress axis : x y z
#
# Youngs Moduli (GPa) = 81.26851 106.09159 101.38883
#
# Poissons Ratio (x) = 0.13676 0.39679
# Poissons Ratio (y) = 0.10476 0.19672
# Poissons Ratio (z) = 0.31805 0.20584
#
# Static dielectric constant tensor:
#      x y z
#    x 3.742020 0.000000 -0.035150 
#    y 0.000000 3.811970 0.000000 
#    z -0.035150 0.000000 3.924260 
# 
# 
# High freq. dielectric constant tensor:
#      x y z
#    x 1.828550 0.000000 0.002380 
#    y 0.000000 1.835630 0.000000 
#    z 0.002380 0.000000 1.836490 
# 
# From -- ./inp_files/33517.got.cif
#   From: 2010.06.25/outbox.cif.g09.slc.cpg/sg15_17_cif.got.tgz:33517.got - 2010.06.28 07:06:18.
