data_PCOD8150453
_publ_section_title
;
Structure prediction by ZEFSAII (Michael W. Deem and Ramdas Pophale) SiO2 
 PCOD8150453
Probable space group: C 2/C
;
_chemical_formula_sum "Si O2"
_cell_formula_units_Z 48
_cell_length_a 10.169668
_cell_length_b 26.145511
_cell_length_c 8.663946
_cell_angle_alpha 90.000000
_cell_angle_beta 64.063318
_cell_angle_gamma 90.000000
_cell_volume 2071.636663
_symmetry_space_group_name_H-M "C 2/C"
_symmetry_group_IT_number 15
_symmetry_cell_setting 'monoclinic'
loop_
_space_group_symop_operation_xyz
x,y,z
-x,y,1/2-z
-x,-y,-z
x,-y,1/2+z
1/2+x,1/2+y,z
1/2-x,1/2+y,1/2-z
1/2-x,1/2-y,-z
1/2+x,1/2-y,1/2+z
loop_
_atom_site_type_symbol
_atom_site_label
_atom_site_fract_x
_atom_site_fract_y
_atom_site_fract_z
Si Si1 0.315342 0.655757 0.134088
Si Si2 0.756108 0.564158 0.916340
Si Si3 0.751515 0.855452 0.330288
Si Si4 0.445500 0.890783 0.570798
Si Si5 0.666148 0.239292 0.699056
Si Si6 0.000000 0.916851 0.750000
Si Si7 0.000000 0.482201 0.750000
O O1 0.150102 0.636089 0.247497
O O2 0.335143 0.713022 0.183684
O O3 0.427996 0.618941 0.159936
O O4 0.350022 0.650902 0.933607
O O5 0.704622 0.593331 0.787276
O O6 0.850490 0.514538 0.826824
O O7 0.854739 0.604764 0.959075
O O8 0.617911 0.548397 0.096447
O O9 0.583000 0.856053 0.467019
O O10 0.766240 0.804994 0.220586
O O11 0.494216 0.947560 0.599535
O O12 0.500000 0.222293 0.750000
O O13 0.750000 0.250000 0.500000
#
# Coordination Sequence:
#
# PCOD8150453 Si02
#       7
#     8   8   8   8   8   4   4
#     4  11  23  43  69 100 146 187 232 292 355 430
#     4  11  24  41  70 100 142 183 234 289 367 418
#     4  12  23  42  70 109 136 183 247 298 344 424
#     4  11  22  43  71 105 140 177 240 300 352 409
#     4  12  25  44  71 102 145 191 236 286 360 422
#     4  10  24  48  61  98 146 193 214 294 364 432
#     4  12  22  42  81 106 130 187 244 308 346 422
#
# _framework density 23.170086000000001
#
# number of rings (size 3 to 8) (size 9 to 14) (size 15 to 20)
#    0.000    0.667    4.167    5.000    0.000    0.667 
#    0.000    5.000    0.000    0.000    0.000    0.000 
#    0.000    0.000    0.000    0.000    0.000    0.000 
#
# Total GULP energy -297665.488764 kJ/mol
# GULP energy per Si atom -12402.728699 kJ/mol
# Density = 2.311735 g / cm^3
# Si number density = 23.170086 Si / 1000 Ang^3
#
#
#
# Elastic Constant Matrix: (Units=GPa)
#
#
# Indices 1 2 3 4 5 6 
#
# 1 72.1106 16.4658 49.4214 0.0000 7.6116 0.0000
# 2 16.4658 92.9546 29.0298 0.0000 5.1059 0.0000
# 3 49.4214 29.0298 129.3205 0.0000 17.6229 0.0000
# 4 0.0000 0.0000 0.0000 39.2817 0.0000 4.5033
# 5 7.6116 5.1059 17.6229 0.0000 47.1071 0.0000
# 6 0.0000 0.0000 0.0000 4.5033 0.0000 27.6156
#
#
#
# Elastic Compliance Matrix: (Units=1/GPa)
#
#
# Indices 1 2 3 4 5 6 
#
# 1 0.018912 -0.001171 -0.006918 0.000000 -0.000341 0.000000
# 2 -0.001171 0.011645 -0.002129 0.000000 -0.000277 0.000000
# 3 -0.006918 -0.002129 0.011244 0.000000 -0.002858 0.000000
# 4 0.000000 0.000000 0.000000 0.025942 0.000000 -0.004230
# 5 -0.000341 -0.000277 -0.002858 0.000000 0.022382 0.000000
# 6 0.000000 0.000000 0.000000 -0.004230 0.000000 0.036901
#
#
# Mechanical properties :
#
#
# Convention : Reuss Voigt Hill
#
# Bulk Modulus (GPa) = 46.80436 53.80219 50.30327
# Shear Modulus (GPa) = 32.34449 36.09880 34.22164
#
# Velocity S-wave (km/s) = 3.74031 3.95142 3.84731
# Velocity P-wave (km/s) = 6.23678 6.63997 6.44153
#
# Compressibility (1/GPa) = 0.02136553
#
# Stress axis : x y z
#
# Youngs Moduli (GPa) = 52.87528 85.87060 88.93613
#
# Poissons Ratio (x) = 0.10054 0.61529
# Poissons Ratio (y) = 0.06191 0.18935
# Poissons Ratio (z) = 0.36581 0.18282
#
# Static dielectric constant tensor:
#      x y z
#    x 4.217980 0.000000 0.121590 
#    y 0.000000 3.955990 0.000000 
#    z 0.121590 0.000000 4.382260 
# 
# 
# High freq. dielectric constant tensor:
#      x y z
#    x 1.915270 0.000000 0.009020 
#    y 0.000000 1.900060 0.000000 
#    z 0.009020 0.000000 1.936360 
# 
# From -- ./inp_files/33442.got.cif
#   From: 2010.06.25/outbox.cif.g09.slc.cpg/sg15_17_cif.got.tgz:33442.got - 2010.06.28 07:06:18.
