data_PCOD8150084
_publ_section_title
;
Structure prediction by ZEFSAII (Michael W. Deem and Ramdas Pophale) SiO2 
 PCOD8150084
Probable space group: C 2/C
;
_chemical_formula_sum "Si O2"
_cell_formula_units_Z 48
_cell_length_a 17.663764
_cell_length_b 10.594199
_cell_length_c 12.135927
_cell_angle_alpha 90.000000
_cell_angle_beta 78.734639
_cell_angle_gamma 90.000000
_cell_volume 2227.281441
_symmetry_space_group_name_H-M "C 2/C"
_symmetry_group_IT_number 15
_symmetry_cell_setting 'monoclinic'
loop_
_space_group_symop_operation_xyz
x,y,z
-x,y,1/2-z
-x,-y,-z
x,-y,1/2+z
1/2+x,1/2+y,z
1/2-x,1/2+y,1/2-z
1/2-x,1/2-y,-z
1/2+x,1/2-y,1/2+z
loop_
_atom_site_type_symbol
_atom_site_label
_atom_site_fract_x
_atom_site_fract_y
_atom_site_fract_z
Si Si1 0.662607 0.527093 0.428136
Si Si2 0.829724 0.380257 0.891949
Si Si3 0.629213 0.865940 0.221014
Si Si4 0.202064 0.191027 0.778911
Si Si5 0.432960 0.225687 0.549450
Si Si6 0.104599 0.225493 0.002372
O O1 0.743908 0.577366 0.455171
O O2 0.677489 0.455761 0.305653
O O3 0.604663 0.638778 0.423704
O O4 0.622617 0.423568 0.520735
O O5 0.863932 0.484756 0.799970
O O6 0.827549 0.246255 0.828434
O O7 0.884765 0.363655 0.981106
O O8 0.705840 0.799564 0.247355
O O9 0.563461 0.842100 0.331550
O O10 0.612303 0.803234 0.110102
O O11 0.165367 0.272448 0.891390
O O12 0.518705 0.249560 0.479865
#
# Coordination Sequence:
#
# PCOD8150084 Si02
#       6
#     8   8   8   8   8   8
#     4   9  22  42  70  94 128 173 223 272 324 396
#     4  11  24  42  70  97 133 175 224 279 317 410
#     4  11  24  42  67  93 134 177 222 266 330 407
#     4   9  22  43  66  94 127 173 221 264 333 388
#     4  12  24  42  67 101 134 171 225 276 342 384
#     4  10  24  44  65  97 134 176 216 280 335 392
#
# _framework density 21.550936
#
# number of rings (size 3 to 8) (size 9 to 14) (size 15 to 20)
#    1.000    0.667    1.667    2.000    2.333    2.667 
#    3.000    1.667    0.000    0.000    0.000    0.000 
#    0.000    0.000    0.000    0.000    0.000    0.000 
#
# Total GULP energy -297444.699017 kJ/mol
# GULP energy per Si atom -12393.529126 kJ/mol
# Density = 2.150189 g / cm^3
# Si number density = 21.550936 Si / 1000 Ang^3
#
#
#
# Elastic Constant Matrix: (Units=GPa)
#
#
# Indices 1 2 3 4 5 6 
#
# 1 34.7839 18.4266 -4.7612 0.0000 -12.0464 0.0000
# 2 18.4266 75.8362 7.1423 0.0000 1.6780 0.0000
# 3 -4.7612 7.1423 61.0835 0.0000 0.4064 0.0000
# 4 0.0000 0.0000 0.0000 31.5790 0.0000 -5.2574
# 5 -12.0464 1.6780 0.4064 0.0000 31.1335 0.0000
# 6 0.0000 0.0000 0.0000 -5.2574 0.0000 27.5242
#
#
#
# Elastic Compliance Matrix: (Units=1/GPa)
#
#
# Indices 1 2 3 4 5 6 
#
# 1 0.040582 -0.010624 0.004298 0.000000 0.016219 0.000000
# 2 -0.010624 0.016130 -0.002681 0.000000 -0.004945 0.000000
# 3 0.004298 -0.002681 0.017009 0.000000 0.001585 0.000000
# 4 0.000000 0.000000 0.000000 0.032707 0.000000 0.006247
# 5 0.016219 -0.004945 0.001585 0.000000 0.038641 0.000000
# 6 0.000000 0.000000 0.000000 0.006247 0.000000 0.037525
#
#
# Mechanical properties :
#
#
# Convention : Reuss Voigt Hill
#
# Bulk Modulus (GPa) = 17.95163 23.70211 20.82687
# Shear Modulus (GPa) = 22.81250 28.10706 25.45978
#
# Velocity S-wave (km/s) = 3.25705 3.61531 3.44085
# Velocity P-wave (km/s) = 4.74262 5.33379 5.04687
#
# Compressibility (1/GPa) = 0.05570524
#
# Stress axis : x y z
#
# Youngs Moduli (GPa) = 24.64125 61.99732 58.79248
#
# Poissons Ratio (x) = 0.65868 -0.25267
# Poissons Ratio (y) = 0.26180 0.15764
# Poissons Ratio (z) = -0.10590 0.16623
#
# Static dielectric constant tensor:
#      x y z
#    x 4.015410 0.000000 -0.198630 
#    y 0.000000 3.893420 0.000000 
#    z -0.198630 0.000000 3.546810 
# 
# 
# High freq. dielectric constant tensor:
#      x y z
#    x 1.845830 0.000000 -0.009120 
#    y 0.000000 1.847510 0.000000 
#    z -0.009120 0.000000 1.828410 
# 
# From -- ./inp_files/103726.got.cif
#   From: 2010.06.25/outbox.cif.g09.slc.cpg/sg15_52_cif.got.tgz:103726.got - 2010.06.28 07:06:18.
