data_PCOD8150409
_publ_section_title
;
Structure prediction by ZEFSAII (Michael W. Deem and Ramdas Pophale) SiO2 
 PCOD8150409
Probable space group: C 2/C
;
_chemical_formula_sum "Si O2"
_cell_formula_units_Z 40
_cell_length_a 13.392152
_cell_length_b 29.069117
_cell_length_c 5.552582
_cell_angle_alpha 90.000000
_cell_angle_beta 50.544731
_cell_angle_gamma 90.000000
_cell_volume 1669.023761
_symmetry_space_group_name_H-M "C 2/C"
_symmetry_group_IT_number 15
_symmetry_cell_setting 'monoclinic'
loop_
_space_group_symop_operation_xyz
x,y,z
-x,y,1/2-z
-x,-y,-z
x,-y,1/2+z
1/2+x,1/2+y,z
1/2-x,1/2+y,1/2-z
1/2-x,1/2-y,-z
1/2+x,1/2-y,1/2+z
loop_
_atom_site_type_symbol
_atom_site_label
_atom_site_fract_x
_atom_site_fract_y
_atom_site_fract_z
Si Si1 0.836434 0.692604 0.149750
Si Si2 0.500000 0.636846 0.250000
Si Si3 0.000000 0.637454 0.250000
Si Si4 0.588970 0.284323 0.314853
Si Si5 0.651657 0.021088 0.508135
Si Si6 0.721526 0.887069 0.096726
O O1 0.958449 0.666802 0.081333
O O2 0.724600 0.695181 0.519344
O O3 0.880758 0.745507 0.025531
O O4 0.790383 0.665233 0.984239
O O5 0.495335 0.671744 0.480832
O O6 0.371435 0.605379 0.441517
O O7 0.878003 0.606213 0.525976
O O8 0.500000 0.259434 0.250000
O O9 0.500000 0.012367 0.750000
O O10 0.685692 0.075361 0.449316
O O11 0.710642 0.999504 0.170330
#
# Coordination Sequence:
#
# PCOD8150409 Si02
#       6
#     8   4   4   8   8   8
#     4  11  24  40  65  97 134 182 237 296 340 423
#     4  12  26  44  68  94 145 195 232 284 356 434
#     4  12  24  40  62 102 131 173 230 294 344 414
#     4  11  23  42  63  93 138 190 240 285 353 410
#     4  10  24  46  77 112 146 184 234 308 375 441
#     4  12  27  44  70 104 138 187 237 295 364 436
#
# _framework density 23.966106
#
# number of rings (size 3 to 8) (size 9 to 14) (size 15 to 20)
#    0.000    0.800    5.000    1.800    9.800    0.800 
#    0.000    1.000    0.000    0.000    0.000    0.000 
#    0.000    0.000    0.000    0.000    0.000    0.000 
#
# Total GULP energy -247891.338692 kJ/mol
# GULP energy per Si atom -12394.566935 kJ/mol
# Density = 2.391156 g / cm^3
# Si number density = 23.966106 Si / 1000 Ang^3
#
#
#
# Elastic Constant Matrix: (Units=GPa)
#
#
# Indices 1 2 3 4 5 6 
#
# 1 80.8857 10.7816 43.1775 0.0000 -9.1530 0.0000
# 2 10.7816 78.9250 28.7913 0.0000 6.3207 0.0000
# 3 43.1775 28.7913 107.3676 0.0000 -17.7589 0.0000
# 4 0.0000 0.0000 0.0000 19.6567 0.0000 6.5509
# 5 -9.1530 6.3207 -17.7589 0.0000 44.6168 0.0000
# 6 0.0000 0.0000 0.0000 6.5509 0.0000 33.2969
#
#
#
# Elastic Compliance Matrix: (Units=1/GPa)
#
#
# Indices 1 2 3 4 5 6 
#
# 1 0.015767 0.000060 -0.006234 0.000000 0.000745 0.000000
# 2 0.000060 0.014651 -0.004597 0.000000 -0.003893 0.000000
# 3 -0.006234 -0.004597 0.013862 0.000000 0.004890 0.000000
# 4 0.000000 0.000000 0.000000 0.054443 0.000000 -0.010711
# 5 0.000745 -0.003893 0.004890 0.000000 0.025064 0.000000
# 6 0.000000 0.000000 0.000000 -0.010711 0.000000 0.032140
#
#
# Mechanical properties :
#
#
# Convention : Reuss Voigt Hill
#
# Bulk Modulus (GPa) = 43.97605 48.07547 46.02576
# Shear Modulus (GPa) = 27.02027 31.80929 29.41478
#
# Velocity S-wave (km/s) = 3.36138 3.64711 3.50716
# Velocity P-wave (km/s) = 5.78396 6.15131 5.97046
#
# Compressibility (1/GPa) = 0.02273965
#
# Stress axis : x y z
#
# Youngs Moduli (GPa) = 63.42394 68.25640 72.13901
#
# Poissons Ratio (x) = -0.00413 0.44969
# Poissons Ratio (y) = -0.00384 0.33161
# Poissons Ratio (z) = 0.39536 0.31377
#
# Static dielectric constant tensor:
#      x y z
#    x 4.173370 0.000000 -0.132560 
#    y 0.000000 4.063900 0.000000 
#    z -0.132560 0.000000 4.347590 
# 
# 
# High freq. dielectric constant tensor:
#      x y z
#    x 1.942340 0.000000 -0.005760 
#    y 0.000000 1.927550 0.000000 
#    z -0.005760 0.000000 1.949250 
# 
# From -- ./inp_files/5516.got.cif
#   From: 2010.06.25/outbox.cif.g09.slc.cpg/sg15_3_cif.got.tgz:5516.got - 2010.06.28 07:06:18.
