data_PCOD8150146
_publ_section_title
;
Structure prediction by ZEFSAII (Michael W. Deem and Ramdas Pophale) SiO2 
 PCOD8150146
Probable space group: C 2/C
;
_chemical_formula_sum "Si O2"
_cell_formula_units_Z 48
_cell_length_a 18.606593
_cell_length_b 7.083227
_cell_length_c 21.252917
_cell_angle_alpha 90.000000
_cell_angle_beta 47.911815
_cell_angle_gamma 90.000000
_cell_volume 2078.678061
_symmetry_space_group_name_H-M "C 2/C"
_symmetry_group_IT_number 15
_symmetry_cell_setting 'monoclinic'
loop_
_space_group_symop_operation_xyz
x,y,z
-x,y,1/2-z
-x,-y,-z
x,-y,1/2+z
1/2+x,1/2+y,z
1/2-x,1/2+y,1/2-z
1/2-x,1/2-y,-z
1/2+x,1/2-y,1/2+z
loop_
_atom_site_type_symbol
_atom_site_label
_atom_site_fract_x
_atom_site_fract_y
_atom_site_fract_z
Si Si1 0.953569 0.586635 0.389285
Si Si2 0.271615 0.620735 0.648551
Si Si3 0.178203 0.157339 0.594268
Si Si4 0.603274 0.252244 0.655973
Si Si5 0.346476 0.246771 0.571688
Si Si6 0.152286 0.529939 0.325956
O O1 0.922292 0.726846 0.350881
O O2 0.912671 0.380220 0.395471
O O3 0.913519 0.661071 0.478762
O O4 0.068543 0.591018 0.327094
O O5 0.177093 0.656805 0.661752
O O6 0.347794 0.476409 0.570565
O O7 0.244912 0.514594 0.729185
O O8 0.325582 0.813887 0.633892
O O9 0.250000 0.250000 0.500000
O O10 0.233355 0.183138 0.628144
O O11 0.152517 0.939128 0.598566
O O12 0.500000 0.292540 0.750000
O O13 0.380909 0.159345 0.617660
#
# Coordination Sequence:
#
# PCOD8150146 Si02
#       6
#     8   8   8   8   8   8
#     4  11  26  44  70 105 144 180 238 297 346 417
#     4  12  25  42  73 103 140 189 235 291 359 421
#     4  10  24  44  69 103 138 182 232 287 350 417
#     4  12  25  44  76 109 138 187 240 291 353 420
#     4  11  24  44  68 102 140 187 233 284 360 420
#     4  12  25  44  69 101 145 182 235 296 352 420
#
# _framework density 23.091598999999999
#
# number of rings (size 3 to 8) (size 9 to 14) (size 15 to 20)
#    0.000    0.667    6.667    0.500    0.000   10.667 
#    0.000    0.000    0.000    0.000    0.000    0.000 
#    0.000    0.000    0.000    0.000    0.000    0.000 
#
# Total GULP energy -297523.334962 kJ/mol
# GULP energy per Si atom -12396.805623 kJ/mol
# Density = 2.303904 g / cm^3
# Si number density = 23.091599 Si / 1000 Ang^3
#
#
#
# Elastic Constant Matrix: (Units=GPa)
#
#
# Indices 1 2 3 4 5 6 
#
# 1 92.0405 21.0351 -0.8569 -0.0002 -6.2415 0.0008
# 2 21.0351 141.6348 42.9896 -0.0036 -1.5116 0.0033
# 3 -0.8569 42.9896 64.6205 0.0005 5.2680 -0.0006
# 4 -0.0002 -0.0036 0.0005 38.0898 -0.0005 7.6661
# 5 -6.2415 -1.5116 5.2680 -0.0005 22.6993 0.0003
# 6 0.0008 0.0033 -0.0006 7.6661 0.0003 42.7743
#
#
#
# Elastic Compliance Matrix: (Units=1/GPa)
#
#
# Indices 1 2 3 4 5 6 
#
# 1 0.011538 -0.002084 0.001317 0.000000 0.002728 0.000000
# 2 -0.002084 0.009313 -0.006347 0.000001 0.001520 -0.000001
# 3 0.001317 -0.006347 0.020100 -0.000001 -0.004725 0.000001
# 4 0.000000 0.000001 -0.000001 0.027236 0.000001 -0.004881
# 5 0.002728 0.001520 -0.004725 0.000001 0.046002 -0.000001
# 6 0.000000 -0.000001 0.000001 -0.004881 -0.000001 0.024253
#
#
# Mechanical properties :
#
#
# Convention : Reuss Voigt Hill
#
# Bulk Modulus (GPa) = 37.42091 47.18127 42.30109
# Shear Modulus (GPa) = 30.94469 36.38787 33.66628
#
# Velocity S-wave (km/s) = 3.66469 3.97395 3.82245
# Velocity P-wave (km/s) = 5.84356 6.44460 6.15143
#
# Compressibility (1/GPa) = 0.02672303
#
# Stress axis : x y z
#
# Youngs Moduli (GPa) = 86.66710 107.38094 49.75117
#
# Poissons Ratio (x) = 0.22382 -0.06553
# Poissons Ratio (y) = 0.18064 0.31577
# Poissons Ratio (z) = -0.11416 0.68154
#
# Static dielectric constant tensor:
#      x y z
#    x 4.704450 -0.000010 0.004680 
#    y -0.000010 4.361690 0.000000 
#    z 0.004680 0.000000 3.736830 
# 
# 
# High freq. dielectric constant tensor:
#      x y z
#    x 1.924590 0.000000 0.007590 
#    y 0.000000 1.923650 0.000000 
#    z 0.007590 0.000000 1.887670 
# 
# From -- ./inp_files/278841.got.cif
#   From: 2010.06.25/outbox.cif.g09.slc.cpg/sg15_140_cif.got.tgz:278841.got - 2010.06.28 07:06:18.
