data_PCOD8150403
_publ_section_title
;
Structure prediction by ZEFSAII (Michael W. Deem and Ramdas Pophale) SiO2 
 PCOD8150403
Probable space group: C 2/C
;
_chemical_formula_sum "Si O2"
_cell_formula_units_Z 40
_cell_length_a 8.988806
_cell_length_b 29.140603
_cell_length_c 7.495920
_cell_angle_alpha 90.000000
_cell_angle_beta 65.164889
_cell_angle_gamma 90.000000
_cell_volume 1781.893802
_symmetry_space_group_name_H-M "C 2/C"
_symmetry_group_IT_number 15
_symmetry_cell_setting 'monoclinic'
loop_
_space_group_symop_operation_xyz
x,y,z
-x,y,1/2-z
-x,-y,-z
x,-y,1/2+z
1/2+x,1/2+y,z
1/2-x,1/2+y,1/2-z
1/2-x,1/2-y,-z
1/2+x,1/2-y,1/2+z
loop_
_atom_site_type_symbol
_atom_site_label
_atom_site_fract_x
_atom_site_fract_y
_atom_site_fract_z
Si Si1 0.000000 0.622961 0.750000
Si Si2 0.729713 0.942159 0.935794
Si Si3 0.822342 0.964256 0.271651
Si Si4 0.309296 0.896489 0.880704
Si Si5 0.500000 0.745639 0.750000
Si Si6 0.315472 0.811196 0.083819
O O1 0.873400 0.656673 0.716319
O O2 0.071488 0.587815 0.568416
O O3 0.802122 0.912491 0.733072
O O4 0.159330 0.949497 0.444888
O O5 0.698108 0.992716 0.864864
O O6 0.753318 0.920875 0.409311
O O7 0.000000 0.979841 0.250000
O O8 0.500000 0.908511 0.750000
O O9 0.279554 0.842524 0.927138
O O10 0.546443 0.775185 0.550856
O O11 0.347007 0.714405 0.768846
#
# Coordination Sequence:
#
# PCOD8150403 Si02
#       6
#     4   8   8   8   4   8
#     4  12  24  42  73 106 138 180 241 282 342 424
#     4  12  24  42  67  97 141 188 228 286 334 395
#     4  12  27  43  63  99 143 186 239 284 339 400
#     4  12  24  42  69  96 137 180 234 283 337 409
#     4  10  24  46  75  96 142 178 215 296 360 422
#     4  11  23  46  70 107 136 180 226 286 357 420
#
# _framework density 22.448027
#
# number of rings (size 3 to 8) (size 9 to 14) (size 15 to 20)
#    0.000    0.400    7.000    0.600    2.800    2.400 
#    0.000    0.000    0.000    0.000    0.000    0.000 
#    0.000    0.000    0.000    0.000    0.000    0.000 
#
# Total GULP energy -247806.337080 kJ/mol
# GULP energy per Si atom -12390.316854 kJ/mol
# Density = 2.239693 g / cm^3
# Si number density = 22.448027 Si / 1000 Ang^3
#
#
#
# Elastic Constant Matrix: (Units=GPa)
#
#
# Indices 1 2 3 4 5 6 
#
# 1 92.3730 65.2445 60.3366 0.0000 21.3864 0.0000
# 2 65.2445 157.0656 64.5695 0.0000 -0.6459 0.0000
# 3 60.3366 64.5695 101.4284 0.0000 9.0466 0.0000
# 4 0.0000 0.0000 0.0000 5.3104 0.0000 5.1867
# 5 21.3864 -0.6459 9.0466 0.0000 50.2649 0.0000
# 6 0.0000 0.0000 0.0000 5.1867 0.0000 24.6831
#
#
#
# Elastic Compliance Matrix: (Units=1/GPa)
#
#
# Indices 1 2 3 4 5 6 
#
# 1 0.022705 -0.005701 -0.009156 0.000000 -0.008086 0.000000
# 2 -0.005701 0.010117 -0.003331 0.000000 0.003155 0.000000
# 3 -0.009156 -0.003331 0.017361 0.000000 0.000728 0.000000
# 4 0.000000 0.000000 0.000000 0.236938 0.000000 -0.049788
# 5 -0.008086 0.003155 0.000728 0.000000 0.023244 0.000000
# 6 0.000000 0.000000 0.000000 -0.049788 0.000000 0.050976
#
#
# Mechanical properties :
#
#
# Convention : Reuss Voigt Hill
#
# Bulk Modulus (GPa) = 72.42197 81.24092 76.83144
# Shear Modulus (GPa) = 12.42796 26.76610 19.59703
#
# Velocity S-wave (km/s) = 2.35549 3.45680 2.95786
# Velocity P-wave (km/s) = 6.30317 7.22509 6.77981
#
# Compressibility (1/GPa) = 0.01380796
#
# Stress axis : x y z
#
# Youngs Moduli (GPa) = 44.04357 98.84298 57.59930
#
# Poissons Ratio (x) = 0.56347 0.52739
# Poissons Ratio (y) = 0.25108 0.19185
# Poissons Ratio (z) = 0.40327 0.32923
#
# Static dielectric constant tensor:
#      x y z
#    x 3.896690 0.000000 0.269380 
#    y 0.000000 4.317770 0.000000 
#    z 0.269380 0.000000 4.324440 
# 
# 
# High freq. dielectric constant tensor:
#      x y z
#    x 1.858920 0.000000 0.016740 
#    y 0.000000 1.899140 0.000000 
#    z 0.016740 0.000000 1.896390 
# 
# From -- ./inp_files/35019.got.cif
#   From: 2010.06.25/outbox.cif.g09.slc.cpg/sg15_18_cif.got.tgz:35019.got - 2010.06.28 07:06:18.
