data_PCOD8150773
_publ_section_title
;
Structure prediction by ZEFSAII (Michael W. Deem and Ramdas Pophale) SiO2 
 PCOD8150773
Probable space group: C 2/C
;
_chemical_formula_sum "Si O2"
_cell_formula_units_Z 48
_cell_length_a 22.897286
_cell_length_b 11.243638
_cell_length_c 9.078051
_cell_angle_alpha 90.000000
_cell_angle_beta 108.337911
_cell_angle_gamma 90.000000
_cell_volume 2218.447842
_symmetry_space_group_name_H-M "C 2/C"
_symmetry_group_IT_number 15
_symmetry_cell_setting 'monoclinic'
loop_
_space_group_symop_operation_xyz
x,y,z
-x,y,1/2-z
-x,-y,-z
x,-y,1/2+z
1/2+x,1/2+y,z
1/2-x,1/2+y,1/2-z
1/2-x,1/2-y,-z
1/2+x,1/2-y,1/2+z
loop_
_atom_site_type_symbol
_atom_site_label
_atom_site_fract_x
_atom_site_fract_y
_atom_site_fract_z
Si Si1 0.027103 0.129129 0.036378
Si Si2 0.000000 0.302067 0.250000
Si Si3 0.184605 0.401382 0.170605
Si Si4 0.836405 0.868031 0.812667
Si Si5 0.234190 0.017674 0.504641
Si Si6 0.000000 0.713594 0.250000
Si Si7 0.560254 0.004291 0.150405
O O1 0.983909 0.215118 0.101297
O O2 0.092519 0.106287 0.164404
O O3 0.033983 0.198801 0.889242
O O4 0.000000 0.000000 0.000000
O O5 0.057354 0.389905 0.258678
O O6 0.166460 0.266358 0.137005
O O7 0.219545 0.412282 0.353184
O O8 0.125100 0.490363 0.117945
O O9 0.227125 0.428060 0.065021
O O10 0.813883 0.947729 0.931398
O O11 0.800150 0.891207 0.632058
O O12 0.944620 0.629972 0.268203
O O13 0.500000 0.000000 0.000000
#
# Coordination Sequence:
#
# PCOD8150773 Si02
#       7
#     8   4   8   8   8   4   8
#     4  12  27  43  68  98 135 181 218 270 340 404
#     4  11  23  42  62 100 131 173 218 270 342 397
#     4  11  23  43  70  96 134 172 224 275 336 390
#     4  11  24  47  66  92 136 172 228 277 323 402
#     4  10  26  43  66  97 127 181 227 272 330 389
#     4  11  25  44  66 108 135 169 222 268 348 403
#     4  11  23  41  71 104 137 169 216 281 346 390
#
# _framework density 21.636748999999998
#
# number of rings (size 3 to 8) (size 9 to 14) (size 15 to 20)
#    0.000    1.000    3.333    1.500   11.667    0.000 
#    0.000    0.000    0.000    0.000    0.000    0.000 
#    0.000    0.000    0.000    0.000    0.000    0.000 
#
# Total GULP energy -297518.045491 kJ/mol
# GULP energy per Si atom -12396.585229 kJ/mol
# Density = 2.158750 g / cm^3
# Si number density = 21.636749 Si / 1000 Ang^3
#
#
#
# Elastic Constant Matrix: (Units=GPa)
#
#
# Indices 1 2 3 4 5 6 
#
# 1 79.0333 27.8866 32.5274 0.0000 9.5597 0.0000
# 2 27.8866 134.7143 29.6013 0.0000 1.5109 0.0000
# 3 32.5274 29.6013 104.0073 0.0000 -3.5477 0.0000
# 4 0.0000 0.0000 0.0000 35.0325 0.0000 0.6290
# 5 9.5597 1.5109 -3.5477 0.0000 31.6811 0.0000
# 6 0.0000 0.0000 0.0000 0.6290 0.0000 18.4279
#
#
#
# Elastic Compliance Matrix: (Units=1/GPa)
#
#
# Indices 1 2 3 4 5 6 
#
# 1 0.015937 -0.002247 -0.004522 0.000000 -0.005208 0.000000
# 2 -0.002247 0.008248 -0.001641 0.000000 0.000101 0.000000
# 3 -0.004522 -0.001641 0.011590 0.000000 0.002741 0.000000
# 4 0.000000 0.000000 0.000000 0.028562 0.000000 -0.000975
# 5 -0.005208 0.000101 0.002741 0.000000 0.033438 0.000000
# 6 0.000000 0.000000 0.000000 -0.000975 0.000000 0.054299
#
#
# Mechanical properties :
#
#
# Convention : Reuss Voigt Hill
#
# Bulk Modulus (GPa) = 52.76103 55.30950 54.03527
# Shear Modulus (GPa) = 28.53678 32.21093 30.37386
#
# Velocity S-wave (km/s) = 3.63561 3.86257 3.75081
# Velocity P-wave (km/s) = 6.48548 6.74617 6.61711
#
# Compressibility (1/GPa) = 0.01895338
#
# Stress axis : x y z
#
# Youngs Moduli (GPa) = 62.74744 121.24525 86.28422
#
# Poissons Ratio (x) = 0.27243 0.39020
# Poissons Ratio (y) = 0.14099 0.14161
# Poissons Ratio (z) = 0.28376 0.19899
#
# Static dielectric constant tensor:
#      x y z
#    x 2.477870 0.000000 -0.834890 
#    y 0.000000 4.010960 0.000000 
#    z -0.834890 0.000000 3.775270 
# 
# 
# High freq. dielectric constant tensor:
#      x y z
#    x 1.841410 0.000000 -0.011050 
#    y 0.000000 1.859460 0.000000 
#    z -0.011050 0.000000 1.858920 
# 
# From -- ./inp_files/60917.got.cif
#   From: 2010.06.25/outbox.cif.g09.slc.cpg/sg15_31_cif.got.tgz:60917.got - 2010.06.28 07:06:18.
