data_PCOD8150619
_publ_section_title
;
Structure prediction by ZEFSAII (Michael W. Deem and Ramdas Pophale) SiO2 
 PCOD8150619
Probable space group: C 2/C
;
_chemical_formula_sum "Si O2"
_cell_formula_units_Z 48
_cell_length_a 8.430631
_cell_length_b 11.374221
_cell_length_c 23.441300
_cell_angle_alpha 90.000000
_cell_angle_beta 102.352894
_cell_angle_gamma 90.000000
_cell_volume 2195.789215
_symmetry_space_group_name_H-M "C 2/C"
_symmetry_group_IT_number 15
_symmetry_cell_setting 'monoclinic'
loop_
_space_group_symop_operation_xyz
x,y,z
-x,y,1/2-z
-x,-y,-z
x,-y,1/2+z
1/2+x,1/2+y,z
1/2-x,1/2+y,1/2-z
1/2-x,1/2-y,-z
1/2+x,1/2-y,1/2+z
loop_
_atom_site_type_symbol
_atom_site_label
_atom_site_fract_x
_atom_site_fract_y
_atom_site_fract_z
Si Si1 0.259716 0.593305 0.287257
Si Si2 0.516128 0.745990 0.373627
Si Si3 0.053425 0.367644 0.665189
Si Si4 0.327258 0.369117 0.345422
Si Si5 0.953105 0.011091 0.060652
Si Si6 0.102280 0.464879 0.063862
O O1 0.387321 0.691724 0.318380
O O2 0.209099 0.619890 0.218888
O O3 0.319404 0.457215 0.290415
O O4 0.109012 0.585783 0.319095
O O5 0.660300 0.803382 0.348217
O O6 0.577069 0.643833 0.420315
O O7 0.447157 0.843772 0.410581
O O8 0.034539 0.228105 0.654577
O O9 0.087090 0.430614 0.608307
O O10 0.387694 0.454625 0.399568
O O11 0.787252 0.942323 0.059835
O O12 0.000000 0.000000 0.000000
O O13 0.000000 0.500000 0.000000
#
# Coordination Sequence:
#
# PCOD8150619 Si02
#       6
#     8   8   8   8   8   8
#     4  10  25  44  69 101 132 182 223 286 344 408
#     4  11  24  45  72  97 137 179 229 280 346 409
#     4  11  24  44  68 100 138 174 230 281 344 407
#     4  11  23  45  68  98 137 175 230 283 344 408
#     4  11  26  44  68 100 134 183 230 283 338 411
#     4  12  26  43  71 101 137 187 228 280 350 410
#
# _framework density 21.860022000000001
#
# number of rings (size 3 to 8) (size 9 to 14) (size 15 to 20)
#    0.000    1.000    3.333    2.000    7.000    2.667 
#    0.000    0.000    0.000    0.000    0.000    0.000 
#    0.000    0.000    0.000    0.000    0.000    0.000 
#
# Total GULP energy -297506.260295 kJ/mol
# GULP energy per Si atom -12396.094179 kJ/mol
# Density = 2.181027 g / cm^3
# Si number density = 21.860022 Si / 1000 Ang^3
#
#
#
# Elastic Constant Matrix: (Units=GPa)
#
#
# Indices 1 2 3 4 5 6 
#
# 1 80.8595 17.3271 28.8921 0.0000 10.2619 0.0000
# 2 17.3271 138.7121 52.4049 0.0000 6.1617 0.0000
# 3 28.8921 52.4049 113.1656 0.0000 6.4796 0.0000
# 4 0.0000 0.0000 0.0000 17.8546 0.0000 4.0979
# 5 10.2619 6.1617 6.4796 0.0000 30.9067 0.0000
# 6 0.0000 0.0000 0.0000 4.0979 0.0000 38.2453
#
#
#
# Elastic Compliance Matrix: (Units=1/GPa)
#
#
# Indices 1 2 3 4 5 6 
#
# 1 0.014089 -0.000377 -0.003197 0.000000 -0.003933 0.000000
# 2 -0.000377 0.008773 -0.003920 0.000000 -0.000802 0.000000
# 3 -0.003197 -0.003920 0.011501 0.000000 -0.000568 0.000000
# 4 0.000000 0.000000 0.000000 0.057420 0.000000 -0.006152
# 5 -0.003933 -0.000802 -0.000568 0.000000 0.033940 0.000000
# 6 0.000000 0.000000 0.000000 -0.006152 0.000000 0.026806
#
#
# Mechanical properties :
#
#
# Convention : Reuss Voigt Hill
#
# Bulk Modulus (GPa) = 51.61715 58.88728 55.25222
# Shear Modulus (GPa) = 28.73933 33.00886 30.87409
#
# Velocity S-wave (km/s) = 3.62981 3.89010 3.76221
# Velocity P-wave (km/s) = 6.42115 6.86833 6.64850
#
# Compressibility (1/GPa) = 0.01937340
#
# Stress axis : x y z
#
# Youngs Moduli (GPa) = 70.97489 113.98561 86.94998
#
# Poissons Ratio (x) = 0.04302 0.27800
# Poissons Ratio (y) = 0.02678 0.34088
# Poissons Ratio (z) = 0.22692 0.44687
#
# Static dielectric constant tensor:
#      x y z
#    x 4.133520 0.000000 0.058440 
#    y 0.000000 4.372000 0.000000 
#    z 0.058440 0.000000 3.717590 
# 
# 
# High freq. dielectric constant tensor:
#      x y z
#    x 1.865460 0.000000 0.004610 
#    y 0.000000 1.878620 0.000000 
#    z 0.004610 0.000000 1.863500 
# 
# From -- ./inp_files/263063.got.cif
#   From: 2010.06.25/outbox.cif.g09.slc.cpg/sg15_132_cif.got.tgz:263063.got - 2010.06.28 07:06:18.
