data_PCOD8150756
_publ_section_title
;
Structure prediction by ZEFSAII (Michael W. Deem and Ramdas Pophale) SiO2 
 PCOD8150756
Probable space group: C 2/C
;
_chemical_formula_sum "Si O2"
_cell_formula_units_Z 60
_cell_length_a 17.406688
_cell_length_b 20.521059
_cell_length_c 9.742608
_cell_angle_alpha 90.000000
_cell_angle_beta 118.535878
_cell_angle_gamma 90.000000
_cell_volume 3057.326922
_symmetry_space_group_name_H-M "C 2/C"
_symmetry_group_IT_number 15
_symmetry_cell_setting 'monoclinic'
loop_
_space_group_symop_operation_xyz
x,y,z
-x,y,1/2-z
-x,-y,-z
x,-y,1/2+z
1/2+x,1/2+y,z
1/2-x,1/2+y,1/2-z
1/2-x,1/2-y,-z
1/2+x,1/2-y,1/2+z
loop_
_atom_site_type_symbol
_atom_site_label
_atom_site_fract_x
_atom_site_fract_y
_atom_site_fract_z
Si Si1 0.442776 0.973780 0.329057
Si Si2 0.507137 0.577327 0.490749
Si Si3 0.278487 0.042581 0.097589
Si Si4 0.000000 0.836094 0.250000
Si Si5 0.690681 0.597341 0.528830
Si Si6 0.816715 0.620870 0.863988
Si Si7 0.839456 0.756451 0.993431
Si Si8 0.823094 0.131977 0.278476
O O1 0.500000 0.950308 0.250000
O O2 0.391102 0.911566 0.336797
O O3 0.500000 0.000000 0.500000
O O4 0.378569 0.031327 0.225798
O O5 0.500000 0.500000 0.500000
O O6 0.522207 0.615153 0.645988
O O7 0.586893 0.595946 0.460255
O O8 0.418767 0.601399 0.345677
O O9 0.236647 0.090131 0.171917
O O10 0.224412 0.976398 0.048947
O O11 0.276410 0.073623 0.945047
O O12 0.083777 0.789914 0.351645
O O13 0.736305 0.636665 0.692592
O O14 0.715704 0.633517 0.408161
O O15 0.863567 0.683343 0.970319
O O16 0.750000 0.750000 0.000000
O O17 0.825351 0.795556 0.840515
#
# Coordination Sequence:
#
# PCOD8150756 Si02
#       8
#     8   8   8   4   8   8   8   8
#     4  11  23  41  64  94 126 157 206 269 333 380
#     4  11  23  36  63  92 134 167 206 259 325 380
#     4  11  22  39  63  95 125 158 213 264 315 392
#     4  10  26  42  62 100 122 168 236 256 302 406
#     4  11  23  38  62  97 132 160 205 268 331 374
#     4  11  24  42  65  92 126 166 214 266 315 377
#     4  11  23  45  66  87 128 174 219 261 307 387
#     4  11  24  39  61  95 127 167 213 257 315 385
#
# _framework density 19.624987000000001
#
# number of rings (size 3 to 8) (size 9 to 14) (size 15 to 20)
#    0.000    1.067    4.000    2.800    5.600    1.600 
#    0.000    2.667    0.000    0.000    0.000    0.000 
#    0.000    0.000    0.000    0.000    0.000    0.000 
#
# Total GULP energy -372030.166847 kJ/mol
# GULP energy per Si atom -12401.005562 kJ/mol
# Density = 1.958032 g / cm^3
# Si number density = 19.624987 Si / 1000 Ang^3
#
#
#
# Elastic Constant Matrix: (Units=GPa)
#
#
# Indices 1 2 3 4 5 6 
#
# 1 133.8199 28.7368 48.8011 0.0000 -7.8413 0.0000
# 2 28.7368 87.5337 28.9412 0.0000 0.2623 0.0000
# 3 48.8011 28.9412 127.0102 0.0000 -8.7826 0.0000
# 4 0.0000 0.0000 0.0000 -20.1285 0.0000 -19.9135
# 5 -7.8413 0.2623 -8.7826 0.0000 34.3781 0.0000
# 6 0.0000 0.0000 0.0000 -19.9135 0.0000 22.4661
#
#
#
# Elastic Compliance Matrix: (Units=1/GPa)
#
#
# Indices 1 2 3 4 5 6 
#
# 1 0.009049 -0.002007 -0.002928 0.000000 0.001331 0.000000
# 2 -0.002007 0.012823 -0.002229 0.000000 -0.001125 0.000000
# 3 -0.002928 -0.002229 0.009631 0.000000 0.001810 0.000000
# 4 0.000000 0.000000 0.000000 -0.026469 0.000000 -0.023462
# 5 0.001331 -0.001125 0.001810 0.000000 0.029863 0.000000
# 6 0.000000 0.000000 0.000000 -0.023462 0.000000 0.023715
#
#
# Mechanical properties :
#
#
# Convention : Reuss Voigt Hill
#
# Bulk Modulus (GPa) = 58.21581 62.36910 60.29246
# Shear Modulus (GPa) = 63.56079 23.46879 43.51479
#
# Velocity S-wave (km/s) = 5.69719 3.46188 4.71395
# Velocity P-wave (km/s) = 8.54435 6.91584 7.77286
#
# Compressibility (1/GPa) = 0.01717746
#
# Stress axis : x y z
#
# Youngs Moduli (GPa) = 110.50504 77.98338 103.82860
#
# Poissons Ratio (x) = 0.15650 0.30398
# Poissons Ratio (y) = 0.22177 0.23140
# Poissons Ratio (z) = 0.32352 0.17380
#
# Static dielectric constant tensor:
#      x y z
#    x 3.337690 0.000000 -0.436040 
#    y 0.000000 3.618530 0.000000 
#    z -0.436040 0.000000 3.238540 
# 
# 
# High freq. dielectric constant tensor:
#      x y z
#    x 1.778900 0.000000 -0.005790 
#    y 0.000000 1.751900 0.000000 
#    z -0.005790 0.000000 1.778290 
# 
# From -- ./inp_files/50188.got.cif
#   From: 2010.06.25/outbox.cif.g09.slc.cpg/sg15_26_cif.got.tgz:50188.got - 2010.06.28 07:06:18.
