data_PCOD8150158
_publ_section_title
;
Structure prediction by ZEFSAII (Michael W. Deem and Ramdas Pophale) SiO2 
 PCOD8150158
Probable space group: C 2/C
;
_chemical_formula_sum "Si O2"
_cell_formula_units_Z 44
_cell_length_a 13.091804
_cell_length_b 8.435794
_cell_length_c 19.504998
_cell_angle_alpha 90.000000
_cell_angle_beta 61.020511
_cell_angle_gamma 90.000000
_cell_volume 1884.415952
_symmetry_space_group_name_H-M "C 2/C"
_symmetry_group_IT_number 15
_symmetry_cell_setting 'monoclinic'
loop_
_space_group_symop_operation_xyz
x,y,z
-x,y,1/2-z
-x,-y,-z
x,-y,1/2+z
1/2+x,1/2+y,z
1/2-x,1/2+y,1/2-z
1/2-x,1/2-y,-z
1/2+x,1/2-y,1/2+z
loop_
_atom_site_type_symbol
_atom_site_label
_atom_site_fract_x
_atom_site_fract_y
_atom_site_fract_z
Si Si1 0.449745 0.673393 0.017691
Si Si2 0.711745 0.814429 0.207661
Si Si3 0.859586 0.109611 0.898946
Si Si4 0.814239 0.332375 0.542152
Si Si5 0.227938 0.670264 0.178321
Si Si6 0.500000 0.402636 0.750000
O O1 0.360077 0.677466 0.109126
O O2 0.500000 0.500000 0.000000
O O3 0.389945 0.685983 0.962390
O O4 0.544799 0.811661 0.006061
O O5 0.786438 0.766843 0.118394
O O6 0.787377 0.785231 0.251346
O O7 0.597864 0.707652 0.250588
O O8 0.680804 0.998342 0.213678
O O9 0.854178 0.264883 0.854391
O O10 0.733719 0.014083 0.940172
O O11 0.956302 0.998690 0.831281
O O12 0.750000 0.250000 0.500000
#
# Coordination Sequence:
#
# PCOD8150158 Si02
#       6
#     8   8   8   8   8   4
#     4  12  23  44  77 102 143 189 238 300 368 423
#     4  11  24  44  69  99 141 183 239 293 357 430
#     4  11  25  45  71 106 149 188 242 297 359 443
#     4  11  23  43  73 103 137 185 236 296 362 433
#     4  12  26  46  69 105 142 190 241 295 359 432
#     4  10  24  44  70 100 142 190 236 298 366 424
#
# _framework density 23.349409000000001
#
# number of rings (size 3 to 8) (size 9 to 14) (size 15 to 20)
#    0.000    0.727    3.636    3.818    5.091    1.455 
#    3.273    0.000    0.000    0.000    0.000    0.000 
#    0.000    0.000    0.000    0.000    0.000    0.000 
#
# Total GULP energy -272719.411726 kJ/mol
# GULP energy per Si atom -12396.336897 kJ/mol
# Density = 2.329627 g / cm^3
# Si number density = 23.349409 Si / 1000 Ang^3
#
#
#
# Elastic Constant Matrix: (Units=GPa)
#
#
# Indices 1 2 3 4 5 6 
#
# 1 95.4619 24.1626 29.1545 0.0000 13.3271 0.0000
# 2 24.1626 115.6093 29.6055 0.0000 8.4896 0.0000
# 3 29.1545 29.6055 117.0977 0.0000 20.4133 0.0000
# 4 0.0000 0.0000 0.0000 25.2792 0.0000 16.1819
# 5 13.3271 8.4896 20.4133 0.0000 56.6850 0.0000
# 6 0.0000 0.0000 0.0000 16.1819 0.0000 23.4451
#
#
#
# Elastic Compliance Matrix: (Units=1/GPa)
#
#
# Indices 1 2 3 4 5 6 
#
# 1 0.011839 -0.001785 -0.002195 0.000000 -0.001725 0.000000
# 2 -0.001785 0.009536 -0.001911 0.000000 -0.000320 0.000000
# 3 -0.002195 -0.001911 0.010061 0.000000 -0.002821 0.000000
# 4 0.000000 0.000000 0.000000 0.070870 0.000000 -0.048915
# 5 -0.001725 -0.000320 -0.002821 0.000000 0.019111 0.000000
# 6 0.000000 0.000000 0.000000 -0.048915 0.000000 0.076414
#
#
# Mechanical properties :
#
#
# Convention : Reuss Voigt Hill
#
# Bulk Modulus (GPa) = 50.88259 54.89045 52.88652
# Shear Modulus (GPa) = 23.13058 37.43162 30.28110
#
# Velocity S-wave (km/s) = 3.15084 4.00823 3.60511
# Velocity P-wave (km/s) = 5.92251 6.70675 6.32679
#
# Compressibility (1/GPa) = 0.01965309
#
# Stress axis : x y z
#
# Youngs Moduli (GPa) = 84.46919 104.86847 99.39102
#
# Poissons Ratio (x) = 0.18723 0.21820
# Poissons Ratio (y) = 0.15081 0.18989
# Poissons Ratio (z) = 0.18544 0.20035
#
# Static dielectric constant tensor:
#      x y z
#    x 4.683570 0.000000 -0.061420 
#    y 0.000000 4.359400 0.000000 
#    z -0.061420 0.000000 4.328370 
# 
# 
# High freq. dielectric constant tensor:
#      x y z
#    x 1.921980 0.000000 0.012110 
#    y 0.000000 1.924850 0.000000 
#    z 0.012110 0.000000 1.943290 
# 
# From -- ./inp_files/202941.got.cif
#   From: 2010.06.25/outbox.cif.g09.slc.cpg/sg15_102_cif.got.tgz:202941.got - 2010.06.28 07:06:18.
