data_PCOD8150814
_publ_section_title
;
Structure prediction by ZEFSAII (Michael W. Deem and Ramdas Pophale) SiO2 
 PCOD8150814
Probable space group: C 2/C
;
_chemical_formula_sum "Si O2"
_cell_formula_units_Z 28
_cell_length_a 26.553776
_cell_length_b 7.656302
_cell_length_c 9.325456
_cell_angle_alpha 90.000000
_cell_angle_beta 143.436113
_cell_angle_gamma 90.000000
_cell_volume 1129.423158
_symmetry_space_group_name_H-M "C 2/C"
_symmetry_group_IT_number 15
_symmetry_cell_setting 'monoclinic'
loop_
_space_group_symop_operation_xyz
x,y,z
-x,y,1/2-z
-x,-y,-z
x,-y,1/2+z
1/2+x,1/2+y,z
1/2-x,1/2+y,1/2-z
1/2-x,1/2-y,-z
1/2+x,1/2-y,1/2+z
loop_
_atom_site_type_symbol
_atom_site_label
_atom_site_fract_x
_atom_site_fract_y
_atom_site_fract_z
Si Si1 0.782480 0.696301 0.419493
Si Si2 0.642826 0.188128 0.398536
Si Si3 0.089848 0.155912 0.488207
Si Si4 0.500000 0.322727 0.250000
O O1 0.750000 0.750000 0.500000
O O2 0.825813 0.508551 0.524550
O O3 0.852201 0.833542 0.521352
O O4 0.703990 0.688295 0.130840
O O5 0.547008 0.201226 0.241586
O O6 0.642370 0.252489 0.234186
O O7 0.000000 0.251782 0.250000
O O8 0.069738 0.952696 0.483351
#
# Coordination Sequence:
#
# PCOD8150814 Si02
#       4
#     8   8   8   4
#     4  12  28  48  78 115 153 198 251 311 382 450
#     4  12  26  49  78 110 154 197 253 312 376 456
#     4  10  26  49  77 107 154 198 256 309 385 435
#     4  10  26  44  80 110 150 198 256 312 378 436
#
# _framework density 24.791418
#
# number of rings (size 3 to 8) (size 9 to 14) (size 15 to 20)
#    0.857    0.000    0.000    5.143    6.000    5.714 
#    0.000    0.000    0.000    0.000    0.000    0.000 
#    0.000    0.000    0.000    0.000    0.000    0.000 
#
# Total GULP energy -173556.653037 kJ/mol
# GULP energy per Si atom -12396.903788 kJ/mol
# Density = 2.473499 g / cm^3
# Si number density = 24.791418 Si / 1000 Ang^3
#
#
#
# Elastic Constant Matrix: (Units=GPa)
#
#
# Indices 1 2 3 4 5 6 
#
# 1 236.2258 76.8089 72.6683 0.0000 6.7565 0.0000
# 2 76.8089 151.0538 44.0535 0.0000 5.0852 0.0000
# 3 72.6683 44.0535 149.7232 0.0000 -12.2665 0.0000
# 4 0.0000 0.0000 0.0000 27.3089 0.0000 17.8828
# 5 6.7565 5.0852 -12.2665 0.0000 38.2638 0.0000
# 6 0.0000 0.0000 0.0000 17.8828 0.0000 49.2638
#
#
#
# Elastic Compliance Matrix: (Units=1/GPa)
#
#
# Indices 1 2 3 4 5 6 
#
# 1 0.005669 -0.002186 -0.002225 0.000000 -0.001424 0.000000
# 2 -0.002186 0.008192 -0.001445 0.000000 -0.001166 0.000000
# 3 -0.002225 -0.001445 0.008454 0.000000 0.003295 0.000000
# 4 0.000000 0.000000 0.000000 0.048037 0.000000 -0.017437
# 5 -0.001424 -0.001166 0.003295 0.000000 0.027597 0.000000
# 6 0.000000 0.000000 0.000000 -0.017437 0.000000 0.026629
#
#
# Mechanical properties :
#
#
# Convention : Reuss Voigt Hill
#
# Bulk Modulus (GPa) = 94.30733 102.67380 98.49057
# Shear Modulus (GPa) = 35.75913 45.86545 40.81229
#
# Velocity S-wave (km/s) = 3.80201 4.30589 4.06177
# Velocity P-wave (km/s) = 7.57606 8.13793 7.86201
#
# Compressibility (1/GPa) = 0.01060363
#
# Stress axis : x y z
#
# Youngs Moduli (GPa) = 176.39292 122.06538 118.28625
#
# Poissons Ratio (x) = 0.26682 0.26319
# Poissons Ratio (y) = 0.38557 0.17093
# Poissons Ratio (z) = 0.39248 0.17639
#
# Static dielectric constant tensor:
#      x y z
#    x 4.757310 0.000000 0.311780 
#    y 0.000000 4.215550 0.000000 
#    z 0.311780 0.000000 4.511070 
# 
# 
# High freq. dielectric constant tensor:
#      x y z
#    x 2.010540 0.000000 0.019300 
#    y 0.000000 1.977590 0.000000 
#    z 0.019300 0.000000 1.983780 
# 
# From -- ./inp_files/45458.got.cif
#   From: 2010.06.25/outbox.cif.g09.slc.cpg/sg15_23_cif.got.tgz:45458.got - 2010.06.28 07:06:18.
