data_PCOD8150945
_publ_section_title
;
Structure prediction by ZEFSAII (Michael W. Deem and Ramdas Pophale) SiO2 
 PCOD8150945
Probable space group: C 2/C
;
_chemical_formula_sum "Si O2"
_cell_formula_units_Z 56
_cell_length_a 24.298192
_cell_length_b 17.681195
_cell_length_c 7.745973
_cell_angle_alpha 90.000000
_cell_angle_beta 101.656442
_cell_angle_gamma 90.000000
_cell_volume 3259.202288
_symmetry_space_group_name_H-M "C 2/C"
_symmetry_group_IT_number 15
_symmetry_cell_setting 'monoclinic'
loop_
_space_group_symop_operation_xyz
x,y,z
-x,y,1/2-z
-x,-y,-z
x,-y,1/2+z
1/2+x,1/2+y,z
1/2-x,1/2+y,1/2-z
1/2-x,1/2-y,-z
1/2+x,1/2-y,1/2+z
loop_
_atom_site_type_symbol
_atom_site_label
_atom_site_fract_x
_atom_site_fract_y
_atom_site_fract_z
Si Si1 0.560985 0.186940 0.827859
Si Si2 0.181982 0.507212 0.579065
Si Si3 0.058199 0.367507 0.709262
Si Si4 0.174462 0.258213 0.282762
Si Si5 0.767942 0.350057 0.885479
Si Si6 0.595561 0.027194 0.780431
Si Si7 0.824286 0.336919 0.569820
O O1 0.500000 0.222584 0.750000
O O2 0.608110 0.244407 0.784760
O O3 0.564592 0.106680 0.726788
O O4 0.569643 0.173076 0.035279
O O5 0.228581 0.441117 0.611797
O O6 0.162376 0.528938 0.760306
O O7 0.116410 0.481407 0.491993
O O8 0.203923 0.582052 0.496165
O O9 0.055105 0.458947 0.695524
O O10 0.108665 0.345934 0.869804
O O11 0.000000 0.336407 0.750000
O O12 0.202238 0.321469 0.422232
O O13 0.202859 0.176802 0.340647
O O14 0.186420 0.276964 0.089097
O O15 0.797867 0.312468 0.736210
#
# Coordination Sequence:
#
# PCOD8150945 Si02
#       7
#     8   8   8   8   8   8   8
#     4  12  22  33  48  71 102 138 178 209 251 302
#     4  11  17  31  51  70 100 134 169 217 248 293
#     4  11  22  31  44  69 100 135 177 218 241 291
#     4  11  22  36  52  74  99 142 174 215 265 301
#     4  11  21  36  52  73 104 134 179 217 256 315
#     4  11  18  30  46  66  98 132 176 204 248 282
#     4  11  20  35  54  72 102 136 178 213 262 299
#
# _framework density 17.182117999999999
#
# number of rings (size 3 to 8) (size 9 to 14) (size 15 to 20)
#    0.000    0.857    8.571    1.714    2.000    1.143 
#    0.000    0.000    0.000    0.000    0.000    0.000 
#    0.000    1.143    0.000    0.000    0.000    0.000 
#
# Total GULP energy -346930.046761 kJ/mol
# GULP energy per Si atom -12390.358813 kJ/mol
# Density = 1.714301 g / cm^3
# Si number density = 17.182118 Si / 1000 Ang^3
#
#
#
# Elastic Constant Matrix: (Units=GPa)
#
#
# Indices 1 2 3 4 5 6 
#
# 1 85.7251 30.8301 12.3287 0.0000 8.8551 0.0000
# 2 30.8301 39.1662 12.2803 0.0000 7.7491 0.0000
# 3 12.3287 12.2803 62.7939 0.0000 -0.3288 0.0000
# 4 0.0000 0.0000 0.0000 13.7946 0.0000 2.6346
# 5 8.8551 7.7491 -0.3288 0.0000 23.2978 0.0000
# 6 0.0000 0.0000 0.0000 2.6346 0.0000 28.4606
#
#
#
# Elastic Compliance Matrix: (Units=1/GPa)
#
#
# Indices 1 2 3 4 5 6 
#
# 1 0.016406 -0.012218 -0.000843 0.000000 -0.002184 0.000000
# 2 -0.012218 0.038386 -0.005151 0.000000 -0.008197 0.000000
# 3 -0.000843 -0.005151 0.017110 0.000000 0.002275 0.000000
# 4 0.000000 0.000000 0.000000 0.073797 0.000000 -0.006831
# 5 -0.002184 -0.008197 0.002275 0.000000 0.046511 0.000000
# 6 0.000000 0.000000 0.000000 -0.006831 0.000000 0.035769
#
#
# Mechanical properties :
#
#
# Convention : Reuss Voigt Hill
#
# Bulk Modulus (GPa) = 28.18633 33.17370 30.68001
# Shear Modulus (GPa) = 18.10092 21.92700 20.01396
#
# Velocity S-wave (km/s) = 3.24925 3.57620 3.41664
# Velocity P-wave (km/s) = 5.52421 6.03335 5.78438
#
# Compressibility (1/GPa) = 0.03547820
#
# Stress axis : x y z
#
# Youngs Moduli (GPa) = 60.95331 26.05098 58.44545
#
# Poissons Ratio (x) = 0.31828 0.04928
# Poissons Ratio (y) = 0.74471 0.30106
# Poissons Ratio (z) = 0.05139 0.13419
#
# Static dielectric constant tensor:
#      x y z
#    x 3.116120 0.000000 -0.167300 
#    y 0.000000 2.787640 0.000000 
#    z -0.167300 0.000000 3.611550 
# 
# 
# High freq. dielectric constant tensor:
#      x y z
#    x 1.641470 0.000000 -0.017060 
#    y 0.000000 1.599700 0.000000 
#    z -0.017060 0.000000 1.698860 
# 
# From -- ./inp_files/57302.got.cif
#   From: 2010.06.25/outbox.cif.g09.slc.cpg/sg15_29_cif.got.tgz:57302.got - 2010.06.28 07:06:18.
