data_PCOD8150433
_publ_section_title
;
Structure prediction by ZEFSAII (Michael W. Deem and Ramdas Pophale) SiO2 
 PCOD8150433
Probable space group: C 2/C
;
_chemical_formula_sum "Si O2"
_cell_formula_units_Z 48
_cell_length_a 16.866406
_cell_length_b 11.290999
_cell_length_c 12.047018
_cell_angle_alpha 90.000000
_cell_angle_beta 110.834201
_cell_angle_gamma 90.000000
_cell_volume 2144.206196
_symmetry_space_group_name_H-M "C 2/C"
_symmetry_group_IT_number 15
_symmetry_cell_setting 'monoclinic'
loop_
_space_group_symop_operation_xyz
x,y,z
-x,y,1/2-z
-x,-y,-z
x,-y,1/2+z
1/2+x,1/2+y,z
1/2-x,1/2+y,1/2-z
1/2-x,1/2-y,-z
1/2+x,1/2-y,1/2+z
loop_
_atom_site_type_symbol
_atom_site_label
_atom_site_fract_x
_atom_site_fract_y
_atom_site_fract_z
Si Si1 0.377647 0.240578 0.978358
Si Si2 0.069907 0.173887 0.561553
Si Si3 0.402448 0.171562 0.227953
Si Si4 0.844620 0.953060 0.823601
Si Si5 0.403049 0.718496 0.172618
Si Si6 0.166706 0.427285 0.232367
O O1 0.320878 0.346499 0.897638
O O2 0.367290 0.119782 0.903103
O O3 0.473085 0.286720 0.011961
O O4 0.351144 0.213268 0.092072
O O5 0.123242 0.245948 0.681286
O O6 0.112328 0.201070 0.464738
O O7 0.078763 0.034190 0.591862
O O8 0.500000 0.190986 0.250000
O O9 0.389141 0.036588 0.254467
O O10 0.875731 0.901430 0.721791
O O11 0.763547 0.035243 0.766989
O O12 0.500000 0.750342 0.250000
O O13 0.342237 0.825211 0.180111
#
# Coordination Sequence:
#
# PCOD8150433 Si02
#       6
#     8   8   8   8   8   8
#     4  10  24  47  69 101 143 188 238 293 350 430
#     4  11  24  44  73 104 136 188 251 282 353 431
#     4  10  25  41  72 102 140 190 240 286 355 436
#     4  11  26  42  72 104 141 182 239 301 358 407
#     4  11  24  46  75 100 139 192 238 289 348 429
#     4  11  25  44  68 105 144 184 231 300 365 409
#
# _framework density 22.385905999999999
#
# number of rings (size 3 to 8) (size 9 to 14) (size 15 to 20)
#    0.000    1.333    3.333    1.000    9.333    4.667 
#    0.000    0.000    0.000    0.000    0.000    0.000 
#    0.000    0.000    0.000    0.000    0.000    0.000 
#
# Total GULP energy -297654.297241 kJ/mol
# GULP energy per Si atom -12402.262385 kJ/mol
# Density = 2.233495 g / cm^3
# Si number density = 22.385906 Si / 1000 Ang^3
#
#
#
# Elastic Constant Matrix: (Units=GPa)
#
#
# Indices 1 2 3 4 5 6 
#
# 1 78.0674 38.9218 44.3571 0.0000 -8.4822 0.0000
# 2 38.9218 141.6602 83.8424 0.0000 -14.5926 0.0000
# 3 44.3571 83.8424 190.4094 0.0000 -39.9946 0.0000
# 4 0.0000 0.0000 0.0000 37.9643 0.0000 5.2727
# 5 -8.4822 -14.5926 -39.9946 0.0000 32.6967 0.0000
# 6 0.0000 0.0000 0.0000 5.2727 0.0000 31.8024
#
#
#
# Elastic Compliance Matrix: (Units=1/GPa)
#
#
# Indices 1 2 3 4 5 6 
#
# 1 0.015591 -0.002881 -0.002401 0.000000 -0.000178 0.000000
# 2 -0.002881 0.010114 -0.004025 0.000000 -0.001157 0.000000
# 3 -0.002401 -0.004025 0.009522 0.000000 0.009228 0.000000
# 4 0.000000 0.000000 0.000000 0.026961 0.000000 -0.004470
# 5 -0.000178 -0.001157 0.009228 0.000000 0.041309 0.000000
# 6 0.000000 0.000000 0.000000 -0.004470 0.000000 0.032185
#
#
# Mechanical properties :
#
#
# Convention : Reuss Voigt Hill
#
# Bulk Modulus (GPa) = 60.19695 82.70887 71.45291
# Shear Modulus (GPa) = 31.28256 36.69372 33.98814
#
# Velocity S-wave (km/s) = 3.74227 4.05303 3.90074
# Velocity P-wave (km/s) = 6.75438 7.67657 7.23019
#
# Compressibility (1/GPa) = 0.01661214
#
# Stress axis : x y z
#
# Youngs Moduli (GPa) = 64.14137 98.87329 105.02182
#
# Poissons Ratio (x) = 0.28486 0.25212
# Poissons Ratio (y) = 0.18479 0.42275
# Poissons Ratio (z) = 0.15398 0.39800
#
# Static dielectric constant tensor:
#      x y z
#    x 3.763900 0.000000 -0.162140 
#    y 0.000000 4.181740 0.000000 
#    z -0.162140 0.000000 4.524430 
# 
# 
# High freq. dielectric constant tensor:
#      x y z
#    x 1.875050 0.000000 -0.007080 
#    y 0.000000 1.893270 0.000000 
#    z -0.007080 0.000000 1.890460 
# 
# From -- ./inp_files/104285.got.cif
#   From: 2010.06.25/outbox.cif.g09.slc.cpg/sg15_53_cif.got.tgz:104285.got - 2010.06.28 07:06:18.
