data_PCOD8150798
_publ_section_title
;
Structure prediction by ZEFSAII (Michael W. Deem and Ramdas Pophale) SiO2 
 PCOD8150798
Probable space group: C 2/C
;
_chemical_formula_sum "Si O2"
_cell_formula_units_Z 44
_cell_length_a 24.153985
_cell_length_b 20.279256
_cell_length_c 10.840259
_cell_angle_alpha 90.000000
_cell_angle_beta 22.666923
_cell_angle_gamma 90.000000
_cell_volume 2046.266512
_symmetry_space_group_name_H-M "C 2/C"
_symmetry_group_IT_number 15
_symmetry_cell_setting 'monoclinic'
loop_
_space_group_symop_operation_xyz
x,y,z
-x,y,1/2-z
-x,-y,-z
x,-y,1/2+z
1/2+x,1/2+y,z
1/2-x,1/2+y,1/2-z
1/2-x,1/2-y,-z
1/2+x,1/2-y,1/2+z
loop_
_atom_site_type_symbol
_atom_site_label
_atom_site_fract_x
_atom_site_fract_y
_atom_site_fract_z
Si Si1 0.582200 0.253995 0.369105
Si Si2 0.795971 0.568183 0.246258
Si Si3 0.195559 0.073416 0.016932
Si Si4 0.072378 0.385453 0.277676
Si Si5 0.983214 0.871658 0.140704
Si Si6 0.000000 0.843427 0.750000
O O1 0.495845 0.187350 0.575804
O O2 0.493108 0.294953 0.446489
O O3 0.584228 0.298625 0.483798
O O4 0.750000 0.250000 0.000000
O O5 0.725256 0.496086 0.390352
O O6 0.683015 0.614065 0.550376
O O7 0.823907 0.601478 0.053732
O O8 0.940084 0.564109 0.031874
O O9 0.083106 0.075893 0.362418
O O10 0.129475 0.115407 0.042979
O O11 0.345330 0.101906 0.763442
O O12 0.000000 0.884238 0.250000
#
# Coordination Sequence:
#
# PCOD8150798 Si02
#       6
#     8   8   8   8   8   4
#     4  11  24  45  70  99 141 181 238 291 352 415
#     4  11  23  43  71 100 141 184 232 283 350 419
#     4  11  25  44  70 105 141 185 236 286 352 419
#     4  11  24  45  70  99 141 188 229 294 349 408
#     4  11  23  42  71 103 135 187 229 287 357 415
#     4  10  26  44  70 104 142 184 238 292 342 428
#
# _framework density 21.502576000000001
#
# number of rings (size 3 to 8) (size 9 to 14) (size 15 to 20)
#    0.000    1.091    3.636    2.182    1.273    7.273 
#    6.545    0.000    0.000    0.000    0.000    0.000 
#    0.000    0.000    0.000    0.000    0.000    0.000 
#
# Total GULP energy -272542.264490 kJ/mol
# GULP energy per Si atom -12388.284750 kJ/mol
# Density = 2.145364 g / cm^3
# Si number density = 21.502576 Si / 1000 Ang^3
#
#
#
# Elastic Constant Matrix: (Units=GPa)
#
#
# Indices 1 2 3 4 5 6 
#
# 1 116.5584 48.5945 29.9598 -0.0001 -2.3100 -0.0002
# 2 48.5945 147.6527 66.5822 0.0001 18.8381 -0.0001
# 3 29.9598 66.5822 120.1005 -0.0002 5.3145 0.0009
# 4 -0.0001 0.0001 -0.0002 53.6403 0.0003 -15.6198
# 5 -2.3100 18.8381 5.3145 0.0003 31.6868 0.0001
# 6 -0.0002 -0.0001 0.0009 -15.6198 0.0001 59.0207
#
#
#
# Elastic Compliance Matrix: (Units=1/GPa)
#
#
# Indices 1 2 3 4 5 6 
#
# 1 0.010254 -0.003376 -0.000814 0.000000 0.002891 0.000000
# 2 -0.003376 0.010848 -0.004912 0.000000 -0.005872 0.000000
# 3 -0.000814 -0.004912 0.011209 0.000000 0.000981 0.000000
# 4 0.000000 0.000000 0.000000 0.020199 0.000000 0.005346
# 5 0.002891 -0.005872 0.000981 0.000000 0.035096 0.000000
# 6 0.000000 0.000000 0.000000 0.005346 0.000000 0.018358
#
#
# Mechanical properties :
#
#
# Convention : Reuss Voigt Hill
#
# Bulk Modulus (GPa) = 70.89108 74.95384 72.92246
# Shear Modulus (GPa) = 38.79872 44.81458 41.80665
#
# Velocity S-wave (km/s) = 4.25240 4.57020 4.41416
# Velocity P-wave (km/s) = 7.55981 7.92356 7.74382
#
# Compressibility (1/GPa) = 0.01410615
#
# Stress axis : x y z
#
# Youngs Moduli (GPa) = 97.52695 92.18334 89.21352
#
# Poissons Ratio (x) = 0.31125 0.07261
# Poissons Ratio (y) = 0.32930 0.43820
# Poissons Ratio (z) = 0.07938 0.45279
#
# Static dielectric constant tensor:
#      x y z
#    x 3.945220 0.000000 -0.159730 
#    y 0.000000 4.025040 0.000000 
#    z -0.159730 0.000000 4.180280 
# 
# 
# High freq. dielectric constant tensor:
#      x y z
#    x 1.843170 0.000000 -0.007060 
#    y 0.000000 1.844160 0.000000 
#    z -0.007060 0.000000 1.862630 
# 
# From -- ./inp_files/124222.got.cif
#   From: 2010.06.25/outbox.cif.g09.slc.cpg/sg15_63_cif.got.tgz:124222.got - 2010.06.28 07:06:18.
