data_PCOD8150676
_publ_section_title
;
Structure prediction by ZEFSAII (Michael W. Deem and Ramdas Pophale) SiO2 
 PCOD8150676
Probable space group: C 2/C
;
_chemical_formula_sum "Si O2"
_cell_formula_units_Z 36
_cell_length_a 15.233081
_cell_length_b 9.308666
_cell_length_c 18.645448
_cell_angle_alpha 90.000000
_cell_angle_beta 146.703832
_cell_angle_gamma 90.000000
_cell_volume 1451.423649
_symmetry_space_group_name_H-M "C 2/C"
_symmetry_group_IT_number 15
_symmetry_cell_setting 'monoclinic'
loop_
_space_group_symop_operation_xyz
x,y,z
-x,y,1/2-z
-x,-y,-z
x,-y,1/2+z
1/2+x,1/2+y,z
1/2-x,1/2+y,1/2-z
1/2-x,1/2-y,-z
1/2+x,1/2-y,1/2+z
loop_
_atom_site_type_symbol
_atom_site_label
_atom_site_fract_x
_atom_site_fract_y
_atom_site_fract_z
Si Si1 0.611637 0.876143 0.638999
Si Si2 0.290936 0.695872 0.398490
Si Si3 0.868905 0.056376 0.045519
Si Si4 0.500000 0.632273 0.750000
Si Si5 0.901173 0.370088 0.026834
O O1 0.453030 0.781672 0.520052
O O2 0.736839 0.803414 0.778379
O O3 0.687648 0.889581 0.611263
O O4 0.560924 0.032178 0.635826
O O5 0.314182 0.531367 0.438306
O O6 0.156292 0.768162 0.356342
O O7 0.948236 0.204352 0.073051
O O8 0.716067 0.079492 0.991234
O O9 0.000173 0.965828 0.179006
#
# Coordination Sequence:
#
# PCOD8150676 Si02
#       5
#     8   8   8   4   8
#     4  11  25  47  71 103 148 181 233 291 358 413
#     4  12  24  45  74 102 137 195 236 287 348 429
#     4  11  24  44  74 101 135 191 239 286 350 427
#     4  12  22  42  72 102 140 184 246 294 344 422
#     4  10  25  46  68 107 141 182 233 299 350 416
#
# _framework density 24.803234
#
# number of rings (size 3 to 8) (size 9 to 14) (size 15 to 20)
#    0.000    0.889    4.444    2.000    0.000    9.778 
#    0.000    0.000    0.000    0.000    0.000    0.000 
#    0.000    0.000    0.000    0.000    0.000    0.000 
#
# Total GULP energy -223241.761387 kJ/mol
# GULP energy per Si atom -12402.320077 kJ/mol
# Density = 2.474678 g / cm^3
# Si number density = 24.803234 Si / 1000 Ang^3
#
#
#
# Elastic Constant Matrix: (Units=GPa)
#
#
# Indices 1 2 3 4 5 6 
#
# 1 52.9648 12.1282 15.8178 0.0003 -16.5802 0.0001
# 2 12.1282 139.9523 33.0532 0.0003 -8.1393 0.0001
# 3 15.8178 33.0532 124.3724 0.0004 -26.9395 0.0003
# 4 0.0003 0.0003 0.0004 23.0483 0.0001 -22.2606
# 5 -16.5802 -8.1393 -26.9395 0.0001 34.7201 0.0001
# 6 0.0001 0.0001 0.0003 -22.2606 0.0001 37.1849
#
#
#
# Elastic Compliance Matrix: (Units=1/GPa)
#
#
# Indices 1 2 3 4 5 6 
#
# 1 0.022454 -0.001280 -0.000310 -0.000001 0.010182 -0.000001
# 2 -0.001280 0.007699 -0.001953 0.000000 -0.000322 0.000000
# 3 -0.000310 -0.001953 0.010178 -0.000001 0.007291 -0.000001
# 4 -0.000001 0.000000 -0.000001 0.102859 -0.000002 0.061576
# 5 0.010182 -0.000322 0.007291 -0.000002 0.039246 -0.000001
# 6 -0.000001 0.000000 -0.000001 0.061576 -0.000001 0.063755
#
#
# Mechanical properties :
#
#
# Convention : Reuss Voigt Hill
#
# Bulk Modulus (GPa) = 30.08080 48.80977 39.44528
# Shear Modulus (GPa) = 18.91371 36.07668 27.49520
#
# Velocity S-wave (km/s) = 2.76443 3.81795 3.33308
# Velocity P-wave (km/s) = 4.72689 6.25757 5.54530
#
# Compressibility (1/GPa) = 0.03324380
#
# Stress axis : x y z
#
# Youngs Moduli (GPa) = 44.53635 129.89108 98.24973
#
# Poissons Ratio (x) = 0.16632 0.03045
# Poissons Ratio (y) = 0.05703 0.19187
# Poissons Ratio (z) = 0.01381 0.25366
#
# Static dielectric constant tensor:
#      x y z
#    x 4.759130 0.000000 -0.385060 
#    y 0.000000 4.845970 0.000000 
#    z -0.385060 0.000000 4.226770 
# 
# 
# High freq. dielectric constant tensor:
#      x y z
#    x 1.994380 0.000000 -0.011580 
#    y 0.000000 2.005370 0.000000 
#    z -0.011580 0.000000 1.971950 
# 
# From -- ./inp_files/125381.got.cif
#   From: 2010.06.25/outbox.cif.g09.slc.cpg/sg15_63_cif.got.tgz:125381.got - 2010.06.28 07:06:18.
