data_PCOD8150643
_publ_section_title
;
Structure prediction by ZEFSAII (Michael W. Deem and Ramdas Pophale) SiO2 
 PCOD8150643
Probable space group: C 2/C
;
_chemical_formula_sum "Si O2"
_cell_formula_units_Z 40
_cell_length_a 21.612482
_cell_length_b 9.118549
_cell_length_c 9.188409
_cell_angle_alpha 90.000000
_cell_angle_beta 92.669834
_cell_angle_gamma 90.000000
_cell_volume 1808.835334
_symmetry_space_group_name_H-M "C 2/C"
_symmetry_group_IT_number 15
_symmetry_cell_setting 'monoclinic'
loop_
_space_group_symop_operation_xyz
x,y,z
-x,y,1/2-z
-x,-y,-z
x,-y,1/2+z
1/2+x,1/2+y,z
1/2-x,1/2+y,1/2-z
1/2-x,1/2-y,-z
1/2+x,1/2-y,1/2+z
loop_
_atom_site_type_symbol
_atom_site_label
_atom_site_fract_x
_atom_site_fract_y
_atom_site_fract_z
Si Si1 0.800506 0.846305 0.427155
Si Si2 0.981164 0.143606 0.408627
Si Si3 0.885485 0.621813 0.847823
Si Si4 0.587270 0.151345 0.980921
Si Si5 0.745248 0.611047 0.900989
O O1 0.750000 0.750000 0.500000
O O2 0.867536 0.773246 0.444657
O O3 0.787827 0.863268 0.255525
O O4 0.797031 0.998665 0.513075
O O5 0.910575 0.214474 0.402133
O O6 0.000000 0.097742 0.250000
O O7 0.019870 0.280018 0.468967
O O8 0.000000 0.000000 0.500000
O O9 0.887986 0.608964 0.675098
O O10 0.816615 0.570694 0.884654
O O11 0.924921 0.491953 0.923475
O O12 0.750000 0.750000 0.000000
#
# Coordination Sequence:
#
# PCOD8150643 Si02
#       5
#     8   8   8   8   8
#     4  12  24  43  65  99 134 173 222 268 331 395
#     4  10  25  45  67  96 130 170 221 276 329 390
#     4  11  23  44  66  96 131 173 223 268 327 392
#     4  11  25  43  69  95 135 172 224 273 324 401
#     4  12  26  41  67  98 137 176 216 273 332 393
#
# _framework density 22.113675000000001
#
# number of rings (size 3 to 8) (size 9 to 14) (size 15 to 20)
#    0.000    0.800    4.000    1.800    5.600    3.200 
#    0.000    0.000    0.000    0.000    0.000    0.000 
#    0.000    0.000    0.000    0.000    0.000    0.000 
#
# Total GULP energy -247808.596398 kJ/mol
# GULP energy per Si atom -12390.429820 kJ/mol
# Density = 2.206334 g / cm^3
# Si number density = 22.113675 Si / 1000 Ang^3
#
#
#
# Elastic Constant Matrix: (Units=GPa)
#
#
# Indices 1 2 3 4 5 6 
#
# 1 57.2488 9.3487 22.5101 0.0000 7.7675 0.0000
# 2 9.3487 131.6486 79.8679 0.0000 0.9339 0.0000
# 3 22.5101 79.8679 181.9861 0.0000 19.0424 0.0000
# 4 0.0000 0.0000 0.0000 27.9449 0.0000 12.6993
# 5 7.7675 0.9339 19.0424 0.0000 22.5313 0.0000
# 6 0.0000 0.0000 0.0000 12.6993 0.0000 39.9706
#
#
#
# Elastic Compliance Matrix: (Units=1/GPa)
#
#
# Indices 1 2 3 4 5 6 
#
# 1 0.018862 -0.000286 -0.001676 0.000000 -0.005074 0.000000
# 2 -0.000286 0.010652 -0.005050 0.000000 0.003925 0.000000
# 3 -0.001676 -0.005050 0.008597 0.000000 -0.006478 0.000000
# 4 0.000000 0.000000 0.000000 0.041823 0.000000 -0.013288
# 5 -0.005074 0.003925 -0.006478 0.000000 0.051444 0.000000
# 6 0.000000 0.000000 0.000000 -0.013288 0.000000 0.029240
#
#
# Mechanical properties :
#
#
# Convention : Reuss Voigt Hill
#
# Bulk Modulus (GPa) = 41.52031 66.03744 53.77888
# Shear Modulus (GPa) = 27.37130 35.36647 31.36888
#
# Velocity S-wave (km/s) = 3.52199 4.00347 3.77042
# Velocity P-wave (km/s) = 5.94608 7.16225 6.58231
#
# Compressibility (1/GPa) = 0.02408460
#
# Stress axis : x y z
#
# Youngs Moduli (GPa) = 53.01666 93.87587 116.32558
#
# Poissons Ratio (x) = 0.02688 0.19502
# Poissons Ratio (y) = 0.01518 0.58748
# Poissons Ratio (z) = 0.08888 0.47410
#
# Static dielectric constant tensor:
#      x y z
#    x 3.704230 0.000000 0.049700 
#    y 0.000000 3.321920 0.000000 
#    z 0.049700 0.000000 2.602750 
# 
# 
# High freq. dielectric constant tensor:
#      x y z
#    x 1.872300 0.000000 0.014520 
#    y 0.000000 1.881130 0.000000 
#    z 0.014520 0.000000 1.883750 
# 
# From -- ./inp_files/59892.got.cif
#   From: 2010.06.25/outbox.cif.g09.slc.cpg/sg15_30_cif.got.tgz:59892.got - 2010.06.28 07:06:18.
