data_PCOD8150528
_publ_section_title
;
Structure prediction by ZEFSAII (Michael W. Deem and Ramdas Pophale) SiO2 
 PCOD8150528
Probable space group: C 2/C
;
_chemical_formula_sum "Si O2"
_cell_formula_units_Z 56
_cell_length_a 9.520077
_cell_length_b 15.423133
_cell_length_c 26.307635
_cell_angle_alpha 90.000000
_cell_angle_beta 134.456208
_cell_angle_gamma 90.000000
_cell_volume 2757.165726
_symmetry_space_group_name_H-M "C 2/C"
_symmetry_group_IT_number 15
_symmetry_cell_setting 'monoclinic'
loop_
_space_group_symop_operation_xyz
x,y,z
-x,y,1/2-z
-x,-y,-z
x,-y,1/2+z
1/2+x,1/2+y,z
1/2-x,1/2+y,1/2-z
1/2-x,1/2-y,-z
1/2+x,1/2-y,1/2+z
loop_
_atom_site_type_symbol
_atom_site_label
_atom_site_fract_x
_atom_site_fract_y
_atom_site_fract_z
Si Si1 0.032315 0.872861 0.123044
Si Si2 0.188568 0.482687 0.763098
Si Si3 0.050901 0.162057 0.130516
Si Si4 0.392013 0.212219 0.669282
Si Si5 0.456334 0.936940 0.364291
Si Si6 0.634592 0.483756 0.985413
Si Si7 0.328463 0.308615 0.165465
O O1 0.163871 0.811792 0.120049
O O2 0.918052 0.808776 0.131872
O O3 0.166246 0.937669 0.189546
O O4 0.878548 0.929603 0.051593
O O5 0.287579 0.390998 0.797602
O O6 0.000000 0.495034 0.750000
O O7 0.127232 0.481123 0.688234
O O8 0.166645 0.233249 0.127054
O O9 0.903954 0.205063 0.134571
O O10 0.933109 0.101616 0.061862
O O11 0.500000 0.231421 0.750000
O O12 0.495556 0.132722 0.667265
O O13 0.640532 0.967944 0.443450
O O14 0.284121 0.900237 0.356310
O O15 0.500000 0.500000 0.000000
O O16 0.500000 0.294971 0.250000
#
# Coordination Sequence:
#
# PCOD8150528 Si02
#       7
#     8   8   8   8   8   8   8
#     4  11  20  39  68  89 127 167 220 250 327 394
#     4  11  18  38  66  94 116 169 221 266 303 384
#     4  10  25  39  67  96 129 158 225 272 318 378
#     4  11  19  39  65  97 119 168 212 269 317 382
#     4  11  20  38  70  88 131 169 218 260 327 376
#     4  11  23  43  67  95 121 180 221 259 313 403
#     4  11  22  39  64  97 129 168 207 278 332 379
#
# _framework density 20.310711999999999
#
# number of rings (size 3 to 8) (size 9 to 14) (size 15 to 20)
#    0.000    1.143    5.714    2.143    0.000    2.857 
#    5.143    0.714    3.143    0.000    0.000    0.000 
#    0.000    0.000    0.000    0.000    0.000    0.000 
#
# Total GULP energy -347226.878223 kJ/mol
# GULP energy per Si atom -12400.959937 kJ/mol
# Density = 2.026448 g / cm^3
# Si number density = 20.310712 Si / 1000 Ang^3
#
#
#
# Elastic Constant Matrix: (Units=GPa)
#
#
# Indices 1 2 3 4 5 6 
#
# 1 90.6643 23.8193 13.4609 0.0000 -12.0378 0.0000
# 2 23.8193 69.7455 35.5254 0.0000 -12.3914 0.0000
# 3 13.4609 35.5254 120.4133 0.0000 -2.4776 0.0000
# 4 0.0000 0.0000 0.0000 24.4423 0.0000 -2.4660
# 5 -12.0378 -12.3914 -2.4776 0.0000 28.0886 0.0000
# 6 0.0000 0.0000 0.0000 -2.4660 0.0000 106.6447
#
#
#
# Elastic Compliance Matrix: (Units=1/GPa)
#
#
# Indices 1 2 3 4 5 6 
#
# 1 0.012482 -0.003431 -0.000305 0.000000 0.003809 0.000000
# 2 -0.003431 0.019320 -0.005181 0.000000 0.006596 0.000000
# 3 -0.000305 -0.005181 0.009835 0.000000 -0.001549 0.000000
# 4 0.000000 0.000000 0.000000 0.041008 0.000000 0.000948
# 5 0.003809 0.006596 -0.001549 0.000000 0.040007 0.000000
# 6 0.000000 0.000000 0.000000 0.000948 0.000000 0.009399
#
#
# Mechanical properties :
#
#
# Convention : Reuss Voigt Hill
#
# Bulk Modulus (GPa) = 42.00821 47.38159 44.69490
# Shear Modulus (GPa) = 31.68166 45.70296 38.69231
#
# Velocity S-wave (km/s) = 3.95378 4.74876 4.36939
# Velocity P-wave (km/s) = 6.44754 7.31072 6.89266
#
# Compressibility (1/GPa) = 0.02380487
#
# Stress axis : x y z
#
# Youngs Moduli (GPa) = 80.11515 51.75903 101.67327
#
# Poissons Ratio (x) = 0.17758 0.03099
# Poissons Ratio (y) = 0.27486 0.52675
# Poissons Ratio (z) = 0.02442 0.26815
#
# Static dielectric constant tensor:
#      x y z
#    x 3.777200 0.000000 0.012910 
#    y 0.000000 3.738250 0.000000 
#    z 0.012910 0.000000 3.804210 
# 
# 
# High freq. dielectric constant tensor:
#      x y z
#    x 1.796030 0.000000 -0.001360 
#    y 0.000000 1.785380 0.000000 
#    z -0.001360 0.000000 1.790680 
# 
# From -- ./inp_files/232570.got.cif
#   From: 2010.06.25/outbox.cif.g09.slc.cpg/sg15_117_cif.got.tgz:232570.got - 2010.06.28 07:06:18.
