data_PCOD8150419
_publ_section_title
;
Structure prediction by ZEFSAII (Michael W. Deem and Ramdas Pophale) SiO2 
 PCOD8150419
Probable space group: C 2/C
;
_chemical_formula_sum "Si O2"
_cell_formula_units_Z 48
_cell_length_a 5.918494
_cell_length_b 13.994033
_cell_length_c 27.376075
_cell_angle_alpha 90.000000
_cell_angle_beta 108.922404
_cell_angle_gamma 90.000000
_cell_volume 2144.852492
_symmetry_space_group_name_H-M "C 2/C"
_symmetry_group_IT_number 15
_symmetry_cell_setting 'monoclinic'
loop_
_space_group_symop_operation_xyz
x,y,z
-x,y,1/2-z
-x,-y,-z
x,-y,1/2+z
1/2+x,1/2+y,z
1/2-x,1/2+y,1/2-z
1/2-x,1/2-y,-z
1/2+x,1/2-y,1/2+z
loop_
_atom_site_type_symbol
_atom_site_label
_atom_site_fract_x
_atom_site_fract_y
_atom_site_fract_z
Si Si1 0.498161 0.518537 0.353547
Si Si2 0.000000 0.322547 0.750000
Si Si3 0.029905 0.483151 0.558921
Si Si4 0.000000 0.072548 0.250000
Si Si5 0.396863 0.766847 0.558921
Si Si6 0.812476 0.231464 0.353547
Si Si7 0.205096 0.624999 0.886731
O O1 0.705938 0.489648 0.405342
O O2 0.581626 0.511032 0.302718
O O3 0.414296 0.625000 0.359533
O O4 0.299123 0.437691 0.347947
O O5 0.250816 0.375000 0.750544
O O6 0.076527 0.261031 0.802718
O O7 0.000000 0.500000 0.500000
O O8 0.980271 0.374999 0.570176
O O9 0.850129 0.551681 0.574028
O O10 0.250000 0.750000 0.500000
O O11 0.239918 0.739648 0.594658
O O12 0.621956 0.698314 0.574027
O O13 0.994717 0.312308 0.347947
#
# Coordination Sequence:
#
# PCOD8150419 Si02
#       7
#     8   4   8   4   8   8   8
#     4  11  24  47  77 105 148 197 254 314 390 456
#     4  10  24  46  83 111 150 204 256 323 392 459
#     4  12  26  45  72 107 151 197 252 317 380 457
#     4  10  24  46  83 111 150 204 256 323 392 459
#     4  12  26  45  72 107 151 197 252 317 380 457
#     4  11  24  47  77 105 148 197 254 314 390 456
#     4  12  26  46  75 108 144 198 252 310 386 462
#
# _framework density 22.379161
#
# number of rings (size 3 to 8) (size 9 to 14) (size 15 to 20)
#    0.000    0.667    3.333    4.000    7.000    2.667 
#    0.000    5.000    0.000    0.000    0.000    0.000 
#    0.000    0.000    0.000    0.000    0.000    0.000 
#
# Total GULP energy -297445.384289 kJ/mol
# GULP energy per Si atom -12393.557679 kJ/mol
# Density = 2.232822 g / cm^3
# Si number density = 22.379161 Si / 1000 Ang^3
#
#
#
# Elastic Constant Matrix: (Units=GPa)
#
#
# Indices 1 2 3 4 5 6 
#
# 1 136.8076 61.2301 67.4591 0.0000 0.6022 0.0000
# 2 61.2301 152.2414 34.2616 0.0000 0.6246 0.0000
# 3 67.4591 34.2616 195.8193 0.0000 -1.9670 0.0000
# 4 0.0000 0.0000 0.0000 19.5770 0.0000 0.6686
# 5 0.6022 0.6246 -1.9670 0.0000 21.7482 0.0000
# 6 0.0000 0.0000 0.0000 0.6686 0.0000 48.4416
#
#
#
# Elastic Compliance Matrix: (Units=1/GPa)
#
#
# Indices 1 2 3 4 5 6 
#
# 1 0.010328 -0.003488 -0.002952 0.000000 -0.000453 0.000000
# 2 -0.003488 0.008017 -0.000203 0.000000 -0.000152 0.000000
# 3 -0.002952 -0.000203 0.006166 0.000000 0.000645 0.000000
# 4 0.000000 0.000000 0.000000 0.051104 0.000000 -0.000705
# 5 -0.000453 -0.000152 0.000645 0.000000 0.046056 0.000000
# 6 0.000000 0.000000 0.000000 -0.000705 0.000000 0.020653
#
#
# Mechanical properties :
#
#
# Convention : Reuss Voigt Hill
#
# Bulk Modulus (GPa) = 89.08021 90.08555 89.58288
# Shear Modulus (GPa) = 31.37691 39.41453 35.39572
#
# Velocity S-wave (km/s) = 3.74847 4.20124 3.98130
# Velocity P-wave (km/s) = 7.65677 7.99221 7.82629
#
# Compressibility (1/GPa) = 0.01122584
#
# Stress axis : x y z
#
# Youngs Moduli (GPa) = 96.82151 124.72732 162.18480
#
# Poissons Ratio (x) = 0.43501 0.47883
# Poissons Ratio (y) = 0.33768 0.03290
# Poissons Ratio (z) = 0.28585 0.02530
#
# Static dielectric constant tensor:
#      x y z
#    x 4.376620 0.000000 0.002980 
#    y 0.000000 4.190290 0.000000 
#    z 0.002980 0.000000 4.248150 
# 
# 
# High freq. dielectric constant tensor:
#      x y z
#    x 1.890870 0.000000 -0.000050 
#    y 0.000000 1.889740 0.000000 
#    z -0.000050 0.000000 1.893250 
# 
# From -- ./inp_files/305250.got.cif
#   From: 2010.06.25/outbox.cif.g09.slc.cpg/sg15_153_cif.got.tgz:305250.got - 2010.06.28 07:06:18.
