data_PCOD8150973
_publ_section_title
;
Structure prediction by ZEFSAII (Michael W. Deem and Ramdas Pophale) SiO2 
 PCOD8150973
Probable space group: C 2/C
;
_chemical_formula_sum "Si O2"
_cell_formula_units_Z 52
_cell_length_a 21.891771
_cell_length_b 6.539526
_cell_length_c 19.111826
_cell_angle_alpha 90.000000
_cell_angle_beta 63.983417
_cell_angle_gamma 90.000000
_cell_volume 2458.828329
_symmetry_space_group_name_H-M "C 2/C"
_symmetry_group_IT_number 15
_symmetry_cell_setting 'monoclinic'
loop_
_space_group_symop_operation_xyz
x,y,z
-x,y,1/2-z
-x,-y,-z
x,-y,1/2+z
1/2+x,1/2+y,z
1/2-x,1/2+y,1/2-z
1/2-x,1/2-y,-z
1/2+x,1/2-y,1/2+z
loop_
_atom_site_type_symbol
_atom_site_label
_atom_site_fract_x
_atom_site_fract_y
_atom_site_fract_z
Si Si1 0.105995 0.613189 0.942450
Si Si2 0.508544 0.156617 0.397574
Si Si3 0.370950 0.219367 0.785317
Si Si4 0.600823 0.503209 0.354533
Si Si5 0.194397 0.330452 0.749364
Si Si6 0.753007 0.018931 0.351575
Si Si7 0.000000 0.490490 0.250000
O O1 0.176745 0.488273 0.920646
O O2 0.058863 0.505938 0.908564
O O3 0.121295 0.842852 0.906843
O O4 0.067940 0.621656 0.035885
O O5 0.528347 0.391803 0.405696
O O6 0.512474 0.128473 0.311946
O O7 0.403044 0.385602 0.717688
O O8 0.307712 0.326661 0.860966
O O9 0.433597 0.147871 0.802247
O O10 0.347058 0.026457 0.752807
O O11 0.650966 0.309717 0.323837
O O12 0.219509 0.214211 0.666591
O O13 0.256032 0.408108 0.767833
#
# Coordination Sequence:
#
# PCOD8150973 Si02
#       7
#     8   8   8   8   8   8   4
#     4  11  22  40  60  97 127 156 211 270 315 368
#     4  11  24  39  64  88 127 171 206 259 317 371
#     4  11  23  35  61  93 121 166 208 257 309 367
#     4  11  18  37  59  94 120 155 206 253 317 357
#     4  11  18  32  57  92 121 154 194 266 300 366
#     4  11  19  33  59  89 126 156 203 254 320 358
#     4  12  22  48  58  86 132 168 214 254 302 394
#
# _framework density 21.148284
#
# number of rings (size 3 to 8) (size 9 to 14) (size 15 to 20)
#    0.000    0.923    7.692    1.385    0.000    0.615 
#    0.000    0.769    0.000    0.923    0.000    0.000 
#    0.000    0.000    0.000    0.000    0.000    0.000 
#
# Total GULP energy -322121.431259 kJ/mol
# GULP energy per Si atom -12389.285818 kJ/mol
# Density = 2.110015 g / cm^3
# Si number density = 21.148284 Si / 1000 Ang^3
#
#
#
# Elastic Constant Matrix: (Units=GPa)
#
#
# Indices 1 2 3 4 5 6 
#
# 1 83.0624 31.9501 22.7705 -0.0024 -25.3541 -0.0090
# 2 31.9501 108.3368 23.4011 -0.0100 -14.8710 -0.0043
# 3 22.7705 23.4011 87.9114 0.0000 -22.7500 -0.0013
# 4 -0.0024 -0.0100 0.0000 18.3528 0.0005 -9.6212
# 5 -25.3541 -14.8710 -22.7500 0.0005 37.6952 -0.0011
# 6 -0.0090 -0.0043 -0.0013 -9.6212 -0.0011 23.9120
#
#
#
# Elastic Compliance Matrix: (Units=1/GPa)
#
#
# Indices 1 2 3 4 5 6 
#
# 1 0.016382 -0.003369 -0.000994 0.000004 0.009090 0.000008
# 2 -0.003369 0.010726 -0.001747 0.000007 0.000911 0.000004
# 3 -0.000994 -0.001747 0.013920 -0.000001 0.007043 0.000000
# 4 0.000004 0.000007 -0.000001 0.069053 0.000005 0.027784
# 5 0.009090 0.000911 0.007043 0.000005 0.037253 0.000008
# 6 0.000008 0.000004 0.000000 0.027784 0.000008 0.052999
#
#
# Mechanical properties :
#
#
# Convention : Reuss Voigt Hill
#
# Bulk Modulus (GPa) = 34.71130 48.39490 41.55310
# Shear Modulus (GPa) = 22.50659 29.40457 25.95558
#
# Velocity S-wave (km/s) = 3.26579 3.73285 3.50710
# Velocity P-wave (km/s) = 5.53800 6.44300 6.00756
#
# Compressibility (1/GPa) = 0.02880906
#
# Stress axis : x y z
#
# Youngs Moduli (GPa) = 61.04232 93.22772 71.83749
#
# Poissons Ratio (x) = 0.31407 0.07142
# Poissons Ratio (y) = 0.20564 0.12549
# Poissons Ratio (z) = 0.06069 0.16285
#
# Static dielectric constant tensor:
#      x y z
#    x 3.888090 0.000000 -0.520920 
#    y 0.000000 4.194930 0.000000 
#    z -0.520920 0.000000 3.607080 
# 
# 
# High freq. dielectric constant tensor:
#      x y z
#    x 1.811960 0.000000 -0.049520 
#    y 0.000000 1.849890 0.000000 
#    z -0.049520 0.000000 1.784870 
# 
# From -- ./inp_files/254299.got.cif
#   From: 2010.06.25/outbox.cif.g09.slc.cpg/sg15_128_cif.got.tgz:254299.got - 2010.06.28 07:06:18.
