data_PCOD8150285
_publ_section_title
;
Structure prediction by ZEFSAII (Michael W. Deem and Ramdas Pophale) SiO2 
 PCOD8150285
Probable space group: C 2/C
;
_chemical_formula_sum "Si O2"
_cell_formula_units_Z 32
_cell_length_a 9.129644
_cell_length_b 12.218627
_cell_length_c 14.221355
_cell_angle_alpha 90.000000
_cell_angle_beta 114.769862
_cell_angle_gamma 90.000000
_cell_volume 1440.463022
_symmetry_space_group_name_H-M "C 2/C"
_symmetry_group_IT_number 15
_symmetry_cell_setting 'monoclinic'
loop_
_space_group_symop_operation_xyz
x,y,z
-x,y,1/2-z
-x,-y,-z
x,-y,1/2+z
1/2+x,1/2+y,z
1/2-x,1/2+y,1/2-z
1/2-x,1/2-y,-z
1/2+x,1/2-y,1/2+z
loop_
_atom_site_type_symbol
_atom_site_label
_atom_site_fract_x
_atom_site_fract_y
_atom_site_fract_z
Si Si1 0.677567 0.543419 0.789392
Si Si2 0.474309 0.794293 0.351103
Si Si3 0.163684 0.473482 0.493256
Si Si4 0.374054 0.576476 0.412320
O O1 0.500000 0.597980 0.750000
O O2 0.810974 0.636496 0.817577
O O3 0.701950 0.464647 0.887889
O O4 0.688902 0.465933 0.703576
O O5 0.500000 0.757111 0.250000
O O6 0.634113 0.861499 0.426864
O O7 0.453154 0.694487 0.418083
O O8 0.215676 0.572743 0.437151
O O9 0.000000 0.500000 0.500000
O O10 0.500000 0.500000 0.500000
#
# Coordination Sequence:
#
# PCOD8150285 Si02
#       4
#     8   8   8   8
#     4  11  23  46  68 104 140 183 240 299 354 430
#     4  11  25  46  73 103 143 197 235 290 373 419
#     4  10  24  45  71 100 141 181 240 293 354 424
#     4  12  25  44  69 105 143 181 243 298 350 431
#
# _framework density 22.215078999999999
#
# number of rings (size 3 to 8) (size 9 to 14) (size 15 to 20)
#    0.000    1.000    5.000    0.750    0.000    7.000 
#    9.000    0.000    0.000    0.000    0.000    0.000 
#    0.000    0.000    0.000    0.000    0.000    0.000 
#
# Total GULP energy -198294.362643 kJ/mol
# GULP energy per Si atom -12393.397665 kJ/mol
# Density = 2.216452 g / cm^3
# Si number density = 22.215079 Si / 1000 Ang^3
#
#
#
# Elastic Constant Matrix: (Units=GPa)
#
#
# Indices 1 2 3 4 5 6 
#
# 1 127.7642 41.1806 50.8740 0.0000 -10.5152 0.0000
# 2 41.1806 112.2978 59.2598 0.0000 -0.9778 0.0000
# 3 50.8740 59.2598 168.5637 0.0000 -11.0148 0.0000
# 4 0.0000 0.0000 0.0000 41.0034 0.0000 -5.0129
# 5 -10.5152 -0.9778 -11.0148 0.0000 46.4680 0.0000
# 6 0.0000 0.0000 0.0000 -5.0129 0.0000 42.4862
#
#
#
# Elastic Compliance Matrix: (Units=1/GPa)
#
#
# Indices 1 2 3 4 5 6 
#
# 1 0.009515 -0.002476 -0.001893 0.000000 0.001652 0.000000
# 2 -0.002476 0.011599 -0.003404 0.000000 -0.001123 0.000000
# 3 -0.001893 -0.003404 0.007789 0.000000 0.001346 0.000000
# 4 0.000000 0.000000 0.000000 0.024745 0.000000 0.002920
# 5 0.001652 -0.001123 0.001346 0.000000 0.022190 0.000000
# 6 0.000000 0.000000 0.000000 0.002920 0.000000 0.023882
#
#
# Mechanical properties :
#
#
# Convention : Reuss Voigt Hill
#
# Bulk Modulus (GPa) = 74.86946 79.02829 76.94887
# Shear Modulus (GPa) = 41.76516 43.14560 42.45538
#
# Velocity S-wave (km/s) = 4.34064 4.41179 4.37636
# Velocity P-wave (km/s) = 7.67443 7.84878 7.76209
#
# Compressibility (1/GPa) = 0.01335658
#
# Stress axis : x y z
#
# Youngs Moduli (GPa) = 105.10007 86.21233 128.39316
#
# Poissons Ratio (x) = 0.21343 0.24309
# Poissons Ratio (y) = 0.26019 0.43705
# Poissons Ratio (z) = 0.19899 0.29347
#
# Static dielectric constant tensor:
#      x y z
#    x 4.707810 0.000000 0.210530 
#    y 0.000000 4.065280 0.000000 
#    z 0.210530 0.000000 5.489170 
# 
# 
# High freq. dielectric constant tensor:
#      x y z
#    x 1.899690 0.000000 -0.009290 
#    y 0.000000 1.839040 0.000000 
#    z -0.009290 0.000000 1.900240 
# 
# From -- ./inp_files/132069.got.cif
#   From: 2010.06.25/outbox.cif.g09.slc.cpg/sg15_67_cif.got.tgz:132069.got - 2010.06.28 07:06:18.
