data_PCOD8150523
_publ_section_title
;
Structure prediction by ZEFSAII (Michael W. Deem and Ramdas Pophale) SiO2 
 PCOD8150523
Probable space group: C 2/C
;
_chemical_formula_sum "Si O2"
_cell_formula_units_Z 36
_cell_length_a 7.488691
_cell_length_b 22.263663
_cell_length_c 15.683048
_cell_angle_alpha 90.000000
_cell_angle_beta 32.538380
_cell_angle_gamma 90.000000
_cell_volume 1406.390210
_symmetry_space_group_name_H-M "C 2/C"
_symmetry_group_IT_number 15
_symmetry_cell_setting 'monoclinic'
loop_
_space_group_symop_operation_xyz
x,y,z
-x,y,1/2-z
-x,-y,-z
x,-y,1/2+z
1/2+x,1/2+y,z
1/2-x,1/2+y,1/2-z
1/2-x,1/2-y,-z
1/2+x,1/2-y,1/2+z
loop_
_atom_site_type_symbol
_atom_site_label
_atom_site_fract_x
_atom_site_fract_y
_atom_site_fract_z
Si Si1 0.123827 0.564551 0.426488
Si Si2 0.219827 0.375688 0.295055
Si Si3 0.084785 0.756473 0.811543
Si Si4 0.000000 0.654078 0.250000
Si Si5 0.075079 0.065365 0.510016
O O1 0.500000 0.564018 0.250000
O O2 0.000000 0.500000 0.500000
O O3 0.106279 0.608049 0.517939
O O4 0.906676 0.579108 0.431421
O O5 0.500000 0.392173 0.250000
O O6 0.251855 0.308913 0.247008
O O7 0.256396 0.418533 0.196997
O O8 0.366943 0.802416 0.728748
O O9 0.000000 0.776082 0.750000
O O10 0.750000 0.750000 0.000000
O O11 0.664380 0.614563 0.402430
O O12 0.000000 0.000000 0.500000
#
# Coordination Sequence:
#
# PCOD8150523 Si02
#       5
#     8   8   8   4   8
#     4  11  26  47  78 113 160 210 270 336 412 486
#     4  10  24  50  79 111 163 206 268 342 404 490
#     4  12  29  49  83 121 162 218 274 337 418 494
#     4  12  30  52  82 120 172 212 280 344 408 504
#     4  11  28  51  76 115 158 218 273 337 410 490
#
# _framework density 25.597446000000001
#
# number of rings (size 3 to 8) (size 9 to 14) (size 15 to 20)
#    0.000    0.889    1.111    3.333   15.556    3.556 
#    0.000    1.111    0.000    0.000    0.000    0.000 
#    0.000    0.000    0.000    0.000    0.000    0.000 
#
# Total GULP energy -223021.830226 kJ/mol
# GULP energy per Si atom -12390.101679 kJ/mol
# Density = 2.553919 g / cm^3
# Si number density = 25.597446 Si / 1000 Ang^3
#
#
#
# Elastic Constant Matrix: (Units=GPa)
#
#
# Indices 1 2 3 4 5 6 
#
# 1 129.8452 70.6984 53.8633 -0.0010 15.8649 0.0030
# 2 70.6984 179.4068 54.2526 0.0007 13.4922 0.0005
# 3 53.8633 54.2526 173.0733 -0.0031 19.5673 0.0070
# 4 -0.0010 0.0007 -0.0031 47.7238 0.0011 -1.2149
# 5 15.8649 13.4922 19.5673 0.0011 37.0348 -0.0035
# 6 0.0030 0.0005 0.0070 -1.2149 -0.0035 43.0579
#
#
#
# Elastic Compliance Matrix: (Units=1/GPa)
#
#
# Indices 1 2 3 4 5 6 
#
# 1 0.010674 -0.003434 -0.001989 0.000000 -0.002271 -0.000001
# 2 -0.003434 0.007322 -0.001161 0.000000 -0.000583 0.000000
# 3 -0.001989 -0.001161 0.007037 0.000000 -0.002443 -0.000001
# 4 0.000000 0.000000 0.000000 0.020969 -0.000001 0.000592
# 5 -0.002271 -0.000583 -0.002443 -0.000001 0.029478 0.000003
# 6 -0.000001 0.000000 -0.000001 0.000592 0.000003 0.023241
#
#
# Mechanical properties :
#
#
# Convention : Reuss Voigt Hill
#
# Bulk Modulus (GPa) = 84.27426 93.32822 88.80124
# Shear Modulus (GPa) = 43.16228 45.79737 44.47982
#
# Velocity S-wave (km/s) = 4.11078 4.23441 4.17305
# Velocity P-wave (km/s) = 7.45156 7.77471 7.61485
#
# Compressibility (1/GPa) = 0.01186602
#
# Stress axis : x y z
#
# Youngs Moduli (GPa) = 93.68906 136.57552 142.10978
#
# Poissons Ratio (x) = 0.46900 0.28261
# Poissons Ratio (y) = 0.32173 0.16492
# Poissons Ratio (z) = 0.18632 0.15850
#
# Static dielectric constant tensor:
#      x y z
#    x 4.677050 0.000000 0.208370 
#    y 0.000000 4.770980 0.000010 
#    z 0.208370 0.000010 4.817210 
# 
# 
# High freq. dielectric constant tensor:
#      x y z
#    x 2.041830 0.000000 0.007130 
#    y 0.000000 2.033900 0.000000 
#    z 0.007130 0.000000 2.030470 
# 
# From -- ./inp_files/192435.got.cif
#   From: 2010.06.25/outbox.cif.g09.slc.cpg/sg15_97_cif.got.tgz:192435.got - 2010.06.28 07:06:18.
