data_PCOD8150722
_publ_section_title
;
Structure prediction by ZEFSAII (Michael W. Deem and Ramdas Pophale) SiO2 
 PCOD8150722
Probable space group: C 2/C
;
_chemical_formula_sum "Si O2"
_cell_formula_units_Z 44
_cell_length_a 22.916601
_cell_length_b 11.523946
_cell_length_c 7.825884
_cell_angle_alpha 90.000000
_cell_angle_beta 77.332576
_cell_angle_gamma 90.000000
_cell_volume 2016.429531
_symmetry_space_group_name_H-M "C 2/C"
_symmetry_group_IT_number 15
_symmetry_cell_setting 'monoclinic'
loop_
_space_group_symop_operation_xyz
x,y,z
-x,y,1/2-z
-x,-y,-z
x,-y,1/2+z
1/2+x,1/2+y,z
1/2-x,1/2+y,1/2-z
1/2-x,1/2-y,-z
1/2+x,1/2-y,1/2+z
loop_
_atom_site_type_symbol
_atom_site_label
_atom_site_fract_x
_atom_site_fract_y
_atom_site_fract_z
Si Si1 0.057460 0.581616 0.955331
Si Si2 0.744632 0.381593 0.962207
Si Si3 0.000000 0.761876 0.750000
Si Si4 0.166319 0.967496 0.725876
Si Si5 0.896357 0.847228 0.035070
Si Si6 0.125498 0.613460 0.246076
O O1 0.111226 0.501186 0.861366
O O2 0.046747 0.684797 0.827652
O O3 0.076683 0.633855 0.126346
O O4 0.000000 0.500000 0.000000
O O5 0.689629 0.390221 0.865628
O O6 0.809149 0.421218 0.858887
O O7 0.750000 0.250000 0.000000
O O8 0.723712 0.454120 0.140003
O O9 0.962936 0.838988 0.910877
O O10 0.148966 0.879123 0.587858
O O11 0.109966 0.049354 0.820297
O O12 0.876542 0.726024 0.131608
#
# Coordination Sequence:
#
# PCOD8150722 Si02
#       6
#     8   8   4   8   8   8
#     4  12  23  42  67 105 142 167 218 286 331 412
#     4  11  23  44  70 100 132 182 219 281 338 404
#     4  12  26  42  70 100 130 180 224 270 350 392
#     4  10  25  48  65  97 141 168 238 277 329 403
#     4  11  25  44  70  96 132 184 220 286 328 402
#     4  12  23  42  70 102 138 176 221 272 351 392
#
# _framework density 21.820747999999998
#
# number of rings (size 3 to 8) (size 9 to 14) (size 15 to 20)
#    0.000    0.727    5.455    1.091    2.545    1.455 
#    3.273    0.000    0.000    0.000    0.000    0.000 
#    0.000    0.000    0.000    0.000    0.000    0.000 
#
# Total GULP energy -272765.003583 kJ/mol
# GULP energy per Si atom -12398.409254 kJ/mol
# Density = 2.177108 g / cm^3
# Si number density = 21.820748 Si / 1000 Ang^3
#
#
#
# Elastic Constant Matrix: (Units=GPa)
#
#
# Indices 1 2 3 4 5 6 
#
# 1 93.6896 58.3549 46.6709 0.0000 -20.6397 0.0000
# 2 58.3549 123.6604 62.2657 0.0000 -5.0828 0.0000
# 3 46.6709 62.2657 118.7783 0.0000 -13.6206 0.0000
# 4 0.0000 0.0000 0.0000 38.3167 0.0000 4.2578
# 5 -20.6397 -5.0828 -13.6206 0.0000 53.9680 0.0000
# 6 0.0000 0.0000 0.0000 4.2578 0.0000 37.4654
#
#
#
# Elastic Compliance Matrix: (Units=1/GPa)
#
#
# Indices 1 2 3 4 5 6 
#
# 1 0.017298 -0.006560 -0.002749 0.000000 0.005304 0.000000
# 2 -0.006560 0.013484 -0.004771 0.000000 -0.002443 0.000000
# 3 -0.002749 -0.004771 0.012181 0.000000 0.001573 0.000000
# 4 0.000000 0.000000 0.000000 0.026432 0.000000 -0.003004
# 5 0.005304 -0.002443 0.001573 0.000000 0.020725 0.000000
# 6 0.000000 0.000000 0.000000 -0.003004 0.000000 0.027033
#
#
# Mechanical properties :
#
#
# Convention : Reuss Voigt Hill
#
# Bulk Modulus (GPa) = 67.56272 74.52344 71.04308
# Shear Modulus (GPa) = 33.27823 37.20580 35.24201
#
# Velocity S-wave (km/s) = 3.90945 4.13372 4.02315
# Velocity P-wave (km/s) = 7.16996 7.55051 7.36269
#
# Compressibility (1/GPa) = 0.01480106
#
# Stress axis : x y z
#
# Youngs Moduli (GPa) = 57.81131 74.15951 82.09521
#
# Poissons Ratio (x) = 0.48651 0.22572
# Poissons Ratio (y) = 0.37926 0.39170
# Poissons Ratio (z) = 0.15895 0.35383
#
# Static dielectric constant tensor:
#      x y z
#    x 3.222680 0.000000 0.262290 
#    y 0.000000 3.965060 0.000000 
#    z 0.262290 0.000000 3.997270 
# 
# 
# High freq. dielectric constant tensor:
#      x y z
#    x 1.850450 0.000000 -0.009030 
#    y 0.000000 1.855020 0.000000 
#    z -0.009030 0.000000 1.879850 
# 
# From -- ./inp_files/54446.got.cif
#   From: 2010.06.25/outbox.cif.g09.slc.cpg/sg15_28_cif.got.tgz:54446.got - 2010.06.28 07:06:18.
