data_PCOD8150334
_publ_section_title
;
Structure prediction by ZEFSAII (Michael W. Deem and Ramdas Pophale) SiO2 
 PCOD8150334
Probable space group: C 2/C
;
_chemical_formula_sum "Si O2"
_cell_formula_units_Z 36
_cell_length_a 24.414325
_cell_length_b 6.984117
_cell_length_c 18.747727
_cell_angle_alpha 90.000000
_cell_angle_beta 30.914192
_cell_angle_gamma 90.000000
_cell_volume 1642.327919
_symmetry_space_group_name_H-M "C 2/C"
_symmetry_group_IT_number 15
_symmetry_cell_setting 'monoclinic'
loop_
_space_group_symop_operation_xyz
x,y,z
-x,y,1/2-z
-x,-y,-z
x,-y,1/2+z
1/2+x,1/2+y,z
1/2-x,1/2+y,1/2-z
1/2-x,1/2-y,-z
1/2+x,1/2-y,1/2+z
loop_
_atom_site_type_symbol
_atom_site_label
_atom_site_fract_x
_atom_site_fract_y
_atom_site_fract_z
Si Si1 0.741263 0.334392 0.622444
Si Si2 0.618592 0.445816 0.619928
Si Si3 0.555731 0.992197 0.550469
Si Si4 0.954106 0.208286 0.066338
Si Si5 0.000000 0.310720 0.750000
O O1 0.668117 0.419798 0.642344
O O2 0.805124 0.145761 0.525098
O O3 0.823626 0.495749 0.556157
O O4 0.668231 0.286934 0.771827
O O5 0.500000 0.347958 0.750000
O O6 0.603976 0.673880 0.621636
O O7 0.524118 0.192881 0.549915
O O8 0.539644 0.819707 0.514270
O O9 0.481206 0.944697 0.702034
O O10 0.000000 0.000000 0.000000
#
# Coordination Sequence:
#
# PCOD8150334 Si02
#       5
#     8   8   8   8   4
#     4  11  23  41  76 100 138 194 236 279 362 426
#     4   9  22  43  67 106 145 178 225 304 347 406
#     4  11  27  44  73 104 137 188 239 285 363 424
#     4  11  27  50  67 102 149 184 233 303 346 419
#     4  10  24  46  68 106 146 174 236 308 344 416
#
# _framework density 21.920106000000001
#
# number of rings (size 3 to 8) (size 9 to 14) (size 15 to 20)
#    0.667    0.889    0.000    2.667   14.000    0.889 
#    4.000    0.000    0.000    0.000    0.000    0.000 
#    0.000    0.000    0.000    0.000    0.000    0.000 
#
# Total GULP energy -223182.118518 kJ/mol
# GULP energy per Si atom -12399.006584 kJ/mol
# Density = 2.187021 g / cm^3
# Si number density = 21.920106 Si / 1000 Ang^3
#
#
#
# Elastic Constant Matrix: (Units=GPa)
#
#
# Indices 1 2 3 4 5 6 
#
# 1 146.5421 72.9220 48.2994 -0.0042 2.6564 -0.0040
# 2 72.9220 144.2816 55.4573 -0.0102 11.2105 0.0241
# 3 48.2994 55.4573 131.7655 -0.0157 12.0002 0.0065
# 4 -0.0042 -0.0102 -0.0157 30.9644 0.0102 0.3059
# 5 2.6564 11.2105 12.0002 0.0102 48.5963 -0.0077
# 6 -0.0040 0.0241 0.0065 0.3059 -0.0077 19.3797
#
#
#
# Elastic Compliance Matrix: (Units=1/GPa)
#
#
# Indices 1 2 3 4 5 6 
#
# 1 0.009474 -0.004165 -0.001801 -0.000001 0.000888 0.000008
# 2 -0.004165 0.010155 -0.002613 0.000002 -0.001470 -0.000013
# 3 -0.001801 -0.002613 0.009499 0.000004 -0.001644 -0.000001
# 4 -0.000001 0.000002 0.000004 0.032300 -0.000008 -0.000510
# 5 0.000888 -0.001470 -0.001644 -0.000008 0.021274 0.000011
# 6 0.000008 -0.000013 -0.000001 -0.000510 0.000011 0.051608
#
#
# Mechanical properties :
#
#
# Convention : Reuss Voigt Hill
#
# Bulk Modulus (GPa) = 83.54549 86.21628 84.88088
# Shear Modulus (GPa) = 32.16296 36.18213 34.17255
#
# Velocity S-wave (km/s) = 3.83467 4.06721 3.95265
# Velocity P-wave (km/s) = 7.60280 7.84052 7.72257
#
# Compressibility (1/GPa) = 0.01196953
#
# Stress axis : x y z
#
# Youngs Moduli (GPa) = 105.55197 98.47675 105.27574
#
# Poissons Ratio (x) = 0.41017 0.18955
# Poissons Ratio (y) = 0.43964 0.27511
# Poissons Ratio (z) = 0.19005 0.25735
#
# Static dielectric constant tensor:
#      x y z
#    x 4.101660 -0.000020 0.017530 
#    y -0.000020 3.845780 0.000100 
#    z 0.017530 0.000100 3.928830 
# 
# 
# High freq. dielectric constant tensor:
#      x y z
#    x 1.876690 0.000000 0.005500 
#    y 0.000000 1.860120 0.000000 
#    z 0.005500 0.000000 1.856680 
# 
# From -- ./inp_files/256692.got.cif
#   From: 2010.06.25/outbox.cif.g09.slc.cpg/sg15_129_cif.got.tgz:256692.got - 2010.06.28 07:06:18.
