data_PCOD8150296
_publ_section_title
;
Structure prediction by ZEFSAII (Michael W. Deem and Ramdas Pophale) SiO2 
 PCOD8150296
Probable space group: C 2/C
;
_chemical_formula_sum "Si O2"
_cell_formula_units_Z 32
_cell_length_a 18.101991
_cell_length_b 4.751484
_cell_length_c 28.360763
_cell_angle_alpha 90.000000
_cell_angle_beta 150.656764
_cell_angle_gamma 90.000000
_cell_volume 1195.378386
_symmetry_space_group_name_H-M "C 2/C"
_symmetry_group_IT_number 15
_symmetry_cell_setting 'monoclinic'
loop_
_space_group_symop_operation_xyz
x,y,z
-x,y,1/2-z
-x,-y,-z
x,-y,1/2+z
1/2+x,1/2+y,z
1/2-x,1/2+y,1/2-z
1/2-x,1/2-y,-z
1/2+x,1/2-y,1/2+z
loop_
_atom_site_type_symbol
_atom_site_label
_atom_site_fract_x
_atom_site_fract_y
_atom_site_fract_z
Si Si1 0.542257 0.068080 0.952775
Si Si2 0.762517 0.542547 0.354119
Si Si3 0.707863 0.825472 0.904052
Si Si4 0.955984 0.827122 0.646128
O O1 0.560496 0.266147 0.918053
O O2 0.366411 0.038153 0.867349
O O3 0.632147 0.207456 0.048269
O O4 0.619786 0.762408 0.985304
O O5 0.690250 0.262842 0.338922
O O6 0.625805 0.731703 0.258604
O O7 0.591942 0.647931 0.872272
O O8 0.663914 0.148838 0.888979
#
# Coordination Sequence:
#
# PCOD8150296 Si02
#       4
#     8   8   8   8
#     4   9  22  48  72 106 144 186 237 292 359 419
#     4   9  23  45  72 105 142 187 231 296 350 428
#     4  10  24  45  72 105 139 183 236 292 349 418
#     4  12  23  45  75 103 139 185 239 290 351 419
#
# _framework density 26.769765
#
# number of rings (size 3 to 8) (size 9 to 14) (size 15 to 20)
#    1.500    0.500    0.000    2.250    0.000    6.000 
#    0.000   10.000    0.000    0.000    0.000    0.000 
#    0.000    0.000    0.000    0.000    0.000    0.000 
#
# Total GULP energy -198256.404550 kJ/mol
# GULP energy per Si atom -12391.025284 kJ/mol
# Density = 2.670884 g / cm^3
# Si number density = 26.769765 Si / 1000 Ang^3
#
#
#
# Elastic Constant Matrix: (Units=GPa)
#
#
# Indices 1 2 3 4 5 6 
#
# 1 123.2284 -3.2752 35.1021 0.1038 32.6432 -0.1515
# 2 -3.2752 42.1856 13.5784 0.1391 2.9080 -0.3717
# 3 35.1021 13.5784 98.2973 0.1827 8.1728 -0.2686
# 4 0.1038 0.1391 0.1827 30.0524 -0.1154 0.2657
# 5 32.6432 2.9080 8.1728 -0.1154 38.3447 0.1020
# 6 -0.1515 -0.3717 -0.2686 0.2657 0.1020 11.9226
#
#
#
# Elastic Compliance Matrix: (Units=1/GPa)
#
#
# Indices 1 2 3 4 5 6 
#
# 1 0.011768 0.002790 -0.003804 -0.000069 -0.009420 0.000233
# 2 0.002790 0.025527 -0.004237 -0.000122 -0.003410 0.000768
# 3 -0.003804 -0.004237 0.012034 -0.000037 0.000994 0.000083
# 4 -0.000069 -0.000122 -0.000037 0.033284 0.000178 -0.000749
# 5 -0.009420 -0.003410 0.000994 0.000178 0.034147 -0.000500
# 6 0.000233 0.000768 0.000083 -0.000749 -0.000500 0.083924
#
#
# Mechanical properties :
#
#
# Convention : Reuss Voigt Hill
#
# Bulk Modulus (GPa) = 25.75419 39.39132 32.57276
# Shear Modulus (GPa) = 22.30854 30.61767 26.46310
#
# Velocity S-wave (km/s) = 2.88991 3.38559 3.14752
# Velocity P-wave (km/s) = 4.55817 5.47994 5.04017
#
# Compressibility (1/GPa) = 0.03882863
#
# Stress axis : x y z
#
# Youngs Moduli (GPa) = 84.97271 39.17382 83.09473
#
# Poissons Ratio (x) = -0.10928 0.31608
# Poissons Ratio (y) = -0.23705 0.35204
# Poissons Ratio (z) = 0.32323 0.16596
#
# Static dielectric constant tensor:
#      x y z
#    x 4.867470 -0.000100 0.130340 
#    y -0.000100 4.150380 -0.000020 
#    z 0.130340 -0.000020 4.871190 
# 
# 
# High freq. dielectric constant tensor:
#      x y z
#    x 2.091310 -0.000010 0.011110 
#    y -0.000010 2.038790 0.000010 
#    z 0.011110 0.000010 2.072370 
# 
# From -- ./inp_files/314981.got.cif
#   From: 2010.06.25/outbox.cif.g09.slc.cpg/sg15_158_cif.got.tgz:314981.got - 2010.06.28 07:06:18.
