data_PCOD8150000
_publ_section_title
;
Structure prediction by ZEFSAII (Michael W. Deem and Ramdas Pophale) SiO2 
 PCOD8150000
Probable space group: C 2/C
;
_chemical_formula_sum "Si O2"
_cell_formula_units_Z 44
_cell_length_a 27.609161
_cell_length_b 8.916749
_cell_length_c 22.603031
_cell_angle_alpha 90.000000
_cell_angle_beta 21.240933
_cell_angle_gamma 90.000000
_cell_volume 2015.967057
_symmetry_space_group_name_H-M "C 2/C"
_symmetry_group_IT_number 15
_symmetry_cell_setting 'monoclinic'
loop_
_space_group_symop_operation_xyz
x,y,z
-x,y,1/2-z
-x,-y,-z
x,-y,1/2+z
1/2+x,1/2+y,z
1/2-x,1/2+y,1/2-z
1/2-x,1/2-y,-z
1/2+x,1/2-y,1/2+z
loop_
_atom_site_type_symbol
_atom_site_label
_atom_site_fract_x
_atom_site_fract_y
_atom_site_fract_z
Si Si1 0.858897 0.921547 0.171749
Si Si2 0.011546 0.417213 0.325247
Si Si3 0.500000 0.668013 0.250000
Si Si4 0.714354 0.564691 0.491674
Si Si5 0.775950 0.387549 0.052986
Si Si6 0.608742 0.906894 0.912125
O O1 0.822469 0.935070 0.282292
O O2 0.862852 0.746904 0.153124
O O3 0.745904 0.999033 0.259931
O O4 0.000000 0.000000 0.000000
O O5 0.059366 0.270529 0.235055
O O6 0.907111 0.509329 0.403992
O O7 0.945236 0.367268 0.461712
O O8 0.136834 0.521725 0.197015
O O9 0.385948 0.568409 0.410760
O O10 0.697541 0.590187 0.581060
O O11 0.676710 0.713749 0.497625
O O12 0.500000 0.000000 0.000000
#
# Coordination Sequence:
#
# PCOD8150000 Si02
#       6
#     8   8   4   8   8   8
#     4  11  25  45  69 100 134 178 227 277 334 396
#     4  11  24  44  66  94 139 166 219 276 329 393
#     4  12  26  38  64 104 130 172 210 268 348 384
#     4  11  24  42  66  97 131 168 221 265 332 396
#     4  10  24  43  68  92 131 175 217 269 325 395
#     4  11  25  45  68 100 134 182 227 277 333 401
#
# _framework density 21.825752000000001
#
# number of rings (size 3 to 8) (size 9 to 14) (size 15 to 20)
#    0.000    1.091    1.818    2.727    7.636    5.818 
#    0.000    0.000    0.000    0.000    0.000    0.000 
#    0.000    0.000    0.000    0.000    0.000    0.000 
#
# Total GULP energy -272929.070416 kJ/mol
# GULP energy per Si atom -12405.866837 kJ/mol
# Density = 2.177608 g / cm^3
# Si number density = 21.825752 Si / 1000 Ang^3
#
#
#
# Elastic Constant Matrix: (Units=GPa)
#
#
# Indices 1 2 3 4 5 6 
#
# 1 56.1929 17.4514 30.9270 -0.0011 -10.2652 -0.0002
# 2 17.4514 123.7373 48.2876 0.0063 -9.4337 -0.0015
# 3 30.9270 48.2876 129.1964 0.0060 -7.8041 -0.0009
# 4 -0.0011 0.0063 0.0060 45.5490 -0.0015 1.2229
# 5 -10.2652 -9.4337 -7.8041 -0.0015 29.6246 0.0000
# 6 -0.0002 -0.0015 -0.0009 1.2229 0.0000 30.5093
#
#
#
# Elastic Compliance Matrix: (Units=1/GPa)
#
#
# Indices 1 2 3 4 5 6 
#
# 1 0.021637 -0.000834 -0.004503 0.000001 0.006046 0.000000
# 2 -0.000834 0.009626 -0.003283 -0.000001 0.001912 0.000000
# 3 -0.004503 -0.003283 0.010047 -0.000001 0.000041 0.000000
# 4 0.000001 -0.000001 -0.000001 0.021978 0.000001 -0.000881
# 5 0.006046 0.001912 0.000041 0.000001 0.036470 0.000000
# 6 0.000000 0.000000 0.000000 -0.000881 0.000000 0.032812
#
#
# Mechanical properties :
#
#
# Convention : Reuss Voigt Hill
#
# Bulk Modulus (GPa) = 41.54086 55.82873 48.68479
# Shear Modulus (GPa) = 31.67891 35.30063 33.48977
#
# Velocity S-wave (km/s) = 3.81392 4.02603 3.92141
# Velocity P-wave (km/s) = 6.20233 6.87363 6.54659
#
# Compressibility (1/GPa) = 0.02407269
#
# Stress axis : x y z
#
# Youngs Moduli (GPa) = 46.21637 103.88517 99.52763
#
# Poissons Ratio (x) = 0.08659 0.44815
# Poissons Ratio (y) = 0.03852 0.32672
# Poissons Ratio (z) = 0.20810 0.34103
#
# Static dielectric constant tensor:
#      x y z
#    x 3.877710 0.000000 0.094760 
#    y 0.000000 4.112310 -0.000010 
#    z 0.094760 -0.000010 3.889350 
# 
# 
# High freq. dielectric constant tensor:
#      x y z
#    x 1.852260 0.000000 0.007280 
#    y 0.000000 1.873360 0.000000 
#    z 0.007280 0.000000 1.866720 
# 
# From -- ./inp_files/110028.got.cif
#   From: 2010.06.25/outbox.cif.g09.slc.cpg/sg15_56_cif.got.tgz:110028.got - 2010.06.28 07:06:18.
