data_PCOD8150415
_publ_section_title
;
Structure prediction by ZEFSAII (Michael W. Deem and Ramdas Pophale) SiO2 
 PCOD8150415
Probable space group: C 2/C
;
_chemical_formula_sum "Si O2"
_cell_formula_units_Z 28
_cell_length_a 13.461739
_cell_length_b 8.241967
_cell_length_c 9.545544
_cell_angle_alpha 90.000000
_cell_angle_beta 75.844693
_cell_angle_gamma 90.000000
_cell_volume 1026.931874
_symmetry_space_group_name_H-M "C 2/C"
_symmetry_group_IT_number 15
_symmetry_cell_setting 'monoclinic'
loop_
_space_group_symop_operation_xyz
x,y,z
-x,y,1/2-z
-x,-y,-z
x,-y,1/2+z
1/2+x,1/2+y,z
1/2-x,1/2+y,1/2-z
1/2-x,1/2-y,-z
1/2+x,1/2-y,1/2+z
loop_
_atom_site_type_symbol
_atom_site_label
_atom_site_fract_x
_atom_site_fract_y
_atom_site_fract_z
Si Si1 0.000000 0.165724 0.750000
Si Si2 0.175624 0.314596 0.407360
Si Si3 0.022772 0.842967 0.590080
Si Si4 0.175435 0.310222 0.850495
O O1 0.901813 0.278204 0.754841
O O2 0.009426 0.041165 0.610450
O O3 0.250000 0.250000 0.500000
O O4 0.061017 0.251024 0.479387
O O5 0.178095 0.507063 0.400293
O O6 0.212864 0.242776 0.243249
O O7 0.000000 0.765652 0.750000
O O8 0.137258 0.799283 0.495539
#
# Coordination Sequence:
#
# PCOD8150415 Si02
#       4
#     4   8   8   8
#     4  10  24  46  80 110 148 204 252 314 378 436
#     4  12  29  47  77 118 151 201 251 312 388 449
#     4  10  26  49  77 110 151 201 257 309 387 436
#     4  12  26  50  77 110 160 194 254 315 376 461
#
# _framework density 27.265684
#
# number of rings (size 3 to 8) (size 9 to 14) (size 15 to 20)
#    0.857    0.000    0.000    5.143    6.000    3.429 
#    0.000    0.000    0.000    0.000    0.000    0.000 
#    0.000    0.000    0.000    0.000    0.000    0.000 
#
# Total GULP energy -173636.012580 kJ/mol
# GULP energy per Si atom -12402.572327 kJ/mol
# Density = 2.720363 g / cm^3
# Si number density = 27.265684 Si / 1000 Ang^3
#
#
#
# Elastic Constant Matrix: (Units=GPa)
#
#
# Indices 1 2 3 4 5 6 
#
# 1 39.1214 35.9756 20.5830 0.0000 -15.2333 0.0000
# 2 35.9756 212.1456 43.0401 0.0000 -4.6311 0.0000
# 3 20.5830 43.0401 108.1191 0.0000 -13.5202 0.0000
# 4 0.0000 0.0000 0.0000 53.2755 0.0000 -0.4939
# 5 -15.2333 -4.6311 -13.5202 0.0000 68.0307 0.0000
# 6 0.0000 0.0000 0.0000 -0.4939 0.0000 57.2367
#
#
#
# Elastic Compliance Matrix: (Units=1/GPa)
#
#
# Indices 1 2 3 4 5 6 
#
# 1 0.034737 -0.004974 -0.003797 0.000000 0.006685 0.000000
# 2 -0.004974 0.005840 -0.001505 0.000000 -0.001015 0.000000
# 3 -0.003797 -0.001505 0.010718 0.000000 0.001177 0.000000
# 4 0.000000 0.000000 0.000000 0.018772 0.000000 0.000162
# 5 0.006685 -0.001015 0.001177 0.000000 0.016361 0.000000
# 6 0.000000 0.000000 0.000000 0.000162 0.000000 0.017473
#
#
# Mechanical properties :
#
#
# Convention : Reuss Voigt Hill
#
# Bulk Modulus (GPa) = 32.52776 62.06482 47.29629
# Shear Modulus (GPa) = 37.11936 53.02773 45.07354
#
# Velocity S-wave (km/s) = 3.69371 4.41483 4.07027
# Velocity P-wave (km/s) = 5.49064 6.98570 6.28280
#
# Compressibility (1/GPa) = 0.03074297
#
# Stress axis : x y z
#
# Youngs Moduli (GPa) = 28.78816 171.21954 93.29922
#
# Poissons Ratio (x) = 0.85171 0.35424
# Poissons Ratio (y) = 0.14320 0.14041
# Poissons Ratio (z) = 0.10930 0.25768
#
# Static dielectric constant tensor:
#      x y z
#    x 4.894270 0.000000 -0.325800 
#    y 0.000000 4.519180 0.000000 
#    z -0.325800 0.000000 5.937290 
# 
# 
# High freq. dielectric constant tensor:
#      x y z
#    x 2.095340 0.000000 0.000110 
#    y 0.000000 2.092550 0.000000 
#    z 0.000110 0.000000 2.164500 
# 
# From -- ./inp_files/93023.got.cif
#   From: 2010.06.25/outbox.cif.g09.slc.cpg/sg15_47_cif.got.tgz:93023.got - 2010.06.28 07:06:18.
