data_PCOD8150616
_publ_section_title
;
Structure prediction by ZEFSAII (Michael W. Deem and Ramdas Pophale) SiO2 
 PCOD8150616
Probable space group: C 2/C
;
_chemical_formula_sum "Si O2"
_cell_formula_units_Z 56
_cell_length_a 18.930397
_cell_length_b 18.753760
_cell_length_c 15.783211
_cell_angle_alpha 90.000000
_cell_angle_beta 154.266869
_cell_angle_gamma 90.000000
_cell_volume 2432.838657
_symmetry_space_group_name_H-M "C 2/C"
_symmetry_group_IT_number 15
_symmetry_cell_setting 'monoclinic'
loop_
_space_group_symop_operation_xyz
x,y,z
-x,y,1/2-z
-x,-y,-z
x,-y,1/2+z
1/2+x,1/2+y,z
1/2-x,1/2+y,1/2-z
1/2-x,1/2-y,-z
1/2+x,1/2-y,1/2+z
loop_
_atom_site_type_symbol
_atom_site_label
_atom_site_fract_x
_atom_site_fract_y
_atom_site_fract_z
Si Si1 0.597938 0.174359 0.442918
Si Si2 0.192082 0.329191 0.449061
Si Si3 0.396494 0.447598 0.057115
Si Si4 0.185192 0.398671 0.613676
Si Si5 0.725514 0.817247 0.822592
Si Si6 0.807682 0.942604 0.240154
Si Si7 0.800566 0.580264 0.698591
O O1 0.500000 0.184603 0.250000
O O2 0.467450 0.175761 0.376657
O O3 0.723903 0.237468 0.599419
O O4 0.697462 0.099843 0.551871
O O5 0.250000 0.250000 0.500000
O O6 0.256770 0.367021 0.603810
O O7 0.265933 0.369312 0.447576
O O8 0.000000 0.332633 0.250000
O O9 0.500000 0.471931 0.250000
O O10 0.508197 0.446147 0.093556
O O11 0.321667 0.369128 0.991631
O O12 0.243484 0.499567 0.876455
O O13 0.259186 0.344880 0.763822
O O14 0.247948 0.478130 0.692199
O O15 0.991827 0.406725 0.412593
O O16 0.791323 0.900857 0.312433
#
# Coordination Sequence:
#
# PCOD8150616 Si02
#       7
#     8   8   8   8   8   8   8
#     4  12  26  45  71 102 142 185 233 291 363 427
#     4  10  25  44  68  99 138 180 232 291 350 421
#     4  12  25  43  70 104 143 185 237 297 356 422
#     4  11  24  45  72 103 138 188 236 297 361 418
#     4  12  25  45  69 100 142 184 235 292 350 440
#     4  12  24  44  71 105 136 187 238 291 356 425
#     4  11  23  45  66 102 139 180 241 288 362 420
#
# _framework density 23.018380000000001
#
# number of rings (size 3 to 8) (size 9 to 14) (size 15 to 20)
#    0.000    0.571    2.857    5.143    2.000    3.429 
#    0.000    0.000    0.000    0.000    0.000    0.000 
#    0.000    0.000    0.000    0.000    0.000    0.000 
#
# Total GULP energy -347199.294271 kJ/mol
# GULP energy per Si atom -12399.974795 kJ/mol
# Density = 2.296599 g / cm^3
# Si number density = 23.018380 Si / 1000 Ang^3
#
#
#
# Elastic Constant Matrix: (Units=GPa)
#
#
# Indices 1 2 3 4 5 6 
#
# 1 121.5149 44.5819 20.5575 0.0001 -17.7863 0.0000
# 2 44.5819 105.0327 28.1219 0.0000 -12.1141 0.0000
# 3 20.5575 28.1219 70.9622 0.0002 -20.5366 0.0001
# 4 0.0001 0.0000 0.0002 34.0338 0.0001 0.3549
# 5 -17.7863 -12.1141 -20.5366 0.0001 37.0995 0.0001
# 6 0.0000 0.0000 0.0001 0.3549 0.0001 38.0885
#
#
#
# Elastic Compliance Matrix: (Units=1/GPa)
#
#
# Indices 1 2 3 4 5 6 
#
# 1 0.010204 -0.003816 -0.000463 0.000000 0.003390 0.000000
# 2 -0.003816 0.012136 -0.003675 0.000000 0.000099 0.000000
# 3 -0.000463 -0.003675 0.018184 0.000000 0.008644 0.000000
# 4 0.000000 0.000000 0.000000 0.029385 0.000000 -0.000274
# 5 0.003390 0.000099 0.008644 0.000000 0.033397 0.000000
# 6 0.000000 0.000000 0.000000 -0.000274 0.000000 0.026257
#
#
# Mechanical properties :
#
#
# Convention : Reuss Voigt Hill
#
# Bulk Modulus (GPa) = 40.62460 53.78138 47.20299
# Shear Modulus (GPa) = 32.53562 35.46092 33.99827
#
# Velocity S-wave (km/s) = 3.76368 3.92924 3.84735
# Velocity P-wave (km/s) = 6.04766 6.63329 6.34723
#
# Compressibility (1/GPa) = 0.02461563
#
# Stress axis : x y z
#
# Youngs Moduli (GPa) = 98.00043 82.39845 54.99296
#
# Poissons Ratio (x) = 0.31446 0.02544
# Poissons Ratio (y) = 0.37400 0.20212
# Poissons Ratio (z) = 0.04534 0.30284
#
# Static dielectric constant tensor:
#      x y z
#    x 5.826060 0.000000 -0.751590 
#    y 0.000000 4.111410 0.000000 
#    z -0.751590 0.000000 4.530770 
# 
# 
# High freq. dielectric constant tensor:
#      x y z
#    x 1.921620 0.000000 -0.005730 
#    y 0.000000 1.909140 0.000000 
#    z -0.005730 0.000000 1.913090 
# 
# From -- ./inp_files/163819.got.cif
#   From: 2010.06.25/outbox.cif.g09.slc.cpg/sg15_82_cif.got.tgz:163819.got - 2010.06.28 07:06:18.
