data_PCOD8150428
_publ_section_title
;
Structure prediction by ZEFSAII (Michael W. Deem and Ramdas Pophale) SiO2 
 PCOD8150428
Probable space group: C 2/C
;
_chemical_formula_sum "Si O2"
_cell_formula_units_Z 44
_cell_length_a 13.054249
_cell_length_b 25.144129
_cell_length_c 7.395398
_cell_angle_alpha 90.000000
_cell_angle_beta 56.570073
_cell_angle_gamma 90.000000
_cell_volume 2025.852024
_symmetry_space_group_name_H-M "C 2/C"
_symmetry_group_IT_number 15
_symmetry_cell_setting 'monoclinic'
loop_
_space_group_symop_operation_xyz
x,y,z
-x,y,1/2-z
-x,-y,-z
x,-y,1/2+z
1/2+x,1/2+y,z
1/2-x,1/2+y,1/2-z
1/2-x,1/2-y,-z
1/2+x,1/2-y,1/2+z
loop_
_atom_site_type_symbol
_atom_site_label
_atom_site_fract_x
_atom_site_fract_y
_atom_site_fract_z
Si Si1 0.679016 0.336553 0.799917
Si Si2 0.552202 0.808238 0.904124
Si Si3 0.249238 0.556478 0.425342
Si Si4 0.500000 0.104920 0.750000
Si Si5 0.500000 0.375503 0.250000
Si Si6 0.000000 0.777181 0.750000
Si Si7 0.381558 0.536568 0.639828
O O1 0.799684 0.305005 0.746235
O O2 0.718572 0.397799 0.747238
O O3 0.622485 0.312774 0.667512
O O4 0.571556 0.334731 0.051976
O O5 0.500000 0.808960 0.750000
O O6 0.502589 0.859260 0.065349
O O7 0.510794 0.756666 0.055785
O O8 0.352030 0.561915 0.477565
O O9 0.264462 0.498627 0.318386
O O10 0.115329 0.565285 0.640576
O O11 0.598259 0.413790 0.249645
O O12 0.500000 0.500000 0.500000
#
# Coordination Sequence:
#
# PCOD8150428 Si02
#       7
#     8   8   8   4   4   4   8
#     4  11  24  42  67  96 128 168 215 264 319 392
#     4  10  24  47  67  95 130 167 212 267 326 386
#     4  11  22  41  62  90 130 170 213 264 314 376
#     4   9  24  44  66  91 128 177 214 260 320 379
#     4  12  24  37  62  99 122 171 212 259 324 368
#     4  11  24  45  68  98 128 164 210 271 330 383
#     4  12  21  37  61  91 131 165 208 268 315 363
#
# _framework density 21.719256000000001
#
# number of rings (size 3 to 8) (size 9 to 14) (size 15 to 20)
#    0.000    1.091    3.636    1.636    3.818    1.455 
#    3.273    0.000    0.000    0.000    0.000    0.000 
#    0.000    0.000    0.000    0.000    0.000    0.000 
#
# Total GULP energy -272732.800855 kJ/mol
# GULP energy per Si atom -12396.945493 kJ/mol
# Density = 2.166982 g / cm^3
# Si number density = 21.719256 Si / 1000 Ang^3
#
#
#
# Elastic Constant Matrix: (Units=GPa)
#
#
# Indices 1 2 3 4 5 6 
#
# 1 131.7838 21.2128 42.9118 0.0000 -0.3157 0.0000
# 2 21.2128 57.0215 29.2754 0.0000 -8.6644 0.0000
# 3 42.9118 29.2754 118.6355 0.0000 -8.7471 0.0000
# 4 0.0000 0.0000 0.0000 23.1539 0.0000 1.0444
# 5 -0.3157 -8.6644 -8.7471 0.0000 47.0191 0.0000
# 6 0.0000 0.0000 0.0000 1.0444 0.0000 30.7261
#
#
#
# Elastic Compliance Matrix: (Units=1/GPa)
#
#
# Indices 1 2 3 4 5 6 
#
# 1 0.008803 -0.001985 -0.002755 0.000000 -0.000819 0.000000
# 2 -0.001985 0.020904 -0.004215 0.000000 0.003055 0.000000
# 3 -0.002755 -0.004215 0.010552 0.000000 0.001168 0.000000
# 4 0.000000 0.000000 0.000000 0.043256 0.000000 -0.001470
# 5 -0.000819 0.003055 0.001168 0.000000 0.022043 0.000000
# 6 0.000000 0.000000 0.000000 -0.001470 0.000000 0.032596
#
#
# Mechanical properties :
#
#
# Convention : Reuss Voigt Hill
#
# Bulk Modulus (GPa) = 44.74491 54.91565 49.83028
# Shear Modulus (GPa) = 30.57890 34.44920 32.51405
#
# Velocity S-wave (km/s) = 3.75629 3.98692 3.87333
# Velocity P-wave (km/s) = 6.28166 6.82153 6.55715
#
# Compressibility (1/GPa) = 0.02234891
#
# Stress axis : x y z
#
# Youngs Moduli (GPa) = 113.60154 47.83784 94.77021
#
# Poissons Ratio (x) = 0.09496 0.26105
# Poissons Ratio (y) = 0.22549 0.39948
# Poissons Ratio (z) = 0.31293 0.20165
#
# Static dielectric constant tensor:
#      x y z
#    x 3.802790 0.000000 0.200720 
#    y 0.000000 3.901330 0.000000 
#    z 0.200720 0.000000 3.671180 
# 
# 
# High freq. dielectric constant tensor:
#      x y z
#    x 1.850900 0.000000 0.002210 
#    y 0.000000 1.854320 0.000000 
#    z 0.002210 0.000000 1.855390 
# 
# From -- ./inp_files/32476.got.cif
#   From: 2010.06.25/outbox.cif.g09.slc.cpg/sg15_17_cif.got.tgz:32476.got - 2010.06.28 07:06:18.
