data_PCOD8150130
_publ_section_title
;
Structure prediction by ZEFSAII (Michael W. Deem and Ramdas Pophale) SiO2 
 PCOD8150130
Probable space group: C 2/C
;
_chemical_formula_sum "Si O2"
_cell_formula_units_Z 44
_cell_length_a 8.215839
_cell_length_b 32.022200
_cell_length_c 8.456293
_cell_angle_alpha 90.000000
_cell_angle_beta 69.658507
_cell_angle_gamma 90.000000
_cell_volume 2086.017989
_symmetry_space_group_name_H-M "C 2/C"
_symmetry_group_IT_number 15
_symmetry_cell_setting 'monoclinic'
loop_
_space_group_symop_operation_xyz
x,y,z
-x,y,1/2-z
-x,-y,-z
x,-y,1/2+z
1/2+x,1/2+y,z
1/2-x,1/2+y,1/2-z
1/2-x,1/2-y,-z
1/2+x,1/2-y,1/2+z
loop_
_atom_site_type_symbol
_atom_site_label
_atom_site_fract_x
_atom_site_fract_y
_atom_site_fract_z
Si Si1 0.684264 0.871617 0.001565
Si Si2 0.297475 0.875718 0.141209
Si Si3 0.700630 0.959778 0.497012
Si Si4 0.500000 0.689067 0.750000
Si Si5 0.695403 0.956329 0.866683
Si Si6 0.613914 0.713428 0.055326
O O1 0.487205 0.864764 0.001817
O O2 0.677076 0.883902 0.184782
O O3 0.776804 0.911567 0.887176
O O4 0.797093 0.830619 0.935281
O O5 0.169906 0.837571 0.152609
O O6 0.209927 0.917510 0.097311
O O7 0.711439 0.960562 0.677805
O O8 0.502107 0.957140 0.502595
O O9 0.791041 0.002724 0.406399
O O10 0.476313 0.714058 0.590432
O O11 0.500000 0.723489 0.250000
O O12 0.750000 0.750000 0.000000
#
# Coordination Sequence:
#
# PCOD8150130 Si02
#       6
#     8   8   8   4   8   8
#     4   9  19  37  61  87 123 163 211 259 320 377
#     4   9  18  35  61  86 124 166 208 257 313 375
#     4   9  16  26  48  82 120 158 210 249 303 355
#     4  10  24  44  68  96 134 166 210 264 328 382
#     4   9  16  27  48  82 117 159 206 258 296 366
#     4  11  27  47  71  98 131 165 212 270 331 398
#
# _framework density 21.092818000000001
#
# number of rings (size 3 to 8) (size 9 to 14) (size 15 to 20)
#    0.000    2.545    0.000    1.091    7.636    5.091 
#    0.000    0.000    2.000    3.273    0.000    0.000 
#    0.000    0.000    0.000    0.000    0.000    0.000 
#
# Total GULP energy -272544.244968 kJ/mol
# GULP energy per Si atom -12388.374771 kJ/mol
# Density = 2.104481 g / cm^3
# Si number density = 21.092818 Si / 1000 Ang^3
#
#
#
# Elastic Constant Matrix: (Units=GPa)
#
#
# Indices 1 2 3 4 5 6 
#
# 1 64.7212 35.5711 38.0598 0.0000 11.5091 0.0000
# 2 35.5711 130.1789 61.2191 0.0000 12.5125 0.0000
# 3 38.0598 61.2191 106.3634 0.0000 6.3789 0.0000
# 4 0.0000 0.0000 0.0000 32.1931 0.0000 12.2234
# 5 11.5091 12.5125 6.3789 0.0000 24.5132 0.0000
# 6 0.0000 0.0000 0.0000 12.2234 0.0000 12.6914
#
#
#
# Elastic Compliance Matrix: (Units=1/GPa)
#
#
# Indices 1 2 3 4 5 6 
#
# 1 0.021542 -0.002416 -0.005877 0.000000 -0.007352 0.000000
# 2 -0.002416 0.011176 -0.005378 0.000000 -0.003171 0.000000
# 3 -0.005877 -0.005378 0.014496 0.000000 0.001732 0.000000
# 4 0.000000 0.000000 0.000000 0.048970 0.000000 -0.047164
# 5 -0.007352 -0.003171 0.001732 0.000000 0.045414 0.000000
# 6 0.000000 0.000000 0.000000 -0.047164 0.000000 0.124218
#
#
# Mechanical properties :
#
#
# Convention : Reuss Voigt Hill
#
# Bulk Modulus (GPa) = 50.32061 63.44039 56.88050
# Shear Modulus (GPa) = 16.67883 24.97376 20.82629
#
# Velocity S-wave (km/s) = 2.81505 3.44465 3.14564
# Velocity P-wave (km/s) = 5.87150 6.77960 6.34182
#
# Compressibility (1/GPa) = 0.01987257
#
# Stress axis : x y z
#
# Youngs Moduli (GPa) = 46.42106 89.48067 68.98476
#
# Poissons Ratio (x) = 0.21618 0.40541
# Poissons Ratio (y) = 0.11215 0.37098
# Poissons Ratio (z) = 0.27281 0.48119
#
# Static dielectric constant tensor:
#      x y z
#    x 3.975520 0.000000 -0.109510 
#    y 0.000000 4.004880 0.000000 
#    z -0.109510 0.000000 4.152510 
# 
# 
# High freq. dielectric constant tensor:
#      x y z
#    x 1.796480 0.000000 0.013570 
#    y 0.000000 1.836540 0.000000 
#    z 0.013570 0.000000 1.826400 
# 
# From -- ./inp_files/25449.got.cif
#   From: 2010.06.25/outbox.cif.g09.slc.cpg/sg15_13_cif.got.tgz:25449.got - 2010.06.28 07:06:18.
