data_PCOD8150700
_publ_section_title
;
Structure prediction by ZEFSAII (Michael W. Deem and Ramdas Pophale) SiO2 
 PCOD8150700
Probable space group: C 2/C
;
_chemical_formula_sum "Si O2"
_cell_formula_units_Z 48
_cell_length_a 11.064581
_cell_length_b 9.272498
_cell_length_c 24.259173
_cell_angle_alpha 90.000000
_cell_angle_beta 109.076317
_cell_angle_gamma 90.000000
_cell_volume 2352.221215
_symmetry_space_group_name_H-M "C 2/C"
_symmetry_group_IT_number 15
_symmetry_cell_setting 'monoclinic'
loop_
_space_group_symop_operation_xyz
x,y,z
-x,y,1/2-z
-x,-y,-z
x,-y,1/2+z
1/2+x,1/2+y,z
1/2-x,1/2+y,1/2-z
1/2-x,1/2-y,-z
1/2+x,1/2-y,1/2+z
loop_
_atom_site_type_symbol
_atom_site_label
_atom_site_fract_x
_atom_site_fract_y
_atom_site_fract_z
Si Si1 0.569077 0.310714 0.870966
Si Si2 0.273751 0.841574 0.814700
Si Si3 0.525638 0.820813 0.563680
Si Si4 0.138667 0.593165 0.968969
Si Si5 0.614846 0.126507 0.724351
Si Si6 0.089710 0.968195 0.463074
O O1 0.646960 0.377238 0.831283
O O2 0.656774 0.201284 0.920400
O O3 0.441971 0.226919 0.832613
O O4 0.530442 0.446112 0.902481
O O5 0.380599 0.784819 0.872253
O O6 0.234519 0.711931 0.768249
O O7 0.325034 0.979475 0.789433
O O8 0.597409 0.811583 0.515479
O O9 0.413599 0.702433 0.549755
O O10 0.470632 0.980236 0.563684
O O11 0.265813 0.508210 0.002454
O O12 0.500000 0.090117 0.750000
O O13 0.000000 0.000000 0.500000
#
# Coordination Sequence:
#
# PCOD8150700 Si02
#       6
#     8   8   8   8   8   8
#     4  11  22  44  68  92 135 169 211 271 326 387
#     4  11  23  47  69  91 128 173 217 274 329 378
#     4  11  23  40  68  96 135 172 216 268 327 393
#     4  11  22  43  64  98 137 171 213 266 329 398
#     4  10  25  47  67  92 123 170 223 274 322 380
#     4  12  23  37  63 101 133 172 214 255 323 401
#
# _framework density 20.406244000000001
#
# number of rings (size 3 to 8) (size 9 to 14) (size 15 to 20)
#    0.000    1.000    5.000    2.000    2.333    0.000 
#    6.000    0.000    0.000    0.000    0.000    0.000 
#    0.000    0.000    0.000    0.000    0.000    0.000 
#
# Total GULP energy -297605.796991 kJ/mol
# GULP energy per Si atom -12400.241541 kJ/mol
# Density = 2.035980 g / cm^3
# Si number density = 20.406244 Si / 1000 Ang^3
#
#
#
# Elastic Constant Matrix: (Units=GPa)
#
#
# Indices 1 2 3 4 5 6 
#
# 1 82.8928 45.7987 36.8760 0.0000 1.0855 0.0000
# 2 45.7987 103.1094 60.3693 0.0000 0.9252 0.0000
# 3 36.8760 60.3693 111.6777 0.0000 6.0372 0.0000
# 4 0.0000 0.0000 0.0000 33.4025 0.0000 -2.5324
# 5 1.0855 0.9252 6.0372 0.0000 36.8625 0.0000
# 6 0.0000 0.0000 0.0000 -2.5324 0.0000 42.4269
#
#
#
# Elastic Compliance Matrix: (Units=1/GPa)
#
#
# Indices 1 2 3 4 5 6 
#
# 1 0.016334 -0.005994 -0.002155 0.000000 0.000022 0.000000
# 2 -0.005994 0.016419 -0.006945 0.000000 0.000902 0.000000
# 3 -0.002155 -0.006945 0.013527 0.000000 -0.001978 0.000000
# 4 0.000000 0.000000 0.000000 0.030074 0.000000 0.001795
# 5 0.000022 0.000902 -0.001978 0.000000 0.027428 0.000000
# 6 0.000000 0.000000 0.000000 0.001795 0.000000 0.023677
#
#
# Mechanical properties :
#
#
# Convention : Reuss Voigt Hill
#
# Bulk Modulus (GPa) = 62.14023 64.86310 63.50167
# Shear Modulus (GPa) = 30.67300 32.84745 31.76023
#
# Velocity S-wave (km/s) = 3.88121 4.01643 3.94940
# Velocity P-wave (km/s) = 7.11356 7.30506 7.20995
#
# Compressibility (1/GPa) = 0.01609263
#
# Stress axis : x y z
#
# Youngs Moduli (GPa) = 61.22386 60.90541 73.92623
#
# Poissons Ratio (x) = 0.36505 0.15928
# Poissons Ratio (y) = 0.36696 0.51343
# Poissons Ratio (z) = 0.13191 0.42300
#
# Static dielectric constant tensor:
#      x y z
#    x 3.566630 0.000000 -0.021600 
#    y 0.000000 3.944620 0.000000 
#    z -0.021600 0.000000 3.919970 
# 
# 
# High freq. dielectric constant tensor:
#      x y z
#    x 1.788930 0.000000 0.005170 
#    y 0.000000 1.804020 0.000000 
#    z 0.005170 0.000000 1.809800 
# 
# From -- ./inp_files/267635.got.cif
#   From: 2010.06.25/outbox.cif.g09.slc.cpg/sg15_134_cif.got.tgz:267635.got - 2010.06.28 07:06:18.
