data_PCOD8150070
_publ_section_title
;
Structure prediction by ZEFSAII (Michael W. Deem and Ramdas Pophale) SiO2 
 PCOD8150070
Probable space group: C 2/C
;
_chemical_formula_sum "Si O2"
_cell_formula_units_Z 36
_cell_length_a 17.151470
_cell_length_b 12.616795
_cell_length_c 9.053404
_cell_angle_alpha 90.000000
_cell_angle_beta 114.208064
_cell_angle_gamma 90.000000
_cell_volume 1786.844888
_symmetry_space_group_name_H-M "C 2/C"
_symmetry_group_IT_number 15
_symmetry_cell_setting 'monoclinic'
loop_
_space_group_symop_operation_xyz
x,y,z
-x,y,1/2-z
-x,-y,-z
x,-y,1/2+z
1/2+x,1/2+y,z
1/2-x,1/2+y,1/2-z
1/2-x,1/2-y,-z
1/2+x,1/2-y,1/2+z
loop_
_atom_site_type_symbol
_atom_site_label
_atom_site_fract_x
_atom_site_fract_y
_atom_site_fract_z
Si Si1 0.136173 0.662891 0.385551
Si Si2 0.684038 0.603328 0.924754
Si Si3 0.481819 0.878144 0.964969
Si Si4 0.500000 0.265854 0.750000
Si Si5 0.584768 0.446746 0.635830
O O1 0.213200 0.584926 0.497566
O O2 0.170283 0.776878 0.364983
O O3 0.098141 0.618123 0.205435
O O4 0.065172 0.675928 0.457477
O O5 0.632854 0.531276 0.772737
O O6 0.650333 0.586304 0.062402
O O7 0.458026 0.812347 0.094790
O O8 0.500000 0.000000 0.000000
O O9 0.567464 0.343287 0.722574
O O10 0.500000 0.500000 0.500000
#
# Coordination Sequence:
#
# PCOD8150070 Si02
#       5
#     8   8   8   4   8
#     4  10  24  44  64  88 135 175 210 263 323 389
#     4  11  24  42  65  99 131 169 210 271 328 383
#     4  11  24  44  66  89 129 179 222 261 323 391
#     4  12  22  40  70 100 120 174 228 270 322 390
#     4  12  23  40  69 100 133 165 213 273 334 390
#
# _framework density 20.147244000000001
#
# number of rings (size 3 to 8) (size 9 to 14) (size 15 to 20)
#    0.000    0.889    4.444    2.667    6.222    0.000 
#    0.000    1.111    0.000    0.000    0.000    0.000 
#    0.000    0.000    0.000    0.000    0.000    0.000 
#
# Total GULP energy -223145.335250 kJ/mol
# GULP energy per Si atom -12396.963069 kJ/mol
# Density = 2.010139 g / cm^3
# Si number density = 20.147244 Si / 1000 Ang^3
#
#
#
# Elastic Constant Matrix: (Units=GPa)
#
#
# Indices 1 2 3 4 5 6 
#
# 1 90.1514 26.5556 61.8763 0.0000 18.7890 0.0000
# 2 26.5556 118.6048 70.2547 0.0000 15.4765 0.0000
# 3 61.8763 70.2547 157.9908 0.0000 13.5366 0.0000
# 4 0.0000 0.0000 0.0000 45.0756 0.0000 -4.6305
# 5 18.7890 15.4765 13.5366 0.0000 35.4970 0.0000
# 6 0.0000 0.0000 0.0000 -4.6305 0.0000 9.8253
#
#
#
# Elastic Compliance Matrix: (Units=1/GPa)
#
#
# Indices 1 2 3 4 5 6 
#
# 1 0.016567 0.000914 -0.006315 0.000000 -0.006759 0.000000
# 2 0.000914 0.011848 -0.005316 0.000000 -0.003622 0.000000
# 3 -0.006315 -0.005316 0.011043 0.000000 0.001450 0.000000
# 4 0.000000 0.000000 0.000000 0.023314 0.000000 0.010987
# 5 -0.006759 -0.003622 0.001450 0.000000 0.032775 0.000000
# 6 0.000000 0.000000 0.000000 0.010987 0.000000 0.106956
#
#
# Mechanical properties :
#
#
# Convention : Reuss Voigt Hill
#
# Bulk Modulus (GPa) = 55.48854 76.01337 65.75096
# Shear Modulus (GPa) = 21.74428 31.95030 26.84729
#
# Velocity S-wave (km/s) = 3.28879 3.98658 3.65438
# Velocity P-wave (km/s) = 6.48250 7.68123 7.10718
#
# Compressibility (1/GPa) = 0.01802174
#
# Stress axis : x y z
#
# Youngs Moduli (GPa) = 60.36232 84.39919 90.55805
#
# Poissons Ratio (x) = -0.07710 0.57191
# Poissons Ratio (y) = -0.05514 0.48142
# Poissons Ratio (z) = 0.38121 0.44868
#
# Static dielectric constant tensor:
#      x y z
#    x 12.059700 0.000000 0.837740 
#    y 0.000000 3.755940 0.000000 
#    z 0.837740 0.000000 3.956830 
# 
# 
# High freq. dielectric constant tensor:
#      x y z
#    x 1.780980 0.000000 -0.002510 
#    y 0.000000 1.797940 0.000000 
#    z -0.002510 0.000000 1.799740 
# 
# From -- ./inp_files/45989.got.cif
#   From: 2010.06.25/outbox.cif.g09.slc.cpg/sg15_23_cif.got.tgz:45989.got - 2010.06.28 07:06:18.
