data_PCOD8150630
_publ_section_title
;
Structure prediction by ZEFSAII (Michael W. Deem and Ramdas Pophale) SiO2 
 PCOD8150630
Probable space group: C 2/C
;
_chemical_formula_sum "Si O2"
_cell_formula_units_Z 40
_cell_length_a 9.850671
_cell_length_b 7.825400
_cell_length_c 24.075704
_cell_angle_alpha 90.000000
_cell_angle_beta 63.913454
_cell_angle_gamma 90.000000
_cell_volume 1666.828712
_symmetry_space_group_name_H-M "C 2/C"
_symmetry_group_IT_number 15
_symmetry_cell_setting 'monoclinic'
loop_
_space_group_symop_operation_xyz
x,y,z
-x,y,1/2-z
-x,-y,-z
x,-y,1/2+z
1/2+x,1/2+y,z
1/2-x,1/2+y,1/2-z
1/2-x,1/2-y,-z
1/2+x,1/2-y,1/2+z
loop_
_atom_site_type_symbol
_atom_site_label
_atom_site_fract_x
_atom_site_fract_y
_atom_site_fract_z
Si Si1 0.583708 0.306926 0.543574
Si Si2 0.513796 0.330778 0.433693
Si Si3 0.794403 0.567021 0.818688
Si Si4 0.837831 0.919236 0.761800
Si Si5 0.524870 0.999883 0.364744
O O1 0.750000 0.250000 0.500000
O O2 0.487796 0.300966 0.503840
O O3 0.582669 0.501671 0.567514
O O4 0.508870 0.181221 0.601310
O O5 0.689959 0.366259 0.388055
O O6 0.461017 0.159112 0.412086
O O7 0.847859 0.717197 0.768457
O O8 0.697059 0.440406 0.797369
O O9 0.941856 0.481659 0.819928
O O10 0.704879 0.993692 0.824292
O O11 0.000000 0.002836 0.750000
#
# Coordination Sequence:
#
# PCOD8150630 Si02
#       5
#     8   8   8   8   8
#     4  11  23  47  73 106 153 188 238 299 357 433
#     4  10  25  44  71 111 141 192 241 289 363 433
#     4  11  25  47  70 107 142 189 245 302 359 434
#     4  11  26  45  70 102 144 189 242 306 367 431
#     4  11  24  48  75 104 146 192 242 300 366 431
#
# _framework density 23.997665000000001
#
# number of rings (size 3 to 8) (size 9 to 14) (size 15 to 20)
#    0.000    1.200    2.000    2.400    5.600    4.000 
#    3.600    0.000    0.000    0.000    0.000    0.000 
#    0.000    0.000    0.000    0.000    0.000    0.000 
#
# Total GULP energy -248018.097439 kJ/mol
# GULP energy per Si atom -12400.904872 kJ/mol
# Density = 2.394305 g / cm^3
# Si number density = 23.997665 Si / 1000 Ang^3
#
#
#
# Elastic Constant Matrix: (Units=GPa)
#
#
# Indices 1 2 3 4 5 6 
#
# 1 150.9385 53.1344 42.0657 0.0000 7.7925 0.0000
# 2 53.1344 139.9544 40.7019 0.0000 17.8112 0.0000
# 3 42.0657 40.7019 90.0516 0.0000 23.2268 0.0000
# 4 0.0000 0.0000 0.0000 47.4456 0.0000 -1.2392
# 5 7.7925 17.8112 23.2268 0.0000 41.2388 0.0000
# 6 0.0000 0.0000 0.0000 -1.2392 0.0000 27.9177
#
#
#
# Elastic Compliance Matrix: (Units=1/GPa)
#
#
# Indices 1 2 3 4 5 6 
#
# 1 0.008267 -0.002394 -0.003093 0.000000 0.001214 0.000000
# 2 -0.002394 0.009024 -0.002424 0.000000 -0.002080 0.000000
# 3 -0.003093 -0.002424 0.015472 0.000000 -0.007083 0.000000
# 4 0.000000 0.000000 0.000000 0.021101 0.000000 0.000937
# 5 0.001214 -0.002080 -0.007083 0.000000 0.028907 0.000000
# 6 0.000000 0.000000 0.000000 0.000937 0.000000 0.035861
#
#
# Mechanical properties :
#
#
# Convention : Reuss Voigt Hill
#
# Bulk Modulus (GPa) = 59.02621 72.52762 65.77692
# Shear Modulus (GPa) = 35.68861 39.65659 37.67260
#
# Velocity S-wave (km/s) = 3.86057 4.06953 3.96642
# Velocity P-wave (km/s) = 6.67248 7.23670 6.96031
#
# Compressibility (1/GPa) = 0.01694163
#
# Stress axis : x y z
#
# Youngs Moduli (GPa) = 120.96031 110.82105 64.63267
#
# Poissons Ratio (x) = 0.26526 0.19991
# Poissons Ratio (y) = 0.28953 0.15667
# Poissons Ratio (z) = 0.37413 0.26862
#
# Static dielectric constant tensor:
#      x y z
#    x 4.287770 0.000000 0.033060 
#    y 0.000000 4.457550 0.000000 
#    z 0.033060 0.000000 4.492970 
# 
# 
# High freq. dielectric constant tensor:
#      x y z
#    x 1.941540 0.000000 -0.007130 
#    y 0.000000 1.952000 0.000000 
#    z -0.007130 0.000000 1.966740 
# 
# From -- ./inp_files/262422.got.cif
#   From: 2010.06.25/outbox.cif.g09.slc.cpg/sg15_132_cif.got.tgz:262422.got - 2010.06.28 07:06:18.
