data_PCOD8150038
_publ_section_title
;
Structure prediction by ZEFSAII (Michael W. Deem and Ramdas Pophale) SiO2 
 PCOD8150038
Probable space group: C 2/C
;
_chemical_formula_sum "Si O2"
_cell_formula_units_Z 48
_cell_length_a 13.423621
_cell_length_b 17.478455
_cell_length_c 16.955673
_cell_angle_alpha 90.000000
_cell_angle_beta 31.430203
_cell_angle_gamma 90.000000
_cell_volume 2074.475644
_symmetry_space_group_name_H-M "C 2/C"
_symmetry_group_IT_number 15
_symmetry_cell_setting 'monoclinic'
loop_
_space_group_symop_operation_xyz
x,y,z
-x,y,1/2-z
-x,-y,-z
x,-y,1/2+z
1/2+x,1/2+y,z
1/2-x,1/2+y,1/2-z
1/2-x,1/2-y,-z
1/2+x,1/2-y,1/2+z
loop_
_atom_site_type_symbol
_atom_site_label
_atom_site_fract_x
_atom_site_fract_y
_atom_site_fract_z
Si Si1 0.640931 0.961825 0.081833
Si Si2 0.549975 0.529680 0.380507
Si Si3 0.558528 0.797158 0.122578
Si Si4 0.289982 0.428611 0.357070
Si Si5 0.121654 0.273354 0.513036
Si Si6 0.307694 0.306900 0.682231
O O1 0.500000 0.983155 0.250000
O O2 0.589027 0.883478 0.069455
O O3 0.855771 0.952536 0.966766
O O4 0.640951 0.028412 0.016195
O O5 0.500000 0.500000 0.500000
O O6 0.690070 0.469768 0.241438
O O7 0.665273 0.608241 0.305203
O O8 0.500000 0.813782 0.250000
O O9 0.396256 0.753393 0.184029
O O10 0.750000 0.750000 0.000000
O O11 0.500000 0.425790 0.250000
O O12 0.214088 0.342457 0.399875
O O13 0.250000 0.250000 0.500000
O O14 0.097511 0.203203 0.468003
O O15 0.914248 0.293863 0.683528
#
# Coordination Sequence:
#
# PCOD8150038 Si02
#       6
#     8   8   8   8   8   8
#     4  10  24  43  73 105 149 191 233 304 380 445
#     4  11  27  46  72 111 151 192 251 306 373 463
#     4  11  23  42  69 106 150 181 233 298 374 450
#     4  10  25  48  74 102 148 197 244 306 378 448
#     4  12  29  50  75 105 148 201 261 312 372 447
#     4  12  28  46  77 109 143 198 250 308 380 454
#
# _framework density 23.138376000000001
#
# number of rings (size 3 to 8) (size 9 to 14) (size 15 to 20)
#    0.000    1.000    1.667    2.500   16.333    0.667 
#    0.000    0.000    0.000    0.000    0.000    0.000 
#    0.000    0.000    0.000    0.000    0.000    0.000 
#
# Total GULP energy -297605.050495 kJ/mol
# GULP energy per Si atom -12400.210437 kJ/mol
# Density = 2.308571 g / cm^3
# Si number density = 23.138376 Si / 1000 Ang^3
#
#
#
# Elastic Constant Matrix: (Units=GPa)
#
#
# Indices 1 2 3 4 5 6 
#
# 1 105.7161 36.7719 18.9858 0.0218 -0.4902 0.0027
# 2 36.7719 112.2570 35.7877 -0.0133 1.5384 -0.0095
# 3 18.9858 35.7877 109.8900 -0.0361 1.4452 -0.0221
# 4 0.0218 -0.0133 -0.0361 35.3539 0.0001 5.2701
# 5 -0.4902 1.5384 1.4452 0.0001 45.8319 0.0124
# 6 0.0027 -0.0095 -0.0221 5.2701 0.0124 31.0433
#
#
#
# Elastic Compliance Matrix: (Units=1/GPa)
#
#
# Indices 1 2 3 4 5 6 
#
# 1 0.010740 -0.003268 -0.000794 -0.000008 0.000250 -0.000001
# 2 -0.003268 0.010937 -0.002993 0.000003 -0.000308 0.000001
# 3 -0.000794 -0.002993 0.010215 0.000009 -0.000230 0.000005
# 4 -0.000008 0.000003 0.000009 0.029020 0.000001 -0.004927
# 5 0.000250 -0.000308 -0.000230 0.000001 0.021839 -0.000009
# 6 -0.000001 0.000001 0.000005 -0.004927 -0.000009 0.033049
#
#
# Mechanical properties :
#
#
# Convention : Reuss Voigt Hill
#
# Bulk Modulus (GPa) = 56.24164 56.77266 56.50715
# Shear Modulus (GPa) = 36.80825 38.20033 37.50429
#
# Velocity S-wave (km/s) = 3.99280 4.06760 4.03037
# Velocity P-wave (km/s) = 6.75396 6.83007 6.79212
#
# Compressibility (1/GPa) = 0.01778042
#
# Stress axis : x y z
#
# Youngs Moduli (GPa) = 93.11043 91.43161 97.89437
#
# Poissons Ratio (x) = 0.29882 0.07778
# Poissons Ratio (y) = 0.30430 0.29302
# Poissons Ratio (z) = 0.07397 0.27367
#
# Static dielectric constant tensor:
#      x y z
#    x 4.130090 -0.000030 -0.001520 
#    y -0.000030 4.342980 0.000060 
#    z -0.001520 0.000060 4.330550 
# 
# 
# High freq. dielectric constant tensor:
#      x y z
#    x 1.914830 0.000000 -0.002230 
#    y 0.000000 1.927310 0.000010 
#    z -0.002230 0.000010 1.927340 
# 
# From -- ./inp_files/206389.got.cif
#   From: 2010.06.25/outbox.cif.g09.slc.cpg/sg15_104_cif.got.tgz:206389.got - 2010.06.28 07:06:18.
