data_PCOD8150715
_publ_section_title
;
Structure prediction by ZEFSAII (Michael W. Deem and Ramdas Pophale) SiO2 
 PCOD8150715
Probable space group: C 2/C
;
_chemical_formula_sum "Si O2"
_cell_formula_units_Z 56
_cell_length_a 5.625054
_cell_length_b 16.762825
_cell_length_c 30.397973
_cell_angle_alpha 90.000000
_cell_angle_beta 60.145052
_cell_angle_gamma 90.000000
_cell_volume 2485.891058
_symmetry_space_group_name_H-M "C 2/C"
_symmetry_group_IT_number 15
_symmetry_cell_setting 'monoclinic'
loop_
_space_group_symop_operation_xyz
x,y,z
-x,y,1/2-z
-x,-y,-z
x,-y,1/2+z
1/2+x,1/2+y,z
1/2-x,1/2+y,1/2-z
1/2-x,1/2-y,-z
1/2+x,1/2-y,1/2+z
loop_
_atom_site_type_symbol
_atom_site_label
_atom_site_fract_x
_atom_site_fract_y
_atom_site_fract_z
Si Si1 0.227561 0.680251 0.624357
Si Si2 0.975266 0.031845 0.878871
Si Si3 0.494302 0.565010 0.038705
Si Si4 0.174952 0.943156 0.777453
Si Si5 0.818405 0.755641 0.723259
Si Si6 0.210305 0.724434 0.053276
Si Si7 0.963541 0.630316 0.947236
O O1 0.353258 0.612888 0.644492
O O2 0.411405 0.759110 0.601050
O O3 0.224334 0.633624 0.578449
O O4 0.940517 0.708938 0.670262
O O5 0.670261 0.057512 0.920491
O O6 0.072879 0.972772 0.908309
O O7 0.997758 0.984310 0.831674
O O8 0.258153 0.630687 0.053952
O O9 0.500000 0.500000 0.000000
O O10 0.786151 0.611224 0.007424
O O11 0.500000 0.969892 0.750000
O O12 0.162458 0.849233 0.786059
O O13 0.000000 0.966712 0.750000
O O14 0.500000 0.728616 0.750000
O O15 0.000000 0.732348 0.750000
O O16 0.413483 0.781248 0.061780
O O17 0.250000 0.750000 0.000000
#
# Coordination Sequence:
#
# PCOD8150715 Si02
#       7
#     8   8   8   8   8   8   8
#     4  11  25  45  68 101 139 183 239 289 353 433
#     4  11  26  43  68 103 136 187 230 296 367 426
#     4  12  23  43  68 100 145 183 231 293 352 429
#     4  10  25  48  74 105 141 181 241 303 364 433
#     4  10  25  47  74 103 136 184 240 297 358 428
#     4  11  24  42  67  98 137 185 233 284 345 423
#     4  11  24  44  64  98 143 181 234 282 347 434
#
# _framework density 22.527132999999999
#
# number of rings (size 3 to 8) (size 9 to 14) (size 15 to 20)
#    0.000    1.143    2.857    1.714    8.000    4.000 
#    0.000    0.000    0.000    0.000    0.000    0.000 
#    0.000    0.000    0.000    0.000    0.000    0.000 
#
# Total GULP energy -347017.698342 kJ/mol
# GULP energy per Si atom -12393.489227 kJ/mol
# Density = 2.247586 g / cm^3
# Si number density = 22.527133 Si / 1000 Ang^3
#
#
#
# Elastic Constant Matrix: (Units=GPa)
#
#
# Indices 1 2 3 4 5 6 
#
# 1 117.6546 39.0462 48.8741 -0.0001 -8.8751 0.0000
# 2 39.0462 109.9035 60.8367 -0.0001 -2.5700 0.0000
# 3 48.8741 60.8367 135.0875 -0.0004 -5.7559 -0.0001
# 4 -0.0001 -0.0001 -0.0004 32.4856 0.0001 -4.0835
# 5 -8.8751 -2.5700 -5.7559 0.0001 42.8831 0.0000
# 6 0.0000 0.0000 -0.0001 -4.0835 0.0000 24.1628
#
#
#
# Elastic Compliance Matrix: (Units=1/GPa)
#
#
# Indices 1 2 3 4 5 6 
#
# 1 0.010485 -0.002165 -0.002747 0.000000 0.001672 0.000000
# 2 -0.002165 0.012568 -0.004891 0.000000 -0.000352 0.000000
# 3 -0.002747 -0.004891 0.010623 0.000000 0.000564 0.000000
# 4 0.000000 0.000000 0.000000 0.031451 0.000000 0.005315
# 5 0.001672 -0.000352 0.000564 0.000000 0.023720 0.000000
# 6 0.000000 0.000000 0.000000 0.005315 0.000000 0.042284
#
#
# Mechanical properties :
#
#
# Convention : Reuss Voigt Hill
#
# Bulk Modulus (GPa) = 71.08095 73.35108 72.21602
# Shear Modulus (GPa) = 32.16911 34.16554 33.16733
#
# Velocity S-wave (km/s) = 3.78301 3.89863 3.84126
# Velocity P-wave (km/s) = 7.12064 7.27308 7.19726
#
# Compressibility (1/GPa) = 0.01406847
#
# Stress axis : x y z
#
# Youngs Moduli (GPa) = 95.37102 79.56974 94.13214
#
# Poissons Ratio (x) = 0.17231 0.25859
# Poissons Ratio (y) = 0.20652 0.46043
# Poissons Ratio (z) = 0.26200 0.38920
#
# Static dielectric constant tensor:
#      x y z
#    x 4.263110 0.000000 -0.073280 
#    y 0.000000 4.338160 0.000000 
#    z -0.073280 0.000000 4.020090 
# 
# 
# High freq. dielectric constant tensor:
#      x y z
#    x 1.888210 0.000000 -0.004660 
#    y 0.000000 1.899000 0.000000 
#    z -0.004660 0.000000 1.886870 
# 
# From -- ./inp_files/305750.got.cif
#   From: 2010.06.25/outbox.cif.g09.slc.cpg/sg15_153_cif.got.tgz:305750.got - 2010.06.28 07:06:18.
