data_PCOD8150788
_publ_section_title
;
Structure prediction by ZEFSAII (Michael W. Deem and Ramdas Pophale) SiO2 
 PCOD8150788
Probable space group: C 2/C
;
_chemical_formula_sum "Si O2"
_cell_formula_units_Z 44
_cell_length_a 7.558193
_cell_length_b 21.179456
_cell_length_c 13.872192
_cell_angle_alpha 90.000000
_cell_angle_beta 77.723059
_cell_angle_gamma 90.000000
_cell_volume 2169.855253
_symmetry_space_group_name_H-M "C 2/C"
_symmetry_group_IT_number 15
_symmetry_cell_setting 'monoclinic'
loop_
_space_group_symop_operation_xyz
x,y,z
-x,y,1/2-z
-x,-y,-z
x,-y,1/2+z
1/2+x,1/2+y,z
1/2-x,1/2+y,1/2-z
1/2-x,1/2-y,-z
1/2+x,1/2-y,1/2+z
loop_
_atom_site_type_symbol
_atom_site_label
_atom_site_fract_x
_atom_site_fract_y
_atom_site_fract_z
Si Si1 0.500000 0.110813 0.250000
Si Si2 0.855180 0.813529 0.689922
Si Si3 0.117628 0.126000 0.515763
Si Si4 0.728690 0.890611 0.147830
Si Si5 0.368653 0.169303 0.649021
Si Si6 0.373243 0.978710 0.927484
O O1 0.331294 0.156290 0.255251
O O2 0.514686 0.068950 0.152406
O O3 0.916149 0.836226 0.578027
O O4 0.838817 0.738355 0.695224
O O5 0.000000 0.837834 0.750000
O O6 0.268326 0.163339 0.559345
O O7 0.192234 0.055400 0.488402
O O8 0.929945 0.126482 0.593507
O O9 0.711907 0.881054 0.264912
O O10 0.582450 0.845788 0.110212
O O11 0.690127 0.963191 0.129597
O O12 0.500000 0.000000 0.000000
#
# Coordination Sequence:
#
# PCOD8150788 Si02
#       6
#     4   8   8   8   8   8
#     4  10  26  44  66  92 134 176 210 278 324 382
#     4  11  25  43  65  97 136 172 221 262 329 394
#     4  11  25  41  68 100 126 177 222 266 326 389
#     4  11  23  42  69  94 135 168 218 268 330 381
#     4  11  23  44  65 100 131 173 216 270 327 388
#     4  11  23  44  67  95 134 170 221 272 325 386
#
# _framework density 20.277850000000001
#
# number of rings (size 3 to 8) (size 9 to 14) (size 15 to 20)
#    0.000    1.091    3.636    2.727    5.091    0.727 
#    0.000    0.000    0.000    0.000    0.000    0.000 
#    0.000    0.000    0.000    0.000    0.000    0.000 
#
# Total GULP energy -272896.144890 kJ/mol
# GULP energy per Si atom -12404.370222 kJ/mol
# Density = 2.023170 g / cm^3
# Si number density = 20.277850 Si / 1000 Ang^3
#
#
#
# Elastic Constant Matrix: (Units=GPa)
#
#
# Indices 1 2 3 4 5 6 
#
# 1 126.8595 49.3481 55.3001 0.0000 4.5835 0.0000
# 2 49.3481 104.5860 28.1135 0.0000 7.3695 0.0000
# 3 55.3001 28.1135 97.1170 0.0000 20.5596 0.0000
# 4 0.0000 0.0000 0.0000 38.9984 0.0000 4.5044
# 5 4.5835 7.3695 20.5596 0.0000 43.0029 0.0000
# 6 0.0000 0.0000 0.0000 4.5044 0.0000 26.6844
#
#
#
# Elastic Compliance Matrix: (Units=1/GPa)
#
#
# Indices 1 2 3 4 5 6 
#
# 1 0.012144 -0.004233 -0.006196 0.000000 0.002394 0.000000
# 2 -0.004233 0.011849 -0.000763 0.000000 -0.001215 0.000000
# 3 -0.006196 -0.000763 0.015441 0.000000 -0.006591 0.000000
# 4 0.000000 0.000000 0.000000 0.026152 0.000000 -0.004414
# 5 0.002394 -0.001215 -0.006591 0.000000 0.026359 0.000000
# 6 0.000000 0.000000 0.000000 -0.004414 0.000000 0.038220
#
#
# Mechanical properties :
#
#
# Convention : Reuss Voigt Hill
#
# Bulk Modulus (GPa) = 58.64852 66.00955 62.32903
# Shear Modulus (GPa) = 31.59892 34.79052 33.19472
#
# Velocity S-wave (km/s) = 3.95181 4.14658 4.05037
# Velocity P-wave (km/s) = 7.05745 7.45310 7.25797
#
# Compressibility (1/GPa) = 0.01705073
#
# Stress axis : x y z
#
# Youngs Moduli (GPa) = 82.34516 84.39202 64.76146
#
# Poissons Ratio (x) = 0.35724 0.40128
# Poissons Ratio (y) = 0.34858 0.04939
# Poissons Ratio (z) = 0.51024 0.06436
#
# Static dielectric constant tensor:
#      x y z
#    x 3.791750 0.000000 0.028540 
#    y 0.000000 3.822350 0.000000 
#    z 0.028540 0.000000 3.732530 
# 
# 
# High freq. dielectric constant tensor:
#      x y z
#    x 1.800660 0.000000 0.004430 
#    y 0.000000 1.799450 0.000000 
#    z 0.004430 0.000000 1.800030 
# 
# From -- ./inp_files/134389.got.cif
#   From: 2010.06.25/outbox.cif.g09.slc.cpg/sg15_68_cif.got.tgz:134389.got - 2010.06.28 07:06:18.
