data_PCOD8150635
_publ_section_title
;
Structure prediction by ZEFSAII (Michael W. Deem and Ramdas Pophale) SiO2 
 PCOD8150635
Probable space group: C 2/C
;
_chemical_formula_sum "Si O2"
_cell_formula_units_Z 64
_cell_length_a 14.102147
_cell_length_b 14.523382
_cell_length_c 17.003049
_cell_angle_alpha 90.000000
_cell_angle_beta 48.989773
_cell_angle_gamma 90.000000
_cell_volume 2627.799760
_symmetry_space_group_name_H-M "C 2/C"
_symmetry_group_IT_number 15
_symmetry_cell_setting 'monoclinic'
loop_
_space_group_symop_operation_xyz
x,y,z
-x,y,1/2-z
-x,-y,-z
x,-y,1/2+z
1/2+x,1/2+y,z
1/2-x,1/2+y,1/2-z
1/2-x,1/2-y,-z
1/2+x,1/2-y,1/2+z
loop_
_atom_site_type_symbol
_atom_site_label
_atom_site_fract_x
_atom_site_fract_y
_atom_site_fract_z
Si Si1 0.216495 0.854003 0.532766
Si Si2 0.333845 0.769293 0.135717
Si Si3 0.073601 0.493555 0.132646
Si Si4 0.654990 0.199219 0.110044
Si Si5 0.810906 0.534190 0.723294
Si Si6 0.704493 0.639392 0.215197
Si Si7 0.393699 0.425125 0.056397
Si Si8 0.959213 0.746817 0.103475
O O1 0.250000 0.750000 0.500000
O O2 0.340029 0.917468 0.455999
O O3 0.155349 0.858590 0.652652
O O4 0.110075 0.883683 0.528909
O O5 0.203402 0.725861 0.171123
O O6 0.299985 0.865380 0.192759
O O7 0.383582 0.696434 0.175317
O O8 0.435618 0.788009 0.014468
O O9 0.151598 0.587883 0.103081
O O10 0.000000 0.455972 0.250000
O O11 0.951585 0.507709 0.142322
O O12 0.750000 0.250000 0.000000
O O13 0.514131 0.233195 0.162871
O O14 0.715949 0.467846 0.728670
O O15 0.748535 0.538671 0.845712
O O16 0.838058 0.688836 0.149828
O O17 0.500000 0.500000 0.000000
O O18 0.433122 0.353659 0.102468
#
# Coordination Sequence:
#
# PCOD8150635 Si02
#       8
#     8   8   8   8   8   8   8   8
#     4  12  27  48  72 108 149 199 253 315 376 458
#     4  11  25  45  71 111 151 192 243 321 380 447
#     4  12  25  44  79 108 140 195 256 308 370 457
#     4  10  25  44  75 111 145 189 243 305 386 454
#     4  12  25  46  74 110 146 191 249 312 373 449
#     4  12  25  46  72 107 150 190 251 310 373 453
#     4  12  27  49  72 103 150 200 246 306 383 449
#     4  11  23  45  71 104 144 195 239 309 373 446
#
# _framework density 24.354973999999999
#
# number of rings (size 3 to 8) (size 9 to 14) (size 15 to 20)
#    0.000    0.500    5.000    2.250    7.000    1.000 
#    0.000    3.750    0.000    0.000    0.000    0.000 
#    0.000    0.000    0.000    0.000    0.000    0.000 
#
# Total GULP energy -396631.658539 kJ/mol
# GULP energy per Si atom -12394.739329 kJ/mol
# Density = 2.429954 g / cm^3
# Si number density = 24.354974 Si / 1000 Ang^3
#
#
#
# Elastic Constant Matrix: (Units=GPa)
#
#
# Indices 1 2 3 4 5 6 
#
# 1 79.7366 29.9893 9.5210 0.0000 18.3361 0.0000
# 2 29.9893 148.9819 -1.5453 0.0000 6.2027 0.0000
# 3 9.5210 -1.5453 43.8076 0.0000 2.0404 0.0000
# 4 0.0000 0.0000 0.0000 37.6960 0.0000 -0.1667
# 5 18.3361 6.2027 2.0404 0.0000 50.8192 0.0000
# 6 0.0000 0.0000 0.0000 -0.1667 0.0000 46.4874
#
#
#
# Elastic Compliance Matrix: (Units=1/GPa)
#
#
# Indices 1 2 3 4 5 6 
#
# 1 0.015147 -0.002874 -0.003161 0.000000 -0.004987 0.000000
# 2 -0.002874 0.007295 0.000877 0.000000 0.000111 0.000000
# 3 -0.003161 0.000877 0.023541 0.000000 0.000088 0.000000
# 4 0.000000 0.000000 0.000000 0.026528 0.000000 0.000095
# 5 -0.004987 0.000111 0.000088 0.000000 0.021460 0.000000
# 6 0.000000 0.000000 0.000000 0.000095 0.000000 0.021512
#
#
# Mechanical properties :
#
#
# Convention : Reuss Voigt Hill
#
# Bulk Modulus (GPa) = 28.03779 38.71733 33.37756
# Shear Modulus (GPa) = 36.31403 42.63793 39.47598
#
# Velocity S-wave (km/s) = 3.86558 4.18866 4.03036
# Velocity P-wave (km/s) = 5.60898 6.27095 5.94918
#
# Compressibility (1/GPa) = 0.03566615
#
# Stress axis : x y z
#
# Youngs Moduli (GPa) = 66.02163 137.07609 42.47927
#
# Poissons Ratio (x) = 0.39397 0.13428
# Poissons Ratio (y) = 0.18975 -0.03725
# Poissons Ratio (z) = 0.20869 -0.12019
#
# Static dielectric constant tensor:
#      x y z
#    x 4.692790 0.000000 0.039590 
#    y 0.000000 4.620450 0.000000 
#    z 0.039590 0.000000 4.638990 
# 
# 
# High freq. dielectric constant tensor:
#      x y z
#    x 1.973370 0.000000 0.000890 
#    y 0.000000 1.973120 0.000000 
#    z 0.000890 0.000000 1.979910 
# 
# From -- ./inp_files/205722.got.cif
#   From: 2010.06.25/outbox.cif.g09.slc.cpg/sg15_103_cif.got.tgz:205722.got - 2010.06.28 07:06:18.
