data_PCOD8150097
_publ_section_title
;
Structure prediction by ZEFSAII (Michael W. Deem and Ramdas Pophale) SiO2 
 PCOD8150097
Probable space group: C 2/C
;
_chemical_formula_sum "Si O2"
_cell_formula_units_Z 48
_cell_length_a 24.854893
_cell_length_b 8.803578
_cell_length_c 9.920608
_cell_angle_alpha 90.000000
_cell_angle_beta 108.959881
_cell_angle_gamma 90.000000
_cell_volume 2052.976882
_symmetry_space_group_name_H-M "C 2/C"
_symmetry_group_IT_number 15
_symmetry_cell_setting 'monoclinic'
loop_
_space_group_symop_operation_xyz
x,y,z
-x,y,1/2-z
-x,-y,-z
x,-y,1/2+z
1/2+x,1/2+y,z
1/2-x,1/2+y,1/2-z
1/2-x,1/2-y,-z
1/2+x,1/2-y,1/2+z
loop_
_atom_site_type_symbol
_atom_site_label
_atom_site_fract_x
_atom_site_fract_y
_atom_site_fract_z
Si Si1 0.645253 0.928710 0.506182
Si Si2 0.000000 0.772977 0.750000
Si Si3 0.072501 0.531845 0.685616
Si Si4 0.500000 0.779861 0.750000
Si Si5 0.830787 0.088013 0.884115
Si Si6 0.946839 0.979206 0.052396
Si Si7 0.762840 0.080975 0.556890
O O1 0.621229 0.940234 0.336246
O O2 0.652259 0.757646 0.562103
O O3 0.601302 0.021963 0.563674
O O4 0.705914 0.007038 0.566645
O O5 0.972872 0.670019 0.846849
O O6 0.948443 0.876748 0.654612
O O7 0.036664 0.378703 0.676555
O O8 0.547003 0.678201 0.863878
O O9 0.808064 0.084089 0.714050
O O10 0.886721 0.981138 0.927432
O O11 0.785473 0.020137 0.951867
O O12 0.000000 0.000000 0.000000
O O13 0.750000 0.250000 0.500000
#
# Coordination Sequence:
#
# PCOD8150097 Si02
#       7
#     8   4   8   4   8   8   8
#     4  12  26  48  73 104 142 192 242 301 364 434
#     4  10  24  44  66 110 140 196 236 298 366 436
#     4  11  25  45  75 104 146 188 244 295 363 436
#     4  10  26  42  68 110 148 190 240 300 362 436
#     4  12  27  49  74 109 148 191 243 303 368 432
#     4  11  25  42  72 104 149 190 241 295 370 436
#     4  12  29  50  77 109 143 191 247 307 366 432
#
# _framework density 23.380683999999999
#
# number of rings (size 3 to 8) (size 9 to 14) (size 15 to 20)
#    0.000    0.667    1.667    4.500   11.667    2.667 
#    0.000    0.000    0.000    0.000    0.000    0.000 
#    0.000    0.000    0.000    0.000    0.000    0.000 
#
# Total GULP energy -297723.278251 kJ/mol
# GULP energy per Si atom -12405.136594 kJ/mol
# Density = 2.332747 g / cm^3
# Si number density = 23.380684 Si / 1000 Ang^3
#
#
#
# Elastic Constant Matrix: (Units=GPa)
#
#
# Indices 1 2 3 4 5 6 
#
# 1 121.7659 17.7992 12.9195 0.0000 0.1606 0.0000
# 2 17.7992 98.6061 24.9292 0.0000 5.2519 0.0000
# 3 12.9195 24.9292 112.4294 0.0000 19.9366 0.0000
# 4 0.0000 0.0000 0.0000 16.5475 0.0000 0.7120
# 5 0.1606 5.2519 19.9366 0.0000 52.1150 0.0000
# 6 0.0000 0.0000 0.0000 0.7120 0.0000 27.5648
#
#
#
# Elastic Compliance Matrix: (Units=1/GPa)
#
#
# Indices 1 2 3 4 5 6 
#
# 1 0.008490 -0.001366 -0.000743 0.000000 0.000396 0.000000
# 2 -0.001366 0.010965 -0.002230 0.000000 -0.000248 0.000000
# 3 -0.000743 -0.002230 0.010121 0.000000 -0.003645 0.000000
# 4 0.000000 0.000000 0.000000 0.060499 0.000000 -0.001563
# 5 0.000396 -0.000248 -0.003645 0.000000 0.020606 0.000000
# 6 0.000000 0.000000 0.000000 -0.001563 0.000000 0.036319
#
#
# Mechanical properties :
#
#
# Convention : Reuss Voigt Hill
#
# Bulk Modulus (GPa) = 47.85237 49.34414 48.59826
# Shear Modulus (GPa) = 30.74189 37.72236 34.23212
#
# Velocity S-wave (km/s) = 3.63001 4.02107 3.83053
# Velocity P-wave (km/s) = 6.17093 6.53522 6.35569
#
# Compressibility (1/GPa) = 0.02089761
#
# Stress axis : x y z
#
# Youngs Moduli (GPa) = 117.77950 91.19938 98.80749
#
# Poissons Ratio (x) = 0.12456 0.07341
# Poissons Ratio (y) = 0.16087 0.22038
# Poissons Ratio (z) = 0.08751 0.20342
#
# Static dielectric constant tensor:
#      x y z
#    x 4.361750 0.000000 0.232060 
#    y 0.000000 4.730730 0.000000 
#    z 0.232060 0.000000 4.422470 
# 
# 
# High freq. dielectric constant tensor:
#      x y z
#    x 1.931940 0.000000 0.006760 
#    y 0.000000 1.944530 0.000000 
#    z 0.006760 0.000000 1.933560 
# 
# From -- ./inp_files/116817.got.cif
#   From: 2010.06.25/outbox.cif.g09.slc.cpg/sg15_59_cif.got.tgz:116817.got - 2010.06.28 07:06:18.
