data_PCOD8150984
_publ_section_title
;
Structure prediction by ZEFSAII (Michael W. Deem and Ramdas Pophale) SiO2 
 PCOD8150984
Probable space group: C 2/C
;
_chemical_formula_sum "Si O2"
_cell_formula_units_Z 56
_cell_length_a 14.049007
_cell_length_b 21.614213
_cell_length_c 13.605460
_cell_angle_alpha 90.000000
_cell_angle_beta 133.474085
_cell_angle_gamma 90.000000
_cell_volume 2998.104840
_symmetry_space_group_name_H-M "C 2/C"
_symmetry_group_IT_number 15
_symmetry_cell_setting 'monoclinic'
loop_
_space_group_symop_operation_xyz
x,y,z
-x,y,1/2-z
-x,-y,-z
x,-y,1/2+z
1/2+x,1/2+y,z
1/2-x,1/2+y,1/2-z
1/2-x,1/2-y,-z
1/2+x,1/2-y,1/2+z
loop_
_atom_site_type_symbol
_atom_site_label
_atom_site_fract_x
_atom_site_fract_y
_atom_site_fract_z
Si Si1 0.446684 0.861763 0.404597
Si Si2 0.111896 0.468125 0.443412
Si Si3 0.592237 0.754082 0.408688
Si Si4 0.240216 0.050817 0.263190
Si Si5 0.501274 0.898402 0.642924
Si Si6 0.241573 0.571909 0.844969
Si Si7 0.012729 0.878893 0.875598
O O1 0.493467 0.932270 0.413682
O O2 0.558108 0.813090 0.451485
O O3 0.431212 0.854361 0.511487
O O4 0.306113 0.864818 0.247520
O O5 0.236645 0.458851 0.603716
O O6 0.081944 0.539589 0.410807
O O7 0.129911 0.444065 0.345439
O O8 0.500000 0.764679 0.250000
O O9 0.750000 0.750000 0.500000
O O10 0.540922 0.692341 0.425575
O O11 0.351691 0.089522 0.287641
O O12 0.114374 0.094552 0.160592
O O13 0.223133 0.983726 0.202958
O O14 0.500000 0.866449 0.750000
O O15 0.368176 0.581837 0.999987
O O16 0.000000 0.884566 0.750000
#
# Coordination Sequence:
#
# PCOD8150984 Si02
#       7
#     8   8   8   8   8   8   8
#     4  11  21  34  60  87 114 151 195 242 296 343
#     4  11  18  34  56  85 119 145 189 247 289 346
#     4  11  24  40  59  89 121 158 200 245 300 353
#     4  11  21  35  56  85 117 157 188 235 303 353
#     4  11  20  35  59  87 115 147 193 249 290 347
#     4  12  20  36  59  83 122 152 193 238 298 355
#     4  11  24  38  55  83 122 157 190 240 296 360
#
# _framework density 18.678466
#
# number of rings (size 3 to 8) (size 9 to 14) (size 15 to 20)
#    0.000    0.857    5.714    4.286    6.000    0.000 
#    0.000    0.000    0.000    0.857    3.714    0.000 
#    0.000    0.000    0.000    0.000    0.000    0.000 
#
# Total GULP energy -346980.268174 kJ/mol
# GULP energy per Si atom -12392.152435 kJ/mol
# Density = 1.863595 g / cm^3
# Si number density = 18.678466 Si / 1000 Ang^3
#
#
#
# Elastic Constant Matrix: (Units=GPa)
#
#
# Indices 1 2 3 4 5 6 
#
# 1 93.2720 32.4480 53.5742 0.0000 -8.8386 0.0000
# 2 32.4480 56.3985 31.6935 0.0000 -1.9910 0.0000
# 3 53.5742 31.6935 113.3529 0.0000 -4.6322 0.0000
# 4 0.0000 0.0000 0.0000 20.3033 0.0000 7.2749
# 5 -8.8386 -1.9910 -4.6322 0.0000 40.2598 0.0000
# 6 0.0000 0.0000 0.0000 7.2749 0.0000 32.8031
#
#
#
# Elastic Compliance Matrix: (Units=1/GPa)
#
#
# Indices 1 2 3 4 5 6 
#
# 1 0.016526 -0.006034 -0.006016 0.000000 0.002638 0.000000
# 2 -0.006034 0.023245 -0.003672 0.000000 -0.000598 0.000000
# 3 -0.006016 -0.003672 0.012690 0.000000 -0.000042 0.000000
# 4 0.000000 0.000000 0.000000 0.053505 0.000000 -0.011866
# 5 0.002638 -0.000598 -0.000042 0.000000 0.025383 0.000000
# 6 0.000000 0.000000 0.000000 -0.011866 0.000000 0.033117
#
#
# Mechanical properties :
#
#
# Convention : Reuss Voigt Hill
#
# Bulk Modulus (GPa) = 47.57927 55.38387 51.48157
# Shear Modulus (GPa) = 24.64092 28.36042 26.50067
#
# Velocity S-wave (km/s) = 3.63604 3.90083 3.77076
# Velocity P-wave (km/s) = 6.56931 7.07136 6.82495
#
# Compressibility (1/GPa) = 0.02101756
#
# Stress axis : x y z
#
# Youngs Moduli (GPa) = 60.51139 43.02021 78.80156
#
# Poissons Ratio (x) = 0.25959 0.47405
# Poissons Ratio (y) = 0.36514 0.28934
# Poissons Ratio (z) = 0.36402 0.15796
#
# Static dielectric constant tensor:
#      x y z
#    x 3.467550 0.000000 -0.206150 
#    y 0.000000 3.339010 0.000000 
#    z -0.206150 0.000000 3.960810 
# 
# 
# High freq. dielectric constant tensor:
#      x y z
#    x 1.701600 0.000000 -0.006540 
#    y 0.000000 1.698650 0.000000 
#    z -0.006540 0.000000 1.751300 
# 
# From -- ./inp_files/155123.got.cif
#   From: 2010.06.25/outbox.cif.g09.slc.cpg/sg15_78_cif.got.tgz:155123.got - 2010.06.28 07:06:18.
