data_PCOD8150040
_publ_section_title
;
Structure prediction by ZEFSAII (Michael W. Deem and Ramdas Pophale) SiO2 
 PCOD8150040
Probable space group: C 2/C
;
_chemical_formula_sum "Si O2"
_cell_formula_units_Z 36
_cell_length_a 16.256422
_cell_length_b 11.189907
_cell_length_c 15.322587
_cell_angle_alpha 90.000000
_cell_angle_beta 146.130534
_cell_angle_gamma 90.000000
_cell_volume 1553.369184
_symmetry_space_group_name_H-M "C 2/C"
_symmetry_group_IT_number 15
_symmetry_cell_setting 'monoclinic'
loop_
_space_group_symop_operation_xyz
x,y,z
-x,y,1/2-z
-x,-y,-z
x,-y,1/2+z
1/2+x,1/2+y,z
1/2-x,1/2+y,1/2-z
1/2-x,1/2-y,-z
1/2+x,1/2-y,1/2+z
loop_
_atom_site_type_symbol
_atom_site_label
_atom_site_fract_x
_atom_site_fract_y
_atom_site_fract_z
Si Si1 0.211412 0.142424 0.782013
Si Si2 0.015033 0.032328 0.358592
Si Si3 0.815226 0.430826 0.193770
Si Si4 0.000000 0.262883 0.250000
Si Si5 0.505165 0.844592 0.856955
O O1 0.293557 0.147429 0.761625
O O2 0.088861 0.245127 0.675829
O O3 0.326711 0.159558 0.961914
O O4 0.125833 0.014227 0.711327
O O5 0.168153 0.994864 0.538945
O O6 0.000000 0.970281 0.250000
O O7 0.024733 0.177338 0.356540
O O8 0.860602 0.346141 0.151902
O O9 0.944567 0.524538 0.326417
O O10 0.500000 0.818952 0.750000
#
# Coordination Sequence:
#
# PCOD8150040 Si02
#       5
#     8   8   8   4   8
#     4  12  27  44  71 103 135 180 228 281 337 400
#     4  10  24  43  73  96 137 177 227 270 342 397
#     4  12  25  45  70 103 137 178 228 281 333 401
#     4  10  26  42  74  96 138 174 232 268 344 392
#     4  12  26  46  69  98 141 178 225 278 345 403
#
# _framework density 23.175431
#
# number of rings (size 3 to 8) (size 9 to 14) (size 15 to 20)
#    0.667    0.000    1.111    6.000    6.222    0.000 
#    0.000    0.000    0.000    0.000    0.000    0.000 
#    0.000    0.000    0.000    0.000    0.000    0.000 
#
# Total GULP energy -223190.364781 kJ/mol
# GULP energy per Si atom -12399.464710 kJ/mol
# Density = 2.312268 g / cm^3
# Si number density = 23.175431 Si / 1000 Ang^3
#
#
#
# Elastic Constant Matrix: (Units=GPa)
#
#
# Indices 1 2 3 4 5 6 
#
# 1 129.9475 58.0942 26.3800 0.0000 3.1791 0.0000
# 2 58.0942 119.2185 27.8918 0.0000 17.3879 0.0000
# 3 26.3800 27.8918 123.6874 0.0000 20.3901 0.0000
# 4 0.0000 0.0000 0.0000 27.9715 0.0000 10.6913
# 5 3.1791 17.3879 20.3901 0.0000 37.4472 0.0000
# 6 0.0000 0.0000 0.0000 10.6913 0.0000 48.9937
#
#
#
# Elastic Compliance Matrix: (Units=1/GPa)
#
#
# Indices 1 2 3 4 5 6 
#
# 1 0.010131 -0.004927 -0.001412 0.000000 0.002196 0.000000
# 2 -0.004927 0.011644 -0.000827 0.000000 -0.004538 0.000000
# 3 -0.001412 -0.000827 0.009327 0.000000 -0.004575 0.000000
# 4 0.000000 0.000000 0.000000 0.039004 0.000000 -0.008511
# 5 0.002196 -0.004538 -0.004575 0.000000 0.031116 0.000000
# 6 0.000000 0.000000 0.000000 -0.008511 0.000000 0.022268
#
#
# Mechanical properties :
#
#
# Convention : Reuss Voigt Hill
#
# Bulk Modulus (GPa) = 59.62754 66.39837 63.01296
# Shear Modulus (GPa) = 34.86503 40.24831 37.55667
#
# Velocity S-wave (km/s) = 3.88286 4.17187 4.02996
# Velocity P-wave (km/s) = 6.77398 7.20545 6.99304
#
# Compressibility (1/GPa) = 0.01677077
#
# Stress axis : x y z
#
# Youngs Moduli (GPa) = 98.70888 85.88085 107.22034
#
# Poissons Ratio (x) = 0.42311 0.15137
# Poissons Ratio (y) = 0.48631 0.08866
# Poissons Ratio (z) = 0.13935 0.07101
#
# Static dielectric constant tensor:
#      x y z
#    x 4.147300 0.000000 0.149250 
#    y 0.000000 4.035370 0.000000 
#    z 0.149250 0.000000 3.972110 
# 
# 
# High freq. dielectric constant tensor:
#      x y z
#    x 1.920480 0.000000 0.009310 
#    y 0.000000 1.910940 0.000000 
#    z 0.009310 0.000000 1.913780 
# 
# From -- ./inp_files/152822.got.cif
#   From: 2010.06.25/outbox.cif.g09.slc.cpg/sg15_77_cif.got.tgz:152822.got - 2010.06.28 07:06:18.
