data_PCOD8150895
_publ_section_title
;
Structure prediction by ZEFSAII (Michael W. Deem and Ramdas Pophale) SiO2 
 PCOD8150895
Probable space group: C 2/C
;
_chemical_formula_sum "Si O2"
_cell_formula_units_Z 52
_cell_length_a 27.092775
_cell_length_b 8.956571
_cell_length_c 11.251067
_cell_angle_alpha 90.000000
_cell_angle_beta 121.712621
_cell_angle_gamma 90.000000
_cell_volume 2322.539064
_symmetry_space_group_name_H-M "C 2/C"
_symmetry_group_IT_number 15
_symmetry_cell_setting 'monoclinic'
loop_
_space_group_symop_operation_xyz
x,y,z
-x,y,1/2-z
-x,-y,-z
x,-y,1/2+z
1/2+x,1/2+y,z
1/2-x,1/2+y,1/2-z
1/2-x,1/2-y,-z
1/2+x,1/2-y,1/2+z
loop_
_atom_site_type_symbol
_atom_site_label
_atom_site_fract_x
_atom_site_fract_y
_atom_site_fract_z
Si Si1 0.593425 0.232835 0.986500
Si Si2 0.361477 0.293503 0.005233
Si Si3 0.184149 0.323861 0.282848
Si Si4 0.531799 0.534763 0.913766
Si Si5 0.500000 0.974370 0.250000
Si Si6 0.690314 0.605760 0.490940
Si Si7 0.598471 0.914516 0.739261
O O1 0.659106 0.260253 0.025268
O O2 0.598366 0.198671 0.130450
O O3 0.560818 0.382487 0.913720
O O4 0.557183 0.108165 0.871429
O O5 0.317605 0.217433 0.857820
O O6 0.337100 0.442611 0.035034
O O7 0.420595 0.334509 0.007574
O O8 0.369543 0.167371 0.113301
O O9 0.243510 0.410930 0.383888
O O10 0.184231 0.163142 0.348281
O O11 0.130023 0.429342 0.249797
O O12 0.500000 0.583051 0.750000
O O13 0.500000 0.500000 0.000000
O O14 0.470515 0.067412 0.319071
#
# Coordination Sequence:
#
# PCOD8150895 Si02
#       7
#     8   8   8   8   4   8   8
#     4  11  24  44  69  99 138 186 232 290 360 423
#     4  11  28  45  74 105 141 187 245 291 366 434
#     4  11  26  48  74 102 147 183 244 301 359 432
#     4  11  25  42  71 101 142 186 241 296 358 435
#     4  12  24  44  68 100 150 186 228 292 364 430
#     4  10  26  49  72 104 139 189 241 299 361 426
#     4  12  27  44  71 109 142 188 240 295 365 434
#
# _framework density 22.389289999999999
#
# number of rings (size 3 to 8) (size 9 to 14) (size 15 to 20)
#    0.000    0.923    2.308    2.308   16.154    1.846 
#    0.000    0.000    0.000    0.000    0.000    0.000 
#    0.000    0.000    0.000    0.000    0.000    0.000 
#
# Total GULP energy -322228.498098 kJ/mol
# GULP energy per Si atom -12393.403773 kJ/mol
# Density = 2.233833 g / cm^3
# Si number density = 22.389290 Si / 1000 Ang^3
#
#
#
# Elastic Constant Matrix: (Units=GPa)
#
#
# Indices 1 2 3 4 5 6 
#
# 1 90.0339 11.5587 18.0180 0.0000 4.9755 0.0000
# 2 11.5587 84.6685 23.7403 0.0000 3.2998 0.0000
# 3 18.0180 23.7403 107.4521 0.0000 -10.1588 0.0000
# 4 0.0000 0.0000 0.0000 27.1039 0.0000 -4.3757
# 5 4.9755 3.2998 -10.1588 0.0000 32.7944 0.0000
# 6 0.0000 0.0000 0.0000 -4.3757 0.0000 29.9258
#
#
#
# Elastic Compliance Matrix: (Units=1/GPa)
#
#
# Indices 1 2 3 4 5 6 
#
# 1 0.011753 -0.000961 -0.001976 0.000000 -0.002298 0.000000
# 2 -0.000961 0.012824 -0.002864 0.000000 -0.002032 0.000000
# 3 -0.001976 -0.002864 0.010638 0.000000 0.003883 0.000000
# 4 0.000000 0.000000 0.000000 0.037787 0.000000 0.005525
# 5 -0.002298 -0.002032 0.003883 0.000000 0.032249 0.000000
# 6 0.000000 0.000000 0.000000 0.005525 0.000000 0.034224
#
#
# Mechanical properties :
#
#
# Convention : Reuss Voigt Hill
#
# Bulk Modulus (GPa) = 42.34996 43.19870 42.77433
# Shear Modulus (GPa) = 31.45687 33.22063 32.33875
#
# Velocity S-wave (km/s) = 3.75239 3.85616 3.80463
# Velocity P-wave (km/s) = 6.14250 6.25802 6.20053
#
# Compressibility (1/GPa) = 0.02361278
#
# Stress axis : x y z
#
# Youngs Moduli (GPa) = 85.08684 77.97709 94.00484
#
# Poissons Ratio (x) = 0.07493 0.18573
# Poissons Ratio (y) = 0.08176 0.26926
# Poissons Ratio (z) = 0.16811 0.22335
#
# Static dielectric constant tensor:
#      x y z
#    x 4.465930 0.000000 0.006380 
#    y 0.000000 4.031020 0.000000 
#    z 0.006380 0.000000 4.008070 
# 
# 
# High freq. dielectric constant tensor:
#      x y z
#    x 1.887480 0.000000 -0.002250 
#    y 0.000000 1.888570 0.000000 
#    z -0.002250 0.000000 1.888190 
# 
# From -- ./inp_files/122076.got.cif
#   From: 2010.06.25/outbox.cif.g09.slc.cpg/sg15_62_cif.got.tgz:122076.got - 2010.06.28 07:06:18.
