data_PCOD8150881
_publ_section_title
;
Structure prediction by ZEFSAII (Michael W. Deem and Ramdas Pophale) SiO2 
 PCOD8150881
Probable space group: C 2/C
;
_chemical_formula_sum "Si O2"
_cell_formula_units_Z 52
_cell_length_a 13.789199
_cell_length_b 5.780136
_cell_length_c 30.378324
_cell_angle_alpha 90.000000
_cell_angle_beta 63.218713
_cell_angle_gamma 90.000000
_cell_volume 2161.536179
_symmetry_space_group_name_H-M "C 2/C"
_symmetry_group_IT_number 15
_symmetry_cell_setting 'monoclinic'
loop_
_space_group_symop_operation_xyz
x,y,z
-x,y,1/2-z
-x,-y,-z
x,-y,1/2+z
1/2+x,1/2+y,z
1/2-x,1/2+y,1/2-z
1/2-x,1/2-y,-z
1/2+x,1/2-y,1/2+z
loop_
_atom_site_type_symbol
_atom_site_label
_atom_site_fract_x
_atom_site_fract_y
_atom_site_fract_z
Si Si1 0.533938 0.996170 0.443330
Si Si2 0.310954 0.224401 0.733965
Si Si3 0.241794 0.191012 0.896722
Si Si4 0.816677 0.648101 0.445776
Si Si5 0.109332 0.121653 0.368069
Si Si6 0.500000 0.567732 0.250000
Si Si7 0.915313 0.045689 0.855682
O O1 0.647042 0.124145 0.416286
O O2 0.439900 0.111208 0.434243
O O3 0.500000 0.000000 0.500000
O O4 0.551721 0.736786 0.422201
O O5 0.248487 0.479001 0.744494
O O6 0.354741 0.187648 0.675200
O O7 0.409229 0.262365 0.747825
O O8 0.360393 0.293253 0.862443
O O9 0.250529 0.077777 0.943752
O O10 0.215020 0.015955 0.862666
O O11 0.750000 0.750000 0.500000
O O12 0.824308 0.798233 0.398823
O O13 0.022799 0.950353 0.363387
O O14 0.550744 0.396223 0.201875
#
# Coordination Sequence:
#
# PCOD8150881 Si02
#       7
#     8   8   8   8   8   4   8
#     4  12  27  46  73 105 147 190 250 307 376 455
#     4  11  27  48  77 111 153 199 261 315 389 461
#     4  12  25  45  75  99 147 188 240 307 377 446
#     4  12  27  45  73 110 144 193 248 307 378 454
#     4  11  25  45  73 105 144 194 243 312 370 458
#     4  10  26  48  72 108 150 200 250 320 382 464
#     4  11  24  48  71 103 144 189 246 302 376 453
#
# _framework density 24.056964000000001
#
# number of rings (size 3 to 8) (size 9 to 14) (size 15 to 20)
#    0.000    0.615    3.077    3.692    8.615    3.077 
#    0.000    0.000    0.000    0.000    0.000    0.000 
#    0.000    0.000    0.000    0.000    0.000    0.000 
#
# Total GULP energy -322132.816036 kJ/mol
# GULP energy per Si atom -12389.723694 kJ/mol
# Density = 2.400221 g / cm^3
# Si number density = 24.056964 Si / 1000 Ang^3
#
#
#
# Elastic Constant Matrix: (Units=GPa)
#
#
# Indices 1 2 3 4 5 6 
#
# 1 137.3574 28.9491 26.3484 0.0004 12.3800 0.0004
# 2 28.9491 72.6785 35.7038 0.0018 3.9857 -0.0006
# 3 26.3484 35.7038 152.6048 0.0004 16.4331 0.0002
# 4 0.0004 0.0018 0.0004 32.3489 0.0004 -2.4809
# 5 12.3800 3.9857 16.4331 0.0004 35.2946 0.0003
# 6 0.0004 -0.0006 0.0002 -2.4809 0.0003 34.0488
#
#
#
# Elastic Compliance Matrix: (Units=1/GPa)
#
#
# Indices 1 2 3 4 5 6 
#
# 1 0.008193 -0.002897 -0.000487 0.000000 -0.002320 0.000000
# 2 -0.002897 0.016571 -0.003458 -0.000001 0.000755 0.000000
# 3 -0.000487 -0.003458 0.007775 0.000000 -0.003059 0.000000
# 4 0.000000 -0.000001 0.000000 0.031087 0.000000 0.002265
# 5 -0.002320 0.000755 -0.003059 0.000000 0.030486 0.000000
# 6 0.000000 0.000000 0.000000 0.002265 0.000000 0.029535
#
#
# Mechanical properties :
#
#
# Convention : Reuss Voigt Hill
#
# Bulk Modulus (GPa) = 53.03587 60.51592 56.77589
# Shear Modulus (GPa) = 34.81517 38.44774 36.63146
#
# Velocity S-wave (km/s) = 3.80833 4.00208 3.90641
# Velocity P-wave (km/s) = 6.43674 6.82389 6.63314
#
# Compressibility (1/GPa) = 0.01885516
#
# Stress axis : x y z
#
# Youngs Moduli (GPa) = 122.04973 60.34806 128.61097
#
# Poissons Ratio (x) = 0.17483 0.06264
# Poissons Ratio (y) = 0.35359 0.44473
# Poissons Ratio (z) = 0.05944 0.20868
#
# Static dielectric constant tensor:
#      x y z
#    x 4.584450 0.000000 0.121400 
#    y 0.000000 4.219910 0.000000 
#    z 0.121400 0.000000 4.959470 
# 
# 
# High freq. dielectric constant tensor:
#      x y z
#    x 1.981550 0.000000 0.010770 
#    y 0.000000 1.930730 0.000000 
#    z 0.010770 0.000000 1.968260 
# 
# From -- ./inp_files/312298.got.cif
#   From: 2010.06.25/outbox.cif.g09.slc.cpg/sg15_157_cif.got.tgz:312298.got - 2010.06.28 07:06:18.
