data_PCOD8150995
_publ_section_title
;
Structure prediction by ZEFSAII (Michael W. Deem and Ramdas Pophale) SiO2 
 PCOD8150995
Probable space group: C 2/C
;
_chemical_formula_sum "Si O2"
_cell_formula_units_Z 56
_cell_length_a 14.875243
_cell_length_b 22.354647
_cell_length_c 9.599440
_cell_angle_alpha 90.000000
_cell_angle_beta 55.637495
_cell_angle_gamma 90.000000
_cell_volume 2635.032281
_symmetry_space_group_name_H-M "C 2/C"
_symmetry_group_IT_number 15
_symmetry_cell_setting 'monoclinic'
loop_
_space_group_symop_operation_xyz
x,y,z
-x,y,1/2-z
-x,-y,-z
x,-y,1/2+z
1/2+x,1/2+y,z
1/2-x,1/2+y,1/2-z
1/2-x,1/2-y,-z
1/2+x,1/2-y,1/2+z
loop_
_atom_site_type_symbol
_atom_site_label
_atom_site_fract_x
_atom_site_fract_y
_atom_site_fract_z
Si Si1 0.380732 0.285487 0.364854
Si Si2 0.804193 0.144388 0.169686
Si Si3 0.572036 0.158347 0.301933
Si Si4 0.303160 0.353053 0.188204
Si Si5 0.880601 0.205770 0.357530
Si Si6 0.998899 0.939041 0.084653
Si Si7 0.074601 0.664440 0.802345
O O1 0.500000 0.317287 0.250000
O O2 0.335539 0.293949 0.560390
O O3 0.389002 0.217244 0.314853
O O4 0.295563 0.321336 0.344089
O O5 0.680787 0.121795 0.246954
O O6 0.805745 0.162457 0.329744
O O7 0.889383 0.093914 0.053667
O O8 0.500000 0.121746 0.250000
O O9 0.500830 0.176766 0.497780
O O10 0.389995 0.406414 0.122348
O O11 0.180726 0.374938 0.252801
O O12 0.339444 0.300058 0.051168
O O13 0.881858 0.274044 0.305119
O O14 0.000000 0.177549 0.250000
O O15 0.000000 0.949893 0.250000
O O16 0.000000 0.000000 0.000000
O O17 0.000000 0.631385 0.750000
#
# Coordination Sequence:
#
# PCOD8150995 Si02
#       7
#     8   8   8   8   8   8   8
#     4  11  18  35  56  92 126 166 206 247 306 378
#     4  12  21  40  61  88 128 164 208 262 311 369
#     4  11  23  34  58  93 130 172 209 241 299 382
#     4  12  21  40  64  84 129 171 206 264 312 361
#     4  11  20  33  58  93 130 173 210 243 303 369
#     4  12  28  47  71  97 116 155 215 278 333 372
#     4  11  23  37  54  94 136 173 212 240 293 382
#
# _framework density 21.252109999999998
#
# number of rings (size 3 to 8) (size 9 to 14) (size 15 to 20)
#    0.000    0.571    4.286    6.857    2.000    0.000 
#    0.000    0.000    0.000    1.714    0.000    0.000 
#    0.000    0.000    0.000    0.000    0.000    0.000 
#
# Total GULP energy -346983.393295 kJ/mol
# GULP energy per Si atom -12392.264046 kJ/mol
# Density = 2.120374 g / cm^3
# Si number density = 21.252110 Si / 1000 Ang^3
#
#
#
# Elastic Constant Matrix: (Units=GPa)
#
#
# Indices 1 2 3 4 5 6 
#
# 1 211.5136 43.3194 24.9660 0.0000 -13.4706 0.0000
# 2 43.3194 59.2551 35.8727 0.0000 -4.9518 0.0000
# 3 24.9660 35.8727 53.6819 0.0000 6.9644 0.0000
# 4 0.0000 0.0000 0.0000 13.3513 0.0000 -7.0418
# 5 -13.4706 -4.9518 6.9644 0.0000 40.5957 0.0000
# 6 0.0000 0.0000 0.0000 -7.0418 0.0000 -11.7330
#
#
#
# Elastic Compliance Matrix: (Units=1/GPa)
#
#
# Indices 1 2 3 4 5 6 
#
# 1 0.005638 -0.003864 -0.000226 0.000000 0.001438 0.000000
# 2 -0.003864 0.032990 -0.021073 0.000000 0.006357 0.000000
# 3 -0.000226 -0.021073 0.033913 0.000000 -0.008463 0.000000
# 4 0.000000 0.000000 0.000000 0.056891 0.000000 -0.034144
# 5 0.001438 0.006357 -0.008463 0.000000 0.027338 0.000000
# 6 0.000000 0.000000 0.000000 -0.034144 0.000000 -0.064738
#
#
# Mechanical properties :
#
#
# Convention : Reuss Voigt Hill
#
# Bulk Modulus (GPa) = 45.01654 59.19631 52.10642
# Shear Modulus (GPa) = 33.38621 23.12897 28.25759
#
# Velocity S-wave (km/s) = 3.96783 3.30254 3.65037
# Velocity P-wave (km/s) = 6.49767 6.51591 6.50680
#
# Compressibility (1/GPa) = 0.02221406
#
# Stress axis : x y z
#
# Youngs Moduli (GPa) = 177.38192 30.31237 29.48707
#
# Poissons Ratio (x) = 0.11714 0.00667
# Poissons Ratio (y) = 0.68547 0.62137
# Poissons Ratio (z) = 0.04011 0.63877
#
# Static dielectric constant tensor:
#      x y z
#    x 5.110840 0.000000 0.023090 
#    y 0.000000 3.133050 0.000000 
#    z 0.023090 0.000000 3.968640 
# 
# 
# High freq. dielectric constant tensor:
#      x y z
#    x 1.875490 0.000000 0.003680 
#    y 0.000000 1.739260 0.000000 
#    z 0.003680 0.000000 1.854570 
# 
# From -- ./inp_files/42545.got.cif
#   From: 2010.06.25/outbox.cif.g09.slc.cpg/sg15_22_cif.got.tgz:42545.got - 2010.06.28 07:06:18.
