data_PCOD8150242
_publ_section_title
;
Structure prediction by ZEFSAII (Michael W. Deem and Ramdas Pophale) SiO2 
 PCOD8150242
Probable space group: C 2/C
;
_chemical_formula_sum "Si O2"
_cell_formula_units_Z 48
_cell_length_a 14.265800
_cell_length_b 12.495095
_cell_length_c 13.096140
_cell_angle_alpha 90.000000
_cell_angle_beta 114.233158
_cell_angle_gamma 90.000000
_cell_volume 2128.717328
_symmetry_space_group_name_H-M "C 2/C"
_symmetry_group_IT_number 15
_symmetry_cell_setting 'monoclinic'
loop_
_space_group_symop_operation_xyz
x,y,z
-x,y,1/2-z
-x,-y,-z
x,-y,1/2+z
1/2+x,1/2+y,z
1/2-x,1/2+y,1/2-z
1/2-x,1/2-y,-z
1/2+x,1/2-y,1/2+z
loop_
_atom_site_type_symbol
_atom_site_label
_atom_site_fract_x
_atom_site_fract_y
_atom_site_fract_z
Si Si1 0.716556 0.403550 0.704047
Si Si2 0.096137 0.924722 0.046968
Si Si3 0.749004 0.631090 0.456690
Si Si4 0.089253 0.348614 0.848617
Si Si5 0.532901 0.925815 0.372659
Si Si6 0.441937 0.248350 0.967779
O O1 0.675745 0.526369 0.667552
O O2 0.746742 0.382559 0.834115
O O3 0.814298 0.382803 0.676090
O O4 0.625277 0.321986 0.636054
O O5 0.150153 0.928290 0.960200
O O6 0.051981 0.804731 0.046767
O O7 0.000000 0.000000 0.000000
O O8 0.750000 0.750000 0.500000
O O9 0.847667 0.577775 0.548965
O O10 0.016770 0.446805 0.859084
O O11 0.000000 0.281203 0.750000
O O12 0.124410 0.276356 0.960236
O O13 0.500000 0.872122 0.250000
O O14 0.464456 0.866029 0.425926
#
# Coordination Sequence:
#
# PCOD8150242 Si02
#       6
#     8   8   8   8   8   8
#     4  11  25  46  69  99 138 178 228 284 338 409
#     4  10  24  45  67  99 136 176 227 280 338 402
#     4  12  23  45  72 100 134 182 234 277 338 413
#     4  11  24  44  63 100 138 178 226 284 348 403
#     4  11  23  42  68  99 137 178 226 282 338 405
#     4  11  23  43  69  99 135 180 232 277 343 404
#
# _framework density 22.54879
#
# number of rings (size 3 to 8) (size 9 to 14) (size 15 to 20)
#    0.000    1.000    3.333    3.000    0.000    3.333 
#    9.000    0.000    0.000    0.000    0.000    0.000 
#    0.000    0.000    0.000    0.000    0.000    0.000 
#
# Total GULP energy -297321.391678 kJ/mol
# GULP energy per Si atom -12388.391320 kJ/mol
# Density = 2.249747 g / cm^3
# Si number density = 22.548790 Si / 1000 Ang^3
#
#
#
# Elastic Constant Matrix: (Units=GPa)
#
#
# Indices 1 2 3 4 5 6 
#
# 1 133.6104 21.8014 67.7880 0.0000 -10.5234 0.0000
# 2 21.8014 44.3561 44.6016 0.0000 -16.9435 0.0000
# 3 67.7880 44.6016 167.2087 0.0000 -16.8691 0.0000
# 4 0.0000 0.0000 0.0000 34.9588 0.0000 -1.5989
# 5 -10.5234 -16.9435 -16.8691 0.0000 38.4449 0.0000
# 6 0.0000 0.0000 0.0000 -1.5989 0.0000 30.6819
#
#
#
# Elastic Compliance Matrix: (Units=1/GPa)
#
#
# Indices 1 2 3 4 5 6 
#
# 1 0.009475 -0.000829 -0.003553 0.000000 0.000669 0.000000
# 2 -0.000829 0.035478 -0.007923 0.000000 0.011932 0.000000
# 3 -0.003553 -0.007923 0.009505 0.000000 -0.000294 0.000000
# 4 0.000000 0.000000 0.000000 0.028673 0.000000 0.001494
# 5 0.000669 0.011932 -0.000294 0.000000 0.031324 0.000000
# 6 0.000000 0.000000 0.000000 0.001494 0.000000 0.032670
#
#
# Mechanical properties :
#
#
# Convention : Reuss Voigt Hill
#
# Bulk Modulus (GPa) = 33.50430 68.17304 50.83867
# Shear Modulus (GPa) = 27.52028 34.88273 31.20151
#
# Velocity S-wave (km/s) = 3.49732 3.93745 3.72389
# Velocity P-wave (km/s) = 5.58562 7.13936 6.40975
#
# Compressibility (1/GPa) = 0.02984692
#
# Stress axis : x y z
#
# Youngs Moduli (GPa) = 105.54275 28.18679 105.21187
#
# Poissons Ratio (x) = 0.02337 0.37377
# Poissons Ratio (y) = 0.08751 0.83364
# Poissons Ratio (z) = 0.37494 0.22334
#
# Static dielectric constant tensor:
#      x y z
#    x 4.254600 0.000000 -0.010830 
#    y 0.000000 4.007740 0.000000 
#    z -0.010830 0.000000 4.185300 
# 
# 
# High freq. dielectric constant tensor:
#      x y z
#    x 1.899880 0.000000 0.004700 
#    y 0.000000 1.883460 0.000000 
#    z 0.004700 0.000000 1.893130 
# 
# From -- ./inp_files/97169.got.cif
#   From: 2010.06.25/outbox.cif.g09.slc.cpg/sg15_49_cif.got.tgz:97169.got - 2010.06.28 07:06:18.
