data_PCOD8150818
_publ_section_title
;
Structure prediction by ZEFSAII (Michael W. Deem and Ramdas Pophale) SiO2 
 PCOD8150818
Probable space group: C 2/C
;
_chemical_formula_sum "Si O2"
_cell_formula_units_Z 32
_cell_length_a 14.956406
_cell_length_b 9.798515
_cell_length_c 9.862851
_cell_angle_alpha 90.000000
_cell_angle_beta 75.255343
_cell_angle_gamma 90.000000
_cell_volume 1397.808721
_symmetry_space_group_name_H-M "C 2/C"
_symmetry_group_IT_number 15
_symmetry_cell_setting 'monoclinic'
loop_
_space_group_symop_operation_xyz
x,y,z
-x,y,1/2-z
-x,-y,-z
x,-y,1/2+z
1/2+x,1/2+y,z
1/2-x,1/2+y,1/2-z
1/2-x,1/2-y,-z
1/2+x,1/2-y,1/2+z
loop_
_atom_site_type_symbol
_atom_site_label
_atom_site_fract_x
_atom_site_fract_y
_atom_site_fract_z
Si Si1 0.314761 0.634080 0.849953
Si Si2 0.377957 0.883092 0.973902
Si Si3 0.603796 0.446373 0.461748
Si Si4 0.049730 0.328628 0.090989
O O1 0.357214 0.786394 0.851582
O O2 0.358796 0.559365 0.705444
O O3 0.203172 0.637049 0.882782
O O4 0.334444 0.552447 0.980556
O O5 0.385022 0.038914 0.919868
O O6 0.475326 0.842420 0.000292
O O7 0.500000 0.500000 0.500000
O O8 0.613918 0.299107 0.528107
O O9 0.000000 0.296923 0.250000
#
# Coordination Sequence:
#
# PCOD8150818 Si02
#       4
#     8   8   8   8
#     4  11  26  46  70  99 138 179 226 281 337 398
#     4  10  26  45  69  98 138 177 224 285 338 395
#     4  12  25  44  71  99 138 182 225 274 340 405
#     4  11  25  43  71  99 135 178 230 274 341 403
#
# _framework density 22.892975
#
# number of rings (size 3 to 8) (size 9 to 14) (size 15 to 20)
#    0.000    1.000    2.500    2.250   10.500    3.000 
#    0.000    0.000    0.000    0.000    0.000    0.000 
#    0.000    0.000    0.000    0.000    0.000    0.000 
#
# Total GULP energy -198492.585303 kJ/mol
# GULP energy per Si atom -12405.786581 kJ/mol
# Density = 2.284087 g / cm^3
# Si number density = 22.892975 Si / 1000 Ang^3
#
#
#
# Elastic Constant Matrix: (Units=GPa)
#
#
# Indices 1 2 3 4 5 6 
#
# 1 57.6747 33.6272 10.3184 0.0000 -14.7982 0.0000
# 2 33.6272 144.8100 28.1040 0.0000 2.7087 0.0000
# 3 10.3184 28.1040 136.4554 0.0000 -10.0415 0.0000
# 4 0.0000 0.0000 0.0000 38.0024 0.0000 -11.2732
# 5 -14.7982 2.7087 -10.0415 0.0000 25.1960 0.0000
# 6 0.0000 0.0000 0.0000 -11.2732 0.0000 21.3873
#
#
#
# Elastic Compliance Matrix: (Units=1/GPa)
#
#
# Indices 1 2 3 4 5 6 
#
# 1 0.024787 -0.006147 0.000527 0.000000 0.015429 0.000000
# 2 -0.006147 0.008766 -0.001726 0.000000 -0.005241 0.000000
# 3 0.000527 -0.001726 0.007913 0.000000 0.003649 0.000000
# 4 0.000000 0.000000 0.000000 0.031191 0.000000 0.016441
# 5 0.015429 -0.005241 0.003649 0.000000 0.050768 0.000000
# 6 0.000000 0.000000 0.000000 0.016441 0.000000 0.055422
#
#
# Mechanical properties :
#
#
# Convention : Reuss Voigt Hill
#
# Bulk Modulus (GPa) = 37.35040 53.67105 45.51073
# Shear Modulus (GPa) = 24.69577 34.70986 29.70281
#
# Velocity S-wave (km/s) = 3.28799 3.89804 3.60594
# Velocity P-wave (km/s) = 5.54664 6.61474 6.10410
#
# Compressibility (1/GPa) = 0.02677347
#
# Stress axis : x y z
#
# Youngs Moduli (GPa) = 40.34376 114.07657 126.38107
#
# Poissons Ratio (x) = 0.70121 -0.06661
# Poissons Ratio (y) = 0.24799 0.21817
# Poissons Ratio (z) = -0.02126 0.19693
#
# Static dielectric constant tensor:
#      x y z
#    x 4.141170 0.000000 -0.084570 
#    y 0.000000 4.549500 0.000000 
#    z -0.084570 0.000000 3.870500 
# 
# 
# High freq. dielectric constant tensor:
#      x y z
#    x 1.901600 0.000000 -0.009080 
#    y 0.000000 1.925540 0.000000 
#    z -0.009080 0.000000 1.894910 
# 
# From -- ./inp_files/36865.got.cif
#   From: 2010.06.25/outbox.cif.g09.slc.cpg/sg15_19_cif.got.tgz:36865.got - 2010.06.28 07:06:18.
