data_PCOD8150488
_publ_section_title
;
Structure prediction by ZEFSAII (Michael W. Deem and Ramdas Pophale) SiO2 
 PCOD8150488
Probable space group: C 2/C
;
_chemical_formula_sum "Si O2"
_cell_formula_units_Z 40
_cell_length_a 9.048740
_cell_length_b 26.997124
_cell_length_c 15.191127
_cell_angle_alpha 90.000000
_cell_angle_beta 147.530545
_cell_angle_gamma 90.000000
_cell_volume 1992.271356
_symmetry_space_group_name_H-M "C 2/C"
_symmetry_group_IT_number 15
_symmetry_cell_setting 'monoclinic'
loop_
_space_group_symop_operation_xyz
x,y,z
-x,y,1/2-z
-x,-y,-z
x,-y,1/2+z
1/2+x,1/2+y,z
1/2-x,1/2+y,1/2-z
1/2-x,1/2-y,-z
1/2+x,1/2-y,1/2+z
loop_
_atom_site_type_symbol
_atom_site_label
_atom_site_fract_x
_atom_site_fract_y
_atom_site_fract_z
Si Si1 0.999341 0.778824 0.916130
Si Si2 0.316037 0.451833 0.906282
Si Si3 0.493327 0.284857 0.380379
Si Si4 0.822463 0.110069 0.582696
Si Si5 0.677555 0.617877 0.255194
O O1 0.752422 0.740009 0.796631
O O2 0.907111 0.826469 0.813598
O O3 0.250000 0.750000 0.000000
O O4 0.082709 0.794575 0.056042
O O5 0.388080 0.419312 0.857169
O O6 0.000000 0.468674 0.750000
O O7 0.500000 0.500000 0.000000
O O8 0.381568 0.419972 0.024616
O O9 0.549868 0.336243 0.363116
O O10 0.750000 0.250000 0.500000
O O11 0.498930 0.114461 0.442029
O O12 0.000000 0.084151 0.750000
O O13 0.500000 0.601008 0.250000
#
# Coordination Sequence:
#
# PCOD8150488 Si02
#       5
#     8   8   8   8   8
#     4  12  25  41  58  95 135 174 220 266 320 388
#     4  10  24  48  73  97 130 172 221 276 333 387
#     4  12  23  39  64  91 131 176 220 260 317 392
#     4  11  24  43  67  98 131 173 220 268 327 394
#     4  11  24  44  66  95 137 172 215 274 327 387
#
# _framework density 20.077586
#
# number of rings (size 3 to 8) (size 9 to 14) (size 15 to 20)
#    0.000    0.800    4.000    3.600    2.800    2.400 
#    0.000    4.000    0.000    0.000    0.000    0.000 
#    0.000    0.000    0.000    0.000    0.000    0.000 
#
# Total GULP energy -248065.178870 kJ/mol
# GULP energy per Si atom -12403.258943 kJ/mol
# Density = 2.003189 g / cm^3
# Si number density = 20.077586 Si / 1000 Ang^3
#
#
#
# Elastic Constant Matrix: (Units=GPa)
#
#
# Indices 1 2 3 4 5 6 
#
# 1 150.5503 54.1300 57.7909 0.0000 -6.0299 0.0000
# 2 54.1300 123.4218 62.5334 0.0000 13.7242 0.0000
# 3 57.7909 62.5334 123.3815 0.0000 -6.5745 0.0000
# 4 0.0000 0.0000 0.0000 35.9058 0.0000 9.2708
# 5 -6.0299 13.7242 -6.5745 0.0000 39.5526 0.0000
# 6 0.0000 0.0000 0.0000 9.2708 0.0000 25.3343
#
#
#
# Elastic Compliance Matrix: (Units=1/GPa)
#
#
# Indices 1 2 3 4 5 6 
#
# 1 0.008683 -0.002691 -0.002606 0.000000 0.001824 0.000000
# 2 -0.002691 0.012695 -0.005479 0.000000 -0.005726 0.000000
# 3 -0.002606 -0.005479 0.012292 0.000000 0.003547 0.000000
# 4 0.000000 0.000000 0.000000 0.030757 0.000000 -0.011255
# 5 0.001824 -0.005726 0.003547 0.000000 0.028137 0.000000
# 6 0.000000 0.000000 0.000000 -0.011255 0.000000 0.043591
#
#
# Mechanical properties :
#
#
# Convention : Reuss Voigt Hill
#
# Bulk Modulus (GPa) = 82.52162 82.91803 82.71982
# Shear Modulus (GPa) = 30.91261 35.01848 32.96554
#
# Velocity S-wave (km/s) = 3.92810 4.18084 4.05644
# Velocity P-wave (km/s) = 7.85900 8.04328 7.95168
#
# Compressibility (1/GPa) = 0.01211804
#
# Stress axis : x y z
#
# Youngs Moduli (GPa) = 115.16471 78.77042 81.35575
#
# Poissons Ratio (x) = 0.21194 0.21204
# Poissons Ratio (y) = 0.30986 0.44576
# Poissons Ratio (z) = 0.30015 0.43159
#
# Static dielectric constant tensor:
#      x y z
#    x 3.874910 0.000000 -0.279050 
#    y 0.000000 3.575090 0.000000 
#    z -0.279050 0.000000 3.974600 
# 
# 
# High freq. dielectric constant tensor:
#      x y z
#    x 1.801450 0.000000 -0.007510 
#    y 0.000000 1.775670 0.000000 
#    z -0.007510 0.000000 1.797820 
# 
# From -- ./inp_files/25353.got.cif
#   From: 2010.06.25/outbox.cif.g09.slc.cpg/sg15_13_cif.got.tgz:25353.got - 2010.06.28 07:06:18.
