data_PCOD8150406
_publ_section_title
;
Structure prediction by ZEFSAII (Michael W. Deem and Ramdas Pophale) SiO2 
 PCOD8150406
Probable space group: C 2/C
;
_chemical_formula_sum "Si O2"
_cell_formula_units_Z 44
_cell_length_a 11.786771
_cell_length_b 8.375535
_cell_length_c 20.980214
_cell_angle_alpha 90.000000
_cell_angle_beta 118.992233
_cell_angle_gamma 90.000000
_cell_volume 1811.628752
_symmetry_space_group_name_H-M "C 2/C"
_symmetry_group_IT_number 15
_symmetry_cell_setting 'monoclinic'
loop_
_space_group_symop_operation_xyz
x,y,z
-x,y,1/2-z
-x,-y,-z
x,-y,1/2+z
1/2+x,1/2+y,z
1/2-x,1/2+y,1/2-z
1/2-x,1/2-y,-z
1/2+x,1/2-y,1/2+z
loop_
_atom_site_type_symbol
_atom_site_label
_atom_site_fract_x
_atom_site_fract_y
_atom_site_fract_z
Si Si1 0.000000 0.934945 0.250000
Si Si2 0.255737 0.752595 0.309822
Si Si3 0.864262 0.181331 0.121049
Si Si4 0.635007 0.064210 0.770090
Si Si5 0.112904 0.191495 0.513084
Si Si6 0.666098 0.672979 0.032195
O O1 0.117057 0.829989 0.253414
O O2 0.066936 0.035366 0.324985
O O3 0.367917 0.825514 0.294506
O O4 0.247810 0.564555 0.290920
O O5 0.288139 0.768565 0.392606
O O6 0.848562 0.327523 0.164114
O O7 0.711992 0.163626 0.057344
O O8 0.938697 0.210027 0.074355
O O9 0.500000 0.974796 0.750000
O O10 0.986153 0.206573 0.522855
O O11 0.183622 0.018448 0.541491
O O12 0.750000 0.750000 0.000000
#
# Coordination Sequence:
#
# PCOD8150406 Si02
#       6
#     4   8   8   8   8   8
#     4  12  26  46  76 108 152 198 260 312 382 442
#     4  12  27  46  74 111 147 199 251 313 380 454
#     4  11  23  45  77 110 147 202 246 318 377 451
#     4  12  25  47  72 109 152 191 248 310 379 449
#     4  10  24  46  76 106 151 198 250 304 391 451
#     4  11  24  46  71 108 149 194 252 309 376 463
#
# _framework density 24.287538000000001
#
# number of rings (size 3 to 8) (size 9 to 14) (size 15 to 20)
#    0.000    0.727    3.636    3.273    2.545    1.455 
#    3.273    4.545    0.000    0.000    0.000    0.000 
#    0.000    0.000    0.000    0.000    0.000    0.000 
#
# Total GULP energy -272580.737264 kJ/mol
# GULP energy per Si atom -12390.033512 kJ/mol
# Density = 2.423226 g / cm^3
# Si number density = 24.287538 Si / 1000 Ang^3
#
#
#
# Elastic Constant Matrix: (Units=GPa)
#
#
# Indices 1 2 3 4 5 6 
#
# 1 148.7591 50.4064 45.9988 0.0000 -26.4404 0.0000
# 2 50.4064 88.7623 39.8089 0.0000 -5.2760 0.0000
# 3 45.9988 39.8089 135.1070 0.0000 -17.2157 0.0000
# 4 0.0000 0.0000 0.0000 34.7111 0.0000 -0.4258
# 5 -26.4404 -5.2760 -17.2157 0.0000 32.3579 0.0000
# 6 0.0000 0.0000 0.0000 -0.4258 0.0000 41.9988
#
#
#
# Elastic Compliance Matrix: (Units=1/GPa)
#
#
# Indices 1 2 3 4 5 6 
#
# 1 0.009846 -0.004693 -0.001118 0.000000 0.006686 0.000000
# 2 -0.004693 0.015218 -0.003281 0.000000 -0.003099 0.000000
# 3 -0.001118 -0.003281 0.009187 0.000000 0.003440 0.000000
# 4 0.000000 0.000000 0.000000 0.028813 0.000000 0.000292
# 5 0.006686 -0.003099 0.003440 0.000000 0.037692 0.000000
# 6 0.000000 0.000000 0.000000 0.000292 0.000000 0.023813
#
#
# Mechanical properties :
#
#
# Convention : Reuss Voigt Hill
#
# Bulk Modulus (GPa) = 62.23365 71.67296 66.95330
# Shear Modulus (GPa) = 33.75872 37.57451 35.66661
#
# Velocity S-wave (km/s) = 3.73226 3.93755 3.83628
# Velocity P-wave (km/s) = 6.65224 7.08849 6.87383
#
# Compressibility (1/GPa) = 0.01606848
#
# Stress axis : x y z
#
# Youngs Moduli (GPa) = 101.55999 65.70977 108.84781
#
# Poissons Ratio (x) = 0.30837 0.12165
# Poissons Ratio (y) = 0.47661 0.35715
# Poissons Ratio (z) = 0.11351 0.21561
#
# Static dielectric constant tensor:
#      x y z
#    x 5.116640 0.000000 0.442980 
#    y 0.000000 4.283910 0.000000 
#    z 0.442980 0.000000 4.606570 
# 
# 
# High freq. dielectric constant tensor:
#      x y z
#    x 1.978100 0.000000 0.002090 
#    y 0.000000 1.950500 0.000000 
#    z 0.002090 0.000000 1.971220 
# 
# From -- ./inp_files/236219.got.cif
#   From: 2010.06.25/outbox.cif.g09.slc.cpg/sg15_119_cif.got.tgz:236219.got - 2010.06.28 07:06:18.
