data_PCOD8150262
_publ_section_title
;
Structure prediction by ZEFSAII (Michael W. Deem and Ramdas Pophale) SiO2 
 PCOD8150262
Probable space group: C 2/C
;
_chemical_formula_sum "Si O2"
_cell_formula_units_Z 48
_cell_length_a 8.877712
_cell_length_b 19.619474
_cell_length_c 21.065409
_cell_angle_alpha 90.000000
_cell_angle_beta 39.757143
_cell_angle_gamma 90.000000
_cell_volume 2346.510604
_symmetry_space_group_name_H-M "C 2/C"
_symmetry_group_IT_number 15
_symmetry_cell_setting 'monoclinic'
loop_
_space_group_symop_operation_xyz
x,y,z
-x,y,1/2-z
-x,-y,-z
x,-y,1/2+z
1/2+x,1/2+y,z
1/2-x,1/2+y,1/2-z
1/2-x,1/2-y,-z
1/2+x,1/2-y,1/2+z
loop_
_atom_site_type_symbol
_atom_site_label
_atom_site_fract_x
_atom_site_fract_y
_atom_site_fract_z
Si Si1 0.903601 0.702959 0.211859
Si Si2 0.728562 0.337123 0.318393
Si Si3 0.865382 0.517363 0.981143
Si Si4 0.599364 0.583131 0.353826
Si Si5 0.312888 0.612572 0.032857
Si Si6 0.801015 0.041803 0.761945
O O1 0.803418 0.763769 0.202516
O O2 0.682820 0.652901 0.294596
O O3 0.897565 0.667347 0.395926
O O4 0.000000 0.726342 0.250000
O O5 0.554295 0.348373 0.435007
O O6 0.641102 0.389625 0.293600
O O7 0.000000 0.348293 0.250000
O O8 0.736808 0.448676 0.999649
O O9 0.042085 0.550180 0.874151
O O10 0.681483 0.576444 0.059045
O O11 0.000000 0.500000 0.000000
O O12 0.671387 0.578235 0.403634
O O13 0.722649 0.521049 0.278101
O O14 0.000000 0.027313 0.750000
#
# Coordination Sequence:
#
# PCOD8150262 Si02
#       6
#     8   8   8   8   8   8
#     4  10  24  45  69  91 131 179 222 267 328 389
#     4  12  26  42  65  97 134 173 220 271 328 392
#     4  12  23  38  64 101 130 168 215 272 323 382
#     4  11  23  42  68  98 130 171 221 267 329 388
#     4  11  23  43  68  96 130 173 221 270 325 396
#     4  12  24  41  65  98 136 173 217 273 329 388
#
# _framework density 20.455905000000001
#
# number of rings (size 3 to 8) (size 9 to 14) (size 15 to 20)
#    0.000    0.667    5.000    2.500    2.333    2.000 
#    0.000    9.167    0.000    0.000    0.000    0.000 
#    0.000    0.000    0.000    0.000    0.000    0.000 
#
# Total GULP energy -297635.221636 kJ/mol
# GULP energy per Si atom -12401.467568 kJ/mol
# Density = 2.040935 g / cm^3
# Si number density = 20.455905 Si / 1000 Ang^3
#
#
#
# Elastic Constant Matrix: (Units=GPa)
#
#
# Indices 1 2 3 4 5 6 
#
# 1 103.3702 55.7597 38.4556 -0.0058 3.8623 0.0011
# 2 55.7597 91.4891 31.7985 0.0005 12.0316 0.0021
# 3 38.4556 31.7985 145.5713 0.0168 -7.8538 -0.0039
# 4 -0.0058 0.0005 0.0168 30.7605 -0.0074 -0.1951
# 5 3.8623 12.0316 -7.8538 -0.0074 31.8923 0.0000
# 6 0.0011 0.0021 -0.0039 -0.1951 0.0000 35.2356
#
#
#
# Elastic Compliance Matrix: (Units=1/GPa)
#
#
# Indices 1 2 3 4 5 6 
#
# 1 0.015021 -0.008562 -0.002049 0.000004 0.000906 0.000000
# 2 -0.008562 0.017613 -0.001914 -0.000002 -0.006079 -0.000001
# 3 -0.002049 -0.001914 0.007987 -0.000004 0.002937 0.000001
# 4 0.000004 -0.000002 -0.000004 0.032510 0.000007 0.000180
# 5 0.000906 -0.006079 0.002937 0.000007 0.034262 0.000001
# 6 0.000000 -0.000001 0.000001 0.000180 0.000001 0.028381
#
#
# Mechanical properties :
#
#
# Convention : Reuss Voigt Hill
#
# Bulk Modulus (GPa) = 64.21613 65.82870 65.02241
# Shear Modulus (GPa) = 30.11798 33.87214 31.99506
#
# Velocity S-wave (km/s) = 3.84127 4.07364 3.95916
# Velocity P-wave (km/s) = 7.15083 7.37406 7.26330
#
# Compressibility (1/GPa) = 0.01557241
#
# Stress axis : x y z
#
# Youngs Moduli (GPa) = 66.57511 56.77684 125.20030
#
# Poissons Ratio (x) = 0.48610 0.25652
# Poissons Ratio (y) = 0.56999 0.23958
# Poissons Ratio (z) = 0.13641 0.10865
#
# Static dielectric constant tensor:
#      x y z
#    x 3.576540 -0.000090 0.150830 
#    y -0.000090 3.458970 0.000070 
#    z 0.150830 0.000070 3.920040 
# 
# 
# High freq. dielectric constant tensor:
#      x y z
#    x 1.799710 0.000000 0.000820 
#    y 0.000000 1.790160 0.000000 
#    z 0.000820 0.000000 1.829800 
# 
# From -- ./inp_files/233705.got.cif
#   From: 2010.06.25/outbox.cif.g09.slc.cpg/sg15_117_cif.got.tgz:233705.got - 2010.06.28 07:06:18.
