data_PCOD8150319
_publ_section_title
;
Structure prediction by ZEFSAII (Michael W. Deem and Ramdas Pophale) SiO2 
 PCOD8150319
Probable space group: C 2/C
;
_chemical_formula_sum "Si O2"
_cell_formula_units_Z 48
_cell_length_a 15.010949
_cell_length_b 10.937062
_cell_length_c 14.552351
_cell_angle_alpha 90.000000
_cell_angle_beta 72.499533
_cell_angle_gamma 90.000000
_cell_volume 2278.559481
_symmetry_space_group_name_H-M "C 2/C"
_symmetry_group_IT_number 15
_symmetry_cell_setting 'monoclinic'
loop_
_space_group_symop_operation_xyz
x,y,z
-x,y,1/2-z
-x,-y,-z
x,-y,1/2+z
1/2+x,1/2+y,z
1/2-x,1/2+y,1/2-z
1/2-x,1/2-y,-z
1/2+x,1/2-y,1/2+z
loop_
_atom_site_type_symbol
_atom_site_label
_atom_site_fract_x
_atom_site_fract_y
_atom_site_fract_z
Si Si1 0.856057 0.463773 0.663925
Si Si2 0.807149 0.012812 0.645733
Si Si3 0.454642 0.287913 0.167262
Si Si4 0.488032 0.157462 0.860540
Si Si5 0.539796 0.633559 0.467124
Si Si6 0.709809 0.885131 0.010377
O O1 0.783292 0.499088 0.764615
O O2 0.914838 0.348539 0.680922
O O3 0.927420 0.575759 0.625315
O O4 0.797013 0.435129 0.590994
O O5 0.871531 0.118566 0.669333
O O6 0.782818 0.039431 0.547481
O O7 0.861056 0.883555 0.615643
O O8 0.500000 0.322382 0.250000
O O9 0.537474 0.295022 0.065189
O O10 0.500000 0.181104 0.750000
O O11 0.479532 0.287492 0.914445
O O12 0.389751 0.093950 0.910059
O O13 0.500000 0.500000 0.500000
O O14 0.750000 0.750000 0.000000
#
# Coordination Sequence:
#
# PCOD8150319 Si02
#       6
#     8   8   8   8   8   8
#     4  12  26  44  72 107 141 181 238 290 354 417
#     4  11  26  44  69 107 133 185 236 289 350 422
#     4  11  25  46  67  96 144 181 230 291 357 418
#     4  12  25  45  74 104 141 190 233 286 360 420
#     4  10  24  46  65 100 138 182 234 281 357 419
#     4  12  24  47  73  99 144 181 233 297 344 422
#
# _framework density 21.065943000000001
#
# number of rings (size 3 to 8) (size 9 to 14) (size 15 to 20)
#    0.000    0.667    5.000    2.000    7.000    2.667 
#    0.000    1.667    0.000    0.000    0.000    0.000 
#    0.000    0.000    0.000    0.000    0.000    0.000 
#
# Total GULP energy -297506.271798 kJ/mol
# GULP energy per Si atom -12396.094658 kJ/mol
# Density = 2.101800 g / cm^3
# Si number density = 21.065943 Si / 1000 Ang^3
#
#
#
# Elastic Constant Matrix: (Units=GPa)
#
#
# Indices 1 2 3 4 5 6 
#
# 1 94.2245 36.7361 38.0351 0.0000 10.9009 0.0000
# 2 36.7361 92.5936 33.5426 0.0000 5.8208 0.0000
# 3 38.0351 33.5426 114.5867 0.0000 18.9389 0.0000
# 4 0.0000 0.0000 0.0000 30.8333 0.0000 -3.9790
# 5 10.9009 5.8208 18.9389 0.0000 57.9107 0.0000
# 6 0.0000 0.0000 0.0000 -3.9790 0.0000 18.4966
#
#
#
# Elastic Compliance Matrix: (Units=1/GPa)
#
#
# Indices 1 2 3 4 5 6 
#
# 1 0.013641 -0.004216 -0.003108 0.000000 -0.001128 0.000000
# 2 -0.004216 0.013384 -0.002566 0.000000 0.000287 0.000000
# 3 -0.003108 -0.002566 0.010963 0.000000 -0.002742 0.000000
# 4 0.000000 0.000000 0.000000 0.033359 0.000000 0.007176
# 5 -0.001128 0.000287 -0.002742 0.000000 0.018348 0.000000
# 6 0.000000 0.000000 0.000000 0.007176 0.000000 0.055608
#
#
# Mechanical properties :
#
#
# Convention : Reuss Voigt Hill
#
# Bulk Modulus (GPa) = 54.91541 57.55914 56.23728
# Shear Modulus (GPa) = 29.21397 34.32085 31.76741
#
# Velocity S-wave (km/s) = 3.72800 4.04073 3.88751
# Velocity P-wave (km/s) = 6.68248 7.01089 6.84866
#
# Compressibility (1/GPa) = 0.01820983
#
# Stress axis : x y z
#
# Youngs Moduli (GPa) = 73.30622 74.71678 91.21618
#
# Poissons Ratio (x) = 0.31497 0.28347
# Poissons Ratio (y) = 0.30902 0.23407
# Poissons Ratio (z) = 0.22781 0.19173
#
# Static dielectric constant tensor:
#      x y z
#    x 5.773660 0.000000 0.934480 
#    y 0.000000 3.886790 0.000000 
#    z 0.934480 0.000000 4.778240 
# 
# 
# High freq. dielectric constant tensor:
#      x y z
#    x 1.829050 0.000000 -0.004530 
#    y 0.000000 1.825370 0.000000 
#    z -0.004530 0.000000 1.845240 
# 
# From -- ./inp_files/151966.got.cif
#   From: 2010.06.25/outbox.cif.g09.slc.cpg/sg15_76_cif.got.tgz:151966.got - 2010.06.28 07:06:18.
