data_PCOD8150888
_publ_section_title
;
Structure prediction by ZEFSAII (Michael W. Deem and Ramdas Pophale) SiO2 
 PCOD8150888
Probable space group: C 2/C
;
_chemical_formula_sum "Si O2"
_cell_formula_units_Z 28
_cell_length_a 5.067205
_cell_length_b 23.355237
_cell_length_c 10.745881
_cell_angle_alpha 90.000000
_cell_angle_beta 107.052740
_cell_angle_gamma 90.000000
_cell_volume 1215.818297
_symmetry_space_group_name_H-M "C 2/C"
_symmetry_group_IT_number 15
_symmetry_cell_setting 'monoclinic'
loop_
_space_group_symop_operation_xyz
x,y,z
-x,y,1/2-z
-x,-y,-z
x,-y,1/2+z
1/2+x,1/2+y,z
1/2-x,1/2+y,1/2-z
1/2-x,1/2-y,-z
1/2+x,1/2-y,1/2+z
loop_
_atom_site_type_symbol
_atom_site_label
_atom_site_fract_x
_atom_site_fract_y
_atom_site_fract_z
Si Si1 0.129076 0.562735 0.526601
Si Si2 0.009390 0.210584 0.515478
Si Si3 0.000000 0.869533 0.250000
Si Si4 0.049154 0.101888 0.393607
O O1 0.252879 0.587091 0.674058
O O2 0.378145 0.561183 0.462028
O O3 0.000000 0.500000 0.500000
O O4 0.876895 0.605047 0.462461
O O5 0.750000 0.250000 0.500000
O O6 0.250000 0.250000 0.500000
O O7 0.089011 0.172037 0.647921
O O8 0.935227 0.166358 0.394777
O O9 0.000000 0.077844 0.250000
#
# Coordination Sequence:
#
# PCOD8150888 Si02
#       4
#     8   8   4   8
#     4  11  25  47  76 105 143 196 236 305 377 419
#     4  11  25  43  72 104 140 195 233 298 370 417
#     4  10  26  48  74 110 150 182 258 298 352 462
#     4  11  25  46  69 108 145 181 249 298 358 451
#
# _framework density 23.029758999999999
#
# number of rings (size 3 to 8) (size 9 to 14) (size 15 to 20)
#    0.000    1.143    0.000    5.143    6.000    9.143 
#   10.286    0.000    0.000    0.000    0.000    0.000 
#    0.000    0.000    0.000    0.000    0.000    0.000 
#
# Total GULP energy -173469.452182 kJ/mol
# GULP energy per Si atom -12390.675156 kJ/mol
# Density = 2.297734 g / cm^3
# Si number density = 23.029759 Si / 1000 Ang^3
#
#
#
# Elastic Constant Matrix: (Units=GPa)
#
#
# Indices 1 2 3 4 5 6 
#
# 1 137.1824 41.6519 64.8850 0.0000 14.7416 0.0000
# 2 41.6519 154.2656 56.6028 0.0000 6.6552 0.0000
# 3 64.8850 56.6028 152.4566 0.0000 13.5436 0.0000
# 4 0.0000 0.0000 0.0000 38.5197 0.0000 11.9650
# 5 14.7416 6.6552 13.5436 0.0000 43.5638 0.0000
# 6 0.0000 0.0000 0.0000 11.9650 0.0000 47.5146
#
#
#
# Elastic Compliance Matrix: (Units=1/GPa)
#
#
# Indices 1 2 3 4 5 6 
#
# 1 0.009484 -0.001226 -0.003407 0.000000 -0.001963 0.000000
# 2 -0.001226 0.007667 -0.002322 0.000000 -0.000035 0.000000
# 3 -0.003407 -0.002322 0.008985 0.000000 -0.001286 0.000000
# 4 0.000000 0.000000 0.000000 0.028164 0.000000 -0.007092
# 5 -0.001963 -0.000035 -0.001286 0.000000 0.024024 0.000000
# 6 0.000000 0.000000 0.000000 -0.007092 0.000000 0.022832
#
#
# Mechanical properties :
#
#
# Convention : Reuss Voigt Hill
#
# Bulk Modulus (GPa) = 81.78410 85.57597 83.68003
# Shear Modulus (GPa) = 41.96719 44.63728 43.30224
#
# Velocity S-wave (km/s) = 4.27347 4.40733 4.34092
# Velocity P-wave (km/s) = 7.74206 7.94600 7.84469
#
# Compressibility (1/GPa) = 0.01222732
#
# Stress axis : x y z
#
# Youngs Moduli (GPa) = 105.43931 130.43484 111.29221
#
# Poissons Ratio (x) = 0.15991 0.37916
# Poissons Ratio (y) = 0.12927 0.25837
# Poissons Ratio (z) = 0.35922 0.30281
#
# Static dielectric constant tensor:
#      x y z
#    x 4.751160 0.000000 -0.104280 
#    y 0.000000 4.409410 0.000000 
#    z -0.104280 0.000000 4.259850 
# 
# 
# High freq. dielectric constant tensor:
#      x y z
#    x 1.927770 0.000000 -0.004480 
#    y 0.000000 1.926030 0.000000 
#    z -0.004480 0.000000 1.900570 
# 
# From -- ./inp_files/71726.got.cif
#   From: 2010.06.25/outbox.cif.g09.slc.cpg/sg15_36_cif.got.tgz:71726.got - 2010.06.28 07:06:18.
