data_PCOD8150942
_publ_section_title
;
Structure prediction by ZEFSAII (Michael W. Deem and Ramdas Pophale) SiO2 
 PCOD8150942
Probable space group: C 2/C
;
_chemical_formula_sum "Si O2"
_cell_formula_units_Z 64
_cell_length_a 9.325526
_cell_length_b 21.008777
_cell_length_c 19.112871
_cell_angle_alpha 90.000000
_cell_angle_beta 62.512918
_cell_angle_gamma 90.000000
_cell_volume 3321.849247
_symmetry_space_group_name_H-M "C 2/C"
_symmetry_group_IT_number 15
_symmetry_cell_setting 'monoclinic'
loop_
_space_group_symop_operation_xyz
x,y,z
-x,y,1/2-z
-x,-y,-z
x,-y,1/2+z
1/2+x,1/2+y,z
1/2-x,1/2+y,1/2-z
1/2-x,1/2-y,-z
1/2+x,1/2-y,1/2+z
loop_
_atom_site_type_symbol
_atom_site_label
_atom_site_fract_x
_atom_site_fract_y
_atom_site_fract_z
Si Si1 0.017436 0.370994 0.165837
Si Si2 0.819647 0.208446 0.547972
Si Si3 0.348988 0.573024 0.335403
Si Si4 0.899135 0.596888 0.343475
Si Si5 0.963274 0.133245 0.092888
Si Si6 0.122546 0.692025 0.351450
Si Si7 0.456463 0.994282 0.091081
Si Si8 0.616880 0.253892 0.790458
O O1 0.185970 0.333152 0.118353
O O2 0.000000 0.397411 0.250000
O O3 0.991842 0.424497 0.113243
O O4 0.880403 0.317992 0.180613
O O5 0.750000 0.250000 0.500000
O O6 0.903643 0.260027 0.579157
O O7 0.956885 0.156621 0.497162
O O8 0.500000 0.564636 0.250000
O O9 0.418039 0.581660 0.398047
O O10 0.244267 0.634479 0.340264
O O11 0.233262 0.511400 0.356913
O O12 0.708750 0.599321 0.374213
O O13 0.000000 0.583392 0.250000
O O14 0.950796 0.664032 0.366361
O O15 0.929000 0.540907 0.391345
O O16 0.958100 0.197108 0.138965
O O17 0.199071 0.728875 0.268485
O O18 0.500000 0.000000 0.000000
O O19 0.500000 0.255551 0.750000
#
# Coordination Sequence:
#
# PCOD8150942 Si02
#       8
#     8   8   8   8   8   8   8   8
#     4  11  22  39  62  93 127 166 208 258 318 390
#     4  12  21  33  64  97 126 160 204 254 314 384
#     4  11  19  37  68  89 114 159 226 258 296 370
#     4  11  24  40  66  91 128 163 213 259 313 374
#     4  12  20  35  62  98 120 154 207 268 312 360
#     4  11  19  36  61  97 123 157 204 253 311 374
#     4  11  26  44  63  88 124 172 216 266 312 368
#     4  11  16  33  63  92 119 153 201 256 305 381
#
# _framework density 19.266378
#
# number of rings (size 3 to 8) (size 9 to 14) (size 15 to 20)
#    0.000    0.750    8.750    1.875    1.750    0.500 
#    0.000    3.750    2.750    0.000    0.000    0.000 
#    0.000    0.000    0.000    0.000    0.000    0.000 
#
# Total GULP energy -396663.063447 kJ/mol
# GULP energy per Si atom -12395.720733 kJ/mol
# Density = 1.922253 g / cm^3
# Si number density = 19.266378 Si / 1000 Ang^3
#
#
#
# Elastic Constant Matrix: (Units=GPa)
#
#
# Indices 1 2 3 4 5 6 
#
# 1 78.6180 40.1465 26.5390 0.0000 0.6179 0.0000
# 2 40.1465 97.0841 25.5693 0.0000 11.3357 0.0000
# 3 26.5390 25.5693 99.1261 0.0000 5.9121 0.0000
# 4 0.0000 0.0000 0.0000 25.2456 0.0000 9.4249
# 5 0.6179 11.3357 5.9121 0.0000 30.1807 0.0000
# 6 0.0000 0.0000 0.0000 9.4249 0.0000 29.6112
#
#
#
# Elastic Compliance Matrix: (Units=1/GPa)
#
#
# Indices 1 2 3 4 5 6 
#
# 1 0.017085 -0.006582 -0.003038 0.000000 0.002718 0.000000
# 2 -0.006582 0.013996 -0.001561 0.000000 -0.004816 0.000000
# 3 -0.003038 -0.001561 0.011399 0.000000 -0.001585 0.000000
# 4 0.000000 0.000000 0.000000 0.044952 0.000000 -0.014308
# 5 0.002718 -0.004816 -0.001585 0.000000 0.035197 0.000000
# 6 0.000000 0.000000 0.000000 -0.014308 0.000000 0.038325
#
#
# Mechanical properties :
#
#
# Convention : Reuss Voigt Hill
#
# Bulk Modulus (GPa) = 49.70920 51.03754 50.37337
# Shear Modulus (GPa) = 26.31263 29.17906 27.74585
#
# Velocity S-wave (km/s) = 3.69958 3.89589 3.79900
# Velocity P-wave (km/s) = 6.64125 6.83997 6.74135
#
# Compressibility (1/GPa) = 0.02011700
#
# Stress axis : x y z
#
# Youngs Moduli (GPa) = 58.52990 71.45091 87.72927
#
# Poissons Ratio (x) = 0.47031 0.26656
# Poissons Ratio (y) = 0.38526 0.13691
# Poissons Ratio (z) = 0.17784 0.11151
#
# Static dielectric constant tensor:
#      x y z
#    x 3.513650 0.000000 0.010960 
#    y 0.000000 3.768960 0.000000 
#    z 0.010960 0.000000 3.875700 
# 
# 
# High freq. dielectric constant tensor:
#      x y z
#    x 1.730200 0.000000 -0.001780 
#    y 0.000000 1.742680 0.000000 
#    z -0.001780 0.000000 1.760840 
# 
# From -- ./inp_files/233835.got.cif
#   From: 2010.06.25/outbox.cif.g09.slc.cpg/sg15_117_cif.got.tgz:233835.got - 2010.06.28 07:06:18.
