data_PCOD8150357
_publ_section_title
;
Structure prediction by ZEFSAII (Michael W. Deem and Ramdas Pophale) SiO2 
 PCOD8150357
Probable space group: C 2/C
;
_chemical_formula_sum "Si O2"
_cell_formula_units_Z 44
_cell_length_a 16.416035
_cell_length_b 21.799986
_cell_length_c 8.338000
_cell_angle_alpha 90.000000
_cell_angle_beta 46.090910
_cell_angle_gamma 90.000000
_cell_volume 2149.734627
_symmetry_space_group_name_H-M "C 2/C"
_symmetry_group_IT_number 15
_symmetry_cell_setting 'monoclinic'
loop_
_space_group_symop_operation_xyz
x,y,z
-x,y,1/2-z
-x,-y,-z
x,-y,1/2+z
1/2+x,1/2+y,z
1/2-x,1/2+y,1/2-z
1/2-x,1/2-y,-z
1/2+x,1/2-y,1/2+z
loop_
_atom_site_type_symbol
_atom_site_label
_atom_site_fract_x
_atom_site_fract_y
_atom_site_fract_z
Si Si1 0.735415 0.539352 0.226991
Si Si2 0.431876 0.050111 0.496968
Si Si3 0.891081 0.949296 0.290948
Si Si4 0.500000 0.237229 0.750000
Si Si5 0.091340 0.147705 0.008581
Si Si6 0.824347 0.359623 0.372214
O O1 0.812488 0.478702 0.111234
O O2 0.623381 0.513195 0.288882
O O3 0.712538 0.558198 0.441518
O O4 0.793297 0.596668 0.063071
O O5 0.414129 0.108364 0.633239
O O6 0.500000 0.000000 0.500000
O O7 0.500000 0.073045 0.250000
O O8 0.895977 0.888936 0.173658
O O9 0.000000 0.955085 0.250000
O O10 0.541226 0.283141 0.548775
O O11 0.609850 0.199331 0.652723
O O12 0.211341 0.156895 0.931805
O O13 0.000000 0.112933 0.250000
#
# Coordination Sequence:
#
# PCOD8150357 Si02
#       6
#     8   8   8   4   8   8
#     4  12  23  38  66 104 137 172 213 271 350 412
#     4  12  22  38  63 100 140 168 209 264 343 413
#     4  12  23  41  65 105 144 175 215 273 344 416
#     4  10  26  46  74  90 128 194 236 280 334 390
#     4  10  24  46  70  96 130 186 236 277 332 399
#     4  12  22  45  71  99 137 175 229 285 340 405
#
# _framework density 20.467642999999999
#
# number of rings (size 3 to 8) (size 9 to 14) (size 15 to 20)
#    0.545    0.000    5.455    3.273    0.000    1.455 
#    0.000    1.818    0.000    0.000    0.000    0.000 
#    0.000    0.000    0.000    0.000    0.000    0.000 
#
# Total GULP energy -272707.109010 kJ/mol
# GULP energy per Si atom -12395.777682 kJ/mol
# Density = 2.042106 g / cm^3
# Si number density = 20.467643 Si / 1000 Ang^3
#
#
#
# Elastic Constant Matrix: (Units=GPa)
#
#
# Indices 1 2 3 4 5 6 
#
# 1 105.5490 40.4952 46.6064 0.0000 0.7968 0.0000
# 2 40.4952 129.2315 69.3855 0.0000 14.4958 0.0000
# 3 46.6064 69.3855 147.4181 0.0000 22.9884 0.0000
# 4 0.0000 0.0000 0.0000 96.5641 0.0000 -30.1717
# 5 0.7968 14.4958 22.9884 0.0000 36.3646 0.0000
# 6 0.0000 0.0000 0.0000 -30.1717 0.0000 31.9640
#
#
#
# Elastic Compliance Matrix: (Units=1/GPa)
#
#
# Indices 1 2 3 4 5 6 
#
# 1 0.011673 -0.002341 -0.002989 0.000000 0.002567 0.000000
# 2 -0.002341 0.010869 -0.004113 0.000000 -0.001681 0.000000
# 3 -0.002989 -0.004113 0.010426 0.000000 -0.004886 0.000000
# 4 0.000000 0.000000 0.000000 0.014688 0.000000 0.013864
# 5 0.002567 -0.001681 -0.004886 0.000000 0.031202 0.000000
# 6 0.000000 0.000000 0.000000 0.013864 0.000000 0.044372
#
#
# Mechanical properties :
#
#
# Convention : Reuss Voigt Hill
#
# Bulk Modulus (GPa) = 71.01503 77.24143 74.12823
# Shear Modulus (GPa) = 34.05783 48.02597 41.04190
#
# Velocity S-wave (km/s) = 4.08362 4.84926 4.48281
# Velocity P-wave (km/s) = 7.55024 8.31709 7.94293
#
# Compressibility (1/GPa) = 0.01408153
#
# Stress axis : x y z
#
# Youngs Moduli (GPa) = 85.66949 92.00795 95.91126
#
# Poissons Ratio (x) = 0.21538 0.28666
# Poissons Ratio (y) = 0.20054 0.39452
# Poissons Ratio (z) = 0.25605 0.37846
#
# Static dielectric constant tensor:
#      x y z
#    x 3.938840 0.000000 -0.170350 
#    y 0.000000 3.870160 0.000000 
#    z -0.170350 0.000000 4.215930 
# 
# 
# High freq. dielectric constant tensor:
#      x y z
#    x 1.812780 0.000000 -0.015120 
#    y 0.000000 1.780410 0.000000 
#    z -0.015120 0.000000 1.812490 
# 
# From -- ./inp_files/51429.got.cif
#   From: 2010.06.25/outbox.cif.g09.slc.cpg/sg15_26_cif.got.tgz:51429.got - 2010.06.28 07:06:18.
