data_PCOD8150244
_publ_section_title
;
Structure prediction by ZEFSAII (Michael W. Deem and Ramdas Pophale) SiO2 
 PCOD8150244
Probable space group: C 2/C
;
_chemical_formula_sum "Si O2"
_cell_formula_units_Z 40
_cell_length_a 6.806073
_cell_length_b 20.328887
_cell_length_c 12.780780
_cell_angle_alpha 90.000000
_cell_angle_beta 93.688162
_cell_angle_gamma 90.000000
_cell_volume 1764.684930
_symmetry_space_group_name_H-M "C 2/C"
_symmetry_group_IT_number 15
_symmetry_cell_setting 'monoclinic'
loop_
_space_group_symop_operation_xyz
x,y,z
-x,y,1/2-z
-x,-y,-z
x,-y,1/2+z
1/2+x,1/2+y,z
1/2-x,1/2+y,1/2-z
1/2-x,1/2-y,-z
1/2+x,1/2-y,1/2+z
loop_
_atom_site_type_symbol
_atom_site_label
_atom_site_fract_x
_atom_site_fract_y
_atom_site_fract_z
Si Si1 0.076976 0.787933 0.550272
Si Si2 0.896944 0.165580 0.842026
Si Si3 0.000000 0.701928 0.750000
Si Si4 0.824006 0.065156 0.395161
Si Si5 0.647129 0.466507 0.373978
Si Si6 0.500000 0.993237 0.750000
O O1 0.250000 0.750000 0.500000
O O2 0.143945 0.857824 0.594728
O O3 0.907029 0.797393 0.454647
O O4 0.014144 0.747299 0.648446
O O5 0.677289 0.154229 0.790089
O O6 0.000000 0.206931 0.750000
O O7 0.005802 0.095793 0.852122
O O8 0.783525 0.030716 0.504631
O O9 0.621629 0.055391 0.327585
O O10 0.013310 0.030992 0.345923
O O11 0.842668 0.462830 0.309304
#
# Coordination Sequence:
#
# PCOD8150244 Si02
#       6
#     8   8   4   8   8   4
#     4  11  25  49  70 105 146 187 241 292 350 425
#     4  11  23  45  71 102 142 187 238 297 345 428
#     4  12  26  45  78  98 144 201 236 292 360 414
#     4  10  24  45  68 101 143 181 228 294 348 426
#     4  10  24  45  68 104 142 178 233 292 358 418
#     4  12  22  41  74 108 136 181 228 286 370 424
#
# _framework density 22.666936
#
# number of rings (size 3 to 8) (size 9 to 14) (size 15 to 20)
#    0.000    1.200    2.000    3.000    2.800    4.800 
#   10.800    0.000    0.000    0.000    0.000    0.000 
#    0.000    0.000    0.000    0.000    0.000    0.000 
#
# Total GULP energy -247801.739732 kJ/mol
# GULP energy per Si atom -12390.086987 kJ/mol
# Density = 2.261535 g / cm^3
# Si number density = 22.666936 Si / 1000 Ang^3
#
#
#
# Elastic Constant Matrix: (Units=GPa)
#
#
# Indices 1 2 3 4 5 6 
#
# 1 168.3551 47.9748 75.3812 0.0000 13.0901 0.0000
# 2 47.9748 85.7584 28.6675 0.0000 -0.5269 0.0000
# 3 75.3812 28.6675 170.4089 0.0000 15.8404 0.0000
# 4 0.0000 0.0000 0.0000 -10.1858 0.0000 4.1546
# 5 13.0901 -0.5269 15.8404 0.0000 60.4165 0.0000
# 6 0.0000 0.0000 0.0000 4.1546 0.0000 21.9968
#
#
#
# Elastic Compliance Matrix: (Units=1/GPa)
#
#
# Indices 1 2 3 4 5 6 
#
# 1 0.008427 -0.003717 -0.003003 0.000000 -0.001071 0.000000
# 2 -0.003717 0.014021 -0.000821 0.000000 0.001143 0.000000
# 3 -0.003003 -0.000821 0.007457 0.000000 -0.001312 0.000000
# 4 0.000000 0.000000 0.000000 -0.091153 0.000000 0.017216
# 5 -0.001071 0.001143 -0.001312 0.000000 0.017138 0.000000
# 6 0.000000 0.000000 0.000000 0.017216 0.000000 0.042210
#
#
# Mechanical properties :
#
#
# Convention : Reuss Voigt Hill
#
# Bulk Modulus (GPa) = 67.45970 80.95214 74.20592
# Shear Modulus (GPa) = 275.92747 32.61208 154.26977
#
# Velocity S-wave (km/s) = 11.04516 3.79720 8.25876
# Velocity P-wave (km/s) = 13.87395 7.41730 11.12436
#
# Compressibility (1/GPa) = 0.01482366
#
# Stress axis : x y z
#
# Youngs Moduli (GPa) = 118.66953 71.31971 134.11047
#
# Poissons Ratio (x) = 0.26509 0.40271
# Poissons Ratio (y) = 0.44108 0.11008
# Poissons Ratio (z) = 0.35634 0.05854
#
# Static dielectric constant tensor:
#      x y z
#    x 4.146310 0.000000 -0.061710 
#    y 0.000000 3.893780 0.000000 
#    z -0.061710 0.000000 5.312580 
# 
# 
# High freq. dielectric constant tensor:
#      x y z
#    x 1.890280 0.000000 0.006550 
#    y 0.000000 1.878790 0.000000 
#    z 0.006550 0.000000 1.935700 
# 
# From -- ./inp_files/129186.got.cif
#   From: 2010.06.25/outbox.cif.g09.slc.cpg/sg15_65_cif.got.tgz:129186.got - 2010.06.28 07:06:18.
