data_PCOD8150557
_publ_section_title
;
Structure prediction by ZEFSAII (Michael W. Deem and Ramdas Pophale) SiO2 
 PCOD8150557
Probable space group: C 2/C
;
_chemical_formula_sum "Si O2"
_cell_formula_units_Z 52
_cell_length_a 9.155998
_cell_length_b 26.964198
_cell_length_c 10.473227
_cell_angle_alpha 90.000000
_cell_angle_beta 60.470513
_cell_angle_gamma 90.000000
_cell_volume 2249.800240
_symmetry_space_group_name_H-M "C 2/C"
_symmetry_group_IT_number 15
_symmetry_cell_setting 'monoclinic'
loop_
_space_group_symop_operation_xyz
x,y,z
-x,y,1/2-z
-x,-y,-z
x,-y,1/2+z
1/2+x,1/2+y,z
1/2-x,1/2+y,1/2-z
1/2-x,1/2-y,-z
1/2+x,1/2-y,1/2+z
loop_
_atom_site_type_symbol
_atom_site_label
_atom_site_fract_x
_atom_site_fract_y
_atom_site_fract_z
Si Si1 0.806608 0.780894 0.850692
Si Si2 0.788719 0.609673 0.172777
Si Si3 0.686357 0.540932 0.005845
Si Si4 0.623708 0.573261 0.495480
Si Si5 0.192746 0.226337 0.656858
Si Si6 0.850081 0.375686 0.083737
Si Si7 0.000000 0.573433 0.750000
O O1 0.775345 0.840038 0.869531
O O2 0.709257 0.764309 0.766089
O O3 0.000000 0.769519 0.750000
O O4 0.750000 0.750000 0.000000
O O5 0.743029 0.599993 0.339268
O O6 0.692773 0.563959 0.144832
O O7 0.990767 0.609689 0.073240
O O8 0.635658 0.484345 0.024830
O O9 0.878268 0.538434 0.880285
O O10 0.568826 0.577142 0.969058
O O11 0.676411 0.601496 0.601930
O O12 0.250000 0.250000 0.500000
O O13 0.324729 0.182256 0.613617
O O14 0.000000 0.208111 0.750000
O O15 0.881731 0.393647 0.212531
#
# Coordination Sequence:
#
# PCOD8150557 Si02
#       7
#     8   8   8   8   8   8   4
#     4  12  26  45  75 101 141 191 238 294 363 432
#     4  11  24  46  69 102 141 181 238 291 358 430
#     4  10  25  42  68 101 136 182 235 284 352 425
#     4  11  24  43  71 101 139 185 234 296 358 422
#     4  12  27  47  72 108 145 186 244 304 367 436
#     4  11  26  43  71 100 139 183 231 292 356 422
#     4  10  26  42  66  94 144 174 238 280 346 426
#
# _framework density 23.113164000000001
#
# number of rings (size 3 to 8) (size 9 to 14) (size 15 to 20)
#    0.000    0.923    0.000    5.538   11.846    1.231 
#    0.000    0.000    0.000    0.000    0.000    0.000 
#    0.000    0.000    0.000    0.000    0.000    0.000 
#
# Total GULP energy -322177.053189 kJ/mol
# GULP energy per Si atom -12391.425123 kJ/mol
# Density = 2.306056 g / cm^3
# Si number density = 23.113164 Si / 1000 Ang^3
#
#
#
# Elastic Constant Matrix: (Units=GPa)
#
#
# Indices 1 2 3 4 5 6 
#
# 1 100.4994 14.9750 26.0779 0.0000 8.3969 0.0000
# 2 14.9750 90.6422 22.1095 0.0000 5.1380 0.0000
# 3 26.0779 22.1095 85.5860 0.0000 11.3212 0.0000
# 4 0.0000 0.0000 0.0000 13.5667 0.0000 -14.8633
# 5 8.3969 5.1380 11.3212 0.0000 44.4694 0.0000
# 6 0.0000 0.0000 0.0000 -14.8633 0.0000 24.2697
#
#
#
# Elastic Compliance Matrix: (Units=1/GPa)
#
#
# Indices 1 2 3 4 5 6 
#
# 1 0.010961 -0.001032 -0.002913 0.000000 -0.001209 0.000000
# 2 -0.001032 0.011887 -0.002691 0.000000 -0.000493 0.000000
# 3 -0.002913 -0.002691 0.013612 0.000000 -0.002604 0.000000
# 4 0.000000 0.000000 0.000000 0.224007 0.000000 0.137186
# 5 -0.001209 -0.000493 -0.002604 0.000000 0.023436 0.000000
# 6 0.000000 0.000000 0.000000 0.137186 0.000000 0.125219
#
#
# Mechanical properties :
#
#
# Convention : Reuss Voigt Hill
#
# Bulk Modulus (GPa) = 43.12720 44.78361 43.95541
# Shear Modulus (GPa) = 11.62458 30.69885 21.16171
#
# Velocity S-wave (km/s) = 2.24507 3.64840 3.02912
# Velocity P-wave (km/s) = 5.04184 6.09636 5.59400
#
# Compressibility (1/GPa) = 0.02318722
#
# Stress axis : x y z
#
# Youngs Moduli (GPa) = 91.23244 84.12374 73.46698
#
# Poissons Ratio (x) = 0.08679 0.21404
# Poissons Ratio (y) = 0.09413 0.19771
# Poissons Ratio (z) = 0.26579 0.22639
#
# Static dielectric constant tensor:
#      x y z
#    x 4.493270 0.000000 -0.133150 
#    y 0.000000 2.538630 0.000000 
#    z -0.133150 0.000000 3.909970 
# 
# 
# High freq. dielectric constant tensor:
#      x y z
#    x 1.937670 0.000000 -0.002410 
#    y 0.000000 1.911240 0.000000 
#    z -0.002410 0.000000 1.915370 
# 
# From -- ./inp_files/81185.got.cif
#   From: 2010.06.25/outbox.cif.g09.slc.cpg/sg15_41_cif.got.tgz:81185.got - 2010.06.28 07:06:18.
