data_PCOD8150580
_publ_section_title
;
Structure prediction by ZEFSAII (Michael W. Deem and Ramdas Pophale) SiO2 
 PCOD8150580
Probable space group: C 2/C
;
_chemical_formula_sum "Si O2"
_cell_formula_units_Z 56
_cell_length_a 20.629341
_cell_length_b 16.820392
_cell_length_c 14.066057
_cell_angle_alpha 90.000000
_cell_angle_beta 147.297343
_cell_angle_gamma 90.000000
_cell_volume 2637.012595
_symmetry_space_group_name_H-M "C 2/C"
_symmetry_group_IT_number 15
_symmetry_cell_setting 'monoclinic'
loop_
_space_group_symop_operation_xyz
x,y,z
-x,y,1/2-z
-x,-y,-z
x,-y,1/2+z
1/2+x,1/2+y,z
1/2-x,1/2+y,1/2-z
1/2-x,1/2-y,-z
1/2+x,1/2-y,1/2+z
loop_
_atom_site_type_symbol
_atom_site_label
_atom_site_fract_x
_atom_site_fract_y
_atom_site_fract_z
Si Si1 0.080327 0.339045 0.584407
Si Si2 0.618669 0.435495 0.351299
Si Si3 0.205996 0.515035 0.283441
Si Si4 0.870837 0.967386 0.811995
Si Si5 0.347846 0.848248 0.185860
Si Si6 0.896005 0.758408 0.198094
Si Si7 0.750271 0.314383 0.869484
O O1 0.084623 0.433316 0.617732
O O2 0.064668 0.285484 0.657611
O O3 0.199058 0.314740 0.674437
O O4 0.979143 0.324680 0.381344
O O5 0.500000 0.475694 0.250000
O O6 0.717459 0.426118 0.554738
O O7 0.672291 0.492225 0.337950
O O8 0.582249 0.351551 0.260587
O O9 0.274285 0.503126 0.269057
O O10 0.188660 0.430469 0.310257
O O11 0.867279 0.871892 0.786704
O O12 0.000000 0.000000 0.000000
O O13 0.266029 0.776815 0.123103
O O14 0.336420 0.853563 0.057321
O O15 0.000000 0.729241 0.250000
O O16 0.750000 0.750000 0.000000
#
# Coordination Sequence:
#
# PCOD8150580 Si02
#       7
#     8   8   8   8   8   8   8
#     4  11  25  44  67  93 136 172 227 279 342 413
#     4  11  22  41  64  97 136 167 224 293 341 408
#     4  11  23  42  64  97 129 173 228 268 342 411
#     4  11  23  38  66  96 126 172 214 279 342 401
#     4  11  24  44  66  93 129 178 218 279 339 410
#     4  11  26  43  70 104 140 181 228 288 356 410
#     4  10  25  43  66  97 133 166 226 280 342 405
#
# _framework density 21.236152000000001
#
# number of rings (size 3 to 8) (size 9 to 14) (size 15 to 20)
#    0.000    1.143    4.286    0.857    6.000    0.000 
#    0.000    2.857    0.000    0.000    0.000    0.000 
#    0.000    0.000    0.000    0.000    0.000    0.000 
#
# Total GULP energy -346895.490275 kJ/mol
# GULP energy per Si atom -12389.124653 kJ/mol
# Density = 2.118782 g / cm^3
# Si number density = 21.236152 Si / 1000 Ang^3
#
#
#
# Elastic Constant Matrix: (Units=GPa)
#
#
# Indices 1 2 3 4 5 6 
#
# 1 136.0401 53.8697 23.8704 0.0000 -15.5636 0.0000
# 2 53.8697 116.6510 12.3626 0.0000 -11.1644 0.0000
# 3 23.8704 12.3626 91.0140 0.0000 -5.4208 0.0000
# 4 0.0000 0.0000 0.0000 32.9897 0.0000 -4.7742
# 5 -15.5636 -11.1644 -5.4208 0.0000 28.0332 0.0000
# 6 0.0000 0.0000 0.0000 -4.7742 0.0000 29.3117
#
#
#
# Elastic Compliance Matrix: (Units=1/GPa)
#
#
# Indices 1 2 3 4 5 6 
#
# 1 0.009608 -0.003920 -0.001783 0.000000 0.003428 0.000000
# 2 -0.003920 0.010604 -0.000294 0.000000 0.001990 0.000000
# 3 -0.001783 -0.000294 0.011562 0.000000 0.001129 0.000000
# 4 0.000000 0.000000 0.000000 0.031044 0.000000 0.005056
# 5 0.003428 0.001990 0.001129 0.000000 0.038586 0.000000
# 6 0.000000 0.000000 0.000000 0.005056 0.000000 0.034940
#
#
# Mechanical properties :
#
#
# Convention : Reuss Voigt Hill
#
# Bulk Modulus (GPa) = 50.55447 58.21228 54.38337
# Shear Modulus (GPa) = 32.27212 34.97374 33.62293
#
# Velocity S-wave (km/s) = 3.90253 4.06260 3.98337
# Velocity P-wave (km/s) = 6.64559 7.03404 6.84257
#
# Compressibility (1/GPa) = 0.01978065
#
# Stress axis : x y z
#
# Youngs Moduli (GPa) = 104.07851 94.30022 86.48900
#
# Poissons Ratio (x) = 0.36965 0.15424
# Poissons Ratio (y) = 0.40798 0.02541
# Poissons Ratio (z) = 0.18560 0.02770
#
# Static dielectric constant tensor:
#      x y z
#    x 3.970870 0.000000 -0.137190 
#    y 0.000000 3.902890 0.000000 
#    z -0.137190 0.000000 4.033360 
# 
# 
# High freq. dielectric constant tensor:
#      x y z
#    x 1.837340 0.000000 -0.017070 
#    y 0.000000 1.836750 0.000000 
#    z -0.017070 0.000000 1.836320 
# 
# From -- ./inp_files/169176.got.cif
#   From: 2010.06.25/outbox.cif.g09.slc.cpg/sg15_85_cif.got.tgz:169176.got - 2010.06.28 07:06:18.
