data_PCOD8150732
_publ_section_title
;
Structure prediction by ZEFSAII (Michael W. Deem and Ramdas Pophale) SiO2 
 PCOD8150732
Probable space group: C 2/C
;
_chemical_formula_sum "Si O2"
_cell_formula_units_Z 64
_cell_length_a 8.510495
_cell_length_b 28.005678
_cell_length_c 14.910306
_cell_angle_alpha 90.000000
_cell_angle_beta 51.113522
_cell_angle_gamma 90.000000
_cell_volume 2766.211978
_symmetry_space_group_name_H-M "C 2/C"
_symmetry_group_IT_number 15
_symmetry_cell_setting 'monoclinic'
loop_
_space_group_symop_operation_xyz
x,y,z
-x,y,1/2-z
-x,-y,-z
x,-y,1/2+z
1/2+x,1/2+y,z
1/2-x,1/2+y,1/2-z
1/2-x,1/2-y,-z
1/2+x,1/2-y,1/2+z
loop_
_atom_site_type_symbol
_atom_site_label
_atom_site_fract_x
_atom_site_fract_y
_atom_site_fract_z
Si Si1 0.402995 0.184441 0.610413
Si Si2 0.188615 0.946522 0.629479
Si Si3 0.050859 0.967810 0.066431
Si Si4 0.538898 0.926528 0.636338
Si Si5 0.226703 0.610507 0.699196
Si Si6 0.927796 0.682010 0.402635
Si Si7 0.188296 0.211158 0.318684
Si Si8 0.673722 0.644229 0.021506
O O1 0.283998 0.143533 0.708234
O O2 0.319860 0.185375 0.538185
O O3 0.393947 0.235367 0.661775
O O4 0.637622 0.174588 0.514946
O O5 0.386739 0.951372 0.620593
O O6 0.214488 0.910226 0.537930
O O7 0.000000 0.924690 0.750000
O O8 0.131617 0.999304 0.617441
O O9 0.857876 0.937281 0.170219
O O10 0.230210 0.932841 0.974415
O O11 0.000000 0.000000 0.000000
O O12 0.500000 0.947697 0.750000
O O13 0.503721 0.870603 0.650075
O O14 0.337942 0.641447 0.582305
O O15 0.000000 0.596002 0.750000
O O16 0.775718 0.705096 0.386959
O O17 0.143509 0.708696 0.319310
O O18 0.019759 0.170140 0.366168
#
# Coordination Sequence:
#
# PCOD8150732 Si02
#       8
#     8   8   8   8   8   8   8   8
#     4  11  25  46  71 105 146 194 240 304 367 439
#     4  12  26  45  74 110 143 190 250 306 372 447
#     4  12  26  47  77 109 144 197 244 306 377 450
#     4  12  25  49  73 104 148 190 247 310 370 438
#     4  10  25  48  76 106 154 195 241 305 378 442
#     4  11  24  44  71 104 144 190 244 305 369 428
#     4  11  24  43  72 106 145 190 247 302 366 448
#     4  11  23  47  72 102 145 190 241 299 368 441
#
# _framework density 23.136331999999999
#
# number of rings (size 3 to 8) (size 9 to 14) (size 15 to 20)
#    0.000    0.750    3.750    3.375    1.750    2.500 
#    6.750    0.000    0.000    0.000    0.000    0.000 
#    0.000    0.000    0.000    0.000    0.000    0.000 
#
# Total GULP energy -396828.841783 kJ/mol
# GULP energy per Si atom -12400.901306 kJ/mol
# Density = 2.308367 g / cm^3
# Si number density = 23.136332 Si / 1000 Ang^3
#
#
#
# Elastic Constant Matrix: (Units=GPa)
#
#
# Indices 1 2 3 4 5 6 
#
# 1 71.3369 33.1055 37.0384 0.0000 -5.7374 0.0000
# 2 33.1055 121.3528 39.7494 0.0000 -5.3106 0.0000
# 3 37.0384 39.7494 116.0278 0.0000 7.0656 0.0000
# 4 0.0000 0.0000 0.0000 42.6571 0.0000 -25.1244
# 5 -5.7374 -5.3106 7.0656 0.0000 44.6979 0.0000
# 6 0.0000 0.0000 0.0000 -25.1244 0.0000 464.3686
#
#
#
# Elastic Compliance Matrix: (Units=1/GPa)
#
#
# Indices 1 2 3 4 5 6 
#
# 1 0.018292 -0.003270 -0.004885 0.000000 0.002732 0.000000
# 2 -0.003270 0.009985 -0.002447 0.000000 0.001153 0.000000
# 3 -0.004885 -0.002447 0.011180 0.000000 -0.002685 0.000000
# 4 0.000000 0.000000 0.000000 0.024214 0.000000 0.001310
# 5 0.002732 0.001153 -0.002685 0.000000 0.023284 0.000000
# 6 0.000000 0.000000 0.000000 0.001310 0.000000 0.002224
#
#
# Mechanical properties :
#
#
# Convention : Reuss Voigt Hill
#
# Bulk Modulus (GPa) = 54.78990 58.72268 56.75629
# Shear Modulus (GPa) = 42.93040 123.59967 83.26503
#
# Velocity S-wave (km/s) = 4.31227 7.31699 6.00558
# Velocity P-wave (km/s) = 6.96613 9.83975 8.52489
#
# Compressibility (1/GPa) = 0.01825154
#
# Stress axis : x y z
#
# Youngs Moduli (GPa) = 54.66956 100.15481 89.44736
#
# Poissons Ratio (x) = 0.32755 0.43695
# Poissons Ratio (y) = 0.17879 0.21886
# Poissons Ratio (z) = 0.26706 0.24506
#
# Static dielectric constant tensor:
#      x y z
#    x 4.399750 0.000000 0.057480 
#    y 0.000000 4.042580 0.000000 
#    z 0.057480 0.000000 4.313360 
# 
# 
# High freq. dielectric constant tensor:
#      x y z
#    x 1.915320 0.000000 -0.001050 
#    y 0.000000 1.914140 0.000000 
#    z -0.001050 0.000000 1.924290 
# 
# From -- ./inp_files/139816.got.cif
#   From: 2010.06.25/outbox.cif.g09.slc.cpg/sg15_70_cif.got.tgz:139816.got - 2010.06.28 07:06:18.
