data_PCOD8150893
_publ_section_title
;
Structure prediction by ZEFSAII (Michael W. Deem and Ramdas Pophale) SiO2 
 PCOD8150893
Probable space group: C 2/C
;
_chemical_formula_sum "Si O2"
_cell_formula_units_Z 44
_cell_length_a 31.352537
_cell_length_b 7.482303
_cell_length_c 8.823066
_cell_angle_alpha 90.000000
_cell_angle_beta 121.291768
_cell_angle_gamma 90.000000
_cell_volume 1768.709802
_symmetry_space_group_name_H-M "C 2/C"
_symmetry_group_IT_number 15
_symmetry_cell_setting 'monoclinic'
loop_
_space_group_symop_operation_xyz
x,y,z
-x,y,1/2-z
-x,-y,-z
x,-y,1/2+z
1/2+x,1/2+y,z
1/2-x,1/2+y,1/2-z
1/2-x,1/2-y,-z
1/2+x,1/2-y,1/2+z
loop_
_atom_site_type_symbol
_atom_site_label
_atom_site_fract_x
_atom_site_fract_y
_atom_site_fract_z
Si Si1 0.373635 0.988980 0.321315
Si Si2 0.638795 0.372342 0.831327
Si Si3 0.437841 0.332452 0.401777
Si Si4 0.308729 0.128196 0.963427
Si Si5 0.797407 0.987497 0.816801
Si Si6 0.500000 0.459335 0.250000
O O1 0.390726 0.811328 0.258540
O O2 0.358695 0.929018 0.462549
O O3 0.418359 0.132661 0.398744
O O4 0.321609 0.065282 0.156121
O O5 0.604609 0.543963 0.747643
O O6 0.685436 0.387269 0.802701
O O7 0.663280 0.361622 0.047372
O O8 0.479943 0.330958 0.347506
O O9 0.457683 0.412398 0.597845
O O10 0.300531 0.340589 0.957630
O O11 0.258681 0.047707 0.803225
#
# Coordination Sequence:
#
# PCOD8150893 Si02
#       6
#     8   8   8   8   8   4
#     4  11  26  42  68  98 139 182 234 269 345 398
#     4  11  24  42  69 101 134 191 222 285 330 412
#     4  11  24  50  73 104 134 175 221 291 354 420
#     4  11  24  40  62 104 139 194 230 282 316 397
#     4  11  23  39  64 100 148 181 244 270 323 385
#     4  10  26  48  80 104 132 166 226 292 368 418
#
# _framework density 24.876892000000002
#
# number of rings (size 3 to 8) (size 9 to 14) (size 15 to 20)
#    0.000    1.091    1.818    3.273   10.182    4.364 
#    0.000    5.455    0.000    0.000    0.000    0.000 
#    0.000    0.000    0.000    0.000    0.000    0.000 
#
# Total GULP energy -272773.166028 kJ/mol
# GULP energy per Si atom -12398.780274 kJ/mol
# Density = 2.482027 g / cm^3
# Si number density = 24.876892 Si / 1000 Ang^3
#
#
#
# Elastic Constant Matrix: (Units=GPa)
#
#
# Indices 1 2 3 4 5 6 
#
# 1 51.4642 32.4009 5.4648 0.0000 9.1683 0.0000
# 2 32.4009 110.0440 0.8005 0.0000 6.2428 0.0000
# 3 5.4648 0.8005 94.8529 0.0000 4.2151 0.0000
# 4 0.0000 0.0000 0.0000 39.0274 0.0000 6.2219
# 5 9.1683 6.2428 4.2151 0.0000 25.7681 0.0000
# 6 0.0000 0.0000 0.0000 6.2219 0.0000 34.7230
#
#
#
# Elastic Compliance Matrix: (Units=1/GPa)
#
#
# Indices 1 2 3 4 5 6 
#
# 1 0.025228 -0.007018 -0.001079 0.000000 -0.007100 0.000000
# 2 -0.007018 0.011166 0.000322 0.000000 -0.000261 0.000000
# 3 -0.001079 0.000322 0.010666 0.000000 -0.001439 0.000000
# 4 0.000000 0.000000 0.000000 0.026376 0.000000 -0.004726
# 5 -0.007100 -0.000261 -0.001439 0.000000 0.041632 0.000000
# 6 0.000000 0.000000 0.000000 -0.004726 0.000000 0.029646
#
#
# Mechanical properties :
#
#
# Convention : Reuss Voigt Hill
#
# Bulk Modulus (GPa) = 31.73482 37.07707 34.40595
# Shear Modulus (GPa) = 29.27942 34.41671 31.84807
#
# Velocity S-wave (km/s) = 3.43443 3.72355 3.58191
# Velocity P-wave (km/s) = 5.33961 5.78127 5.56482
#
# Compressibility (1/GPa) = 0.03151112
#
# Stress axis : x y z
#
# Youngs Moduli (GPa) = 39.63776 89.55795 93.75573
#
# Poissons Ratio (x) = 0.62848 0.10114
# Poissons Ratio (y) = 0.27816 -0.03016
# Poissons Ratio (z) = 0.04276 -0.02881
#
# Static dielectric constant tensor:
#      x y z
#    x 4.339350 0.000000 -0.209070 
#    y 0.000000 4.674510 0.000000 
#    z -0.209070 0.000000 4.495850 
# 
# 
# High freq. dielectric constant tensor:
#      x y z
#    x 1.975340 0.000000 -0.014090 
#    y 0.000000 1.992170 0.000000 
#    z -0.014090 0.000000 2.001080 
# 
# From -- ./inp_files/68661.got.cif
#   From: 2010.06.25/outbox.cif.g09.slc.cpg/sg15_35_cif.got.tgz:68661.got - 2010.06.28 07:06:18.
