data_PCOD8150688
_publ_section_title
;
Structure prediction by ZEFSAII (Michael W. Deem and Ramdas Pophale) SiO2 
 PCOD8150688
Probable space group: C 2/C
;
_chemical_formula_sum "Si O2"
_cell_formula_units_Z 48
_cell_length_a 11.023851
_cell_length_b 8.963785
_cell_length_c 24.866884
_cell_angle_alpha 90.000000
_cell_angle_beta 67.347873
_cell_angle_gamma 90.000000
_cell_volume 2267.681488
_symmetry_space_group_name_H-M "C 2/C"
_symmetry_group_IT_number 15
_symmetry_cell_setting 'monoclinic'
loop_
_space_group_symop_operation_xyz
x,y,z
-x,y,1/2-z
-x,-y,-z
x,-y,1/2+z
1/2+x,1/2+y,z
1/2-x,1/2+y,1/2-z
1/2-x,1/2-y,-z
1/2+x,1/2-y,1/2+z
loop_
_atom_site_type_symbol
_atom_site_label
_atom_site_fract_x
_atom_site_fract_y
_atom_site_fract_z
Si Si1 0.204737 0.332564 0.061205
Si Si2 0.280843 0.948324 0.675593
Si Si3 0.976038 0.425559 0.947075
Si Si4 0.024496 0.104200 0.945137
Si Si5 0.129879 0.285374 0.262058
Si Si6 0.956338 0.085669 0.355864
O O1 0.148781 0.496103 0.058513
O O2 0.323494 0.350283 0.082152
O O3 0.095645 0.237304 0.109099
O O4 0.250000 0.250000 0.000000
O O5 0.398178 0.936154 0.613041
O O6 0.250607 0.784396 0.706648
O O7 0.147716 0.993502 0.666332
O O8 0.316174 0.074642 0.713471
O O9 0.937811 0.253999 0.964673
O O10 0.000000 0.500000 0.000000
O O11 0.989804 0.031574 0.895251
O O12 0.000000 0.000000 0.000000
O O13 0.000000 0.335704 0.250000
O O14 0.088427 0.140268 0.304161
#
# Coordination Sequence:
#
# PCOD8150688 Si02
#       6
#     8   8   8   8   8   8
#     4  12  22  44  65  94 147 181 223 284 339 414
#     4  11  24  47  73  98 141 178 233 290 342 417
#     4  12  24  43  72 101 139 187 226 282 360 415
#     4  12  26  41  69 104 141 184 234 279 348 419
#     4  10  25  46  71  98 136 183 233 285 350 404
#     4  11  23  45  69 100 136 184 227 288 346 407
#
# _framework density 21.166992
#
# number of rings (size 3 to 8) (size 9 to 14) (size 15 to 20)
#    0.000    0.667    6.667    0.000    2.333    2.000 
#    3.000    0.000    0.000    0.000    0.000    0.000 
#    0.000    0.000    0.000    0.000    0.000    0.000 
#
# Total GULP energy -297543.573583 kJ/mol
# GULP energy per Si atom -12397.648899 kJ/mol
# Density = 2.111882 g / cm^3
# Si number density = 21.166992 Si / 1000 Ang^3
#
#
#
# Elastic Constant Matrix: (Units=GPa)
#
#
# Indices 1 2 3 4 5 6 
#
# 1 94.8682 61.1161 30.6792 0.0000 21.3102 0.0000
# 2 61.1161 148.5645 48.4760 0.0000 21.8248 0.0000
# 3 30.6792 48.4760 114.6468 0.0000 8.2025 0.0000
# 4 0.0000 0.0000 0.0000 45.0768 0.0000 9.8180
# 5 21.3102 21.8248 8.2025 0.0000 45.8163 0.0000
# 6 0.0000 0.0000 0.0000 9.8180 0.0000 44.3946
#
#
#
# Elastic Compliance Matrix: (Units=1/GPa)
#
#
# Indices 1 2 3 4 5 6 
#
# 1 0.015371 -0.005147 -0.001622 0.000000 -0.004407 0.000000
# 2 -0.005147 0.010014 -0.002722 0.000000 -0.001889 0.000000
# 3 -0.001622 -0.002722 0.010292 0.000000 0.000208 0.000000
# 4 0.000000 0.000000 0.000000 0.023307 0.000000 -0.005154
# 5 -0.004407 -0.001889 0.000208 0.000000 0.024739 0.000000
# 6 0.000000 0.000000 0.000000 -0.005154 0.000000 0.023665
#
#
# Mechanical properties :
#
#
# Convention : Reuss Voigt Hill
#
# Bulk Modulus (GPa) = 59.89130 70.95800 65.42465
# Shear Modulus (GPa) = 37.89760 41.57808 39.73784
#
# Velocity S-wave (km/s) = 4.23591 4.43684 4.33754
# Velocity P-wave (km/s) = 7.23049 7.73583 7.48743
#
# Compressibility (1/GPa) = 0.01669692
#
# Stress axis : x y z
#
# Youngs Moduli (GPa) = 65.05753 99.86097 97.15929
#
# Poissons Ratio (x) = 0.51395 0.15757
# Poissons Ratio (y) = 0.33483 0.26445
# Poissons Ratio (z) = 0.10551 0.27180
#
# Static dielectric constant tensor:
#      x y z
#    x 3.799230 0.000000 0.261720 
#    y 0.000000 4.184590 0.000000 
#    z 0.261720 0.000000 3.929730 
# 
# 
# High freq. dielectric constant tensor:
#      x y z
#    x 1.828670 0.000000 0.003470 
#    y 0.000000 1.830640 0.000000 
#    z 0.003470 0.000000 1.850090 
# 
# From -- ./inp_files/267733.got.cif
#   From: 2010.06.25/outbox.cif.g09.slc.cpg/sg15_134_cif.got.tgz:267733.got - 2010.06.28 07:06:18.
