data_PCOD8150330
_publ_section_title
;
Structure prediction by ZEFSAII (Michael W. Deem and Ramdas Pophale) SiO2 
 PCOD8150330
Probable space group: C 2/C
;
_chemical_formula_sum "Si O2"
_cell_formula_units_Z 48
_cell_length_a 12.628325
_cell_length_b 20.302387
_cell_length_c 13.569184
_cell_angle_alpha 90.000000
_cell_angle_beta 38.770847
_cell_angle_gamma 90.000000
_cell_volume 2178.535464
_symmetry_space_group_name_H-M "C 2/C"
_symmetry_group_IT_number 15
_symmetry_cell_setting 'monoclinic'
loop_
_space_group_symop_operation_xyz
x,y,z
-x,y,1/2-z
-x,-y,-z
x,-y,1/2+z
1/2+x,1/2+y,z
1/2-x,1/2+y,1/2-z
1/2-x,1/2-y,-z
1/2+x,1/2-y,1/2+z
loop_
_atom_site_type_symbol
_atom_site_label
_atom_site_fract_x
_atom_site_fract_y
_atom_site_fract_z
Si Si1 0.807283 0.071001 0.421464
Si Si2 0.668659 0.306982 0.996554
Si Si3 0.003600 0.610887 0.514994
Si Si4 0.846099 0.565451 0.435500
Si Si5 0.145030 0.262538 0.826280
Si Si6 0.830540 0.663616 0.820032
O O1 0.689892 0.086176 0.411665
O O2 0.794157 0.128015 0.512910
O O3 0.000000 0.065066 0.250000
O O4 0.747655 0.003109 0.514922
O O5 0.709932 0.377120 0.014985
O O6 0.737898 0.302031 0.834829
O O7 0.750000 0.250000 0.000000
O O8 0.465845 0.295740 0.144227
O O9 0.013324 0.685417 0.467468
O O10 0.921087 0.564844 0.491772
O O11 0.877203 0.611588 0.699918
O O12 0.000000 0.575632 0.250000
O O13 0.250587 0.230768 0.837999
O O14 0.000000 0.687156 0.750000
#
# Coordination Sequence:
#
# PCOD8150330 Si02
#       6
#     8   8   8   8   8   8
#     4  11  28  45  67  98 133 180 230 276 331 396
#     4  12  23  41  67 103 137 171 223 274 338 395
#     4  11  23  44  69  97 134 180 223 272 337 398
#     4  12  23  45  70  98 137 181 219 275 335 401
#     4  12  23  41  69 104 134 175 222 275 336 397
#     4  10  24  46  67  99 137 179 225 274 334 396
#
# _framework density 22.033149999999999
#
# number of rings (size 3 to 8) (size 9 to 14) (size 15 to 20)
#    0.000    0.667    5.000    2.500    2.333    6.000 
#    0.000    2.500    0.000    0.000    0.000    0.000 
#    0.000    0.000    0.000    0.000    0.000    0.000 
#
# Total GULP energy -297730.003549 kJ/mol
# GULP energy per Si atom -12405.416815 kJ/mol
# Density = 2.198300 g / cm^3
# Si number density = 22.033150 Si / 1000 Ang^3
#
#
#
# Elastic Constant Matrix: (Units=GPa)
#
#
# Indices 1 2 3 4 5 6 
#
# 1 99.4691 19.9468 9.6988 0.0067 6.7088 -0.0009
# 2 19.9468 75.5755 -7.5333 0.0150 -1.8997 0.0025
# 3 9.6988 -7.5333 45.2520 -0.0028 -4.1919 0.0020
# 4 0.0067 0.0150 -0.0028 29.0006 0.0029 -5.8646
# 5 6.7088 -1.8997 -4.1919 0.0029 33.8673 -0.0021
# 6 -0.0009 0.0025 0.0020 -5.8646 -0.0021 37.9903
#
#
#
# Elastic Compliance Matrix: (Units=1/GPa)
#
#
# Indices 1 2 3 4 5 6 
#
# 1 0.011231 -0.003356 -0.003226 -0.000001 -0.002812 0.000000
# 2 -0.003356 0.014495 0.003307 -0.000007 0.001887 -0.000002
# 3 -0.003226 0.003307 0.023689 0.000001 0.003757 -0.000001
# 4 -0.000001 -0.000007 0.000001 0.035593 -0.000003 0.005495
# 5 -0.002812 0.001887 0.003757 -0.000003 0.030655 0.000001
# 6 0.000000 -0.000002 -0.000001 0.005495 0.000001 0.027171
#
#
# Mechanical properties :
#
#
# Convention : Reuss Voigt Hill
#
# Bulk Modulus (GPa) = 23.33018 29.39123 26.36071
# Shear Modulus (GPa) = 30.54898 33.38393 31.96645
#
# Velocity S-wave (km/s) = 3.72761 3.89674 3.81311
# Velocity P-wave (km/s) = 5.39801 5.79781 5.60148
#
# Compressibility (1/GPa) = 0.04286294
#
# Stress axis : x y z
#
# Youngs Moduli (GPa) = 89.04151 68.99039 42.21446
#
# Poissons Ratio (x) = 0.23156 0.13620
# Poissons Ratio (y) = 0.29886 -0.13961
# Poissons Ratio (z) = 0.28728 -0.22817
#
# Static dielectric constant tensor:
#      x y z
#    x 9.547270 -0.000380 -2.613730 
#    y -0.000380 3.929950 0.000210 
#    z -2.613730 0.000210 5.455620 
# 
# 
# High freq. dielectric constant tensor:
#      x y z
#    x 1.877430 0.000000 0.005930 
#    y 0.000000 1.862220 0.000000 
#    z 0.005930 0.000000 1.866400 
# 
# From -- ./inp_files/147369.got.cif
#   From: 2010.06.25/outbox.cif.g09.slc.cpg/sg15_74_cif.got.tgz:147369.got - 2010.06.28 07:06:18.
