data_PCOD8150996
_publ_section_title
;
Structure prediction by ZEFSAII (Michael W. Deem and Ramdas Pophale) SiO2 
 PCOD8150996
Probable space group: C 2/C
;
_chemical_formula_sum "Si O2"
_cell_formula_units_Z 56
_cell_length_a 11.751191
_cell_length_b 20.694977
_cell_length_c 11.576688
_cell_angle_alpha 90.000000
_cell_angle_beta 70.996963
_cell_angle_gamma 90.000000
_cell_volume 2661.909587
_symmetry_space_group_name_H-M "C 2/C"
_symmetry_group_IT_number 15
_symmetry_cell_setting 'monoclinic'
loop_
_space_group_symop_operation_xyz
x,y,z
-x,y,1/2-z
-x,-y,-z
x,-y,1/2+z
1/2+x,1/2+y,z
1/2-x,1/2+y,1/2-z
1/2-x,1/2-y,-z
1/2+x,1/2-y,1/2+z
loop_
_atom_site_type_symbol
_atom_site_label
_atom_site_fract_x
_atom_site_fract_y
_atom_site_fract_z
Si Si1 0.132426 0.919431 0.896117
Si Si2 0.397910 0.247511 0.868829
Si Si3 0.061687 0.296203 0.892740
Si Si4 0.705631 0.178154 0.008064
Si Si5 0.220785 0.177891 0.771586
Si Si6 0.141671 0.935815 0.442637
Si Si7 0.726247 0.375317 0.630730
O O1 0.138118 0.897572 0.761520
O O2 0.177242 0.992805 0.890555
O O3 0.211887 0.870960 0.946911
O O4 0.994471 0.920219 0.977433
O O5 0.500000 0.273157 0.750000
O O6 0.325159 0.190704 0.830306
O O7 0.309871 0.307733 0.919216
O O8 0.456140 0.226520 0.969466
O O9 0.123674 0.237644 0.798066
O O10 0.142067 0.361366 0.859624
O O11 0.930108 0.319629 0.893796
O O12 0.715853 0.160663 0.870131
O O13 0.750000 0.250000 0.000000
O O14 0.159780 0.111401 0.829085
O O15 0.226556 0.926447 0.526861
#
# Coordination Sequence:
#
# PCOD8150996 Si02
#       7
#     8   8   8   8   8   8   8
#     4  11  27  41  64  94 128 171 204 264 323 383
#     4  11  18  35  65  97 123 158 211 263 312 359
#     4  11  22  39  66  97 126 164 211 264 321 375
#     4  12  26  42  62  96 139 164 204 263 338 389
#     4  11  22  38  66  94 126 164 206 268 317 378
#     4  11  23  44  65  92 124 162 224 261 310 373
#     4  11  22  41  69  91 122 166 215 261 306 375
#
# _framework density 21.037528999999999
#
# number of rings (size 3 to 8) (size 9 to 14) (size 15 to 20)
#    0.000    0.857    4.286    4.714    2.000    4.000 
#    0.000    0.714    6.286    0.000    0.000    0.000 
#    0.000    0.000    0.000    0.000    0.000    0.000 
#
# Total GULP energy -347120.331067 kJ/mol
# GULP energy per Si atom -12397.154681 kJ/mol
# Density = 2.098965 g / cm^3
# Si number density = 21.037529 Si / 1000 Ang^3
#
#
#
# Elastic Constant Matrix: (Units=GPa)
#
#
# Indices 1 2 3 4 5 6 
#
# 1 84.1909 41.2370 -0.3635 0.0000 -11.1499 0.0000
# 2 41.2370 123.8085 11.4446 0.0000 2.4091 0.0000
# 3 -0.3635 11.4446 44.7457 0.0000 -3.4702 0.0000
# 4 0.0000 0.0000 0.0000 22.1189 0.0000 -3.6892
# 5 -11.1499 2.4091 -3.4702 0.0000 31.6048 0.0000
# 6 0.0000 0.0000 0.0000 -3.6892 0.0000 31.4143
#
#
#
# Elastic Compliance Matrix: (Units=1/GPa)
#
#
# Indices 1 2 3 4 5 6 
#
# 1 0.015335 -0.005408 0.001976 0.000000 0.006039 0.000000
# 2 -0.005408 0.010203 -0.002887 0.000000 -0.003003 0.000000
# 3 0.001976 -0.002887 0.023373 0.000000 0.003484 0.000000
# 4 0.000000 0.000000 0.000000 0.046113 0.000000 0.005415
# 5 0.006039 -0.003003 0.003484 0.000000 0.034383 0.000000
# 6 0.000000 0.000000 0.000000 0.005415 0.000000 0.032469
#
#
# Mechanical properties :
#
#
# Convention : Reuss Voigt Hill
#
# Bulk Modulus (GPa) = 27.56727 39.70904 33.63815
# Shear Modulus (GPa) = 26.79471 30.38940 28.59205
#
# Velocity S-wave (km/s) = 3.57271 3.80482 3.69059
# Velocity P-wave (km/s) = 5.49102 6.18212 5.84679
#
# Compressibility (1/GPa) = 0.03627491
#
# Stress axis : x y z
#
# Youngs Moduli (GPa) = 65.21091 98.00651 42.78432
#
# Poissons Ratio (x) = 0.53000 -0.08455
# Poissons Ratio (y) = 0.35265 0.12350
# Poissons Ratio (z) = -0.12886 0.28290
#
# Static dielectric constant tensor:
#      x y z
#    x 3.934580 0.000000 -0.145390 
#    y 0.000000 3.984210 0.000000 
#    z -0.145390 0.000000 3.874220 
# 
# 
# High freq. dielectric constant tensor:
#      x y z
#    x 1.820440 0.000000 -0.000980 
#    y 0.000000 1.804080 0.000000 
#    z -0.000980 0.000000 1.846010 
# 
# From -- ./inp_files/89563.got.cif
#   From: 2010.06.25/outbox.cif.g09.slc.cpg/sg15_45_cif.got.tgz:89563.got - 2010.06.28 07:06:18.
