data_PCOD8150847
_publ_section_title
;
Structure prediction by ZEFSAII (Michael W. Deem and Ramdas Pophale) SiO2 
 PCOD8150847
Probable space group: C 2/C
;
_chemical_formula_sum "Si O2"
_cell_formula_units_Z 40
_cell_length_a 23.344225
_cell_length_b 16.918117
_cell_length_c 9.204417
_cell_angle_alpha 90.000000
_cell_angle_beta 28.233569
_cell_angle_gamma 90.000000
_cell_volume 1719.691133
_symmetry_space_group_name_H-M "C 2/C"
_symmetry_group_IT_number 15
_symmetry_cell_setting 'monoclinic'
loop_
_space_group_symop_operation_xyz
x,y,z
-x,y,1/2-z
-x,-y,-z
x,-y,1/2+z
1/2+x,1/2+y,z
1/2-x,1/2+y,1/2-z
1/2-x,1/2-y,-z
1/2+x,1/2-y,1/2+z
loop_
_atom_site_type_symbol
_atom_site_label
_atom_site_fract_x
_atom_site_fract_y
_atom_site_fract_z
Si Si1 0.002722 0.846454 0.402727
Si Si2 0.135719 0.304267 0.285023
Si Si3 0.012870 0.580816 0.556304
Si Si4 0.221662 0.915208 0.066077
Si Si5 0.203232 0.922386 0.439037
O O1 0.135053 0.852947 0.178395
O O2 0.000000 0.889516 0.250000
O O3 0.974640 0.754261 0.431816
O O4 0.909388 0.884949 0.723531
O O5 0.177136 0.366066 0.317531
O O6 0.093843 0.357187 0.241816
O O7 0.250000 0.250000 0.000000
O O8 0.000000 0.557049 0.750000
O O9 0.000000 0.500000 0.500000
O O10 0.143197 0.620428 0.230417
O O11 0.172113 0.932891 0.338903
O O12 0.229631 0.994301 0.953184
#
# Coordination Sequence:
#
# PCOD8150847 Si02
#       5
#     8   8   8   8   8
#     4  11  26  45  73 105 147 187 233 294 358 418
#     4  10  26  46  70  99 153 183 228 290 362 412
#     4  12  27  45  74 106 141 186 243 294 349 420
#     4  12  25  43  78 104 140 186 244 290 352 417
#     4  11  24  46  72 107 144 185 235 296 352 424
#
# _framework density 23.259990999999999
#
# number of rings (size 3 to 8) (size 9 to 14) (size 15 to 20)
#    0.000    0.800    2.000    3.600    8.400    4.000 
#    0.000    0.000    0.000    0.000    0.000    0.000 
#    0.000    0.000    0.000    0.000    0.000    0.000 
#
# Total GULP energy -247892.891830 kJ/mol
# GULP energy per Si atom -12394.644591 kJ/mol
# Density = 2.320705 g / cm^3
# Si number density = 23.259991 Si / 1000 Ang^3
#
#
#
# Elastic Constant Matrix: (Units=GPa)
#
#
# Indices 1 2 3 4 5 6 
#
# 1 189.1877 63.8027 78.6862 0.0000 7.7147 0.0000
# 2 63.8027 120.3181 42.2580 0.0000 -16.1543 0.0000
# 3 78.6862 42.2580 115.6554 0.0000 2.9607 0.0000
# 4 0.0000 0.0000 0.0000 28.0649 0.0000 -12.9658
# 5 7.7147 -16.1543 2.9607 0.0000 61.0339 0.0000
# 6 0.0000 0.0000 0.0000 -12.9658 0.0000 32.4389
#
#
#
# Elastic Compliance Matrix: (Units=1/GPa)
#
#
# Indices 1 2 3 4 5 6 
#
# 1 0.008218 -0.003013 -0.004449 0.000000 -0.001620 0.000000
# 2 -0.003013 0.011104 -0.002095 0.000000 0.003422 0.000000
# 3 -0.004449 -0.002095 0.012454 0.000000 -0.000596 0.000000
# 4 0.000000 0.000000 0.000000 0.043702 0.000000 0.017468
# 5 -0.001620 0.003422 -0.000596 0.000000 0.017524 0.000000
# 6 0.000000 0.000000 0.000000 0.017468 0.000000 0.037809
#
#
# Mechanical properties :
#
#
# Convention : Reuss Voigt Hill
#
# Bulk Modulus (GPa) = 78.97238 88.29497 83.63367
# Shear Modulus (GPa) = 32.43688 40.33517 36.38603
#
# Velocity S-wave (km/s) = 3.73840 4.16877 3.95944
# Velocity P-wave (km/s) = 7.25671 7.82394 7.54566
#
# Compressibility (1/GPa) = 0.01266266
#
# Stress axis : x y z
#
# Youngs Moduli (GPa) = 121.67839 90.05570 80.29592
#
# Poissons Ratio (x) = 0.27134 0.35724
# Poissons Ratio (y) = 0.36663 0.16821
# Poissons Ratio (z) = 0.54135 0.18866
#
# Static dielectric constant tensor:
#      x y z
#    x 4.603010 0.000000 -0.324010 
#    y 0.000000 4.537990 0.000000 
#    z -0.324010 0.000000 4.413300 
# 
# 
# High freq. dielectric constant tensor:
#      x y z
#    x 1.936490 0.000000 -0.007910 
#    y 0.000000 1.914390 0.000000 
#    z -0.007910 0.000000 1.922580 
# 
# From -- ./inp_files/62850.got.cif
#   From: 2010.06.25/outbox.cif.g09.slc.cpg/sg15_32_cif.got.tgz:62850.got - 2010.06.28 07:06:18.
