data_PCOD8150108
_publ_section_title
;
Structure prediction by ZEFSAII (Michael W. Deem and Ramdas Pophale) SiO2 
 PCOD8150108
Probable space group: C 2/C
;
_chemical_formula_sum "Si O2"
_cell_formula_units_Z 48
_cell_length_a 21.676805
_cell_length_b 15.756144
_cell_length_c 11.844200
_cell_angle_alpha 90.000000
_cell_angle_beta 32.977346
_cell_angle_gamma 90.000000
_cell_volume 2201.887761
_symmetry_space_group_name_H-M "C 2/C"
_symmetry_group_IT_number 15
_symmetry_cell_setting 'monoclinic'
loop_
_space_group_symop_operation_xyz
x,y,z
-x,y,1/2-z
-x,-y,-z
x,-y,1/2+z
1/2+x,1/2+y,z
1/2-x,1/2+y,1/2-z
1/2-x,1/2-y,-z
1/2+x,1/2-y,1/2+z
loop_
_atom_site_type_symbol
_atom_site_label
_atom_site_fract_x
_atom_site_fract_y
_atom_site_fract_z
Si Si1 0.000000 0.459815 0.250000
Si Si2 0.665464 0.906625 0.588933
Si Si3 0.988688 0.814124 0.893158
Si Si4 0.500000 0.232190 0.250000
Si Si5 0.118353 0.025742 0.873411
Si Si6 0.857855 0.658379 0.130722
Si Si7 0.633376 0.340076 0.874631
O O1 0.079610 0.515692 0.207818
O O2 0.925771 0.405788 0.448756
O O3 0.610178 0.824726 0.611391
O O4 0.787556 0.935216 0.354814
O O5 0.683956 0.887700 0.692014
O O6 0.000000 0.777375 0.750000
O O7 0.104412 0.835444 0.784828
O O8 0.909784 0.897280 0.998653
O O9 0.933263 0.738669 0.050992
O O10 0.467215 0.294687 0.402804
O O11 0.156572 0.939166 0.876023
O O12 0.000000 0.000000 0.000000
O O13 0.754113 0.700415 0.218991
#
# Coordination Sequence:
#
# PCOD8150108 Si02
#       7
#     4   8   8   4   8   8   8
#     4  11  24  48  67 106 136 188 245 296 376 427
#     4  11  24  46  72 103 142 191 239 299 364 429
#     4  11  25  45  65 100 147 185 232 294 363 428
#     4  11  24  42  75 104 148 182 249 298 352 431
#     4  10  24  44  67 104 140 183 239 290 363 426
#     4  12  24  45  74 101 143 186 241 304 357 439
#     4  11  25  43  70 109 136 192 239 296 358 428
#
# _framework density 21.799477
#
# number of rings (size 3 to 8) (size 9 to 14) (size 15 to 20)
#    0.000    1.000    4.167    1.500    5.833    3.333 
#    0.000    0.000    0.000    0.000    0.000    0.000 
#    0.000    0.000    0.000    0.000    0.000    0.000 
#
# Total GULP energy -297405.613896 kJ/mol
# GULP energy per Si atom -12391.900579 kJ/mol
# Density = 2.174986 g / cm^3
# Si number density = 21.799477 Si / 1000 Ang^3
#
#
#
# Elastic Constant Matrix: (Units=GPa)
#
#
# Indices 1 2 3 4 5 6 
#
# 1 128.6617 32.4408 52.1205 0.0000 -2.6885 0.0000
# 2 32.4408 124.6123 45.2074 0.0000 1.8427 0.0000
# 3 52.1205 45.2074 122.7160 0.0000 -6.9866 0.0000
# 4 0.0000 0.0000 0.0000 21.5186 0.0000 27.5391
# 5 -2.6885 1.8427 -6.9866 0.0000 30.6526 0.0000
# 6 0.0000 0.0000 0.0000 27.5391 0.0000 -6.0212
#
#
#
# Elastic Compliance Matrix: (Units=1/GPa)
#
#
# Indices 1 2 3 4 5 6 
#
# 1 0.009533 -0.001173 -0.003612 0.000000 0.000083 0.000000
# 2 -0.001173 0.009463 -0.003066 0.000000 -0.001371 0.000000
# 3 -0.003612 -0.003066 0.010947 0.000000 0.002363 0.000000
# 4 0.000000 0.000000 0.000000 0.006781 0.000000 0.031014
# 5 0.000083 -0.001371 0.002363 0.000000 0.033252 0.000000
# 6 0.000000 0.000000 0.000000 0.031014 0.000000 -0.024233
#
#
# Mechanical properties :
#
#
# Convention : Reuss Voigt Hill
#
# Bulk Modulus (GPa) = 70.21826 70.61417 70.41621
# Shear Modulus (GPa) = 75.53934 25.64475 50.59204
#
# Velocity S-wave (km/s) = 5.89297 3.43358 4.82269
# Velocity P-wave (km/s) = 8.86475 6.94134 7.96134
#
# Compressibility (1/GPa) = 0.01424131
#
# Stress axis : x y z
#
# Youngs Moduli (GPa) = 104.89877 105.67803 91.34849
#
# Poissons Ratio (x) = 0.12391 0.32997
# Poissons Ratio (y) = 0.12300 0.28007
# Poissons Ratio (z) = 0.37892 0.32401
#
# Static dielectric constant tensor:
#      x y z
#    x 3.761060 0.000000 -0.214340 
#    y 0.000000 4.745100 0.000000 
#    z -0.214340 0.000000 3.861700 
# 
# 
# High freq. dielectric constant tensor:
#      x y z
#    x 1.854110 0.000000 -0.013220 
#    y 0.000000 1.880450 0.000000 
#    z -0.013220 0.000000 1.849250 
# 
# From -- ./inp_files/119394.got.cif
#   From: 2010.06.25/outbox.cif.g09.slc.cpg/sg15_60_cif.got.tgz:119394.got - 2010.06.28 07:06:18.
