data_PCOD8150921
_publ_section_title
;
Structure prediction by ZEFSAII (Michael W. Deem and Ramdas Pophale) SiO2 
 PCOD8150921
Probable space group: C 2/C
;
_chemical_formula_sum "Si O2"
_cell_formula_units_Z 60
_cell_length_a 15.676674
_cell_length_b 16.730373
_cell_length_c 12.380497
_cell_angle_alpha 90.000000
_cell_angle_beta 121.533469
_cell_angle_gamma 90.000000
_cell_volume 2767.628874
_symmetry_space_group_name_H-M "C 2/C"
_symmetry_group_IT_number 15
_symmetry_cell_setting 'monoclinic'
loop_
_space_group_symop_operation_xyz
x,y,z
-x,y,1/2-z
-x,-y,-z
x,-y,1/2+z
1/2+x,1/2+y,z
1/2-x,1/2+y,1/2-z
1/2-x,1/2-y,-z
1/2+x,1/2-y,1/2+z
loop_
_atom_site_type_symbol
_atom_site_label
_atom_site_fract_x
_atom_site_fract_y
_atom_site_fract_z
Si Si1 0.800671 0.199147 0.713887
Si Si2 0.089384 0.593030 0.050878
Si Si3 0.478491 0.400423 0.613131
Si Si4 0.129457 0.580273 0.527077
Si Si5 0.341172 0.257348 0.480657
Si Si6 0.000000 0.135221 0.750000
Si Si7 0.317912 0.871018 0.659914
Si Si8 0.611651 0.553905 0.017160
O O1 0.725801 0.126500 0.638773
O O2 0.802068 0.207888 0.842580
O O3 0.912208 0.188443 0.741934
O O4 0.768276 0.282908 0.637180
O O5 0.145524 0.515856 0.036786
O O6 0.118107 0.668237 0.999196
O O7 0.122040 0.602758 0.195910
O O8 0.968919 0.590768 0.964637
O O9 0.500000 0.428003 0.750000
O O10 0.430276 0.312608 0.585251
O O11 0.402811 0.458228 0.496270
O O12 0.581223 0.404581 0.611297
O O13 0.109406 0.617262 0.394974
O O14 0.250000 0.250000 0.500000
O O15 0.958090 0.082861 0.625697
O O16 0.227199 0.930565 0.573782
#
# Coordination Sequence:
#
# PCOD8150921 Si02
#       8
#     8   8   8   8   8   4   8   8
#     4  11  26  41  73 104 136 174 231 287 353 400
#     4  10  27  45  66  98 138 178 234 278 336 410
#     4  11  26  43  68 100 140 183 227 286 350 424
#     4  11  24  45  71  98 133 182 227 283 342 405
#     4  11  27  44  65  98 140 185 224 283 339 421
#     4  12  22  44  68 108 138 172 220 302 344 404
#     4  11  25  40  71 100 134 178 223 294 338 409
#     4  11  25  42  69 104 134 175 231 286 358 400
#
# _framework density 21.679207000000002
#
# number of rings (size 3 to 8) (size 9 to 14) (size 15 to 20)
#    0.000    1.067    3.333    0.800   13.067    0.000 
#    0.000    2.667    0.000    0.000    0.000    0.000 
#    0.000    0.000    0.000    0.000    0.000    0.000 
#
# Total GULP energy -371980.754924 kJ/mol
# GULP energy per Si atom -12399.358497 kJ/mol
# Density = 2.162986 g / cm^3
# Si number density = 21.679207 Si / 1000 Ang^3
#
#
#
# Elastic Constant Matrix: (Units=GPa)
#
#
# Indices 1 2 3 4 5 6 
#
# 1 116.0651 54.9931 40.5199 0.0000 -8.4493 0.0000
# 2 54.9931 135.9729 28.5095 0.0000 -0.8132 0.0000
# 3 40.5199 28.5095 78.8941 0.0000 -18.8525 0.0000
# 4 0.0000 0.0000 0.0000 31.1574 0.0000 -6.5715
# 5 -8.4493 -0.8132 -18.8525 0.0000 42.0015 0.0000
# 6 0.0000 0.0000 0.0000 -6.5715 0.0000 -3.3289
#
#
#
# Elastic Compliance Matrix: (Units=1/GPa)
#
#
# Indices 1 2 3 4 5 6 
#
# 1 0.012153 -0.003913 -0.004774 0.000000 0.000226 0.000000
# 2 -0.003913 0.009278 -0.001667 0.000000 -0.001356 0.000000
# 3 -0.004774 -0.001667 0.017354 0.000000 0.006797 0.000000
# 4 0.000000 0.000000 0.000000 0.022660 0.000000 -0.044733
# 5 0.000226 -0.001356 0.006797 0.000000 0.026879 0.000000
# 6 0.000000 0.000000 0.000000 -0.044733 0.000000 -0.212092
#
#
# Mechanical properties :
#
#
# Convention : Reuss Voigt Hill
#
# Bulk Modulus (GPa) = 55.31790 64.33078 59.82434
# Shear Modulus (GPa) = -51.52781 27.75996 -11.88392
#
# Velocity S-wave (km/s) = -4.88056 3.58227 -2.34385
# Velocity P-wave (km/s) = 2.48755 6.84460 4.50892
#
# Compressibility (1/GPa) = 0.01807733
#
# Stress axis : x y z
#
# Youngs Moduli (GPa) = 82.28532 107.77722 57.62512
#
# Poissons Ratio (x) = 0.42172 0.27508
# Poissons Ratio (y) = 0.32197 0.09607
# Poissons Ratio (z) = 0.39280 0.17969
#
# Static dielectric constant tensor:
#      x y z
#    x 3.903610 0.000000 -0.171410 
#    y 0.000000 4.168230 0.000000 
#    z -0.171410 0.000000 3.827650 
# 
# 
# High freq. dielectric constant tensor:
#      x y z
#    x 1.857230 0.000000 -0.009790 
#    y 0.000000 1.863080 0.000000 
#    z -0.009790 0.000000 1.849770 
# 
# From -- ./inp_files/98797.got.cif
#   From: 2010.06.25/outbox.cif.g09.slc.cpg/sg15_50_cif.got.tgz:98797.got - 2010.06.28 07:06:18.
