data_PCOD8150836
_publ_section_title
;
Structure prediction by ZEFSAII (Michael W. Deem and Ramdas Pophale) SiO2 
 PCOD8150836
Probable space group: C 2/C
;
_chemical_formula_sum "Si O2"
_cell_formula_units_Z 44
_cell_length_a 6.912592
_cell_length_b 26.441698
_cell_length_c 16.637273
_cell_angle_alpha 90.000000
_cell_angle_beta 138.549237
_cell_angle_gamma 90.000000
_cell_volume 2013.050997
_symmetry_space_group_name_H-M "C 2/C"
_symmetry_group_IT_number 15
_symmetry_cell_setting 'monoclinic'
loop_
_space_group_symop_operation_xyz
x,y,z
-x,y,1/2-z
-x,-y,-z
x,-y,1/2+z
1/2+x,1/2+y,z
1/2-x,1/2+y,1/2-z
1/2-x,1/2-y,-z
1/2+x,1/2-y,1/2+z
loop_
_atom_site_type_symbol
_atom_site_label
_atom_site_fract_x
_atom_site_fract_y
_atom_site_fract_z
Si Si1 0.556027 0.851140 0.556108
Si Si2 0.500000 0.876901 0.250000
Si Si3 0.000000 0.927210 0.750000
Si Si4 0.813193 0.984665 0.835404
Si Si5 0.679886 0.803248 0.178237
Si Si6 0.570791 0.578355 0.979519
Si Si7 0.000000 0.774410 0.750000
O O1 0.498070 0.826096 0.451938
O O2 0.268653 0.876034 0.506620
O O3 0.798406 0.895154 0.626210
O O4 0.700872 0.807339 0.656448
O O5 0.709936 0.845992 0.255162
O O6 0.730867 0.906326 0.376845
O O7 0.199168 0.963107 0.758041
O O8 0.500000 0.011756 0.750000
O O9 0.836875 0.936454 0.902125
O O10 0.072432 0.026164 0.926828
O O11 0.509722 0.757393 0.169673
O O12 0.000000 0.785481 0.250000
#
# Coordination Sequence:
#
# PCOD8150836 Si02
#       7
#     8   4   4   8   8   8   4
#     4  11  23  45  68  98 129 178 225 266 339 401
#     4  11  22  41  64  96 132 174 220 275 326 399
#     4  11  24  43  68  98 134 178 222 273 330 397
#     4  11  23  42  65  99 139 176 223 274 329 389
#     4  11  23  43  68  97 132 171 220 276 340 395
#     4  11  23  42  69  96 137 180 221 274 330 394
#     4  10  26  46  66  98 134 170 224 286 332 394
#
# _framework density 21.857371000000001
#
# number of rings (size 3 to 8) (size 9 to 14) (size 15 to 20)
#    0.000    1.091    4.545    1.636    0.000    2.909 
#    9.818    0.000    0.000    0.000    0.000    0.000 
#    0.000    0.000    0.000    0.000    0.000    0.000 
#
# Total GULP energy -272602.790662 kJ/mol
# GULP energy per Si atom -12391.035939 kJ/mol
# Density = 2.180762 g / cm^3
# Si number density = 21.857371 Si / 1000 Ang^3
#
#
#
# Elastic Constant Matrix: (Units=GPa)
#
#
# Indices 1 2 3 4 5 6 
#
# 1 116.1909 61.0375 51.6593 0.0001 -0.6153 0.0000
# 2 61.0375 110.5403 50.2088 0.0000 -6.1507 0.0000
# 3 51.6593 50.2088 116.5307 0.0003 -1.1313 -0.0003
# 4 0.0001 0.0000 0.0003 37.4430 0.0001 8.6013
# 5 -0.6153 -6.1507 -1.1313 0.0001 40.4552 0.0000
# 6 0.0000 0.0000 -0.0003 8.6013 0.0000 2.9736
#
#
#
# Elastic Compliance Matrix: (Units=1/GPa)
#
#
# Indices 1 2 3 4 5 6 
#
# 1 0.013117 -0.005771 -0.003336 0.000000 -0.000771 -0.000002
# 2 -0.005771 0.013887 -0.003407 0.000000 0.001928 0.000000
# 3 -0.003336 -0.003407 0.011526 -0.000001 -0.000246 0.000004
# 4 0.000000 0.000000 -0.000001 0.079600 0.000000 -0.230250
# 5 -0.000771 0.001928 -0.000246 0.000000 0.024993 0.000001
# 6 -0.000002 0.000000 0.000004 -0.230250 0.000001 1.002318
#
#
# Mechanical properties :
#
#
# Convention : Reuss Voigt Hill
#
# Bulk Modulus (GPa) = 74.05430 74.34145 74.19788
# Shear Modulus (GPa) = 4.25543 28.19811 16.22677
#
# Velocity S-wave (km/s) = 1.39683 3.59569 2.72765
# Velocity P-wave (km/s) = 6.04614 7.16411 6.62874
#
# Compressibility (1/GPa) = 0.01350360
#
# Stress axis : x y z
#
# Youngs Moduli (GPa) = 76.23645 72.00724 86.76165
#
# Poissons Ratio (x) = 0.41552 0.28945
# Poissons Ratio (y) = 0.43992 0.29558
# Poissons Ratio (z) = 0.25433 0.24531
#
# Static dielectric constant tensor:
#      x y z
#    x 3.637600 0.000000 0.030370 
#    y 0.000000 4.042380 0.000000 
#    z 0.030370 0.000000 3.962590 
# 
# 
# High freq. dielectric constant tensor:
#      x y z
#    x 1.838570 0.000000 0.003210 
#    y 0.000000 1.864550 0.000000 
#    z 0.003210 0.000000 1.872330 
# 
# From -- ./inp_files/129757.got.cif
#   From: 2010.06.25/outbox.cif.g09.slc.cpg/sg15_65_cif.got.tgz:129757.got - 2010.06.28 07:06:18.
