data_PCOD8150592
_publ_section_title
;
Structure prediction by ZEFSAII (Michael W. Deem and Ramdas Pophale) SiO2 
 PCOD8150592
Probable space group: C 2/C
;
_chemical_formula_sum "Si O2"
_cell_formula_units_Z 52
_cell_length_a 17.126956
_cell_length_b 14.579233
_cell_length_c 14.671156
_cell_angle_alpha 90.000000
_cell_angle_beta 140.586328
_cell_angle_gamma 90.000000
_cell_volume 2325.919626
_symmetry_space_group_name_H-M "C 2/C"
_symmetry_group_IT_number 15
_symmetry_cell_setting 'monoclinic'
loop_
_space_group_symop_operation_xyz
x,y,z
-x,y,1/2-z
-x,-y,-z
x,-y,1/2+z
1/2+x,1/2+y,z
1/2-x,1/2+y,1/2-z
1/2-x,1/2-y,-z
1/2+x,1/2-y,1/2+z
loop_
_atom_site_type_symbol
_atom_site_label
_atom_site_fract_x
_atom_site_fract_y
_atom_site_fract_z
Si Si1 0.000000 0.540878 0.750000
Si Si2 0.114426 0.225216 0.415258
Si Si3 0.812840 0.728061 0.916355
Si Si4 0.234992 0.067744 0.457309
Si Si5 0.710666 0.178225 0.162495
Si Si6 0.518654 0.924999 0.593787
Si Si7 0.139199 0.130521 0.886866
O O1 0.954161 0.476853 0.789215
O O2 0.877916 0.599290 0.610444
O O3 0.250000 0.250000 0.500000
O O4 0.128565 0.113885 0.424418
O O5 0.108605 0.263260 0.512898
O O6 0.000000 0.259467 0.250000
O O7 0.802930 0.754294 0.799996
O O8 0.683020 0.695651 0.843419
O O9 0.905740 0.643513 0.005173
O O10 0.855738 0.816277 0.012730
O O11 0.216543 0.105497 0.336364
O O12 0.225800 0.959333 0.460448
O O13 0.641898 0.129014 0.182749
O O14 0.500000 0.000000 0.500000
O O15 0.000000 0.098240 0.750000
#
# Coordination Sequence:
#
# PCOD8150592 Si02
#       7
#     4   8   8   8   8   8   8
#     4  12  24  44  74 102 136 188 244 304 340 432
#     4  10  25  43  70 101 143 189 237 295 365 432
#     4  11  25  43  66 105 136 184 235 304 358 428
#     4  11  24  44  70 100 143 183 240 290 369 428
#     4  11  25  41  69 103 141 181 238 300 364 425
#     4  12  25  43  72 101 142 183 252 293 361 434
#     4  11  23  46  69  94 138 189 232 284 370 434
#
# _framework density 22.356748
#
# number of rings (size 3 to 8) (size 9 to 14) (size 15 to 20)
#    0.000    0.923    3.077    2.308   14.000    0.000 
#    2.769    0.769    0.000    0.000    0.000    0.000 
#    0.000    0.000    0.000    0.000    0.000    0.000 
#
# Total GULP energy -322234.951002 kJ/mol
# GULP energy per Si atom -12393.651962 kJ/mol
# Density = 2.230586 g / cm^3
# Si number density = 22.356748 Si / 1000 Ang^3
#
#
#
# Elastic Constant Matrix: (Units=GPa)
#
#
# Indices 1 2 3 4 5 6 
#
# 1 72.9985 22.1508 21.6063 0.0000 -12.7572 0.0000
# 2 22.1508 74.1031 28.7215 0.0000 -10.7048 0.0000
# 3 21.6063 28.7215 105.9086 0.0000 -9.4690 0.0000
# 4 0.0000 0.0000 0.0000 33.1704 0.0000 1.3630
# 5 -12.7572 -10.7048 -9.4690 0.0000 46.8382 0.0000
# 6 0.0000 0.0000 0.0000 1.3630 0.0000 55.1896
#
#
#
# Elastic Compliance Matrix: (Units=1/GPa)
#
#
# Indices 1 2 3 4 5 6 
#
# 1 0.015909 -0.003525 -0.002011 0.000000 0.003121 0.000000
# 2 -0.003525 0.016196 -0.003491 0.000000 0.002036 0.000000
# 3 -0.002011 -0.003491 0.010875 0.000000 0.000853 0.000000
# 4 0.000000 0.000000 0.000000 0.030178 0.000000 -0.000745
# 5 0.003121 0.002036 0.000853 0.000000 0.022838 0.000000
# 6 0.000000 0.000000 0.000000 -0.000745 0.000000 0.018138
#
#
# Mechanical properties :
#
#
# Convention : Reuss Voigt Hill
#
# Bulk Modulus (GPa) = 40.11823 44.21860 42.16841
# Shear Modulus (GPa) = 35.58819 39.07510 37.33165
#
# Velocity S-wave (km/s) = 3.99411 4.18520 4.09077
# Velocity P-wave (km/s) = 6.26530 6.57086 6.41990
#
# Compressibility (1/GPa) = 0.02492633
#
# Stress axis : x y z
#
# Youngs Moduli (GPa) = 62.85683 61.74512 91.95203
#
# Poissons Ratio (x) = 0.21768 0.18487
# Poissons Ratio (y) = 0.22160 0.32099
# Poissons Ratio (z) = 0.12637 0.21555
#
# Static dielectric constant tensor:
#      x y z
#    x 4.192340 0.000000 -0.057390 
#    y 0.000000 4.684510 0.000000 
#    z -0.057390 0.000000 3.892480 
# 
# 
# High freq. dielectric constant tensor:
#      x y z
#    x 1.877240 0.000000 0.001020 
#    y 0.000000 1.902220 0.000000 
#    z 0.001020 0.000000 1.874530 
# 
# From -- ./inp_files/162631.got.cif
#   From: 2010.06.25/outbox.cif.g09.slc.cpg/sg15_82_cif.got.tgz:162631.got - 2010.06.28 07:06:18.
