data_PCOD8150668
_publ_section_title
;
Structure prediction by ZEFSAII (Michael W. Deem and Ramdas Pophale) SiO2 
 PCOD8150668
Probable space group: C 2/C
;
_chemical_formula_sum "Si O2"
_cell_formula_units_Z 32
_cell_length_a 11.420951
_cell_length_b 14.790037
_cell_length_c 9.635895
_cell_angle_alpha 90.000000
_cell_angle_beta 127.775394
_cell_angle_gamma 90.000000
_cell_volume 1286.531710
_symmetry_space_group_name_H-M "C 2/C"
_symmetry_group_IT_number 15
_symmetry_cell_setting 'monoclinic'
loop_
_space_group_symop_operation_xyz
x,y,z
-x,y,1/2-z
-x,-y,-z
x,-y,1/2+z
1/2+x,1/2+y,z
1/2-x,1/2+y,1/2-z
1/2-x,1/2-y,-z
1/2+x,1/2-y,1/2+z
loop_
_atom_site_type_symbol
_atom_site_label
_atom_site_fract_x
_atom_site_fract_y
_atom_site_fract_z
Si Si1 0.221718 0.788465 0.328410
Si Si2 0.341714 0.480902 0.317909
Si Si3 0.039719 0.260152 0.460319
Si Si4 0.737971 0.393639 0.983950
O O1 0.250000 0.750000 0.500000
O O2 0.171086 0.893253 0.292986
O O3 0.090260 0.733006 0.158247
O O4 0.362995 0.771544 0.329854
O O5 0.500000 0.500000 0.500000
O O6 0.234231 0.467891 0.373965
O O7 0.297109 0.565475 0.192123
O O8 0.110589 0.338552 0.418849
O O9 0.096640 0.165709 0.434943
#
# Coordination Sequence:
#
# PCOD8150668 Si02
#       4
#     8   8   8   8
#     4  11  26  47  75 112 151 200 259 317 381 460
#     4  11  26  43  73 111 152 194 254 314 383 450
#     4  10  25  46  76 105 153 204 249 310 389 468
#     4  10  25  45  74 108 152 199 253 310 390 456
#
# _framework density 24.873073000000002
#
# number of rings (size 3 to 8) (size 9 to 14) (size 15 to 20)
#    0.000    1.500    0.000    1.500   14.000   13.000 
#    0.000    0.000    0.000    0.000    0.000    0.000 
#    0.000    0.000    0.000    0.000    0.000    0.000 
#
# Total GULP energy -198282.043266 kJ/mol
# GULP energy per Si atom -12392.627704 kJ/mol
# Density = 2.481646 g / cm^3
# Si number density = 24.873073 Si / 1000 Ang^3
#
#
#
# Elastic Constant Matrix: (Units=GPa)
#
#
# Indices 1 2 3 4 5 6 
#
# 1 81.3465 41.1415 11.5805 0.0000 -1.6944 0.0000
# 2 41.1415 102.4530 41.4201 0.0000 -6.7471 0.0000
# 3 11.5805 41.4201 134.4744 0.0000 -28.1578 0.0000
# 4 0.0000 0.0000 0.0000 46.9712 0.0000 -15.7100
# 5 -1.6944 -6.7471 -28.1578 0.0000 45.3896 0.0000
# 6 0.0000 0.0000 0.0000 -15.7100 0.0000 36.1176
#
#
#
# Elastic Compliance Matrix: (Units=1/GPa)
#
#
# Indices 1 2 3 4 5 6 
#
# 1 0.015478 -0.006485 0.000671 0.000000 0.000030 0.000000
# 2 -0.006485 0.013877 -0.003833 0.000000 -0.000557 0.000000
# 3 0.000671 -0.003833 0.009706 0.000000 0.005476 0.000000
# 4 0.000000 0.000000 0.000000 0.024914 0.000000 0.010837
# 5 0.000030 -0.000557 0.005476 0.000000 0.025347 0.000000
# 6 0.000000 0.000000 0.000000 0.010837 0.000000 0.032401
#
#
# Mechanical properties :
#
#
# Convention : Reuss Voigt Hill
#
# Bulk Modulus (GPa) = 50.58648 56.28425 53.43536
# Shear Modulus (GPa) = 33.87410 40.63781 37.25595
#
# Velocity S-wave (km/s) = 3.69437 4.04642 3.87440
# Velocity P-wave (km/s) = 6.21126 6.67151 6.44550
#
# Compressibility (1/GPa) = 0.01976813
#
# Stress axis : x y z
#
# Youngs Moduli (GPa) = 64.60856 72.06004 103.03114
#
# Poissons Ratio (x) = 0.46728 -0.06910
# Poissons Ratio (y) = 0.41896 0.39488
# Poissons Ratio (z) = -0.04333 0.27618
#
# Static dielectric constant tensor:
#      x y z
#    x 4.675120 0.000000 -0.328870 
#    y 0.000000 4.805820 0.000000 
#    z -0.328870 0.000000 4.800600 
# 
# 
# High freq. dielectric constant tensor:
#      x y z
#    x 1.977920 0.000000 -0.016540 
#    y 0.000000 1.980820 0.000000 
#    z -0.016540 0.000000 2.023010 
# 
# From -- ./inp_files/28872.got.cif
#   From: 2010.06.25/outbox.cif.g09.slc.cpg/sg15_15_cif.got.tgz:28872.got - 2010.06.28 07:06:18.
