data_PCOD8150669
_publ_section_title
;
Structure prediction by ZEFSAII (Michael W. Deem and Ramdas Pophale) SiO2 
 PCOD8150669
Probable space group: C 2/C
;
_chemical_formula_sum "Si O2"
_cell_formula_units_Z 28
_cell_length_a 14.582627
_cell_length_b 9.644573
_cell_length_c 10.914233
_cell_angle_alpha 90.000000
_cell_angle_beta 49.771977
_cell_angle_gamma 90.000000
_cell_volume 1171.951931
_symmetry_space_group_name_H-M "C 2/C"
_symmetry_group_IT_number 15
_symmetry_cell_setting 'monoclinic'
loop_
_space_group_symop_operation_xyz
x,y,z
-x,y,1/2-z
-x,-y,-z
x,-y,1/2+z
1/2+x,1/2+y,z
1/2-x,1/2+y,1/2-z
1/2-x,1/2-y,-z
1/2+x,1/2-y,1/2+z
loop_
_atom_site_type_symbol
_atom_site_label
_atom_site_fract_x
_atom_site_fract_y
_atom_site_fract_z
Si Si1 0.043763 0.584831 0.081691
Si Si2 0.500000 0.351519 0.750000
Si Si3 0.784292 0.016204 0.303715
Si Si4 0.115836 0.232088 0.910420
O O1 0.000000 0.525031 0.250000
O O2 0.983882 0.736281 0.109713
O O3 0.188299 0.580446 0.958882
O O4 0.000000 0.500000 0.000000
O O5 0.606995 0.449655 0.701160
O O6 0.551419 0.253307 0.598037
O O7 0.834714 0.923740 0.147818
O O8 0.724876 0.158048 0.306303
#
# Coordination Sequence:
#
# PCOD8150669 Si02
#       4
#     8   4   8   8
#     4  10  25  45  77 109 151 196 255 303 379 440
#     4  12  26  44  78 112 152 194 256 308 384 444
#     4  11  26  46  77 106 154 191 257 308 379 439
#     4  11  26  48  75 111 150 199 252 311 377 449
#
# _framework density 23.891763999999998
#
# number of rings (size 3 to 8) (size 9 to 14) (size 15 to 20)
#    0.000    1.143    0.000    3.429   18.000    1.143 
#    0.000    0.000    0.000    0.000    0.000    0.000 
#    0.000    0.000    0.000    0.000    0.000    0.000 
#
# Total GULP energy -173528.385014 kJ/mol
# GULP energy per Si atom -12394.884644 kJ/mol
# Density = 2.383738 g / cm^3
# Si number density = 23.891764 Si / 1000 Ang^3
#
#
#
# Elastic Constant Matrix: (Units=GPa)
#
#
# Indices 1 2 3 4 5 6 
#
# 1 152.8934 58.2062 45.5599 0.0000 -18.3460 0.0000
# 2 58.2062 105.1444 41.4904 0.0000 -2.5424 0.0000
# 3 45.5599 41.4904 138.8595 0.0000 17.1908 0.0000
# 4 0.0000 0.0000 0.0000 29.4403 0.0000 4.3828
# 5 -18.3460 -2.5424 17.1908 0.0000 45.9320 0.0000
# 6 0.0000 0.0000 0.0000 4.3828 0.0000 44.6406
#
#
#
# Elastic Compliance Matrix: (Units=1/GPa)
#
#
# Indices 1 2 3 4 5 6 
#
# 1 0.009349 -0.004131 -0.002377 0.000000 0.004395 0.000000
# 2 -0.004131 0.012766 -0.002456 0.000000 -0.000024 0.000000
# 3 -0.002377 -0.002456 0.009280 0.000000 -0.004558 0.000000
# 4 0.000000 0.000000 0.000000 0.034471 0.000000 -0.003384
# 5 0.004395 -0.000024 -0.004558 0.000000 0.025232 0.000000
# 6 0.000000 0.000000 0.000000 -0.003384 0.000000 0.022733
#
#
# Mechanical properties :
#
#
# Convention : Reuss Voigt Hill
#
# Bulk Modulus (GPa) = 74.26012 76.37892 75.31952
# Shear Modulus (GPa) = 36.69774 40.77861 38.73818
#
# Velocity S-wave (km/s) = 3.92344 4.13583 4.03103
# Velocity P-wave (km/s) = 7.18845 7.40574 7.29790
#
# Compressibility (1/GPa) = 0.01346618
#
# Stress axis : x y z
#
# Youngs Moduli (GPa) = 106.96388 78.33162 107.76238
#
# Poissons Ratio (x) = 0.32360 0.25617
# Poissons Ratio (y) = 0.44188 0.26467
# Poissons Ratio (z) = 0.25427 0.19239
#
# Static dielectric constant tensor:
#      x y z
#    x 4.737910 0.000000 -0.428010 
#    y 0.000000 4.341110 0.000000 
#    z -0.428010 0.000000 4.444040 
# 
# 
# High freq. dielectric constant tensor:
#      x y z
#    x 1.952060 0.000000 -0.015780 
#    y 0.000000 1.939750 0.000000 
#    z -0.015780 0.000000 1.952840 
# 
# From -- ./inp_files/36481.got.cif
#   From: 2010.06.25/outbox.cif.g09.slc.cpg/sg15_19_cif.got.tgz:36481.got - 2010.06.28 07:06:18.
