data_PCOD8150682
_publ_section_title
;
Structure prediction by ZEFSAII (Michael W. Deem and Ramdas Pophale) SiO2 
 PCOD8150682
Probable space group: C 2/C
;
_chemical_formula_sum "Si O2"
_cell_formula_units_Z 40
_cell_length_a 7.755938
_cell_length_b 10.385479
_cell_length_c 22.780532
_cell_angle_alpha 90.000000
_cell_angle_beta 104.751007
_cell_angle_gamma 90.000000
_cell_volume 1774.474728
_symmetry_space_group_name_H-M "C 2/C"
_symmetry_group_IT_number 15
_symmetry_cell_setting 'monoclinic'
loop_
_space_group_symop_operation_xyz
x,y,z
-x,y,1/2-z
-x,-y,-z
x,-y,1/2+z
1/2+x,1/2+y,z
1/2-x,1/2+y,1/2-z
1/2-x,1/2-y,-z
1/2+x,1/2-y,1/2+z
loop_
_atom_site_type_symbol
_atom_site_label
_atom_site_fract_x
_atom_site_fract_y
_atom_site_fract_z
Si Si1 0.676515 0.047755 0.983794
Si Si2 0.161213 0.664196 0.188336
Si Si3 0.734873 0.092545 0.375315
Si Si4 0.296907 0.082024 0.731657
Si Si5 0.609151 0.694430 0.407804
O O1 0.744236 0.937864 0.945446
O O2 0.634553 0.172061 0.942108
O O3 0.500000 0.000000 0.000000
O O4 0.828744 0.076516 0.045023
O O5 0.234041 0.532878 0.224330
O O6 0.275657 0.688721 0.140723
O O7 0.952032 0.659199 0.156627
O O8 0.185616 0.786913 0.234384
O O9 0.757006 0.964952 0.338081
O O10 0.899789 0.185746 0.374829
O O11 0.500000 0.125674 0.750000
#
# Coordination Sequence:
#
# PCOD8150682 Si02
#       5
#     8   8   8   8   8
#     4  11  23  45  69 103 141 179 235 289 342 419
#     4  11  24  49  69 103 142 182 235 290 349 417
#     4  11  24  45  69 104 135 183 236 282 346 420
#     4  10  25  46  70 101 141 180 237 291 340 420
#     4  11  25  43  72  98 140 187 224 290 352 410
#
# _framework density 22.541881
#
# number of rings (size 3 to 8) (size 9 to 14) (size 15 to 20)
#    0.000    1.200    4.000    0.600    2.800    2.400 
#   10.800    0.000    0.000    0.000    0.000    0.000 
#    0.000    0.000    0.000    0.000    0.000    0.000 
#
# Total GULP energy -247987.364712 kJ/mol
# GULP energy per Si atom -12399.368236 kJ/mol
# Density = 2.249057 g / cm^3
# Si number density = 22.541881 Si / 1000 Ang^3
#
#
#
# Elastic Constant Matrix: (Units=GPa)
#
#
# Indices 1 2 3 4 5 6 
#
# 1 140.3706 60.8122 45.2579 0.0000 6.1803 0.0000
# 2 60.8122 128.1750 44.4413 0.0000 6.3161 0.0000
# 3 45.2579 44.4413 98.6149 0.0000 4.8141 0.0000
# 4 0.0000 0.0000 0.0000 10.6292 0.0000 -11.4458
# 5 6.1803 6.3161 4.8141 0.0000 22.3656 0.0000
# 6 0.0000 0.0000 0.0000 -11.4458 0.0000 23.1516
#
#
#
# Elastic Compliance Matrix: (Units=1/GPa)
#
#
# Indices 1 2 3 4 5 6 
#
# 1 0.009594 -0.003545 -0.002754 0.000000 -0.001057 0.000000
# 2 -0.003545 0.010623 -0.003094 0.000000 -0.001354 0.000000
# 3 -0.002754 -0.003094 0.012854 0.000000 -0.001132 0.000000
# 4 0.000000 0.000000 0.000000 0.201187 0.000000 0.099464
# 5 -0.001057 -0.001354 -0.001132 0.000000 0.045630 0.000000
# 6 0.000000 0.000000 0.000000 0.099464 0.000000 0.092367
#
#
# Mechanical properties :
#
#
# Convention : Reuss Voigt Hill
#
# Bulk Modulus (GPa) = 70.00358 74.24259 72.12308
# Shear Modulus (GPa) = 12.63251 25.67254 19.15253
#
# Velocity S-wave (km/s) = 2.36985 3.37839 2.91802
# Velocity P-wave (km/s) = 6.21374 6.94442 6.58922
#
# Compressibility (1/GPa) = 0.01428498
#
# Stress axis : x y z
#
# Youngs Moduli (GPa) = 104.22888 94.13172 77.79596
#
# Poissons Ratio (x) = 0.33370 0.21425
# Poissons Ratio (y) = 0.36949 0.24073
# Poissons Ratio (z) = 0.28704 0.29128
#
# Static dielectric constant tensor:
#      x y z
#    x 3.553610 0.000000 0.321790 
#    y 0.000000 4.430360 0.000000 
#    z 0.321790 0.000000 4.273640 
# 
# 
# High freq. dielectric constant tensor:
#      x y z
#    x 1.891190 0.000000 -0.000050 
#    y 0.000000 1.887230 0.000000 
#    z -0.000050 0.000000 1.904340 
# 
# From -- ./inp_files/262556.got.cif
#   From: 2010.06.25/outbox.cif.g09.slc.cpg/sg15_132_cif.got.tgz:262556.got - 2010.06.28 07:06:18.
