data_PCOD8150452
_publ_section_title
;
Structure prediction by ZEFSAII (Michael W. Deem and Ramdas Pophale) SiO2 
 PCOD8150452
Probable space group: C 2/C
;
_chemical_formula_sum "Si O2"
_cell_formula_units_Z 48
_cell_length_a 13.269084
_cell_length_b 15.015435
_cell_length_c 10.736017
_cell_angle_alpha 90.000000
_cell_angle_beta 112.387362
_cell_angle_gamma 90.000000
_cell_volume 1977.835024
_symmetry_space_group_name_H-M "C 2/C"
_symmetry_group_IT_number 15
_symmetry_cell_setting 'monoclinic'
loop_
_space_group_symop_operation_xyz
x,y,z
-x,y,1/2-z
-x,-y,-z
x,-y,1/2+z
1/2+x,1/2+y,z
1/2-x,1/2+y,1/2-z
1/2-x,1/2-y,-z
1/2+x,1/2-y,1/2+z
loop_
_atom_site_type_symbol
_atom_site_label
_atom_site_fract_x
_atom_site_fract_y
_atom_site_fract_z
Si Si1 0.451236 0.534910 0.601519
Si Si2 0.892926 0.362144 0.619339
Si Si3 0.884238 0.710147 0.626147
Si Si4 0.714982 0.032510 0.020677
Si Si5 0.474100 0.292803 0.001257
Si Si6 0.781061 0.843828 0.757072
O O1 0.500000 0.490314 0.750000
O O2 0.500000 0.500000 0.500000
O O3 0.324983 0.512479 0.523579
O O4 0.486303 0.639893 0.623479
O O5 0.871617 0.453529 0.534613
O O6 0.908407 0.293229 0.514754
O O7 0.800690 0.322877 0.668156
O O8 0.000000 0.375966 0.750000
O O9 0.828944 0.614709 0.580926
O O10 0.792272 0.767317 0.655903
O O11 0.000000 0.697839 0.750000
O O12 0.912438 0.761552 0.509146
O O13 0.736831 0.064901 0.172975
O O14 0.402802 0.350848 0.868977
#
# Coordination Sequence:
#
# PCOD8150452 Si02
#       6
#     8   8   8   8   8   8
#     4  12  27  47  74 109 151 201 262 321 390 466
#     4  12  27  46  74 112 156 197 258 318 401 467
#     4  10  24  47  79 107 152 201 263 317 394 473
#     4  12  26  45  72 113 150 201 255 328 388 467
#     4  11  24  50  73 108 149 204 255 319 391 471
#     4  11  24  45  72 106 152 201 254 320 383 475
#
# _framework density 24.268961999999998
#
# number of rings (size 3 to 8) (size 9 to 14) (size 15 to 20)
#    0.000    0.667    1.667    5.000    0.000    9.333 
#    0.000    0.000    0.000    0.000    0.000    0.000 
#    0.000    0.000    0.000    0.000    0.000    0.000 
#
# Total GULP energy -297421.239314 kJ/mol
# GULP energy per Si atom -12392.551638 kJ/mol
# Density = 2.421372 g / cm^3
# Si number density = 24.268962 Si / 1000 Ang^3
#
#
#
# Elastic Constant Matrix: (Units=GPa)
#
#
# Indices 1 2 3 4 5 6 
#
# 1 96.3379 47.4714 41.3656 0.0000 -2.9065 0.0000
# 2 47.4714 146.6573 59.3336 0.0000 0.2297 0.0000
# 3 41.3656 59.3336 111.5824 0.0000 -10.0913 0.0000
# 4 0.0000 0.0000 0.0000 25.6765 0.0000 5.0638
# 5 -2.9065 0.2297 -10.0913 0.0000 41.4485 0.0000
# 6 0.0000 0.0000 0.0000 5.0638 0.0000 26.1911
#
#
#
# Elastic Compliance Matrix: (Units=1/GPa)
#
#
# Indices 1 2 3 4 5 6 
#
# 1 0.013270 -0.002943 -0.003342 0.000000 0.000133 0.000000
# 2 -0.002943 0.009399 -0.004019 0.000000 -0.001237 0.000000
# 3 -0.003342 -0.004019 0.012596 0.000000 0.002855 0.000000
# 4 0.000000 0.000000 0.000000 0.040490 0.000000 -0.007828
# 5 0.000133 -0.001237 0.002855 0.000000 0.024838 0.000000
# 6 0.000000 0.000000 0.000000 -0.007828 0.000000 0.039694
#
#
# Mechanical properties :
#
#
# Convention : Reuss Voigt Hill
#
# Bulk Modulus (GPa) = 68.22906 72.32431 70.27669
# Shear Modulus (GPa) = 30.16039 32.42369 31.29204
#
# Velocity S-wave (km/s) = 3.52910 3.65912 3.59470
# Velocity P-wave (km/s) = 6.69185 6.90783 6.80069
#
# Compressibility (1/GPa) = 0.01465651
#
# Stress axis : x y z
#
# Youngs Moduli (GPa) = 75.36067 106.39303 79.38985
#
# Poissons Ratio (x) = 0.31314 0.26533
# Poissons Ratio (y) = 0.22181 0.31904
# Poissons Ratio (z) = 0.25187 0.42756
#
# Static dielectric constant tensor:
#      x y z
#    x 4.613940 0.000000 0.216170 
#    y 0.000000 4.610280 0.000000 
#    z 0.216170 0.000000 4.769570 
# 
# 
# High freq. dielectric constant tensor:
#      x y z
#    x 1.969300 0.000000 0.004800 
#    y 0.000000 1.968380 0.000000 
#    z 0.004800 0.000000 1.977730 
# 
# From -- ./inp_files/96554.got.cif
#   From: 2010.06.25/outbox.cif.g09.slc.cpg/sg15_49_cif.got.tgz:96554.got - 2010.06.28 07:06:18.
