data_PCOD8150113
_publ_section_title
;
Structure prediction by ZEFSAII (Michael W. Deem and Ramdas Pophale) SiO2 
 PCOD8150113
Probable space group: C 2/C
;
_chemical_formula_sum "Si O2"
_cell_formula_units_Z 56
_cell_length_a 13.758926
_cell_length_b 20.313407
_cell_length_c 9.107347
_cell_angle_alpha 90.000000
_cell_angle_beta 82.458229
_cell_angle_gamma 90.000000
_cell_volume 2523.399160
_symmetry_space_group_name_H-M "C 2/C"
_symmetry_group_IT_number 15
_symmetry_cell_setting 'monoclinic'
loop_
_space_group_symop_operation_xyz
x,y,z
-x,y,1/2-z
-x,-y,-z
x,-y,1/2+z
1/2+x,1/2+y,z
1/2-x,1/2+y,1/2-z
1/2-x,1/2-y,-z
1/2+x,1/2-y,1/2+z
loop_
_atom_site_type_symbol
_atom_site_label
_atom_site_fract_x
_atom_site_fract_y
_atom_site_fract_z
Si Si1 0.503877 0.929740 0.424999
Si Si2 0.354869 0.632918 0.982063
Si Si3 0.143498 0.858746 0.672074
Si Si4 0.635119 0.165771 0.359504
Si Si5 0.010060 0.223108 0.990321
Si Si6 0.141864 0.333672 0.514248
Si Si7 0.424419 0.500279 0.388733
O O1 0.500000 0.934719 0.250000
O O2 0.421567 0.883601 0.519209
O O3 0.610164 0.899716 0.437299
O O4 0.500000 0.000000 0.500000
O O5 0.454054 0.668061 0.901727
O O6 0.345237 0.558844 0.922928
O O7 0.374033 0.634452 0.152459
O O8 0.257915 0.675063 0.960572
O O9 0.252074 0.833339 0.614441
O O10 0.062814 0.808937 0.621867
O O11 0.134447 0.931777 0.607015
O O12 0.593287 0.239653 0.382750
O O13 0.620932 0.150475 0.190271
O O14 0.919932 0.273790 0.045870
O O15 0.500000 0.484153 0.250000
O O16 0.500000 0.500000 0.500000
#
# Coordination Sequence:
#
# PCOD8150113 Si02
#       7
#     8   8   8   8   8   8   8
#     4  11  23  43  66  94 132 176 220 275 331 392
#     4  11  24  43  69  97 136 177 219 277 333 392
#     4  11  23  43  69  97 135 178 219 276 332 395
#     4  10  24  44  67  98 132 173 225 275 330 393
#     4  11  20  40  66  95 134 175 216 266 330 390
#     4  10  24  45  67  97 133 173 223 277 332 390
#     4  12  23  44  68  99 133 175 221 272 334 396
#
# _framework density 22.192288999999999
#
# number of rings (size 3 to 8) (size 9 to 14) (size 15 to 20)
#    0.000    1.143    2.857    3.857    2.000    5.714 
#    2.571    0.000    0.000    0.000    0.000    0.000 
#    0.000    0.000    0.000    0.000    0.000    0.000 
#
# Total GULP energy -346872.942766 kJ/mol
# GULP energy per Si atom -12388.319384 kJ/mol
# Density = 2.214178 g / cm^3
# Si number density = 22.192289 Si / 1000 Ang^3
#
#
#
# Elastic Constant Matrix: (Units=GPa)
#
#
# Indices 1 2 3 4 5 6 
#
# 1 171.3395 73.6723 47.0830 0.0000 8.7691 0.0000
# 2 73.6723 148.6117 47.4079 0.0000 14.6624 0.0000
# 3 47.0830 47.4079 118.1404 0.0000 8.2909 0.0000
# 4 0.0000 0.0000 0.0000 25.8863 0.0000 0.0543
# 5 8.7691 14.6624 8.2909 0.0000 32.7176 0.0000
# 6 0.0000 0.0000 0.0000 0.0543 0.0000 39.2942
#
#
#
# Elastic Compliance Matrix: (Units=1/GPa)
#
#
# Indices 1 2 3 4 5 6 
#
# 1 0.007728 -0.003252 -0.001763 0.000000 -0.000167 0.000000
# 2 -0.003252 0.009331 -0.002256 0.000000 -0.002738 0.000000
# 3 -0.001763 -0.002256 0.010149 0.000000 -0.001088 0.000000
# 4 0.000000 0.000000 0.000000 0.038631 0.000000 -0.000053
# 5 -0.000167 -0.002738 -0.001088 0.000000 0.032112 0.000000
# 6 0.000000 0.000000 0.000000 -0.000053 0.000000 0.025449
#
#
# Mechanical properties :
#
#
# Convention : Reuss Voigt Hill
#
# Bulk Modulus (GPa) = 78.95712 86.04645 82.50178
# Shear Modulus (GPa) = 35.17075 37.57486 36.37280
#
# Velocity S-wave (km/s) = 3.98530 4.11925 4.05283
# Velocity P-wave (km/s) = 7.53874 7.84102 7.69137
#
# Compressibility (1/GPa) = 0.01266510
#
# Stress axis : x y z
#
# Youngs Moduli (GPa) = 129.40501 107.16982 98.53307
#
# Poissons Ratio (x) = 0.34852 0.17372
# Poissons Ratio (y) = 0.42082 0.22231
# Poissons Ratio (z) = 0.22815 0.24179
#
# Static dielectric constant tensor:
#      x y z
#    x 4.315930 0.000000 0.089750 
#    y 0.000000 4.208640 0.000000 
#    z 0.089750 0.000000 3.816610 
# 
# 
# High freq. dielectric constant tensor:
#      x y z
#    x 1.889090 0.000000 0.008110 
#    y 0.000000 1.884480 0.000000 
#    z 0.008110 0.000000 1.863910 
# 
# From -- ./inp_files/41260.got.cif
#   From: 2010.06.25/outbox.cif.g09.slc.cpg/sg15_21_cif.got.tgz:41260.got - 2010.06.28 07:06:18.
