data_PCOD8150411
_publ_section_title
;
Structure prediction by ZEFSAII (Michael W. Deem and Ramdas Pophale) SiO2 
 PCOD8150411
Probable space group: C 2/C
;
_chemical_formula_sum "Si O2"
_cell_formula_units_Z 28
_cell_length_a 6.595969
_cell_length_b 18.301737
_cell_length_c 13.770041
_cell_angle_alpha 90.000000
_cell_angle_beta 38.399904
_cell_angle_gamma 90.000000
_cell_volume 1032.524032
_symmetry_space_group_name_H-M "C 2/C"
_symmetry_group_IT_number 15
_symmetry_cell_setting 'monoclinic'
loop_
_space_group_symop_operation_xyz
x,y,z
-x,y,1/2-z
-x,-y,-z
x,-y,1/2+z
1/2+x,1/2+y,z
1/2-x,1/2+y,1/2-z
1/2-x,1/2-y,-z
1/2+x,1/2-y,1/2+z
loop_
_atom_site_type_symbol
_atom_site_label
_atom_site_fract_x
_atom_site_fract_y
_atom_site_fract_z
Si Si1 0.147408 0.810959 0.930785
Si Si2 0.926404 0.343546 0.501982
Si Si3 0.000000 0.045485 0.250000
Si Si4 0.319731 0.582953 0.694032
O O1 0.500000 0.815411 0.750000
O O2 0.891788 0.826597 0.941732
O O3 0.055586 0.729951 0.007330
O O4 0.100866 0.869963 0.034691
O O5 0.822042 0.404406 0.619545
O O6 0.224541 0.375472 0.328367
O O7 0.961349 0.996689 0.167052
O O8 0.000000 0.573060 0.750000
#
# Coordination Sequence:
#
# PCOD8150411 Si02
#       4
#     8   8   4   8
#     4  10  24  46  78 109 144 195 248 310 368 431
#     4  10  25  45  73 111 149 191 249 307 362 445
#     4  12  26  46  78 108 152 198 240 304 376 440
#     4  10  25  49  75 109 152 190 250 305 372 438
#
# _framework density 27.118012
#
# number of rings (size 3 to 8) (size 9 to 14) (size 15 to 20)
#    0.000    1.714    0.000    0.857   12.000   11.429 
#    0.000    0.000    3.143    0.000    0.000    0.000 
#    0.000    0.000    0.000    0.000    0.000    0.000 
#
# Total GULP energy -173694.287802 kJ/mol
# GULP energy per Si atom -12406.734843 kJ/mol
# Density = 2.705629 g / cm^3
# Si number density = 27.118012 Si / 1000 Ang^3
#
#
#
# Elastic Constant Matrix: (Units=GPa)
#
#
# Indices 1 2 3 4 5 6 
#
# 1 37.0423 73.8780 56.5868 0.0005 1.0578 -0.0003
# 2 73.8780 219.2759 123.9980 -0.0001 10.1175 0.0001
# 3 56.5868 123.9980 232.3190 0.0003 -7.1445 -0.0005
# 4 0.0005 -0.0001 0.0003 58.4083 -0.0004 6.5536
# 5 1.0578 10.1175 -7.1445 -0.0004 45.2741 0.0003
# 6 -0.0003 0.0001 -0.0005 6.5536 0.0003 25.1428
#
#
#
# Elastic Compliance Matrix: (Units=1/GPa)
#
#
# Indices 1 2 3 4 5 6 
#
# 1 0.092871 -0.026722 -0.008282 -0.000001 0.002495 0.000001
# 2 -0.026722 0.014410 -0.001268 0.000000 -0.002796 0.000000
# 3 -0.008282 -0.001268 0.007047 0.000000 0.001589 0.000000
# 4 -0.000001 0.000000 0.000000 0.017637 0.000000 -0.004597
# 5 0.002495 -0.002796 0.001589 0.000000 0.022905 0.000000
# 6 0.000001 0.000000 0.000000 -0.004597 0.000000 0.040971
#
#
# Mechanical properties :
#
#
# Convention : Reuss Voigt Hill
#
# Bulk Modulus (GPa) = 23.93241 110.84032 67.38637
# Shear Modulus (GPa) = 17.71091 41.37668 29.54379
#
# Velocity S-wave (km/s) = 2.55836 3.91039 3.30427
# Velocity P-wave (km/s) = 4.19183 7.83264 6.28178
#
# Compressibility (1/GPa) = 0.04178433
#
# Stress axis : x y z
#
# Youngs Moduli (GPa) = 10.76768 69.39761 141.89530
#
# Poissons Ratio (x) = 1.85442 1.17513
# Poissons Ratio (y) = 0.28773 0.17997
# Poissons Ratio (z) = 0.08917 0.08802
#
# Static dielectric constant tensor:
#      x y z
#    x 5.259070 0.000000 -0.041110 
#    y 0.000000 5.330670 0.000000 
#    z -0.041110 0.000000 4.836730 
# 
# 
# High freq. dielectric constant tensor:
#      x y z
#    x 2.128360 0.000000 -0.022460 
#    y 0.000000 2.101660 0.000000 
#    z -0.022460 0.000000 2.095060 
# 
# From -- ./inp_files/190130.got.cif
#   From: 2010.06.25/outbox.cif.g09.slc.cpg/sg15_96_cif.got.tgz:190130.got - 2010.06.28 07:06:18.
