data_PCOD8150882
_publ_section_title
;
Structure prediction by ZEFSAII (Michael W. Deem and Ramdas Pophale) SiO2 
 PCOD8150882
Probable space group: C 2/C
;
_chemical_formula_sum "Si O2"
_cell_formula_units_Z 36
_cell_length_a 10.734515
_cell_length_b 9.975575
_cell_length_c 13.421542
_cell_angle_alpha 90.000000
_cell_angle_beta 69.994160
_cell_angle_gamma 90.000000
_cell_volume 1350.493451
_symmetry_space_group_name_H-M "C 2/C"
_symmetry_group_IT_number 15
_symmetry_cell_setting 'monoclinic'
loop_
_space_group_symop_operation_xyz
x,y,z
-x,y,1/2-z
-x,-y,-z
x,-y,1/2+z
1/2+x,1/2+y,z
1/2-x,1/2+y,1/2-z
1/2-x,1/2-y,-z
1/2+x,1/2-y,1/2+z
loop_
_atom_site_type_symbol
_atom_site_label
_atom_site_fract_x
_atom_site_fract_y
_atom_site_fract_z
Si Si1 0.500000 0.554463 0.250000
Si Si2 0.351044 0.851850 0.055473
Si Si3 0.280318 0.772360 0.284525
Si Si4 0.850809 0.626870 0.955434
Si Si5 0.493263 0.702404 0.859979
O O1 0.367418 0.639359 0.270597
O O2 0.512810 0.459783 0.148357
O O3 0.362665 0.745259 0.959500
O O4 0.304443 0.993764 0.025175
O O5 0.256215 0.816107 0.175070
O O6 0.496843 0.845067 0.062549
O O7 0.345741 0.889509 0.335249
O O8 0.132013 0.746273 0.371489
O O9 0.750000 0.750000 0.000000
O O10 0.500000 0.773009 0.750000
#
# Coordination Sequence:
#
# PCOD8150882 Si02
#       5
#     4   8   8   8   8
#     4  10  26  48  72 110 158 192 266 306 400 442
#     4  11  25  44  79 115 150 205 260 315 394 460
#     4  12  24  49  81 106 157 210 248 327 390 464
#     4  11  24  44  77 114 155 200 258 321 398 457
#     4  10  27  49  71 114 155 199 260 320 376 472
#
# _framework density 26.656922000000002
#
# number of rings (size 3 to 8) (size 9 to 14) (size 15 to 20)
#    0.667    0.444    4.444    0.000    3.111    7.111 
#    0.000    0.000    4.889    0.000    0.000    0.000 
#    0.000    0.000    0.000    0.000    0.000    0.000 
#
# Total GULP energy -223027.742457 kJ/mol
# GULP energy per Si atom -12390.430137 kJ/mol
# Density = 2.659625 g / cm^3
# Si number density = 26.656922 Si / 1000 Ang^3
#
#
#
# Elastic Constant Matrix: (Units=GPa)
#
#
# Indices 1 2 3 4 5 6 
#
# 1 86.6141 55.7778 43.3234 0.0000 -20.7971 0.0000
# 2 55.7778 157.5213 55.5998 0.0000 -3.3819 0.0000
# 3 43.3234 55.5998 176.7103 0.0000 1.7739 0.0000
# 4 0.0000 0.0000 0.0000 37.4706 0.0000 1.3426
# 5 -20.7971 -3.3819 1.7739 0.0000 53.0841 0.0000
# 6 0.0000 0.0000 0.0000 1.3426 0.0000 35.6044
#
#
#
# Elastic Compliance Matrix: (Units=1/GPa)
#
#
# Indices 1 2 3 4 5 6 
#
# 1 0.017947 -0.005211 -0.002829 0.000000 0.006794 0.000000
# 2 -0.005211 0.008669 -0.001436 0.000000 -0.001441 0.000000
# 3 -0.002829 -0.001436 0.006819 0.000000 -0.001428 0.000000
# 4 0.000000 0.000000 0.000000 0.026724 0.000000 -0.001008
# 5 0.006794 -0.001441 -0.001428 0.000000 0.021456 0.000000
# 6 0.000000 0.000000 0.000000 -0.001008 0.000000 0.028124
#
#
# Mechanical properties :
#
#
# Convention : Reuss Voigt Hill
#
# Bulk Modulus (GPa) = 69.03859 81.13863 75.08861
# Shear Modulus (GPa) = 37.44825 42.97480 40.21152
#
# Velocity S-wave (km/s) = 3.75216 4.01951 3.88813
# Velocity P-wave (km/s) = 6.68781 7.21430 6.95604
#
# Compressibility (1/GPa) = 0.01448465
#
# Stress axis : x y z
#
# Youngs Moduli (GPa) = 55.71867 115.34981 146.65860
#
# Poissons Ratio (x) = 0.60106 0.41486
# Poissons Ratio (y) = 0.29034 0.21056
# Poissons Ratio (z) = 0.15762 0.16561
#
# Static dielectric constant tensor:
#      x y z
#    x 5.129260 0.000000 0.463510 
#    y 0.000000 4.369580 0.000000 
#    z 0.463510 0.000000 6.001420 
# 
# 
# High freq. dielectric constant tensor:
#      x y z
#    x 2.120150 0.000000 0.004130 
#    y 0.000000 2.030900 0.000000 
#    z 0.004130 0.000000 2.094530 
# 
# From -- ./inp_files/141651.got.cif
#   From: 2010.06.25/outbox.cif.g09.slc.cpg/sg15_71_cif.got.tgz:141651.got - 2010.06.28 07:06:18.
