data_PCOD8150019
_publ_section_title
;
Structure prediction by ZEFSAII (Michael W. Deem and Ramdas Pophale) SiO2 
 PCOD8150019
Probable space group: C 2/C
;
_chemical_formula_sum "Si O2"
_cell_formula_units_Z 52
_cell_length_a 15.614690
_cell_length_b 6.277311
_cell_length_c 28.775814
_cell_angle_alpha 90.000000
_cell_angle_beta 121.249421
_cell_angle_gamma 90.000000
_cell_volume 2411.341055
_symmetry_space_group_name_H-M "C 2/C"
_symmetry_group_IT_number 15
_symmetry_cell_setting 'monoclinic'
loop_
_space_group_symop_operation_xyz
x,y,z
-x,y,1/2-z
-x,-y,-z
x,-y,1/2+z
1/2+x,1/2+y,z
1/2-x,1/2+y,1/2-z
1/2-x,1/2-y,-z
1/2+x,1/2-y,1/2+z
loop_
_atom_site_type_symbol
_atom_site_label
_atom_site_fract_x
_atom_site_fract_y
_atom_site_fract_z
Si Si1 0.165595 0.571981 0.978186
Si Si2 0.181208 0.939033 0.663803
Si Si3 0.980932 0.928530 0.547556
Si Si4 0.672224 0.330215 0.433138
Si Si5 0.349489 0.339714 0.173357
Si Si6 0.000000 0.523717 0.250000
Si Si7 0.165714 0.225423 0.263156
O O1 0.209880 0.391781 0.025997
O O2 0.250000 0.750000 0.000000
O O3 0.155972 0.429376 0.928050
O O4 0.059901 0.681782 0.962862
O O5 0.076945 0.962599 0.607646
O O6 0.245818 0.785240 0.649601
O O7 0.175949 0.828851 0.712363
O O8 0.233501 0.169626 0.686785
O O9 0.000000 0.000000 0.500000
O O10 0.895843 0.075564 0.545196
O O11 0.644296 0.438638 0.376309
O O12 0.363076 0.517971 0.215912
O O13 0.439291 0.173006 0.198427
O O14 0.926344 0.387044 0.261048
#
# Coordination Sequence:
#
# PCOD8150019 Si02
#       7
#     8   8   8   8   8   4   8
#     4   9  22  44  66  93 133 169 230 272 327 392
#     4  11  26  43  68  98 140 174 223 280 344 403
#     4  11  27  42  67 101 138 175 227 283 340 401
#     4  10  24  43  70  94 128 182 226 275 333 404
#     4  11  25  43  70  97 133 179 224 278 342 408
#     4  10  26  40  70  96 136 168 236 268 342 410
#     4  11  24  46  66  99 135 178 221 285 340 407
#
# _framework density 21.564764
#
# number of rings (size 3 to 8) (size 9 to 14) (size 15 to 20)
#    0.000    1.538    1.538    0.462   15.077    4.308 
#    0.000    0.000    0.000    0.000    0.000    0.000 
#    0.000    0.000    0.000    0.000    0.000    0.000 
#
# Total GULP energy -322160.329737 kJ/mol
# GULP energy per Si atom -12390.781913 kJ/mol
# Density = 2.151568 g / cm^3
# Si number density = 21.564764 Si / 1000 Ang^3
#
#
#
# Elastic Constant Matrix: (Units=GPa)
#
#
# Indices 1 2 3 4 5 6 
#
# 1 91.2004 41.3001 59.4550 0.0000 7.0770 0.0000
# 2 41.3001 114.5857 37.8105 0.0000 7.1903 0.0000
# 3 59.4550 37.8105 126.5446 0.0000 -3.2155 0.0000
# 4 0.0000 0.0000 0.0000 23.6580 0.0000 -10.8221
# 5 7.0770 7.1903 -3.2155 0.0000 43.4571 0.0000
# 6 0.0000 0.0000 0.0000 -10.8221 0.0000 -25.8696
#
#
#
# Elastic Compliance Matrix: (Units=1/GPa)
#
#
# Indices 1 2 3 4 5 6 
#
# 1 0.017592 -0.003790 -0.007203 0.000000 -0.002771 0.000000
# 2 -0.003790 0.010644 -0.001431 0.000000 -0.001250 0.000000
# 3 -0.007203 -0.001431 0.011772 0.000000 0.002281 0.000000
# 4 0.000000 0.000000 0.000000 0.035480 0.000000 -0.014842
# 5 -0.002771 -0.001250 0.002281 0.000000 0.023838 0.000000
# 6 0.000000 0.000000 0.000000 -0.014842 0.000000 -0.032446
#
#
# Mechanical properties :
#
#
# Convention : Reuss Voigt Hill
#
# Bulk Modulus (GPa) = 65.96770 67.71798 66.84284
# Shear Modulus (GPa) = 51.66251 21.16679 36.41465
#
# Velocity S-wave (km/s) = 4.89989 3.13636 4.11374
# Velocity P-wave (km/s) = 7.91636 6.67727 7.32307
#
# Compressibility (1/GPa) = 0.01515893
#
# Stress axis : x y z
#
# Youngs Moduli (GPa) = 56.84350 93.95100 84.94425
#
# Poissons Ratio (x) = 0.35607 0.61189
# Poissons Ratio (y) = 0.21543 0.12159
# Poissons Ratio (z) = 0.40947 0.13448
#
# Static dielectric constant tensor:
#      x y z
#    x 4.206970 0.000000 0.225930 
#    y 0.000000 4.446850 0.000000 
#    z 0.225930 0.000000 3.856460 
# 
# 
# High freq. dielectric constant tensor:
#      x y z
#    x 1.848020 0.000000 0.008640 
#    y 0.000000 1.858920 0.000000 
#    z 0.008640 0.000000 1.847640 
# 
# From -- ./inp_files/312426.got.cif
#   From: 2010.06.25/outbox.cif.g09.slc.cpg/sg15_157_cif.got.tgz:312426.got - 2010.06.28 07:06:18.
