data_PCOD8150413
_publ_section_title
;
Structure prediction by ZEFSAII (Michael W. Deem and Ramdas Pophale) SiO2 
 PCOD8150413
Probable space group: C 2/C
;
_chemical_formula_sum "Si O2"
_cell_formula_units_Z 52
_cell_length_a 27.158346
_cell_length_b 17.732453
_cell_length_c 5.472485
_cell_angle_alpha 90.000000
_cell_angle_beta 117.423457
_cell_angle_gamma 90.000000
_cell_volume 2339.306737
_symmetry_space_group_name_H-M "C 2/C"
_symmetry_group_IT_number 15
_symmetry_cell_setting 'monoclinic'
loop_
_space_group_symop_operation_xyz
x,y,z
-x,y,1/2-z
-x,-y,-z
x,-y,1/2+z
1/2+x,1/2+y,z
1/2-x,1/2+y,1/2-z
1/2-x,1/2-y,-z
1/2+x,1/2-y,1/2+z
loop_
_atom_site_type_symbol
_atom_site_label
_atom_site_fract_x
_atom_site_fract_y
_atom_site_fract_z
Si Si1 0.441978 0.806364 0.992877
Si Si2 0.500000 0.289230 0.250000
Si Si3 0.795370 0.774923 0.796097
Si Si4 0.374703 0.043802 0.318866
Si Si5 0.232056 0.628789 0.512702
Si Si6 0.170483 0.952806 0.062916
Si Si7 0.899796 0.180276 0.232214
O O1 0.500000 0.825757 0.250000
O O2 0.402977 0.752817 0.066008
O O3 0.454058 0.763172 0.770521
O O4 0.411943 0.883486 0.867263
O O5 0.538365 0.338702 0.519741
O O6 0.750000 0.750000 0.500000
O O7 0.803691 0.701409 0.985525
O O8 0.854519 0.799311 0.831782
O O9 0.773052 0.847496 0.889004
O O10 0.388481 0.007003 0.612788
O O11 0.309878 0.064911 0.174854
O O12 0.271379 0.593577 0.813963
O O13 0.166761 0.000636 0.303276
O O14 0.119333 0.893950 0.956975
#
# Coordination Sequence:
#
# PCOD8150413 Si02
#       7
#     8   4   8   8   8   8   8
#     4  10  25  47  75 104 136 188 248 304 358 426
#     4  10  24  46  80 100 136 180 250 316 354 430
#     4  11  22  39  74 106 137 183 246 303 340 424
#     4  12  29  45  71 107 154 197 235 294 360 436
#     4  11  25  42  66 107 145 193 237 289 358 427
#     4  12  27  45  69 103 147 189 229 291 363 435
#     4  11  24  45  75 103 139 185 247 296 367 423
#
# _framework density 22.228808000000001
#
# number of rings (size 3 to 8) (size 9 to 14) (size 15 to 20)
#    0.000    0.923    1.538    3.692   15.077    0.615 
#    0.000    0.769    0.000    0.000    0.000    0.000 
#    0.000    0.000    0.000    0.000    0.000    0.000 
#
# Total GULP energy -322392.388185 kJ/mol
# GULP energy per Si atom -12399.707238 kJ/mol
# Density = 2.217821 g / cm^3
# Si number density = 22.228808 Si / 1000 Ang^3
#
#
#
# Elastic Constant Matrix: (Units=GPa)
#
#
# Indices 1 2 3 4 5 6 
#
# 1 117.0365 49.1219 40.5646 0.0000 -8.6158 0.0000
# 2 49.1219 90.3330 57.7116 0.0000 16.9699 0.0000
# 3 40.5646 57.7116 107.0570 0.0000 -3.9332 0.0000
# 4 0.0000 0.0000 0.0000 47.3324 0.0000 8.9117
# 5 -8.6158 16.9699 -3.9332 0.0000 37.7290 0.0000
# 6 0.0000 0.0000 0.0000 8.9117 0.0000 27.7811
#
#
#
# Elastic Compliance Matrix: (Units=1/GPa)
#
#
# Indices 1 2 3 4 5 6 
#
# 1 0.012335 -0.007690 -0.000299 0.000000 0.006244 0.000000
# 2 -0.007690 0.024985 -0.011075 0.000000 -0.014148 0.000000
# 3 -0.000299 -0.011075 0.015665 0.000000 0.006546 0.000000
# 4 0.000000 0.000000 0.000000 0.022485 0.000000 -0.007213
# 5 0.006244 -0.014148 0.006546 0.000000 0.034977 0.000000
# 6 0.000000 0.000000 0.000000 -0.007213 0.000000 0.038309
#
#
# Mechanical properties :
#
#
# Convention : Reuss Voigt Hill
#
# Bulk Modulus (GPa) = 67.30549 67.69141 67.49845
# Shear Modulus (GPa) = 26.06382 33.70374 29.88378
#
# Velocity S-wave (km/s) = 3.42793 3.89809 3.67055
# Velocity P-wave (km/s) = 6.78320 7.12589 6.95666
#
# Compressibility (1/GPa) = 0.01485763
#
# Stress axis : x y z
#
# Youngs Moduli (GPa) = 81.06906 40.02386 63.83697
#
# Poissons Ratio (x) = 0.30777 0.01910
# Poissons Ratio (y) = 0.62339 0.70699
# Poissons Ratio (z) = 0.02426 0.44326
#
# Static dielectric constant tensor:
#      x y z
#    x 3.973160 0.000000 0.005740 
#    y 0.000000 4.191200 0.000000 
#    z 0.005740 0.000000 4.226870 
# 
# 
# High freq. dielectric constant tensor:
#      x y z
#    x 1.875180 0.000000 0.003080 
#    y 0.000000 1.873850 0.000000 
#    z 0.003080 0.000000 1.893050 
# 
# From -- ./inp_files/17231.got.cif
#   From: 2010.06.25/outbox.cif.g09.slc.cpg/sg15_9_cif.got.tgz:17231.got - 2010.06.28 07:06:18.
