data_PCOD8150751
_publ_section_title
;
Structure prediction by ZEFSAII (Michael W. Deem and Ramdas Pophale) SiO2 
 PCOD8150751
Probable space group: C 2/C
;
_chemical_formula_sum "Si O2"
_cell_formula_units_Z 28
_cell_length_a 9.421940
_cell_length_b 8.253083
_cell_length_c 15.668074
_cell_angle_alpha 90.000000
_cell_angle_beta 98.931834
_cell_angle_gamma 90.000000
_cell_volume 1203.576248
_symmetry_space_group_name_H-M "C 2/C"
_symmetry_group_IT_number 15
_symmetry_cell_setting 'monoclinic'
loop_
_space_group_symop_operation_xyz
x,y,z
-x,y,1/2-z
-x,-y,-z
x,-y,1/2+z
1/2+x,1/2+y,z
1/2-x,1/2+y,1/2-z
1/2-x,1/2-y,-z
1/2+x,1/2-y,1/2+z
loop_
_atom_site_type_symbol
_atom_site_label
_atom_site_fract_x
_atom_site_fract_y
_atom_site_fract_z
Si Si1 0.949464 0.911340 0.156460
Si Si2 0.899393 0.271188 0.965310
Si Si3 0.367025 0.117815 0.888185
Si Si4 0.500000 0.276710 0.750000
O O1 0.799003 0.839432 0.108205
O O2 0.000000 0.827264 0.250000
O O3 0.070354 0.880254 0.095308
O O4 0.924337 0.104281 0.172780
O O5 0.902156 0.430560 0.907366
O O6 0.750000 0.250000 0.000000
O O7 0.029757 0.273221 0.044389
O O8 0.390796 0.160080 0.790274
#
# Coordination Sequence:
#
# PCOD8150751 Si02
#       4
#     8   8   8   4
#     4  10  26  43  69  99 136 177 225 281 339 399
#     4  11  26  46  70 101 137 180 228 276 341 402
#     4  11  25  44  70 100 135 180 226 279 335 406
#     4  10  26  40  72 102 134 174 230 280 342 392
#
# _framework density 23.264002999999999
#
# number of rings (size 3 to 8) (size 9 to 14) (size 15 to 20)
#    0.857    0.571    0.000    2.571   10.000    9.143 
#    0.000    0.000    0.000    0.000    0.000    0.000 
#    0.000    0.000    0.000    0.000    0.000    0.000 
#
# Total GULP energy -173493.546630 kJ/mol
# GULP energy per Si atom -12392.396188 kJ/mol
# Density = 2.321105 g / cm^3
# Si number density = 23.264003 Si / 1000 Ang^3
#
#
#
# Elastic Constant Matrix: (Units=GPa)
#
#
# Indices 1 2 3 4 5 6 
#
# 1 171.4442 32.4383 86.5060 0.0000 -9.9066 0.0000
# 2 32.4383 80.5544 66.6040 0.0000 -22.1962 0.0000
# 3 86.5060 66.6040 119.9349 0.0000 -17.8431 0.0000
# 4 0.0000 0.0000 0.0000 55.6562 0.0000 -11.2802
# 5 -9.9066 -22.1962 -17.8431 0.0000 60.5573 0.0000
# 6 0.0000 0.0000 0.0000 -11.2802 0.0000 25.3810
#
#
#
# Elastic Compliance Matrix: (Units=1/GPa)
#
#
# Indices 1 2 3 4 5 6 
#
# 1 0.009669 0.003534 -0.008899 0.000000 0.000255 0.000000
# 2 0.003534 0.025706 -0.016040 0.000000 0.005274 0.000000
# 3 -0.008899 -0.016040 0.023608 0.000000 -0.000379 0.000000
# 4 0.000000 0.000000 0.000000 0.019746 0.000000 0.008776
# 5 0.000255 0.005274 -0.000379 0.000000 0.018377 0.000000
# 6 0.000000 0.000000 0.000000 0.008776 0.000000 0.043300
#
#
# Mechanical properties :
#
#
# Convention : Reuss Voigt Hill
#
# Bulk Modulus (GPa) = 61.82874 82.55890 72.19382
# Shear Modulus (GPa) = 26.51031 40.74458 33.62745
#
# Velocity S-wave (km/s) = 3.37937 4.18951 3.80606
# Velocity P-wave (km/s) = 6.47005 7.67903 7.10032
#
# Compressibility (1/GPa) = 0.01617371
#
# Stress axis : x y z
#
# Youngs Moduli (GPa) = 103.42477 38.90077 42.35917
#
# Poissons Ratio (x) = -0.13749 0.37694
# Poissons Ratio (y) = -0.36555 0.67945
# Poissons Ratio (z) = 0.92035 0.62398
#
# Static dielectric constant tensor:
#      x y z
#    x 4.037800 0.000000 0.003370 
#    y 0.000000 3.916220 0.000000 
#    z 0.003370 0.000000 4.348860 
# 
# 
# High freq. dielectric constant tensor:
#      x y z
#    x 1.915670 0.000000 -0.002670 
#    y 0.000000 1.901450 0.000000 
#    z -0.002670 0.000000 1.934260 
# 
# From -- ./inp_files/187097.got.cif
#   From: 2010.06.25/outbox.cif.g09.slc.cpg/sg15_94_cif.got.tgz:187097.got - 2010.06.28 07:06:18.
