data_PCOD8150327
_publ_section_title
;
Structure prediction by ZEFSAII (Michael W. Deem and Ramdas Pophale) SiO2 
 PCOD8150327
Probable space group: C 2/C
;
_chemical_formula_sum "Si O2"
_cell_formula_units_Z 48
_cell_length_a 15.073546
_cell_length_b 13.811922
_cell_length_c 12.122422
_cell_angle_alpha 90.000000
_cell_angle_beta 58.842436
_cell_angle_gamma 90.000000
_cell_volume 2159.755990
_symmetry_space_group_name_H-M "C 2/C"
_symmetry_group_IT_number 15
_symmetry_cell_setting 'monoclinic'
loop_
_space_group_symop_operation_xyz
x,y,z
-x,y,1/2-z
-x,-y,-z
x,-y,1/2+z
1/2+x,1/2+y,z
1/2-x,1/2+y,1/2-z
1/2-x,1/2-y,-z
1/2+x,1/2-y,1/2+z
loop_
_atom_site_type_symbol
_atom_site_label
_atom_site_fract_x
_atom_site_fract_y
_atom_site_fract_z
Si Si1 0.270193 0.640709 0.945332
Si Si2 0.938052 0.904644 0.503627
Si Si3 0.646842 0.678928 0.842258
Si Si4 0.752128 0.363745 0.482991
Si Si5 0.750154 0.114801 0.275386
Si Si6 0.619833 0.979750 0.673038
O O1 0.295133 0.632613 0.800028
O O2 0.250000 0.750000 0.000000
O O3 0.364820 0.584808 0.944433
O O4 0.165938 0.584376 0.043849
O O5 0.863107 0.867804 0.649995
O O6 0.022131 0.822829 0.414880
O O7 0.000000 0.000000 0.500000
O O8 0.671787 0.613589 0.935224
O O9 0.684647 0.787624 0.829905
O O10 0.750000 0.250000 0.500000
O O11 0.726318 0.420029 0.614127
O O12 0.861907 0.406719 0.368385
O O13 0.677503 0.042791 0.252015
O O14 0.500000 0.955346 0.750000
#
# Coordination Sequence:
#
# PCOD8150327 Si02
#       6
#     8   8   8   8   8   8
#     4  11  23  43  71 109 148 181 240 307 360 440
#     4  11  24  42  69 104 143 194 240 296 370 443
#     4  11  22  44  71 100 146 187 235 297 368 432
#     4  10  25  49  67  96 148 189 231 299 362 446
#     4  10  24  46  67 104 144 182 245 298 364 443
#     4  11  25  43  73 105 139 184 243 302 367 432
#
# _framework density 22.224730999999998
#
# number of rings (size 3 to 8) (size 9 to 14) (size 15 to 20)
#    0.000    1.333    3.333    2.500    7.000    1.333 
#   15.000    0.000    0.000    0.000    0.000    0.000 
#    0.000    0.000    0.000    0.000    0.000    0.000 
#
# Total GULP energy -297337.853516 kJ/mol
# GULP energy per Si atom -12389.077230 kJ/mol
# Density = 2.217415 g / cm^3
# Si number density = 22.224731 Si / 1000 Ang^3
#
#
#
# Elastic Constant Matrix: (Units=GPa)
#
#
# Indices 1 2 3 4 5 6 
#
# 1 120.4400 48.2595 100.4782 0.0000 -13.3464 0.0000
# 2 48.2595 101.6613 40.0706 0.0000 -11.0743 0.0000
# 3 100.4782 40.0706 187.3520 0.0000 11.4590 0.0000
# 4 0.0000 0.0000 0.0000 36.7203 0.0000 -8.8364
# 5 -13.3464 -11.0743 11.4590 0.0000 62.1718 0.0000
# 6 0.0000 0.0000 0.0000 -8.8364 0.0000 29.8991
#
#
#
# Elastic Compliance Matrix: (Units=1/GPa)
#
#
# Indices 1 2 3 4 5 6 
#
# 1 0.018260 -0.004555 -0.009112 0.000000 0.004788 0.000000
# 2 -0.004555 0.012233 -0.000250 0.000000 0.001247 0.000000
# 3 -0.009112 -0.000250 0.010519 0.000000 -0.003939 0.000000
# 4 0.000000 0.000000 0.000000 0.029318 0.000000 0.008665
# 5 0.004788 0.001247 -0.003939 0.000000 0.018060 0.000000
# 6 0.000000 0.000000 0.000000 0.008665 0.000000 0.036007
#
#
# Mechanical properties :
#
#
# Convention : Reuss Voigt Hill
#
# Bulk Modulus (GPa) = 75.87957 87.45222 81.66589
# Shear Modulus (GPa) = 31.92375 40.46789 36.19582
#
# Velocity S-wave (km/s) = 3.79411 4.27177 4.04000
# Velocity P-wave (km/s) = 7.30820 7.98531 7.65424
#
# Compressibility (1/GPa) = 0.01317878
#
# Stress axis : x y z
#
# Youngs Moduli (GPa) = 54.76392 81.74415 95.07040
#
# Poissons Ratio (x) = 0.37237 0.86625
# Poissons Ratio (y) = 0.24947 0.02374
# Poissons Ratio (z) = 0.49899 0.02041
#
# Static dielectric constant tensor:
#      x y z
#    x 4.447360 0.000000 0.380600 
#    y 0.000000 4.109770 0.000000 
#    z 0.380600 0.000000 4.649250 
# 
# 
# High freq. dielectric constant tensor:
#      x y z
#    x 1.870170 0.000000 0.014170 
#    y 0.000000 1.880120 0.000000 
#    z 0.014170 0.000000 1.887500 
# 
# From -- ./inp_files/96839.got.cif
#   From: 2010.06.25/outbox.cif.g09.slc.cpg/sg15_49_cif.got.tgz:96839.got - 2010.06.28 07:06:18.
