data_PCOD8150339
_publ_section_title
;
Structure prediction by ZEFSAII (Michael W. Deem and Ramdas Pophale) SiO2 
 PCOD8150339
Probable space group: C 2/C
;
_chemical_formula_sum "Si O2"
_cell_formula_units_Z 60
_cell_length_a 21.491103
_cell_length_b 14.140488
_cell_length_c 9.531995
_cell_angle_alpha 90.000000
_cell_angle_beta 95.403254
_cell_angle_gamma 90.000000
_cell_volume 2883.851365
_symmetry_space_group_name_H-M "C 2/C"
_symmetry_group_IT_number 15
_symmetry_cell_setting 'monoclinic'
loop_
_space_group_symop_operation_xyz
x,y,z
-x,y,1/2-z
-x,-y,-z
x,-y,1/2+z
1/2+x,1/2+y,z
1/2-x,1/2+y,1/2-z
1/2-x,1/2-y,-z
1/2+x,1/2-y,1/2+z
loop_
_atom_site_type_symbol
_atom_site_label
_atom_site_fract_x
_atom_site_fract_y
_atom_site_fract_z
Si Si1 0.500000 0.739096 0.750000
Si Si2 0.299794 0.011654 0.871631
Si Si3 0.372913 0.319924 0.536197
Si Si4 0.875967 0.334945 0.824413
Si Si5 0.785052 0.967983 0.405197
Si Si6 0.992361 0.889118 0.983238
Si Si7 0.816323 0.297424 0.528010
Si Si8 0.363832 0.351798 0.845197
O O1 0.446545 0.811746 0.790950
O O2 0.476402 0.667629 0.623478
O O3 0.359509 0.945822 0.844343
O O4 0.265189 0.052277 0.726970
O O5 0.248611 0.955535 0.952074
O O6 0.323176 0.096380 0.973863
O O7 0.362692 0.216207 0.469623
O O8 0.341026 0.392256 0.418892
O O9 0.445595 0.344119 0.568164
O O10 0.342706 0.323827 0.683839
O O11 0.830583 0.294814 0.695442
O O12 0.815055 0.071457 0.393970
O O13 0.935529 0.884075 0.861141
O O14 0.000000 0.000000 0.000000
O O15 0.750000 0.250000 0.500000
O O16 0.864601 0.238232 0.446568
#
# Coordination Sequence:
#
# PCOD8150339 Si02
#       8
#     4   8   8   8   8   8   8   8
#     4  10  24  46  68  96 136 182 224 286 330 404
#     4  12  25  44  68  97 128 177 227 280 334 407
#     4  11  26  39  64  98 137 176 221 278 327 409
#     4  11  25  47  67  96 133 181 228 276 343 395
#     4  12  24  40  65 100 137 173 224 270 340 405
#     4  11  23  38  68  97 137 177 225 266 334 404
#     4  12  24  44  70  97 133 175 220 282 340 402
#     4  12  24  41  64 100 137 176 221 275 339 401
#
# _framework density 20.805510999999999
#
# number of rings (size 3 to 8) (size 9 to 14) (size 15 to 20)
#    0.000    0.533    6.667    1.200    3.733    0.533 
#    0.000    0.667    2.933    0.000    0.000    0.000 
#    0.000    0.000    0.000    0.000    0.000    0.000 
#
# Total GULP energy -371946.997922 kJ/mol
# GULP energy per Si atom -12398.233264 kJ/mol
# Density = 2.075816 g / cm^3
# Si number density = 20.805511 Si / 1000 Ang^3
#
#
#
# Elastic Constant Matrix: (Units=GPa)
#
#
# Indices 1 2 3 4 5 6 
#
# 1 84.6724 42.9677 29.2345 0.0000 3.7144 0.0000
# 2 42.9677 95.7385 31.5520 0.0000 -1.1451 0.0000
# 3 29.2345 31.5520 108.1687 0.0000 2.6807 0.0000
# 4 0.0000 0.0000 0.0000 36.0192 0.0000 -3.5173
# 5 3.7144 -1.1451 2.6807 0.0000 32.3045 0.0000
# 6 0.0000 0.0000 0.0000 -3.5173 0.0000 34.1707
#
#
#
# Elastic Compliance Matrix: (Units=1/GPa)
#
#
# Indices 1 2 3 4 5 6 
#
# 1 0.015968 -0.006397 -0.002404 0.000000 -0.001863 0.000000
# 2 -0.006397 0.014134 -0.002430 0.000000 0.001438 0.000000
# 3 -0.002404 -0.002430 0.010620 0.000000 -0.000691 0.000000
# 4 0.000000 0.000000 0.000000 0.028045 0.000000 0.002887
# 5 -0.001863 0.001438 -0.000691 0.000000 0.031278 0.000000
# 6 0.000000 0.000000 0.000000 0.002887 0.000000 0.029562
#
#
# Mechanical properties :
#
#
# Convention : Reuss Voigt Hill
#
# Bulk Modulus (GPa) = 54.75721 55.12090 54.93905
# Shear Modulus (GPa) = 31.61481 32.82056 32.21769
#
# Velocity S-wave (km/s) = 3.90236 3.97608 3.93939
# Velocity P-wave (km/s) = 6.83230 6.90144 6.86695
#
# Compressibility (1/GPa) = 0.01826244
#
# Stress axis : x y z
#
# Youngs Moduli (GPa) = 62.62588 70.75231 94.15971
#
# Poissons Ratio (x) = 0.45257 0.22632
# Poissons Ratio (y) = 0.40059 0.22877
# Poissons Ratio (z) = 0.15053 0.17190
#
# Static dielectric constant tensor:
#      x y z
#    x 3.872050 0.000000 -0.021740 
#    y 0.000000 3.714360 0.000000 
#    z -0.021740 0.000000 4.009020 
# 
# 
# High freq. dielectric constant tensor:
#      x y z
#    x 1.811900 0.000000 0.002690 
#    y 0.000000 1.805450 0.000000 
#    z 0.002690 0.000000 1.828470 
# 
# From -- ./inp_files/61572.got.cif
#   From: 2010.06.25/outbox.cif.g09.slc.cpg/sg15_31_cif.got.tgz:61572.got - 2010.06.28 07:06:18.
