data_PCOD8150961
_publ_section_title
;
Structure prediction by ZEFSAII (Michael W. Deem and Ramdas Pophale) SiO2 
 PCOD8150961
Probable space group: C 2/C
;
_chemical_formula_sum "Si O2"
_cell_formula_units_Z 48
_cell_length_a 9.922295
_cell_length_b 14.721425
_cell_length_c 13.760808
_cell_angle_alpha 90.000000
_cell_angle_beta 114.402359
_cell_angle_gamma 90.000000
_cell_volume 1830.481542
_symmetry_space_group_name_H-M "C 2/C"
_symmetry_group_IT_number 15
_symmetry_cell_setting 'monoclinic'
loop_
_space_group_symop_operation_xyz
x,y,z
-x,y,1/2-z
-x,-y,-z
x,-y,1/2+z
1/2+x,1/2+y,z
1/2-x,1/2+y,1/2-z
1/2-x,1/2-y,-z
1/2+x,1/2-y,1/2+z
loop_
_atom_site_type_symbol
_atom_site_label
_atom_site_fract_x
_atom_site_fract_y
_atom_site_fract_z
Si Si1 0.148255 0.787614 0.161892
Si Si2 0.308328 0.950822 0.284327
Si Si3 0.619530 0.011602 0.918127
Si Si4 0.417579 0.415941 0.530291
Si Si5 0.326161 0.366366 0.763739
Si Si6 0.352517 0.810849 0.597649
O O1 0.095356 0.832603 0.046844
O O2 0.285088 0.717209 0.179083
O O3 0.007580 0.737829 0.166612
O O4 0.208169 0.860500 0.260118
O O5 0.220516 0.038091 0.297314
O O6 0.343595 0.971146 0.183056
O O7 0.460006 0.941760 0.392723
O O8 0.755054 0.054564 0.019263
O O9 0.609932 0.905959 0.943794
O O10 0.500000 0.500000 0.500000
O O11 0.502048 0.378850 0.652131
O O12 0.232047 0.336032 0.829664
O O13 0.250000 0.750000 0.500000
#
# Coordination Sequence:
#
# PCOD8150961 Si02
#       6
#     8   8   8   8   8   8
#     4  11  20  31  53  83 114 146 183 236 283 323
#     4   9  18  32  50  78 110 145 180 227 279 328
#     4   9  17  31  52  75 109 141 184 231 266 326
#     4  11  18  34  55  84 113 147 191 233 277 340
#     4  11  20  32  53  85 115 143 190 235 280 336
#     4  11  18  29  52  84 112 136 184 236 280 322
#
# _framework density 26.222605999999999
#
# number of rings (size 3 to 8) (size 9 to 14) (size 15 to 20)
#    0.000    1.667    8.333    0.500    0.000    0.000 
#    0.000    0.833    0.000    4.000   17.333    0.000 
#    0.000    0.000    0.000    0.000    0.000    0.000 
#
# Total GULP energy -297434.479083 kJ/mol
# GULP energy per Si atom -12393.103295 kJ/mol
# Density = 2.616292 g / cm^3
# Si number density = 26.222606 Si / 1000 Ang^3
#
#
#
# Elastic Constant Matrix: (Units=GPa)
#
#
# Indices 1 2 3 4 5 6 
#
# 1 62.3050 33.3863 40.8340 0.0000 50.6801 0.0000
# 2 33.3863 144.8846 40.7243 0.0000 39.9343 0.0000
# 3 40.8340 40.7243 137.3091 0.0000 56.8776 0.0000
# 4 0.0000 0.0000 0.0000 59.2883 0.0000 23.2078
# 5 50.6801 39.9343 56.8776 0.0000 60.8963 0.0000
# 6 0.0000 0.0000 0.0000 23.2078 0.0000 37.7915
#
#
#
# Elastic Compliance Matrix: (Units=1/GPa)
#
#
# Indices 1 2 3 4 5 6 
#
# 1 0.050959 -0.000179 0.003943 0.000000 -0.045975 0.000000
# 2 -0.000179 0.008435 -0.000357 0.000000 -0.005049 0.000000
# 3 0.003943 -0.000357 0.012198 0.000000 -0.014440 0.000000
# 4 0.000000 0.000000 0.000000 0.022204 0.000000 -0.013636
# 5 -0.045975 -0.005049 -0.014440 0.000000 0.071482 0.000000
# 6 0.000000 0.000000 0.000000 -0.013636 0.000000 0.034835
#
#
# Mechanical properties :
#
#
# Convention : Reuss Voigt Hill
#
# Bulk Modulus (GPa) = 12.75410 63.82087 38.28748
# Shear Modulus (GPa) = 22.78582 46.89883 34.84233
#
# Velocity S-wave (km/s) = 2.95097 4.23364 3.64911
# Velocity P-wave (km/s) = 4.06021 6.94905 5.69098
#
# Compressibility (1/GPa) = 0.07840616
#
# Stress axis : x y z
#
# Youngs Moduli (GPa) = 19.62356 118.54850 81.98303
#
# Poissons Ratio (x) = 0.02120 -0.32325
# Poissons Ratio (y) = 0.00351 0.02927
# Poissons Ratio (z) = -0.07737 0.04233
#
# Static dielectric constant tensor:
#      x y z
#    x 4.679070 0.000000 0.792040 
#    y 0.000000 5.331910 0.000000 
#    z 0.792040 0.000000 5.273180 
# 
# 
# High freq. dielectric constant tensor:
#      x y z
#    x 2.036490 0.000000 0.021560 
#    y 0.000000 2.054860 0.000000 
#    z 0.021560 0.000000 2.070160 
# 
# From -- ./inp_files/237733.got.cif
#   From: 2010.06.25/outbox.cif.g09.slc.cpg/sg15_119_cif.got.tgz:237733.got - 2010.06.28 07:06:18.
