data_PCOD8150388
_publ_section_title
;
Structure prediction by ZEFSAII (Michael W. Deem and Ramdas Pophale) SiO2 
 PCOD8150388
Probable space group: C 2/C
;
_chemical_formula_sum "Si O2"
_cell_formula_units_Z 32
_cell_length_a 11.223390
_cell_length_b 7.517762
_cell_length_c 16.585388
_cell_angle_alpha 90.000000
_cell_angle_beta 111.198847
_cell_angle_gamma 90.000000
_cell_volume 1304.693276
_symmetry_space_group_name_H-M "C 2/C"
_symmetry_group_IT_number 15
_symmetry_cell_setting 'monoclinic'
loop_
_space_group_symop_operation_xyz
x,y,z
-x,y,1/2-z
-x,-y,-z
x,-y,1/2+z
1/2+x,1/2+y,z
1/2-x,1/2+y,1/2-z
1/2-x,1/2-y,-z
1/2+x,1/2-y,1/2+z
loop_
_atom_site_type_symbol
_atom_site_label
_atom_site_fract_x
_atom_site_fract_y
_atom_site_fract_z
Si Si1 0.379572 0.887924 0.443414
Si Si2 0.378278 0.976233 0.777316
Si Si3 0.365012 0.485888 0.031468
Si Si4 0.630467 0.603992 0.634331
O O1 0.374480 0.698720 0.484209
O O2 0.251317 0.996156 0.435636
O O3 0.500000 0.000000 0.500000
O O4 0.381394 0.870859 0.346616
O O5 0.500000 0.998152 0.750000
O O6 0.381779 0.788217 0.822738
O O7 0.249543 0.988470 0.694120
O O8 0.497122 0.505569 0.114196
O O9 0.351513 0.636159 0.958288
#
# Coordination Sequence:
#
# PCOD8150388 Si02
#       4
#     8   8   8   8
#     4  11  22  45  76 100 139 179 227 287 341 408
#     4  12  27  46  68 101 145 181 226 285 346 406
#     4  10  24  46  73 102 136 181 233 284 342 404
#     4  11  25  47  69 101 140 180 230 281 345 406
#
# _framework density 24.526838999999999
#
# number of rings (size 3 to 8) (size 9 to 14) (size 15 to 20)
#    0.000    1.000    2.500    3.000    7.000    1.000 
#   13.500    1.250    0.000    0.000    0.000    0.000 
#    0.000    0.000    0.000    0.000    0.000    0.000 
#
# Total GULP energy -198345.919616 kJ/mol
# GULP energy per Si atom -12396.619976 kJ/mol
# Density = 2.447101 g / cm^3
# Si number density = 24.526839 Si / 1000 Ang^3
#
#
#
# Elastic Constant Matrix: (Units=GPa)
#
#
# Indices 1 2 3 4 5 6 
#
# 1 242.2071 34.5394 97.1943 0.0000 3.4338 0.0000
# 2 34.5394 47.9882 33.1309 0.0000 -5.6039 0.0000
# 3 97.1943 33.1309 146.1510 0.0000 18.4623 0.0000
# 4 0.0000 0.0000 0.0000 36.6259 0.0000 -6.1835
# 5 3.4338 -5.6039 18.4623 0.0000 63.1249 0.0000
# 6 0.0000 0.0000 0.0000 -6.1835 0.0000 24.2512
#
#
#
# Elastic Compliance Matrix: (Units=1/GPa)
#
#
# Indices 1 2 3 4 5 6 
#
# 1 0.005776 -0.001646 -0.003541 0.000000 0.000575 0.000000
# 2 -0.001646 0.026175 -0.005341 0.000000 0.003975 0.000000
# 3 -0.003541 -0.005341 0.010844 0.000000 -0.003453 0.000000
# 4 0.000000 0.000000 0.000000 0.028531 0.000000 0.007275
# 5 0.000575 0.003975 -0.003453 0.000000 0.017173 0.000000
# 6 0.000000 0.000000 0.000000 0.007275 0.000000 0.043090
#
#
# Mechanical properties :
#
#
# Convention : Reuss Voigt Hill
#
# Bulk Modulus (GPa) = 45.99974 85.11952 65.55963
# Shear Modulus (GPa) = 31.27118 42.89917 37.08518
#
# Velocity S-wave (km/s) = 3.57456 4.18673 3.89269
# Velocity P-wave (km/s) = 5.98600 7.62572 6.85506
#
# Compressibility (1/GPa) = 0.02173925
#
# Stress axis : x y z
#
# Youngs Moduli (GPa) = 173.12656 38.20476 92.21597
#
# Poissons Ratio (x) = 0.06287 0.32653
# Poissons Ratio (y) = 0.28488 0.49256
# Poissons Ratio (z) = 0.61303 0.20407
#
# Static dielectric constant tensor:
#      x y z
#    x 4.893650 0.000000 0.081630 
#    y 0.000000 4.408240 0.000000 
#    z 0.081630 0.000000 4.950930 
# 
# 
# High freq. dielectric constant tensor:
#      x y z
#    x 1.996810 0.000000 0.012900 
#    y 0.000000 1.967290 0.000000 
#    z 0.012900 0.000000 1.980310 
# 
# From -- ./inp_files/140808.got.cif
#   From: 2010.06.25/outbox.cif.g09.slc.cpg/sg15_71_cif.got.tgz:140808.got - 2010.06.28 07:06:18.
