data_PCOD8150573
_publ_section_title
;
Structure prediction by ZEFSAII (Michael W. Deem and Ramdas Pophale) SiO2 
 PCOD8150573
Probable space group: C 2/C
;
_chemical_formula_sum "Si O2"
_cell_formula_units_Z 64
_cell_length_a 8.817224
_cell_length_b 29.872851
_cell_length_c 13.461014
_cell_angle_alpha 90.000000
_cell_angle_beta 120.912574
_cell_angle_gamma 90.000000
_cell_volume 3041.931339
_symmetry_space_group_name_H-M "C 2/C"
_symmetry_group_IT_number 15
_symmetry_cell_setting 'monoclinic'
loop_
_space_group_symop_operation_xyz
x,y,z
-x,y,1/2-z
-x,-y,-z
x,-y,1/2+z
1/2+x,1/2+y,z
1/2-x,1/2+y,1/2-z
1/2-x,1/2-y,-z
1/2+x,1/2-y,1/2+z
loop_
_atom_site_type_symbol
_atom_site_label
_atom_site_fract_x
_atom_site_fract_y
_atom_site_fract_z
Si Si1 0.532176 0.080596 0.470659
Si Si2 0.191600 0.062556 0.770837
Si Si3 0.651879 0.787978 0.218657
Si Si4 0.817676 0.187981 0.241758
Si Si5 0.116196 0.663352 0.990316
Si Si6 0.785216 0.113904 0.394609
Si Si7 0.146555 0.141616 0.614370
Si Si8 0.175124 0.471711 0.748509
O O1 0.677855 0.059514 0.591591
O O2 0.409297 0.111925 0.493624
O O3 0.615460 0.109954 0.408653
O O4 0.397884 0.043598 0.383250
O O5 0.241063 0.100837 0.706152
O O6 0.000000 0.073016 0.750000
O O7 0.198826 0.014699 0.718815
O O8 0.500000 0.792303 0.250000
O O9 0.683964 0.736092 0.204922
O O10 0.569007 0.812674 0.095998
O O11 0.833981 0.814250 0.308411
O O12 0.758480 0.151965 0.303296
O O13 0.000000 0.174148 0.250000
O O14 0.681172 0.191653 0.105959
O O15 0.259463 0.659700 0.952228
O O16 0.797919 0.066010 0.342627
O O17 0.950656 0.125785 0.520587
O O18 0.000000 0.484911 0.750000
#
# Coordination Sequence:
#
# PCOD8150573 Si02
#       8
#     8   8   8   8   8   8   8   8
#     4  11  23  44  65  90 129 167 205 257 321 367
#     4  12  25  43  66  93 127 167 204 262 320 370
#     4   9  22  37  61  98 128 160 215 262 304 367
#     4  11  22  38  66  95 128 167 210 262 314 364
#     4  11  22  39  68  92 124 171 210 258 310 372
#     4  11  23  43  63  92 130 165 204 263 311 374
#     4  11  23  40  65  95 125 163 216 259 304 373
#     4  10  25  43  64  93 125 162 213 257 308 381
#
# _framework density 21.039263999999999
#
# number of rings (size 3 to 8) (size 9 to 14) (size 15 to 20)
#    0.000    1.250    5.000    0.375    3.500    3.500 
#    0.000    0.625    5.500    0.000    0.000    0.000 
#    0.000    0.000    0.000    0.000    0.000    0.000 
#
# Total GULP energy -396614.116093 kJ/mol
# GULP energy per Si atom -12394.191128 kJ/mol
# Density = 2.099138 g / cm^3
# Si number density = 21.039264 Si / 1000 Ang^3
#
#
#
# Elastic Constant Matrix: (Units=GPa)
#
#
# Indices 1 2 3 4 5 6 
#
# 1 21.8801 19.0554 9.9018 0.0000 -0.4539 0.0000
# 2 19.0554 110.3630 17.2760 0.0000 -11.6054 0.0000
# 3 9.9018 17.2760 98.0955 0.0000 -5.4846 0.0000
# 4 0.0000 0.0000 0.0000 -374.5236 0.0000 242.4122
# 5 -0.4539 -11.6054 -5.4846 0.0000 25.2971 0.0000
# 6 0.0000 0.0000 0.0000 242.4122 0.0000 -119.5396
#
#
#
# Elastic Compliance Matrix: (Units=1/GPa)
#
#
# Indices 1 2 3 4 5 6 
#
# 1 0.055709 -0.009405 -0.004203 0.000000 -0.004227 0.000000
# 2 -0.009405 0.011316 -0.000772 0.000000 0.004855 0.000000
# 3 -0.004203 -0.000772 0.010862 0.000000 0.001925 0.000000
# 4 0.000000 0.000000 0.000000 0.008543 0.000000 0.017323
# 5 -0.004227 0.004855 0.001925 0.000000 0.042099 0.000000
# 6 0.000000 0.000000 0.000000 0.017323 0.000000 0.026765
#
#
# Mechanical properties :
#
#
# Convention : Reuss Voigt Hill
#
# Bulk Modulus (GPa) = 20.35566 35.86724 28.11145
# Shear Modulus (GPa) = 24.94623 -81.47955 -28.26666
#
# Velocity S-wave (km/s) = 3.44713 -6.22988 -3.66938
# Velocity P-wave (km/s) = 5.05368 5.88760 2.13590
#
# Compressibility (1/GPa) = 0.04912639
#
# Stress axis : x y z
#
# Youngs Moduli (GPa) = 17.95031 88.36747 92.06358
#
# Poissons Ratio (x) = 0.83112 0.38696
# Poissons Ratio (y) = 0.16883 0.07109
# Poissons Ratio (z) = 0.07545 0.06823
#
# Static dielectric constant tensor:
#      x y z
#    x 3.587970 0.000000 0.149600 
#    y 0.000000 3.834770 0.000000 
#    z 0.149600 0.000000 4.843420 
# 
# 
# High freq. dielectric constant tensor:
#      x y z
#    x 1.795320 0.000000 -0.006560 
#    y 0.000000 1.827390 0.000000 
#    z -0.006560 0.000000 1.845740 
# 
# From -- ./inp_files/139859.got.cif
#   From: 2010.06.25/outbox.cif.g09.slc.cpg/sg15_70_cif.got.tgz:139859.got - 2010.06.28 07:06:18.
