data_PCOD8150542
_publ_section_title
;
Structure prediction by ZEFSAII (Michael W. Deem and Ramdas Pophale) SiO2 
 PCOD8150542
Probable space group: C 2/C
;
_chemical_formula_sum "Si O2"
_cell_formula_units_Z 60
_cell_length_a 28.369323
_cell_length_b 10.838929
_cell_length_c 9.085904
_cell_angle_alpha 90.000000
_cell_angle_beta 82.548558
_cell_angle_gamma 90.000000
_cell_volume 2770.258852
_symmetry_space_group_name_H-M "C 2/C"
_symmetry_group_IT_number 15
_symmetry_cell_setting 'monoclinic'
loop_
_space_group_symop_operation_xyz
x,y,z
-x,y,1/2-z
-x,-y,-z
x,-y,1/2+z
1/2+x,1/2+y,z
1/2-x,1/2+y,1/2-z
1/2-x,1/2-y,-z
1/2+x,1/2-y,1/2+z
loop_
_atom_site_type_symbol
_atom_site_label
_atom_site_fract_x
_atom_site_fract_y
_atom_site_fract_z
Si Si1 0.034615 0.255497 0.482085
Si Si2 0.306206 0.107775 0.700732
Si Si3 0.000000 0.104124 0.750000
Si Si4 0.056362 0.660581 0.610287
Si Si5 0.908268 0.467914 0.113741
Si Si6 0.745059 0.500423 0.482301
Si Si7 0.814997 0.886934 0.747461
Si Si8 0.081034 0.908377 0.738192
O O1 0.072718 0.362085 0.510089
O O2 0.062882 0.141453 0.401440
O O3 0.999341 0.200055 0.616636
O O4 0.000711 0.322012 0.374941
O O5 0.351259 0.023752 0.641565
O O6 0.269459 0.102322 0.578875
O O7 0.325546 0.244192 0.717742
O O8 0.283670 0.064083 0.863375
O O9 0.952394 0.023794 0.787995
O O10 0.073904 0.601244 0.448659
O O11 0.072212 0.567695 0.733004
O O12 0.078982 0.797704 0.619289
O O13 0.721395 0.401344 0.602174
O O14 0.704967 0.560898 0.397288
O O15 0.864711 0.954712 0.766362
#
# Coordination Sequence:
#
# PCOD8150542 Si02
#       8
#     8   8   4   8   8   8   8   8
#     4  11  24  42  64  95 134 176 217 270 323 381
#     4  11  21  44  67  96 133 165 214 276 329 386
#     4  12  26  42  66  96 136 178 226 258 326 390
#     4  11  23  42  66  98 134 172 216 271 330 378
#     4  11  23  41  70  97 134 170 220 272 327 395
#     4  10  25  41  67  98 126 174 211 274 332 388
#     4  11  23  42  68  94 132 169 221 260 331 392
#     4  11  23  43  67  91 136 176 215 278 313 384
#
# _framework density 21.658626000000002
#
# number of rings (size 3 to 8) (size 9 to 14) (size 15 to 20)
#    0.000    1.067    4.000    3.600    3.733    0.000 
#    0.000    0.000    2.933    0.000    0.000    0.000 
#    0.000    0.000    0.000    0.000    0.000    0.000 
#
# Total GULP energy -371857.527467 kJ/mol
# GULP energy per Si atom -12395.250916 kJ/mol
# Density = 2.160933 g / cm^3
# Si number density = 21.658626 Si / 1000 Ang^3
#
#
#
# Elastic Constant Matrix: (Units=GPa)
#
#
# Indices 1 2 3 4 5 6 
#
# 1 135.0637 27.4387 43.9895 0.0000 2.1300 0.0000
# 2 27.4387 61.4806 39.0053 0.0000 -7.9656 0.0000
# 3 43.9895 39.0053 107.4876 0.0000 -2.0091 0.0000
# 4 0.0000 0.0000 0.0000 26.3119 0.0000 -5.3588
# 5 2.1300 -7.9656 -2.0091 0.0000 24.3101 0.0000
# 6 0.0000 0.0000 0.0000 -5.3588 0.0000 22.0785
#
#
#
# Elastic Compliance Matrix: (Units=1/GPa)
#
#
# Indices 1 2 3 4 5 6 
#
# 1 0.008824 -0.002414 -0.002769 0.000000 -0.001793 0.000000
# 2 -0.002414 0.022800 -0.007153 0.000000 0.007091 0.000000
# 3 -0.002769 -0.007153 0.013013 0.000000 -0.001026 0.000000
# 4 0.000000 0.000000 0.000000 0.039982 0.000000 0.009704
# 5 -0.001793 0.007091 -0.001026 0.000000 0.043531 0.000000
# 6 0.000000 0.000000 0.000000 0.009704 0.000000 0.047648
#
#
# Mechanical properties :
#
#
# Convention : Reuss Voigt Hill
#
# Bulk Modulus (GPa) = 50.08726 58.32210 54.20468
# Shear Modulus (GPa) = 24.13995 27.44665 25.79330
#
# Velocity S-wave (km/s) = 3.34213 3.56369 3.45469
# Velocity P-wave (km/s) = 6.17002 6.62718 6.40268
#
# Compressibility (1/GPa) = 0.01996516
#
# Stress axis : x y z
#
# Youngs Moduli (GPa) = 113.32194 43.86059 76.84534
#
# Poissons Ratio (x) = 0.10588 0.21278
# Poissons Ratio (y) = 0.27355 0.54968
# Poissons Ratio (z) = 0.31378 0.31374
#
# Static dielectric constant tensor:
#      x y z
#    x 3.903200 0.000000 -0.003330 
#    y 0.000000 3.782050 0.000000 
#    z -0.003330 0.000000 3.860780 
# 
# 
# High freq. dielectric constant tensor:
#      x y z
#    x 1.860160 0.000000 -0.003450 
#    y 0.000000 1.836720 0.000000 
#    z -0.003450 0.000000 1.852760 
# 
# From -- ./inp_files/69110.got.cif
#   From: 2010.06.25/outbox.cif.g09.slc.cpg/sg15_35_cif.got.tgz:69110.got - 2010.06.28 07:06:18.
