data_PCOD8150768
_publ_section_title
;
Structure prediction by ZEFSAII (Michael W. Deem and Ramdas Pophale) SiO2 
 PCOD8150768
Probable space group: C 2/C
;
_chemical_formula_sum "Si O2"
_cell_formula_units_Z 52
_cell_length_a 9.251958
_cell_length_b 11.374592
_cell_length_c 23.594208
_cell_angle_alpha 90.000000
_cell_angle_beta 128.964409
_cell_angle_gamma 90.000000
_cell_volume 1930.615548
_symmetry_space_group_name_H-M "C 2/C"
_symmetry_group_IT_number 15
_symmetry_cell_setting 'monoclinic'
loop_
_space_group_symop_operation_xyz
x,y,z
-x,y,1/2-z
-x,-y,-z
x,-y,1/2+z
1/2+x,1/2+y,z
1/2-x,1/2+y,1/2-z
1/2-x,1/2-y,-z
1/2+x,1/2-y,1/2+z
loop_
_atom_site_type_symbol
_atom_site_label
_atom_site_fract_x
_atom_site_fract_y
_atom_site_fract_z
Si Si1 0.669279 0.868672 0.454254
Si Si2 0.291269 0.813494 0.300049
Si Si3 0.715747 0.089477 0.543168
Si Si4 0.038186 0.171396 0.993880
Si Si5 0.500000 0.117215 0.750000
Si Si6 0.731328 0.417886 0.650416
Si Si7 0.992789 0.996815 0.691090
O O1 0.750000 0.750000 0.500000
O O2 0.464798 0.850575 0.381427
O O3 0.832181 0.887306 0.446622
O O4 0.643479 0.974389 0.493005
O O5 0.185634 0.699672 0.299557
O O6 0.140626 0.912128 0.253198
O O7 0.382683 0.795439 0.260474
O O8 0.888169 0.146693 0.551017
O O9 0.549429 0.186525 0.507692
O O10 0.795609 0.059338 0.626111
O O11 0.171649 0.107091 0.071745
O O12 0.371727 0.026553 0.682365
O O13 0.551580 0.437851 0.646717
O O14 0.000000 0.912528 0.750000
#
# Coordination Sequence:
#
# PCOD8150768 Si02
#       7
#     8   8   8   8   4   8   8
#     4  12  24  46  69 102 146 184 240 298 355 427
#     4  11  25  44  68 104 141 190 233 298 356 427
#     4  11  25  45  75 105 137 191 242 298 357 429
#     4  11  24  44  73 104 137 185 240 295 360 418
#     4  10  26  42  70 102 140 186 242 286 362 434
#     4  11  23  47  69 101 140 191 231 300 358 420
#     4  11  25  45  68 104 143 187 242 295 357 432
#
# _framework density 26.934415999999999
#
# number of rings (size 3 to 8) (size 9 to 14) (size 15 to 20)
#    0.000    0.923    3.077    2.308    8.615    0.615 
#    5.538    0.000    0.000    0.000    0.000    0.000 
#    0.000    0.000    0.000    0.000    0.000    0.000 
#
# Total GULP energy -322093.270765 kJ/mol
# GULP energy per Si atom -12388.202722 kJ/mol
# Density = 2.687311 g / cm^3
# Si number density = 26.934416 Si / 1000 Ang^3
#
#
#
# Elastic Constant Matrix: (Units=GPa)
#
#
# Indices 1 2 3 4 5 6 
#
# 1 67.3178 1.1421 20.8576 0.0000 -5.7342 0.0000
# 2 1.1421 95.0214 40.3474 0.0000 2.1711 0.0000
# 3 20.8576 40.3474 125.0409 0.0000 -2.4952 0.0000
# 4 0.0000 0.0000 0.0000 -20.6061 0.0000 -48.5758
# 5 -5.7342 2.1711 -2.4952 0.0000 36.0122 0.0000
# 6 0.0000 0.0000 0.0000 -48.5758 0.0000 14.2648
#
#
#
# Elastic Compliance Matrix: (Units=1/GPa)
#
#
# Indices 1 2 3 4 5 6 
#
# 1 0.015942 0.001004 -0.002938 0.000000 0.002274 0.000000
# 2 0.001004 0.012295 -0.004152 0.000000 -0.000869 0.000000
# 3 -0.002938 -0.004152 0.009836 0.000000 0.000464 0.000000
# 4 0.000000 0.000000 0.000000 -0.005376 0.000000 -0.018306
# 5 0.002274 -0.000869 0.000464 0.000000 0.028215 0.000000
# 6 0.000000 0.000000 0.000000 -0.018306 0.000000 0.007766
#
#
# Mechanical properties :
#
#
# Convention : Reuss Voigt Hill
#
# Bulk Modulus (GPa) = 38.60824 45.78604 42.19714
# Shear Modulus (GPa) = 55.87637 20.93636 38.40637
#
# Velocity S-wave (km/s) = 4.55965 2.79105 3.78023
# Velocity P-wave (km/s) = 6.48736 5.23666 5.89527
#
# Compressibility (1/GPa) = 0.02590121
#
# Stress axis : x y z
#
# Youngs Moduli (GPa) = 62.72812 81.33570 101.66315
#
# Poissons Ratio (x) = -0.08165 0.29866
# Poissons Ratio (y) = -0.06297 0.42210
# Poissons Ratio (z) = 0.18428 0.33770
#
# Static dielectric constant tensor:
#      x y z
#    x 4.504410 0.000000 -0.709030 
#    y 0.000000 4.935310 0.000000 
#    z -0.709030 0.000000 4.924120 
# 
# 
# High freq. dielectric constant tensor:
#      x y z
#    x 2.109170 0.000000 -0.018590 
#    y 0.000000 2.087660 0.000000 
#    z -0.018590 0.000000 2.088230 
# 
# From -- ./inp_files/269298.got.cif
#   From: 2010.06.25/outbox.cif.g09.slc.cpg/sg15_135_cif.got.tgz:269298.got - 2010.06.28 07:06:18.
