data_PCOD8150651
_publ_section_title
;
Structure prediction by ZEFSAII (Michael W. Deem and Ramdas Pophale) SiO2 
 PCOD8150651
Probable space group: C 2/C
;
_chemical_formula_sum "Si O2"
_cell_formula_units_Z 48
_cell_length_a 18.392595
_cell_length_b 7.663074
_cell_length_c 15.293316
_cell_angle_alpha 90.000000
_cell_angle_beta 66.681802
_cell_angle_gamma 90.000000
_cell_volume 1979.438738
_symmetry_space_group_name_H-M "C 2/C"
_symmetry_group_IT_number 15
_symmetry_cell_setting 'monoclinic'
loop_
_space_group_symop_operation_xyz
x,y,z
-x,y,1/2-z
-x,-y,-z
x,-y,1/2+z
1/2+x,1/2+y,z
1/2-x,1/2+y,1/2-z
1/2-x,1/2-y,-z
1/2+x,1/2-y,1/2+z
loop_
_atom_site_type_symbol
_atom_site_label
_atom_site_fract_x
_atom_site_fract_y
_atom_site_fract_z
Si Si1 0.389629 0.710836 0.747663
Si Si2 0.850400 0.184367 0.293199
Si Si3 0.555788 0.789166 0.089076
Si Si4 0.096218 0.159443 0.413562
Si Si5 0.448389 0.174401 0.391471
Si Si6 0.322415 0.714964 0.606991
O O1 0.351137 0.525031 0.788689
O O2 0.479108 0.694553 0.665053
O O3 0.388947 0.826925 0.836019
O O4 0.337587 0.801329 0.695709
O O5 0.921905 0.233537 0.323682
O O6 0.864453 0.259317 0.188388
O O7 0.770216 0.267376 0.369536
O O8 0.496946 0.647957 0.071387
O O9 0.516309 0.981190 0.111187
O O10 0.633442 0.812683 0.992254
O O11 0.101829 0.266483 0.500528
O O12 0.142392 0.980180 0.406127
#
# Coordination Sequence:
#
# PCOD8150651 Si02
#       6
#     8   8   8   8   8   8
#     4  10  25  45  69 100 147 182 244 293 364 421
#     4  11  27  44  72 104 146 193 238 300 370 436
#     4  12  25  44  76 106 141 191 252 294 360 439
#     4  11  25  45  74 105 142 190 247 298 366 426
#     4  11  25  42  71 108 139 185 243 311 344 437
#     4  11  25  47  71 104 145 192 241 301 371 438
#
# _framework density 24.249298
#
# number of rings (size 3 to 8) (size 9 to 14) (size 15 to 20)
#    0.000    1.000    1.667    3.000   16.333    5.333 
#    0.000    2.500    0.000    0.000    0.000    0.000 
#    0.000    0.000    0.000    0.000    0.000    0.000 
#
# Total GULP energy -297426.847486 kJ/mol
# GULP energy per Si atom -12392.785312 kJ/mol
# Density = 2.419411 g / cm^3
# Si number density = 24.249298 Si / 1000 Ang^3
#
#
#
# Elastic Constant Matrix: (Units=GPa)
#
#
# Indices 1 2 3 4 5 6 
#
# 1 80.9463 38.5547 34.3250 0.0000 -1.7558 0.0001
# 2 38.5547 84.5981 37.3138 0.0000 -0.0821 0.0002
# 3 34.3250 37.3138 135.4292 0.0000 9.2252 0.0000
# 4 0.0000 0.0000 0.0000 15.1113 0.0000 -5.8981
# 5 -1.7558 -0.0821 9.2252 0.0000 54.7599 0.0000
# 6 0.0001 0.0002 0.0000 -5.8981 0.0000 27.3944
#
#
#
# Elastic Compliance Matrix: (Units=1/GPa)
#
#
# Indices 1 2 3 4 5 6 
#
# 1 0.016480 -0.006419 -0.002472 0.000000 0.000935 0.000000
# 2 -0.006419 0.015979 -0.002795 0.000000 0.000289 0.000000
# 3 -0.002472 -0.002795 0.008888 0.000000 -0.001581 0.000000
# 4 0.000000 0.000000 0.000000 0.072247 0.000000 0.015555
# 5 0.000935 0.000289 -0.001581 0.000000 0.018558 0.000000
# 6 0.000000 0.000000 0.000000 0.015555 0.000000 0.039853
#
#
# Mechanical properties :
#
#
# Convention : Reuss Voigt Hill
#
# Bulk Modulus (GPa) = 55.63488 57.92899 56.78193
# Shear Modulus (GPa) = 24.82986 32.17179 28.50083
#
# Velocity S-wave (km/s) = 3.20338 3.64635 3.43202
# Velocity P-wave (km/s) = 6.05598 6.45513 6.25874
#
# Compressibility (1/GPa) = 0.01797434
#
# Stress axis : x y z
#
# Youngs Moduli (GPa) = 60.68007 62.58070 112.50722
#
# Poissons Ratio (x) = 0.40173 0.27811
# Poissons Ratio (y) = 0.38953 0.31450
# Poissons Ratio (z) = 0.15000 0.17494
#
# Static dielectric constant tensor:
#      x y z
#    x 4.327150 0.000000 0.415500 
#    y 0.000000 3.973370 0.000000 
#    z 0.415500 0.000000 4.787490 
# 
# 
# High freq. dielectric constant tensor:
#      x y z
#    x 1.950030 0.000000 0.025410 
#    y 0.000000 1.940320 0.000000 
#    z 0.025410 0.000000 1.985400 
# 
# From -- ./inp_files/208954.got.cif
#   From: 2010.06.25/outbox.cif.g09.slc.cpg/sg15_105_cif.got.tgz:208954.got - 2010.06.28 07:06:18.
