data_PCOD8150898
_publ_section_title
;
Structure prediction by ZEFSAII (Michael W. Deem and Ramdas Pophale) SiO2 
 PCOD8150898
Probable space group: C 2/C
;
_chemical_formula_sum "Si O2"
_cell_formula_units_Z 32
_cell_length_a 29.942134
_cell_length_b 5.012092
_cell_length_c 8.821647
_cell_angle_alpha 90.000000
_cell_angle_beta 65.589792
_cell_angle_gamma 90.000000
_cell_volume 1205.546306
_symmetry_space_group_name_H-M "C 2/C"
_symmetry_group_IT_number 15
_symmetry_cell_setting 'monoclinic'
loop_
_space_group_symop_operation_xyz
x,y,z
-x,y,1/2-z
-x,-y,-z
x,-y,1/2+z
1/2+x,1/2+y,z
1/2-x,1/2+y,1/2-z
1/2-x,1/2-y,-z
1/2+x,1/2-y,1/2+z
loop_
_atom_site_type_symbol
_atom_site_label
_atom_site_fract_x
_atom_site_fract_y
_atom_site_fract_z
Si Si1 0.364193 0.171533 0.187711
Si Si2 0.951579 0.325510 0.068838
Si Si3 0.733625 0.170117 0.689784
Si Si4 0.407499 0.491432 0.364918
O O1 0.361117 0.394182 0.324818
O O2 0.408029 0.001576 0.196299
O O3 0.317419 0.985016 0.233542
O O4 0.380635 0.286330 0.003113
O O5 0.952604 0.088078 0.191621
O O6 0.935641 0.227330 0.925312
O O7 0.000000 0.500000 0.000000
O O8 0.728746 0.450758 0.789670
O O9 0.750000 0.250000 0.500000
#
# Coordination Sequence:
#
# PCOD8150898 Si02
#       4
#     8   8   8   8
#     4  11  27  48  81 116 162 217 277 350 422 507
#     4  11  26  47  79 116 159 216 275 339 425 510
#     4  12  32  56  89 125 170 224 292 360 439 511
#     4  10  26  49  79 113 169 212 279 344 426 500
#
# _framework density 26.543986
#
# number of rings (size 3 to 8) (size 9 to 14) (size 15 to 20)
#    0.000    1.000    0.000    2.250   14.000   10.000 
#    0.000    3.750    0.000    0.000    0.000    0.000 
#    0.000    0.000    0.000    0.000    0.000    0.000 
#
# Total GULP energy -198284.295908 kJ/mol
# GULP energy per Si atom -12392.768494 kJ/mol
# Density = 2.648357 g / cm^3
# Si number density = 26.543986 Si / 1000 Ang^3
#
#
#
# Elastic Constant Matrix: (Units=GPa)
#
#
# Indices 1 2 3 4 5 6 
#
# 1 95.6431 25.6129 75.8854 0.0000 0.4059 0.0000
# 2 25.6129 128.6368 78.3433 0.0000 15.1024 0.0000
# 3 75.8854 78.3433 187.3067 0.0000 35.0063 0.0000
# 4 0.0000 0.0000 0.0000 46.1241 0.0000 5.4736
# 5 0.4059 15.1024 35.0063 0.0000 37.0208 0.0000
# 6 0.0000 0.0000 0.0000 5.4736 0.0000 63.4120
#
#
#
# Elastic Compliance Matrix: (Units=1/GPa)
#
#
# Indices 1 2 3 4 5 6 
#
# 1 0.017151 0.001059 -0.008837 0.000000 0.007736 0.000000
# 2 0.001059 0.010497 -0.004879 0.000000 0.000320 0.000000
# 3 -0.008837 -0.004879 0.012839 0.000000 -0.010053 0.000000
# 4 0.000000 0.000000 0.000000 0.021905 0.000000 -0.001891
# 5 0.007736 0.000320 -0.010053 0.000000 0.036302 0.000000
# 6 0.000000 0.000000 0.000000 -0.001891 0.000000 0.015933
#
#
# Mechanical properties :
#
#
# Convention : Reuss Voigt Hill
#
# Bulk Modulus (GPa) = 65.91370 85.69663 75.80516
# Shear Modulus (GPa) = 34.48294 44.76107 39.62200
#
# Velocity S-wave (km/s) = 3.60819 4.11091 3.86773
# Velocity P-wave (km/s) = 6.49958 7.40862 6.96894
#
# Compressibility (1/GPa) = 0.01517135
#
# Stress axis : x y z
#
# Youngs Moduli (GPa) = 58.30643 95.26469 77.88901
#
# Poissons Ratio (x) = -0.10088 0.68832
# Poissons Ratio (y) = -0.06174 0.38005
# Poissons Ratio (z) = 0.51527 0.46483
#
# Static dielectric constant tensor:
#      x y z
#    x 4.751350 0.000000 0.177360 
#    y 0.000000 5.494710 0.000000 
#    z 0.177360 0.000000 4.851920 
# 
# 
# High freq. dielectric constant tensor:
#      x y z
#    x 2.061400 0.000000 0.019680 
#    y 0.000000 2.091960 0.000000 
#    z 0.019680 0.000000 2.081030 
# 
# From -- ./inp_files/67989.got.cif
#   From: 2010.06.25/outbox.cif.g09.slc.cpg/sg15_34_cif.got.tgz:67989.got - 2010.06.28 07:06:18.
