data_PCOD8150631
_publ_section_title
;
Structure prediction by ZEFSAII (Michael W. Deem and Ramdas Pophale) SiO2 
 PCOD8150631
Probable space group: C 2/C
;
_chemical_formula_sum "Si O2"
_cell_formula_units_Z 56
_cell_length_a 15.966860
_cell_length_b 12.700474
_cell_length_c 13.662419
_cell_angle_alpha 90.000000
_cell_angle_beta 60.426472
_cell_angle_gamma 90.000000
_cell_volume 2409.617048
_symmetry_space_group_name_H-M "C 2/C"
_symmetry_group_IT_number 15
_symmetry_cell_setting 'monoclinic'
loop_
_space_group_symop_operation_xyz
x,y,z
-x,y,1/2-z
-x,-y,-z
x,-y,1/2+z
1/2+x,1/2+y,z
1/2-x,1/2+y,1/2-z
1/2-x,1/2-y,-z
1/2+x,1/2-y,1/2+z
loop_
_atom_site_type_symbol
_atom_site_label
_atom_site_fract_x
_atom_site_fract_y
_atom_site_fract_z
Si Si1 0.351283 0.274291 0.663069
Si Si2 0.098258 0.452491 0.329554
Si Si3 0.235078 0.135232 0.475437
Si Si4 0.813289 0.654479 0.118967
Si Si5 0.117537 0.460628 0.094377
Si Si6 0.555358 0.477004 0.120247
Si Si7 0.951645 0.153444 0.518256
O O1 0.353191 0.147291 0.641745
O O2 0.299114 0.351019 0.616042
O O3 0.295049 0.306419 0.794771
O O4 0.462573 0.304762 0.600518
O O5 0.151940 0.558167 0.331490
O O6 0.109737 0.421071 0.209138
O O7 0.982688 0.467265 0.409243
O O8 0.250000 0.250000 0.500000
O O9 0.152700 0.084579 0.591913
O O10 0.336191 0.076111 0.427544
O O11 0.813728 0.618409 0.005654
O O12 0.882636 0.754107 0.093723
O O13 0.500000 0.514185 0.250000
O O14 0.597145 0.570432 0.027258
O O15 0.484393 0.402349 0.099274
#
# Coordination Sequence:
#
# PCOD8150631 Si02
#       7
#     8   8   8   8   8   8   8
#     4  11  25  45  71  98 147 184 235 296 358 422
#     4  11  25  46  69 105 145 184 240 300 359 431
#     4  11  25  45  68 106 136 178 246 295 343 434
#     4  12  25  44  77  98 146 192 229 300 368 413
#     4  11  25  44  71 105 139 186 244 293 358 439
#     4  10  25  44  71  95 143 183 231 292 353 422
#     4  10  25  46  65 106 134 185 239 284 356 431
#
# _framework density 23.240207999999999
#
# number of rings (size 3 to 8) (size 9 to 14) (size 15 to 20)
#    0.000    1.143    2.857    1.286   10.000    2.857 
#    0.000    0.000    0.000    0.000    0.000    0.000 
#    0.000    0.000    0.000    0.000    0.000    0.000 
#
# Total GULP energy -347021.712473 kJ/mol
# GULP energy per Si atom -12393.632588 kJ/mol
# Density = 2.318731 g / cm^3
# Si number density = 23.240208 Si / 1000 Ang^3
#
#
#
# Elastic Constant Matrix: (Units=GPa)
#
#
# Indices 1 2 3 4 5 6 
#
# 1 51.7956 23.1712 26.5194 0.0000 -12.5305 0.0000
# 2 23.1712 122.0171 20.3866 0.0000 -6.7671 0.0000
# 3 26.5194 20.3866 94.4251 0.0000 -14.2476 0.0000
# 4 0.0000 0.0000 0.0000 34.4638 0.0000 -7.3252
# 5 -12.5305 -6.7671 -14.2476 0.0000 29.0843 0.0000
# 6 0.0000 0.0000 0.0000 -7.3252 0.0000 44.6693
#
#
#
# Elastic Compliance Matrix: (Units=1/GPa)
#
#
# Indices 1 2 3 4 5 6 
#
# 1 0.025391 -0.003529 -0.005229 0.000000 0.007557 0.000000
# 2 -0.003529 0.009029 -0.000940 0.000000 0.000120 0.000000
# 3 -0.005229 -0.000940 0.012838 0.000000 0.003817 0.000000
# 4 0.000000 0.000000 0.000000 0.030064 0.000000 0.004930
# 5 0.007557 0.000120 0.003817 0.000000 0.039536 0.000000
# 6 0.000000 0.000000 0.000000 0.004930 0.000000 0.023195
#
#
# Mechanical properties :
#
#
# Convention : Reuss Voigt Hill
#
# Bulk Modulus (GPa) = 35.89141 45.37691 40.63416
# Shear Modulus (GPa) = 29.63188 34.85418 32.24303
#
# Velocity S-wave (km/s) = 3.57462 3.87684 3.72880
# Velocity P-wave (km/s) = 5.70214 6.29345 6.00508
#
# Compressibility (1/GPa) = 0.02786182
#
# Stress axis : x y z
#
# Youngs Moduli (GPa) = 39.38448 110.74839 77.89397
#
# Poissons Ratio (x) = 0.39083 0.40730
# Poissons Ratio (y) = 0.13899 0.07324
# Poissons Ratio (z) = 0.20594 0.10413
#
# Static dielectric constant tensor:
#      x y z
#    x 3.782420 0.000000 -0.272740 
#    y 0.000000 4.815090 0.000000 
#    z -0.272740 0.000000 3.954990 
# 
# 
# High freq. dielectric constant tensor:
#      x y z
#    x 1.905290 0.000000 -0.007390 
#    y 0.000000 1.930470 0.000000 
#    z -0.007390 0.000000 1.927660 
# 
# From -- ./inp_files/161223.got.cif
#   From: 2010.06.25/outbox.cif.g09.slc.cpg/sg15_81_cif.got.tgz:161223.got - 2010.06.28 07:06:18.
