data_PCOD8150506
_publ_section_title
;
Structure prediction by ZEFSAII (Michael W. Deem and Ramdas Pophale) SiO2 
 PCOD8150506
Probable space group: C 2/C
;
_chemical_formula_sum "Si O2"
_cell_formula_units_Z 56
_cell_length_a 7.824149
_cell_length_b 25.675147
_cell_length_c 16.757364
_cell_angle_alpha 90.000000
_cell_angle_beta 130.201768
_cell_angle_gamma 90.000000
_cell_volume 2571.116913
_symmetry_space_group_name_H-M "C 2/C"
_symmetry_group_IT_number 15
_symmetry_cell_setting 'monoclinic'
loop_
_space_group_symop_operation_xyz
x,y,z
-x,y,1/2-z
-x,-y,-z
x,-y,1/2+z
1/2+x,1/2+y,z
1/2-x,1/2+y,1/2-z
1/2-x,1/2-y,-z
1/2+x,1/2-y,1/2+z
loop_
_atom_site_type_symbol
_atom_site_label
_atom_site_fract_x
_atom_site_fract_y
_atom_site_fract_z
Si Si1 0.232735 0.254147 0.115272
Si Si2 0.257511 0.364882 0.828237
Si Si3 0.000000 0.510115 0.750000
Si Si4 0.565843 0.429054 0.181583
Si Si5 0.288591 0.243246 0.418798
Si Si6 0.323610 0.544995 0.457883
Si Si7 0.313695 0.308945 0.287528
Si Si8 0.000000 0.841675 0.750000
O O1 0.215057 0.194244 0.136678
O O2 0.151008 0.290044 0.166904
O O3 0.477221 0.269735 0.161251
O O4 0.057778 0.264531 0.991227
O O5 0.389200 0.403045 0.928415
O O6 0.361311 0.375897 0.771619
O O7 0.000000 0.381439 0.750000
O O8 0.207434 0.543973 0.780756
O O9 0.084251 0.475706 0.851778
O O10 0.500000 0.448632 0.250000
O O11 0.616422 0.368011 0.198800
O O12 0.348606 0.439973 0.059419
O O13 0.250000 0.250000 0.500000
O O14 0.213347 0.294142 0.344090
O O15 0.174626 0.191923 0.352437
O O16 0.500000 0.500000 0.500000
#
# Coordination Sequence:
#
# PCOD8150506 Si02
#       8
#     8   8   4   8   8   8   8   4
#     4  11  21  39  65  94 141 186 215 272 333 406
#     4  12  22  46  71  99 139 185 229 286 353 409
#     4  10  24  49  72 100 132 184 235 304 364 404
#     4  11  24  45  73 103 139 181 235 287 360 430
#     4  12  22  37  60  90 143 191 226 267 328 394
#     4  10  24  49  74 100 137 177 237 311 359 405
#     4  11  22  42  59 101 142 177 228 272 327 427
#     4  12  26  41  60 106 138 184 245 274 324 432
#
# _framework density 21.780418999999998
#
# number of rings (size 3 to 8) (size 9 to 14) (size 15 to 20)
#    0.000    0.857    6.429    1.286    0.000    3.429 
#    7.714    0.000    0.000    0.000    0.000    0.000 
#    0.000    0.000    0.000    0.000    0.000    0.000 
#
# Total GULP energy -346939.286358 kJ/mol
# GULP energy per Si atom -12390.688799 kJ/mol
# Density = 2.173085 g / cm^3
# Si number density = 21.780419 Si / 1000 Ang^3
#
#
#
# Elastic Constant Matrix: (Units=GPa)
#
#
# Indices 1 2 3 4 5 6 
#
# 1 99.2250 28.4699 40.2213 0.0000 -19.8345 0.0000
# 2 28.4699 112.9419 52.1023 0.0000 -8.0941 0.0000
# 3 40.2213 52.1023 173.2237 0.0000 -17.6725 0.0000
# 4 0.0000 0.0000 0.0000 30.7721 0.0000 -9.6356
# 5 -19.8345 -8.0941 -17.6725 0.0000 42.0798 0.0000
# 6 0.0000 0.0000 0.0000 -9.6356 0.0000 1.9926
#
#
#
# Elastic Compliance Matrix: (Units=1/GPa)
#
#
# Indices 1 2 3 4 5 6 
#
# 1 0.012295 -0.001936 -0.001796 0.000000 0.004669 0.000000
# 2 -0.001936 0.010606 -0.002743 0.000000 -0.000025 0.000000
# 3 -0.001796 -0.002743 0.007183 0.000000 0.001642 0.000000
# 4 0.000000 0.000000 0.000000 -0.063201 0.000000 -0.305618
# 5 0.004669 -0.000025 0.001642 0.000000 0.026650 0.000000
# 6 0.000000 0.000000 0.000000 -0.305618 0.000000 -0.976014
#
#
# Mechanical properties :
#
#
# Convention : Reuss Voigt Hill
#
# Bulk Modulus (GPa) = 58.36763 69.66416 64.01589
# Shear Modulus (GPa) = -5.18769 32.60872 13.71052
#
# Velocity S-wave (km/s) = -1.54499 3.87351 2.51168
# Velocity P-wave (km/s) = 4.86557 7.21524 6.15359
#
# Compressibility (1/GPa) = 0.01713278
#
# Stress axis : x y z
#
# Youngs Moduli (GPa) = 81.33452 94.28822 139.22694
#
# Poissons Ratio (x) = 0.18255 0.25007
# Poissons Ratio (y) = 0.15747 0.38190
# Poissons Ratio (z) = 0.14609 0.25863
#
# Static dielectric constant tensor:
#      x y z
#    x 4.642990 0.000000 -0.029430 
#    y 0.000000 3.848230 0.000000 
#    z -0.029430 0.000000 5.588370 
# 
# 
# High freq. dielectric constant tensor:
#      x y z
#    x 1.849460 0.000000 -0.004640 
#    y 0.000000 1.842910 0.000000 
#    z -0.004640 0.000000 1.887910 
# 
# From -- ./inp_files/193353.got.cif
#   From: 2010.06.25/outbox.cif.g09.slc.cpg/sg15_97_cif.got.tgz:193353.got - 2010.06.28 07:06:18.
