data_PCOD8150769
_publ_section_title
;
Structure prediction by ZEFSAII (Michael W. Deem and Ramdas Pophale) SiO2 
 PCOD8150769
Probable space group: C 2/C
;
_chemical_formula_sum "Si O2"
_cell_formula_units_Z 60
_cell_length_a 20.972108
_cell_length_b 5.911059
_cell_length_c 25.779027
_cell_angle_alpha 90.000000
_cell_angle_beta 122.074855
_cell_angle_gamma 90.000000
_cell_volume 2707.941785
_symmetry_space_group_name_H-M "C 2/C"
_symmetry_group_IT_number 15
_symmetry_cell_setting 'monoclinic'
loop_
_space_group_symop_operation_xyz
x,y,z
-x,y,1/2-z
-x,-y,-z
x,-y,1/2+z
1/2+x,1/2+y,z
1/2-x,1/2+y,1/2-z
1/2-x,1/2-y,-z
1/2+x,1/2-y,1/2+z
loop_
_atom_site_type_symbol
_atom_site_label
_atom_site_fract_x
_atom_site_fract_y
_atom_site_fract_z
Si Si1 0.341158 0.470281 0.410804
Si Si2 0.500000 0.653924 0.250000
Si Si3 0.170603 0.206412 0.991419
Si Si4 0.733748 0.058483 0.269411
Si Si5 0.960796 0.141169 0.641944
Si Si6 0.420458 0.913642 0.988354
Si Si7 0.931512 0.526707 0.797746
Si Si8 0.467540 0.331956 0.903060
O O1 0.315008 0.517464 0.458349
O O2 0.276244 0.519093 0.341747
O O3 0.369684 0.208537 0.422156
O O4 0.413119 0.627331 0.428414
O O5 0.549691 0.509743 0.311568
O O6 0.562609 0.791973 0.245584
O O7 0.118700 0.140387 0.920726
O O8 0.250000 0.250000 0.000000
O O9 0.132188 0.414286 0.004386
O O10 0.739933 0.804679 0.243633
O O11 0.646327 0.106707 0.243483
O O12 0.992443 0.380312 0.674450
O O13 0.025601 0.049930 0.630882
O O14 0.447775 0.724691 0.041675
O O15 0.500000 0.000000 0.000000
O O16 0.930547 0.630388 0.854682
#
# Coordination Sequence:
#
# PCOD8150769 Si02
#       8
#     8   4   8   8   8   8   8   8
#     4  12  26  45  71 108 150 190 246 317 384 454
#     4  10  26  42  72 100 130 194 252 304 366 444
#     4  12  28  45  68 107 148 193 240 308 390 458
#     4  12  29  49  75 112 156 197 248 318 392 454
#     4  11  23  46  70  99 142 187 251 315 371 459
#     4  12  24  42  77 104 140 191 247 304 375 461
#     4  11  24  45  72 102 141 192 251 308 371 456
#     4  11  21  42  72 105 132 181 249 306 372 443
#
# _framework density 22.157050000000002
#
# number of rings (size 3 to 8) (size 9 to 14) (size 15 to 20)
#    0.000    0.533    5.333    2.400    5.600    3.733 
#    0.000    0.000    0.000    0.000    0.000    0.000 
#    0.000    0.000    0.000    0.000    0.000    0.000 
#
# Total GULP energy -371683.770874 kJ/mol
# GULP energy per Si atom -12389.459029 kJ/mol
# Density = 2.210662 g / cm^3
# Si number density = 22.157050 Si / 1000 Ang^3
#
#
#
# Elastic Constant Matrix: (Units=GPa)
#
#
# Indices 1 2 3 4 5 6 
#
# 1 119.6629 33.0471 50.8940 0.0005 -3.2372 0.0025
# 2 33.0471 94.3099 42.2798 0.0012 -6.8351 0.0057
# 3 50.8940 42.2798 155.7462 0.0003 9.6460 0.0005
# 4 0.0005 0.0012 0.0003 34.8640 -0.0001 1.4371
# 5 -3.2372 -6.8351 9.6460 -0.0001 37.5240 -0.0001
# 6 0.0025 0.0057 0.0005 1.4371 -0.0001 22.5415
#
#
#
# Elastic Compliance Matrix: (Units=1/GPa)
#
#
# Indices 1 2 3 4 5 6 
#
# 1 0.010196 -0.002231 -0.002800 0.000000 0.001193 -0.000001
# 2 -0.002231 0.012924 -0.002960 0.000000 0.002923 -0.000003
# 3 -0.002800 -0.002960 0.008320 0.000000 -0.002920 0.000001
# 4 0.000000 0.000000 0.000000 0.028758 0.000000 -0.001833
# 5 0.001193 0.002923 -0.002920 0.000000 0.028035 -0.000001
# 6 -0.000001 -0.000003 0.000001 -0.001833 -0.000001 0.044479
#
#
# Mechanical properties :
#
#
# Convention : Reuss Voigt Hill
#
# Bulk Modulus (GPa) = 64.69430 69.12899 66.91164
# Shear Modulus (GPa) = 32.49932 35.21911 33.85922
#
# Velocity S-wave (km/s) = 3.83400 3.99121 3.91339
# Velocity P-wave (km/s) = 6.99005 7.24617 7.11926
#
# Compressibility (1/GPa) = 0.01545731
#
# Stress axis : x y z
#
# Youngs Moduli (GPa) = 98.07634 77.37470 120.18981
#
# Poissons Ratio (x) = 0.17263 0.33654
# Poissons Ratio (y) = 0.21882 0.35581
# Poissons Ratio (z) = 0.27462 0.22906
#
# Static dielectric constant tensor:
#      x y z
#    x 3.767710 0.000000 -0.104520 
#    y 0.000000 4.409270 0.000000 
#    z -0.104520 0.000000 4.360840 
# 
# 
# High freq. dielectric constant tensor:
#      x y z
#    x 1.855130 0.000000 -0.005060 
#    y 0.000000 1.882080 0.000000 
#    z -0.005060 0.000000 1.890760 
# 
# From -- ./inp_files/300132.got.cif
#   From: 2010.06.25/outbox.cif.g09.slc.cpg/sg15_151_cif.got.tgz:300132.got - 2010.06.28 07:06:18.
