data_PCOD8150060
_publ_section_title
;
Structure prediction by ZEFSAII (Michael W. Deem and Ramdas Pophale) SiO2 
 PCOD8150060
Probable space group: C 2/C
;
_chemical_formula_sum "Si O2"
_cell_formula_units_Z 52
_cell_length_a 31.502871
_cell_length_b 14.052298
_cell_length_c 9.189766
_cell_angle_alpha 90.000000
_cell_angle_beta 143.927276
_cell_angle_gamma 90.000000
_cell_volume 2395.401556
_symmetry_space_group_name_H-M "C 2/C"
_symmetry_group_IT_number 15
_symmetry_cell_setting 'monoclinic'
loop_
_space_group_symop_operation_xyz
x,y,z
-x,y,1/2-z
-x,-y,-z
x,-y,1/2+z
1/2+x,1/2+y,z
1/2-x,1/2+y,1/2-z
1/2-x,1/2-y,-z
1/2+x,1/2-y,1/2+z
loop_
_atom_site_type_symbol
_atom_site_label
_atom_site_fract_x
_atom_site_fract_y
_atom_site_fract_z
Si Si1 0.641084 0.720878 0.790518
Si Si2 0.413905 0.913238 0.774756
Si Si3 0.052633 0.963310 0.025440
Si Si4 0.721040 0.043934 0.112352
Si Si5 0.706700 0.754406 0.663644
Si Si6 0.500000 0.030605 0.250000
Si Si7 0.190317 0.074308 0.425279
O O1 0.587505 0.807935 0.665556
O O2 0.595861 0.627904 0.701813
O O3 0.670386 0.713618 0.707662
O O4 0.707182 0.733986 0.084834
O O5 0.443965 0.907835 0.691506
O O6 0.334410 0.957565 0.554055
O O7 0.461683 0.968995 0.021722
O O8 0.110744 0.045787 0.147460
O O9 0.000000 0.934226 0.750000
O O10 0.000000 0.000000 0.000000
O O11 0.679053 0.137736 0.056329
O O12 0.752187 0.073086 0.043603
O O13 0.785668 0.006186 0.392463
O O14 0.687588 0.680739 0.482988
#
# Coordination Sequence:
#
# PCOD8150060 Si02
#       7
#     8   8   8   8   8   4   8
#     4  11  23  42  71 100 134 176 231 282 353 411
#     4  11  23  43  68  96 133 178 221 288 348 420
#     4  12  27  48  68  98 142 196 232 281 352 436
#     4  12  23  42  72 103 135 173 231 302 367 404
#     4  11  23  41  70 106 133 174 227 301 352 407
#     4  10  24  44  62  94 138 176 222 266 350 432
#     4  12  24  44  70 104 139 178 241 299 351 423
#
# _framework density 21.708259999999999
#
# number of rings (size 3 to 8) (size 9 to 14) (size 15 to 20)
#    0.000    0.615    3.077    6.000    1.077    0.000 
#    6.923    0.000    0.000    0.000    0.000    0.000 
#    0.000    0.000    0.000    0.000    0.000    0.000 
#
# Total GULP energy -322443.248729 kJ/mol
# GULP energy per Si atom -12401.663413 kJ/mol
# Density = 2.165885 g / cm^3
# Si number density = 21.708260 Si / 1000 Ang^3
#
#
#
# Elastic Constant Matrix: (Units=GPa)
#
#
# Indices 1 2 3 4 5 6 
#
# 1 112.3518 21.9218 21.1912 0.0000 9.9511 0.0000
# 2 21.9218 119.1736 26.1637 0.0000 10.2662 0.0000
# 3 21.1912 26.1637 82.4416 0.0000 7.8716 0.0000
# 4 0.0000 0.0000 0.0000 33.1238 0.0000 3.1464
# 5 9.9511 10.2662 7.8716 0.0000 33.3184 0.0000
# 6 0.0000 0.0000 0.0000 3.1464 0.0000 32.7589
#
#
#
# Elastic Compliance Matrix: (Units=1/GPa)
#
#
# Indices 1 2 3 4 5 6 
#
# 1 0.009676 -0.001181 -0.001914 0.000000 -0.002074 0.000000
# 2 -0.001181 0.009317 -0.002469 0.000000 -0.001935 0.000000
# 3 -0.001914 -0.002469 0.013585 0.000000 -0.001877 0.000000
# 4 0.000000 0.000000 0.000000 0.030468 0.000000 -0.002926
# 5 -0.002074 -0.001935 -0.001877 0.000000 0.031672 0.000000
# 6 0.000000 0.000000 0.000000 -0.002926 0.000000 0.030807
#
#
# Mechanical properties :
#
#
# Convention : Reuss Voigt Hill
#
# Bulk Modulus (GPa) = 46.62078 50.28003 48.45040
# Shear Modulus (GPa) = 34.77002 36.15290 35.46146
#
# Velocity S-wave (km/s) = 4.00646 4.08536 4.04610
# Velocity P-wave (km/s) = 6.55172 6.74281 6.64795
#
# Compressibility (1/GPa) = 0.02144966
#
# Stress axis : x y z
#
# Youngs Moduli (GPa) = 103.35089 107.33088 73.61324
#
# Poissons Ratio (x) = 0.12675 0.14092
# Poissons Ratio (y) = 0.12205 0.18172
# Poissons Ratio (z) = 0.19785 0.26495
#
# Static dielectric constant tensor:
#      x y z
#    x 4.059450 0.000000 0.059400 
#    y 0.000000 492.583420 0.000000 
#    z 0.059400 0.000000 4.020960 
# 
# 
# High freq. dielectric constant tensor:
#      x y z
#    x 1.860080 0.000000 -0.001450 
#    y 0.000000 1.858360 0.000000 
#    z -0.001450 0.000000 1.853270 
# 
# From -- ./inp_files/70188.got.cif
#   From: 2010.06.25/outbox.cif.g09.slc.cpg/sg15_36_cif.got.tgz:70188.got - 2010.06.28 07:06:18.
