data_PCOD8150917
_publ_section_title
;
Structure prediction by ZEFSAII (Michael W. Deem and Ramdas Pophale) SiO2 
 PCOD8150917
Probable space group: C 2/C
;
_chemical_formula_sum "Si O2"
_cell_formula_units_Z 44
_cell_length_a 18.269452
_cell_length_b 14.314013
_cell_length_c 8.651587
_cell_angle_alpha 90.000000
_cell_angle_beta 60.364458
_cell_angle_gamma 90.000000
_cell_volume 1966.512032
_symmetry_space_group_name_H-M "C 2/C"
_symmetry_group_IT_number 15
_symmetry_cell_setting 'monoclinic'
loop_
_space_group_symop_operation_xyz
x,y,z
-x,y,1/2-z
-x,-y,-z
x,-y,1/2+z
1/2+x,1/2+y,z
1/2-x,1/2+y,1/2-z
1/2-x,1/2-y,-z
1/2+x,1/2-y,1/2+z
loop_
_atom_site_type_symbol
_atom_site_label
_atom_site_fract_x
_atom_site_fract_y
_atom_site_fract_z
Si Si1 0.226682 0.670495 0.896895
Si Si2 0.877307 0.665181 0.770074
Si Si3 0.064202 0.306273 0.972135
Si Si4 0.096723 0.543707 0.203285
Si Si5 0.596340 0.390401 0.370602
Si Si6 0.500000 0.471941 0.750000
O O1 0.190822 0.714577 0.772927
O O2 0.304176 0.604848 0.764750
O O3 0.250000 0.750000 0.000000
O O4 0.151673 0.602036 0.024632
O O5 0.859532 0.555195 0.812911
O O6 0.968099 0.675988 0.602616
O O7 0.878580 0.714901 0.936048
O O8 0.101312 0.399209 0.857509
O O9 0.070828 0.216001 0.854300
O O10 0.000000 0.532184 0.250000
O O11 0.563959 0.409609 0.580159
O O12 0.555894 0.464086 0.299653
#
# Coordination Sequence:
#
# PCOD8150917 Si02
#       6
#     8   8   8   8   8   4
#     4  12  27  44  67 108 143 185 233 295 352 425
#     4  11  24  41  69 106 141 185 233 290 360 433
#     4  11  22  42  70 100 140 189 233 283 360 433
#     4  12  22  44  72 107 150 189 230 291 364 441
#     4  11  26  49  70 101 130 192 242 300 356 414
#     4  10  26  52  74  88 134 186 254 294 352 424
#
# _framework density 22.374641
#
# number of rings (size 3 to 8) (size 9 to 14) (size 15 to 20)
#    0.000    0.727    5.455    2.727    6.364    0.727 
#    0.000    0.000    0.000    0.000    0.000    0.000 
#    0.000    0.000    0.000    0.000    0.000    0.000 
#
# Total GULP energy -272647.918186 kJ/mol
# GULP energy per Si atom -12393.087190 kJ/mol
# Density = 2.232372 g / cm^3
# Si number density = 22.374641 Si / 1000 Ang^3
#
#
#
# Elastic Constant Matrix: (Units=GPa)
#
#
# Indices 1 2 3 4 5 6 
#
# 1 117.6435 35.2689 60.1977 0.0000 8.1668 0.0000
# 2 35.2689 87.2408 0.3304 0.0000 8.8109 0.0000
# 3 60.1977 0.3304 89.8456 0.0000 -3.8989 0.0000
# 4 0.0000 0.0000 0.0000 43.3906 0.0000 -0.2655
# 5 8.1668 8.8109 -3.8989 0.0000 31.4663 0.0000
# 6 0.0000 0.0000 0.0000 -0.2655 0.0000 28.9880
#
#
#
# Elastic Compliance Matrix: (Units=1/GPa)
#
#
# Indices 1 2 3 4 5 6 
#
# 1 0.016258 -0.006140 -0.011038 0.000000 -0.003868 0.000000
# 2 -0.006140 0.014118 0.003981 0.000000 -0.001866 0.000000
# 3 -0.011038 0.003981 0.018688 0.000000 0.004066 0.000000
# 4 0.000000 0.000000 0.000000 0.023048 0.000000 0.000211
# 5 -0.003868 -0.001866 0.004066 0.000000 0.033810 0.000000
# 6 0.000000 0.000000 0.000000 0.000211 0.000000 0.034499
#
#
# Mechanical properties :
#
#
# Convention : Reuss Voigt Hill
#
# Bulk Modulus (GPa) = 44.11271 54.03598 49.07434
# Shear Modulus (GPa) = 28.67445 34.03118 31.35281
#
# Velocity S-wave (km/s) = 3.58377 3.90419 3.74741
# Velocity P-wave (km/s) = 6.07313 6.67283 6.38003
#
# Compressibility (1/GPa) = 0.02266920
#
# Stress axis : x y z
#
# Youngs Moduli (GPa) = 61.50936 70.83058 53.51121
#
# Poissons Ratio (x) = 0.43490 0.59066
# Poissons Ratio (y) = 0.37767 -0.21303
# Poissons Ratio (z) = 0.67895 -0.28198
#
# Static dielectric constant tensor:
#      x y z
#    x 3.925020 0.000000 0.107940 
#    y 0.000000 4.165480 0.000000 
#    z 0.107940 0.000000 4.471760 
# 
# 
# High freq. dielectric constant tensor:
#      x y z
#    x 1.873190 0.000000 0.004180 
#    y 0.000000 1.879280 0.000000 
#    z 0.004180 0.000000 1.899950 
# 
# From -- ./inp_files/47387.got.cif
#   From: 2010.06.25/outbox.cif.g09.slc.cpg/sg15_24_cif.got.tgz:47387.got - 2010.06.28 07:06:18.
