data_PCOD8150873
_publ_section_title
;
Structure prediction by ZEFSAII (Michael W. Deem and Ramdas Pophale) SiO2 
 PCOD8150873
Probable space group: C 2/C
;
_chemical_formula_sum "Si O2"
_cell_formula_units_Z 52
_cell_length_a 12.728480
_cell_length_b 23.902155
_cell_length_c 11.085678
_cell_angle_alpha 90.000000
_cell_angle_beta 132.755592
_cell_angle_gamma 90.000000
_cell_volume 2476.415525
_symmetry_space_group_name_H-M "C 2/C"
_symmetry_group_IT_number 15
_symmetry_cell_setting 'monoclinic'
loop_
_space_group_symop_operation_xyz
x,y,z
-x,y,1/2-z
-x,-y,-z
x,-y,1/2+z
1/2+x,1/2+y,z
1/2-x,1/2+y,1/2-z
1/2-x,1/2-y,-z
1/2+x,1/2-y,1/2+z
loop_
_atom_site_type_symbol
_atom_site_label
_atom_site_fract_x
_atom_site_fract_y
_atom_site_fract_z
Si Si1 0.541689 0.634037 0.154080
Si Si2 0.819693 0.172214 0.799471
Si Si3 0.486641 0.143413 0.870389
Si Si4 0.000000 0.107534 0.750000
Si Si5 0.628625 0.460632 0.563166
Si Si6 0.065835 0.485800 0.180655
Si Si7 0.731908 0.780428 0.615709
O O1 0.500000 0.608254 0.250000
O O2 0.646632 0.590144 0.171284
O O3 0.614091 0.695305 0.223450
O O4 0.392475 0.639236 0.966682
O O5 0.651014 0.161760 0.661435
O O6 0.894376 0.150153 0.736778
O O7 0.832998 0.238523 0.834429
O O8 0.500000 0.173166 0.750000
O O9 0.473497 0.078350 0.840079
O O10 0.630391 0.164985 0.045703
O O11 0.902223 0.067099 0.591370
O O12 0.500000 0.500000 0.500000
O O13 0.767421 0.499569 0.680322
O O14 0.000000 0.515603 0.250000
O O15 0.000000 0.500000 0.000000
O O16 0.750000 0.750000 0.500000
#
# Coordination Sequence:
#
# PCOD8150873 Si02
#       7
#     8   8   8   4   8   8   8
#     4  11  22  40  65 104 129 168 233 284 341 409
#     4  11  23  40  68  91 141 179 217 286 339 410
#     4  11  22  40  63 101 131 174 230 289 344 414
#     4  10  26  48  66 106 142 184 248 276 350 434
#     4  11  26  45  74  96 138 188 235 291 344 423
#     4  11  26  43  69 100 142 181 229 291 365 421
#     4  12  22  38  67  99 139 171 225 290 352 401
#
# _framework density 20.998090999999999
#
# number of rings (size 3 to 8) (size 9 to 14) (size 15 to 20)
#    0.000    0.923    3.077    3.692    5.385    2.462 
#    0.000    6.923    1.692    0.000    0.000    0.000 
#    0.000    0.000    0.000    0.000    0.000    0.000 
#
# Total GULP energy -322153.519428 kJ/mol
# GULP energy per Si atom -12390.519978 kJ/mol
# Density = 2.095030 g / cm^3
# Si number density = 20.998091 Si / 1000 Ang^3
#
#
#
# Elastic Constant Matrix: (Units=GPa)
#
#
# Indices 1 2 3 4 5 6 
#
# 1 139.0517 42.7563 66.7366 0.0000 -4.5580 0.0000
# 2 42.7563 102.6989 40.8372 0.0000 -6.5648 0.0000
# 3 66.7366 40.8372 108.1804 0.0000 -4.9565 0.0000
# 4 0.0000 0.0000 0.0000 42.3584 0.0000 4.0739
# 5 -4.5580 -6.5648 -4.9565 0.0000 40.5137 0.0000
# 6 0.0000 0.0000 0.0000 4.0739 0.0000 34.5396
#
#
#
# Elastic Compliance Matrix: (Units=1/GPa)
#
#
# Indices 1 2 3 4 5 6 
#
# 1 0.010600 -0.002125 -0.005730 0.000000 0.000147 0.000000
# 2 -0.002125 0.011955 -0.003142 0.000000 0.001314 0.000000
# 3 -0.005730 -0.003142 0.013990 0.000000 0.000558 0.000000
# 4 0.000000 0.000000 0.000000 0.023879 0.000000 -0.002817
# 5 0.000147 0.001314 0.000558 0.000000 0.024981 0.000000
# 6 0.000000 0.000000 0.000000 -0.002817 0.000000 0.029284
#
#
# Mechanical properties :
#
#
# Convention : Reuss Voigt Hill
#
# Bulk Modulus (GPa) = 68.72227 72.28792 70.50510
# Shear Modulus (GPa) = 35.32710 36.78907 36.05809
#
# Velocity S-wave (km/s) = 4.10615 4.19025 4.14842
# Velocity P-wave (km/s) = 7.43502 7.60997 7.52301
#
# Compressibility (1/GPa) = 0.01455132
#
# Stress axis : x y z
#
# Youngs Moduli (GPa) = 94.33978 83.64540 71.47781
#
# Poissons Ratio (x) = 0.17775 0.40958
# Poissons Ratio (y) = 0.20048 0.22457
# Poissons Ratio (z) = 0.54059 0.26280
#
# Static dielectric constant tensor:
#      x y z
#    x 3.507220 0.000000 -0.018160 
#    y 0.000000 3.865770 0.000000 
#    z -0.018160 0.000000 4.047990 
# 
# 
# High freq. dielectric constant tensor:
#      x y z
#    x 1.822920 0.000000 0.009610 
#    y 0.000000 1.830050 0.000000 
#    z 0.009610 0.000000 1.821110 
# 
# From -- ./inp_files/91331.got.cif
#   From: 2010.06.25/outbox.cif.g09.slc.cpg/sg15_46_cif.got.tgz:91331.got - 2010.06.28 07:06:18.
