data_PCOD8150009
_publ_section_title
;
Structure prediction by ZEFSAII (Michael W. Deem and Ramdas Pophale) SiO2 
 PCOD8150009
Probable space group: C 2/C
;
_chemical_formula_sum "Si O2"
_cell_formula_units_Z 48
_cell_length_a 18.746257
_cell_length_b 5.324661
_cell_length_c 23.800205
_cell_angle_alpha 90.000000
_cell_angle_beta 66.714921
_cell_angle_gamma 90.000000
_cell_volume 2182.175753
_symmetry_space_group_name_H-M "C 2/C"
_symmetry_group_IT_number 15
_symmetry_cell_setting 'monoclinic'
loop_
_space_group_symop_operation_xyz
x,y,z
-x,y,1/2-z
-x,-y,-z
x,-y,1/2+z
1/2+x,1/2+y,z
1/2-x,1/2+y,1/2-z
1/2-x,1/2-y,-z
1/2+x,1/2-y,1/2+z
loop_
_atom_site_type_symbol
_atom_site_label
_atom_site_fract_x
_atom_site_fract_y
_atom_site_fract_z
Si Si1 0.172572 0.892740 0.397049
Si Si2 0.631344 0.653319 0.525549
Si Si3 0.028691 0.881478 0.364712
Si Si4 0.725947 0.035583 0.227072
Si Si5 0.049693 0.394451 0.289126
Si Si6 0.766982 0.447870 0.542049
O O1 0.099910 0.810489 0.382525
O O2 0.228789 0.084530 0.345879
O O3 0.226575 0.651695 0.395818
O O4 0.145874 0.983302 0.466333
O O5 0.546000 0.595446 0.572959
O O6 0.692256 0.629283 0.559146
O O7 0.648196 0.933153 0.498357
O O8 0.014902 0.646844 0.327633
O O9 0.044607 0.148734 0.330131
O O10 0.771939 0.798643 0.240474
O O11 0.638143 0.949421 0.244658
O O12 0.000000 0.330526 0.250000
O O13 0.750000 0.250000 0.500000
#
# Coordination Sequence:
#
# PCOD8150009 Si02
#       6
#     8   8   8   8   8   8
#     4  11  24  42  73 102 136 187 231 295 353 419
#     4  10  24  43  69 105 144 181 232 290 360 420
#     4  12  27  46  73 104 144 181 238 297 353 427
#     4  12  25  48  72 103 141 183 243 296 346 427
#     4  12  28  49  71 106 141 192 238 294 360 416
#     4   9  22  42  64 103 135 181 228 275 354 418
#
# _framework density 21.996393000000001
#
# number of rings (size 3 to 8) (size 9 to 14) (size 15 to 20)
#    0.000    1.000    3.333    1.000   11.667    3.333 
#    0.000    0.000    0.000    0.000    0.000    0.000 
#    0.000    0.000    0.000    0.000    0.000    0.000 
#
# Total GULP energy -297349.340581 kJ/mol
# GULP energy per Si atom -12389.555858 kJ/mol
# Density = 2.194633 g / cm^3
# Si number density = 21.996393 Si / 1000 Ang^3
#
#
#
# Elastic Constant Matrix: (Units=GPa)
#
#
# Indices 1 2 3 4 5 6 
#
# 1 88.0189 6.4730 44.1820 0.0177 4.6709 0.0269
# 2 6.4730 98.4427 15.5007 0.0764 10.3225 -0.0245
# 3 44.1820 15.5007 107.3204 -0.0035 -10.0304 -0.0047
# 4 0.0177 0.0764 -0.0035 26.4427 0.0005 -5.6954
# 5 4.6709 10.3225 -10.0304 0.0005 41.6047 0.0075
# 6 0.0269 -0.0245 -0.0047 -5.6954 0.0075 29.2925
#
#
#
# Elastic Compliance Matrix: (Units=1/GPa)
#
#
# Indices 1 2 3 4 5 6 
#
# 1 0.014736 0.000390 -0.006432 -0.000015 -0.003302 -0.000016
# 2 0.000390 0.010787 -0.002018 -0.000031 -0.003207 0.000003
# 3 -0.006432 -0.002018 0.012657 0.000013 0.004274 0.000008
# 4 -0.000015 -0.000031 0.000013 0.039471 0.000011 0.007674
# 5 -0.003302 -0.003207 0.004274 0.000011 0.026232 -0.000004
# 6 -0.000016 0.000003 0.000008 0.007674 -0.000004 0.035631
#
#
# Mechanical properties :
#
#
# Convention : Reuss Voigt Hill
#
# Bulk Modulus (GPa) = 45.33128 47.34371 46.33749
# Shear Modulus (GPa) = 30.67755 34.64309 32.66032
#
# Velocity S-wave (km/s) = 3.73857 3.97286 3.85750
# Velocity P-wave (km/s) = 6.26810 6.52801 6.39938
#
# Compressibility (1/GPa) = 0.02205982
#
# Stress axis : x y z
#
# Youngs Moduli (GPa) = 67.86061 92.70769 79.01019
#
# Poissons Ratio (x) = -0.03615 0.50815
# Poissons Ratio (y) = -0.02646 0.15946
# Poissons Ratio (z) = 0.43645 0.18710
#
# Static dielectric constant tensor:
#      x y z
#    x 4.751930 0.000410 0.418230 
#    y 0.000410 4.479090 0.000240 
#    z 0.418230 0.000240 4.208290 
# 
# 
# High freq. dielectric constant tensor:
#      x y z
#    x 1.874860 0.000000 0.004220 
#    y 0.000000 1.874290 -0.000010 
#    z 0.004220 -0.000010 1.864870 
# 
# From -- ./inp_files/275823.got.cif
#   From: 2010.06.25/outbox.cif.g09.slc.cpg/sg15_138_cif.got.tgz:275823.got - 2010.06.28 07:06:18.
