data_PCOD8150997
_publ_section_title
;
Structure prediction by ZEFSAII (Michael W. Deem and Ramdas Pophale) SiO2 
 PCOD8150997
Probable space group: C 2/C
;
_chemical_formula_sum "Si O2"
_cell_formula_units_Z 48
_cell_length_a 14.622286
_cell_length_b 26.503083
_cell_length_c 7.804340
_cell_angle_alpha 90.000000
_cell_angle_beta 40.787058
_cell_angle_gamma 90.000000
_cell_volume 1975.727308
_symmetry_space_group_name_H-M "C 2/C"
_symmetry_group_IT_number 15
_symmetry_cell_setting 'monoclinic'
loop_
_space_group_symop_operation_xyz
x,y,z
-x,y,1/2-z
-x,-y,-z
x,-y,1/2+z
1/2+x,1/2+y,z
1/2-x,1/2+y,1/2-z
1/2-x,1/2-y,-z
1/2+x,1/2-y,1/2+z
loop_
_atom_site_type_symbol
_atom_site_label
_atom_site_fract_x
_atom_site_fract_y
_atom_site_fract_z
Si Si1 0.510397 0.858530 0.436295
Si Si2 0.162048 0.009064 0.799016
Si Si3 0.959516 0.143369 0.032112
Si Si4 0.740081 0.581481 0.385251
Si Si5 0.696147 0.603922 0.918371
Si Si6 0.088871 0.247100 0.286674
O O1 0.500000 0.868102 0.250000
O O2 0.372813 0.882182 0.716553
O O3 0.640446 0.886315 0.338014
O O4 0.528364 0.799075 0.449111
O O5 0.231640 0.044886 0.559224
O O6 0.170367 0.043341 0.962496
O O7 0.245374 0.956680 0.712191
O O8 0.000000 0.000000 0.000000
O O9 0.897995 0.116609 0.947624
O O10 0.856925 0.130048 0.335471
O O11 0.940223 0.203484 0.031200
O O12 0.116323 0.125724 0.860127
O O13 0.000000 0.229729 0.250000
O O14 0.250000 0.250000 0.000000
#
# Coordination Sequence:
#
# PCOD8150997 Si02
#       6
#     8   8   8   8   8   8
#     4  11  23  41  66 105 147 181 227 291 354 421
#     4  12  27  46  74  98 132 186 246 294 352 422
#     4  11  20  38  70 106 132 180 235 293 338 412
#     4  12  26  45  70 102 143 183 238 296 356 416
#     4  11  22  40  66  96 139 176 233 287 342 411
#     4  11  18  35  66 106 137 182 231 283 342 419
#
# _framework density 24.29485
#
# number of rings (size 3 to 8) (size 9 to 14) (size 15 to 20)
#    0.000    0.667    6.667    2.500    2.333    1.333 
#    0.000    0.000    0.000    6.000    0.000    0.000 
#    0.000    0.000    0.000    0.000    0.000    0.000 
#
# Total GULP energy -297553.611363 kJ/mol
# GULP energy per Si atom -12398.067140 kJ/mol
# Density = 2.423955 g / cm^3
# Si number density = 24.294850 Si / 1000 Ang^3
#
#
#
# Elastic Constant Matrix: (Units=GPa)
#
#
# Indices 1 2 3 4 5 6 
#
# 1 99.3970 32.8489 39.0050 0.0000 -36.4922 0.0000
# 2 32.8489 196.6940 45.2671 0.0000 -33.5689 0.0000
# 3 39.0050 45.2671 87.6285 0.0000 -40.1776 0.0000
# 4 0.0000 0.0000 0.0000 40.4214 0.0000 -13.9360
# 5 -36.4922 -33.5689 -40.1776 0.0000 46.0578 0.0000
# 6 0.0000 0.0000 0.0000 -13.9360 0.0000 32.2405
#
#
#
# Elastic Compliance Matrix: (Units=1/GPa)
#
#
# Indices 1 2 3 4 5 6 
#
# 1 0.014408 -0.000351 -0.001859 0.000000 0.009539 0.000000
# 2 -0.000351 0.005983 -0.001771 0.000000 0.002538 0.000000
# 3 -0.001859 -0.001771 0.019810 0.000000 0.014518 0.000000
# 4 0.000000 0.000000 0.000000 0.029072 0.000000 0.012566
# 5 0.009539 0.002538 0.014518 0.000000 0.043784 0.000000
# 6 0.000000 0.000000 0.000000 0.012566 0.000000 0.036449
#
#
# Mechanical properties :
#
#
# Convention : Reuss Voigt Hill
#
# Bulk Modulus (GPa) = 31.01621 68.66238 49.83929
# Shear Modulus (GPa) = 29.72413 41.51718 35.62066
#
# Velocity S-wave (km/s) = 3.50161 4.13835 3.83323
# Velocity P-wave (km/s) = 5.39840 7.15249 6.33643
#
# Compressibility (1/GPa) = 0.03224121
#
# Stress axis : x y z
#
# Youngs Moduli (GPa) = 69.40652 167.13000 50.47852
#
# Poissons Ratio (x) = 0.05858 0.09382
# Poissons Ratio (y) = 0.02433 0.08940
# Poissons Ratio (z) = 0.12900 0.29600
#
# Static dielectric constant tensor:
#      x y z
#    x 4.773670 0.000000 0.065120 
#    y 0.000000 4.971840 0.000000 
#    z 0.065120 0.000000 4.007720 
# 
# 
# High freq. dielectric constant tensor:
#      x y z
#    x 1.975620 0.000000 -0.004030 
#    y 0.000000 1.988910 0.000000 
#    z -0.004030 0.000000 1.941530 
# 
# From -- ./inp_files/43809.got.cif
#   From: 2010.06.25/outbox.cif.g09.slc.cpg/sg15_22_cif.got.tgz:43809.got - 2010.06.28 07:06:18.
