data_PCOD8150765
_publ_section_title
;
Structure prediction by ZEFSAII (Michael W. Deem and Ramdas Pophale) SiO2 
 PCOD8150765
Probable space group: C 2/C
;
_chemical_formula_sum "Si O2"
_cell_formula_units_Z 52
_cell_length_a 19.367416
_cell_length_b 5.934569
_cell_length_c 21.975545
_cell_angle_alpha 90.000000
_cell_angle_beta 112.025560
_cell_angle_gamma 90.000000
_cell_volume 2341.467062
_symmetry_space_group_name_H-M "C 2/C"
_symmetry_group_IT_number 15
_symmetry_cell_setting 'monoclinic'
loop_
_space_group_symop_operation_xyz
x,y,z
-x,y,1/2-z
-x,-y,-z
x,-y,1/2+z
1/2+x,1/2+y,z
1/2-x,1/2+y,1/2-z
1/2-x,1/2-y,-z
1/2+x,1/2-y,1/2+z
loop_
_atom_site_type_symbol
_atom_site_label
_atom_site_fract_x
_atom_site_fract_y
_atom_site_fract_z
Si Si1 0.191825 0.944901 0.977755
Si Si2 0.567088 0.263509 0.183435
Si Si3 0.059621 0.456180 0.071253
Si Si4 0.773676 0.825762 0.234933
Si Si5 0.966294 0.155801 0.127608
Si Si6 0.500000 0.934797 0.250000
Si Si7 0.214618 0.718042 0.584018
O O1 0.110108 0.856466 0.934400
O O2 0.220684 0.114690 0.936175
O O3 0.250000 0.750000 0.000000
O O4 0.189097 0.049580 0.044300
O O5 0.641373 0.399039 0.225302
O O6 0.493676 0.416445 0.161369
O O7 0.560875 0.074345 0.232998
O O8 0.570505 0.174530 0.116031
O O9 0.138463 0.420394 0.064773
O O10 0.031170 0.253127 0.105103
O O11 0.000000 0.500000 0.000000
O O12 0.764544 0.575314 0.265985
O O13 0.752423 0.744883 0.161049
O O14 0.952506 0.297360 0.184463
#
# Coordination Sequence:
#
# PCOD8150765 Si02
#       7
#     8   8   8   8   8   4   8
#     4  11  27  45  70 104 144 196 246 315 382 452
#     4  11  25  44  68 103 141 189 244 304 369 443
#     4  11  23  45  71  99 137 182 241 300 364 444
#     4  12  28  47  77 111 153 196 251 314 384 451
#     4  11  25  44  71 102 141 189 250 302 377 445
#     4  10  26  42  68 102 140 190 244 310 364 446
#     4  11  26  45  68 105 144 190 247 307 380 449
#
# _framework density 22.208299
#
# number of rings (size 3 to 8) (size 9 to 14) (size 15 to 20)
#    0.000    0.923    1.538    3.231   10.769    7.385 
#    0.000    0.000    0.000    0.000    0.000    0.000 
#    0.000    0.000    0.000    0.000    0.000    0.000 
#
# Total GULP energy -322133.118765 kJ/mol
# GULP energy per Si atom -12389.735337 kJ/mol
# Density = 2.215775 g / cm^3
# Si number density = 22.208299 Si / 1000 Ang^3
#
#
#
# Elastic Constant Matrix: (Units=GPa)
#
#
# Indices 1 2 3 4 5 6 
#
# 1 77.2553 12.9307 26.2639 0.0000 15.2913 0.0000
# 2 12.9307 98.3310 28.7629 0.0003 1.6117 -0.0002
# 3 26.2639 28.7629 150.7125 0.0000 11.8447 -0.0001
# 4 0.0000 0.0003 0.0000 37.6034 0.0000 5.3017
# 5 15.2913 1.6117 11.8447 0.0000 49.7555 0.0000
# 6 0.0000 -0.0002 -0.0001 5.3017 0.0000 24.4431
#
#
#
# Elastic Compliance Matrix: (Units=1/GPa)
#
#
# Indices 1 2 3 4 5 6 
#
# 1 0.014622 -0.001275 -0.001992 0.000000 -0.003978 0.000000
# 2 -0.001275 0.010883 -0.001893 0.000000 0.000490 0.000000
# 3 -0.001992 -0.001893 0.007430 0.000000 -0.001095 0.000000
# 4 0.000000 0.000000 0.000000 0.027432 0.000000 -0.005950
# 5 -0.003978 0.000490 -0.001095 0.000000 0.021566 0.000000
# 6 0.000000 0.000000 0.000000 -0.005950 0.000000 0.042202
#
#
# Mechanical properties :
#
#
# Convention : Reuss Voigt Hill
#
# Bulk Modulus (GPa) = 44.21994 51.35710 47.78852
# Shear Modulus (GPa) = 35.21276 39.58314 37.39795
#
# Velocity S-wave (km/s) = 3.98624 4.22638 4.10806
# Velocity P-wave (km/s) = 6.41416 6.85505 6.63827
#
# Compressibility (1/GPa) = 0.02261423
#
# Stress axis : x y z
#
# Youngs Moduli (GPa) = 68.38926 91.88492 134.59453
#
# Poissons Ratio (x) = 0.11714 0.26813
# Poissons Ratio (y) = 0.08719 0.25484
# Poissons Ratio (z) = 0.13624 0.17397
#
# Static dielectric constant tensor:
#      x y z
#    x 3.560470 0.000010 0.023090 
#    y 0.000010 4.410190 0.000000 
#    z 0.023090 0.000000 4.111040 
# 
# 
# High freq. dielectric constant tensor:
#      x y z
#    x 1.875070 0.000000 0.001100 
#    y 0.000000 1.877730 0.000000 
#    z 0.001100 0.000000 1.898410 
# 
# From -- ./inp_files/279002.got.cif
#   From: 2010.06.25/outbox.cif.g09.slc.cpg/sg15_140_cif.got.tgz:279002.got - 2010.06.28 07:06:18.
