data_PCOD8150963
_publ_section_title
;
Structure prediction by ZEFSAII (Michael W. Deem and Ramdas Pophale) SiO2 
 PCOD8150963
Probable space group: C 2/C
;
_chemical_formula_sum "Si O2"
_cell_formula_units_Z 56
_cell_length_a 10.708869
_cell_length_b 31.785965
_cell_length_c 8.987959
_cell_angle_alpha 90.000000
_cell_angle_beta 60.706593
_cell_angle_gamma 90.000000
_cell_volume 2668.204511
_symmetry_space_group_name_H-M "C 2/C"
_symmetry_group_IT_number 15
_symmetry_cell_setting 'monoclinic'
loop_
_space_group_symop_operation_xyz
x,y,z
-x,y,1/2-z
-x,-y,-z
x,-y,1/2+z
1/2+x,1/2+y,z
1/2-x,1/2+y,1/2-z
1/2-x,1/2-y,-z
1/2+x,1/2-y,1/2+z
loop_
_atom_site_type_symbol
_atom_site_label
_atom_site_fract_x
_atom_site_fract_y
_atom_site_fract_z
Si Si1 0.560682 0.891427 0.363795
Si Si2 0.173195 0.157288 0.786882
Si Si3 0.409545 0.969483 0.948720
Si Si4 0.342724 0.745759 0.797126
Si Si5 0.120213 0.125245 0.485900
Si Si6 0.592414 0.530028 0.551537
Si Si7 0.613046 0.162434 0.315485
O O1 0.500000 0.913805 0.250000
O O2 0.695942 0.867128 0.216873
O O3 0.610100 0.925512 0.455350
O O4 0.452619 0.856911 0.496389
O O5 0.214597 0.206748 0.766608
O O6 0.163027 0.139771 0.625015
O O7 0.031567 0.146902 0.964800
O O8 0.500000 0.959966 0.750000
O O9 0.251887 0.988032 0.998455
O O10 0.500000 0.000000 0.000000
O O11 0.500000 0.730761 0.750000
O O12 0.350384 0.787873 0.693315
O O13 0.250000 0.750000 0.000000
O O14 0.110619 0.075341 0.466578
O O15 0.238362 0.139315 0.299931
O O16 0.500000 0.536809 0.750000
O O17 0.500000 0.500000 0.500000
O O18 0.500000 0.155335 0.250000
#
# Coordination Sequence:
#
# PCOD8150963 Si02
#       7
#     8   8   8   8   8   8   8
#     4  12  25  42  63  89 128 178 220 262 324 387
#     4  11  19  37  61  91 125 162 206 262 321 381
#     4  12  25  44  68  96 129 166 212 272 326 389
#     4  11  18  29  58  98 124 153 209 267 319 379
#     4  11  19  37  64  87 122 163 202 257 328 370
#     4  12  24  41  64  92 124 166 209 261 318 384
#     4  11  20  36  62  97 128 161 215 271 319 383
#
# _framework density 20.987897
#
# number of rings (size 3 to 8) (size 9 to 14) (size 15 to 20)
#    0.000    0.571    7.143    3.429    0.000    1.143 
#    0.000    1.429    0.000    0.000    0.000    0.000 
#    0.000    0.000    0.000    0.000    0.000    0.000 
#
# Total GULP energy -347137.166299 kJ/mol
# GULP energy per Si atom -12397.755939 kJ/mol
# Density = 2.094013 g / cm^3
# Si number density = 20.987897 Si / 1000 Ang^3
#
#
#
# Elastic Constant Matrix: (Units=GPa)
#
#
# Indices 1 2 3 4 5 6 
#
# 1 125.3696 50.9739 57.9332 0.0000 -24.6200 0.0000
# 2 50.9739 142.1766 20.0217 0.0000 -2.4200 0.0000
# 3 57.9332 20.0217 69.5855 0.0000 -20.2725 0.0000
# 4 0.0000 0.0000 0.0000 18.2364 0.0000 -9.9330
# 5 -24.6200 -2.4200 -20.2725 0.0000 41.9439 0.0000
# 6 0.0000 0.0000 0.0000 -9.9330 0.0000 31.9082
#
#
#
# Elastic Compliance Matrix: (Units=1/GPa)
#
#
# Indices 1 2 3 4 5 6 
#
# 1 0.015048 -0.003874 -0.010365 0.000000 0.003600 0.000000
# 2 -0.003874 0.008345 0.000352 0.000000 -0.001623 0.000000
# 3 -0.010365 0.000352 0.024596 0.000000 0.005824 0.000000
# 4 0.000000 0.000000 0.000000 0.066032 0.000000 0.020556
# 5 0.003600 -0.001623 0.005824 0.000000 0.028676 0.000000
# 6 0.000000 0.000000 0.000000 0.020556 0.000000 0.037739
#
#
# Mechanical properties :
#
#
# Convention : Reuss Voigt Hill
#
# Bulk Modulus (GPa) = 49.47041 66.10992 57.79017
# Shear Modulus (GPa) = 23.26136 32.29788 27.77962
#
# Velocity S-wave (km/s) = 3.33276 3.92711 3.64208
# Velocity P-wave (km/s) = 6.19934 7.22014 6.72912
#
# Compressibility (1/GPa) = 0.02021410
#
# Stress axis : x y z
#
# Youngs Moduli (GPa) = 66.45318 119.82643 40.65762
#
# Poissons Ratio (x) = 0.46424 0.42141
# Poissons Ratio (y) = 0.25746 -0.01429
# Poissons Ratio (z) = 0.68878 -0.04213
#
# Static dielectric constant tensor:
#      x y z
#    x 3.928730 0.000000 -0.506490 
#    y 0.000000 5.130760 0.000000 
#    z -0.506490 0.000000 3.602730 
# 
# 
# High freq. dielectric constant tensor:
#      x y z
#    x 1.813360 0.000000 -0.040160 
#    y 0.000000 1.834830 0.000000 
#    z -0.040160 0.000000 1.808570 
# 
# From -- ./inp_files/35552.got.cif
#   From: 2010.06.25/outbox.cif.g09.slc.cpg/sg15_18_cif.got.tgz:35552.got - 2010.06.28 07:06:18.
