data_PCOD8150291
_publ_section_title
;
Structure prediction by ZEFSAII (Michael W. Deem and Ramdas Pophale) SiO2 
 PCOD8150291
Probable space group: C 2/C
;
_chemical_formula_sum "Si O2"
_cell_formula_units_Z 56
_cell_length_a 18.531048
_cell_length_b 17.765711
_cell_length_c 9.279746
_cell_angle_alpha 90.000000
_cell_angle_beta 118.415676
_cell_angle_gamma 90.000000
_cell_volume 2686.974827
_symmetry_space_group_name_H-M "C 2/C"
_symmetry_group_IT_number 15
_symmetry_cell_setting 'monoclinic'
loop_
_space_group_symop_operation_xyz
x,y,z
-x,y,1/2-z
-x,-y,-z
x,-y,1/2+z
1/2+x,1/2+y,z
1/2-x,1/2+y,1/2-z
1/2-x,1/2-y,-z
1/2+x,1/2-y,1/2+z
loop_
_atom_site_type_symbol
_atom_site_label
_atom_site_fract_x
_atom_site_fract_y
_atom_site_fract_z
Si Si1 0.313102 0.581382 0.851944
Si Si2 0.156638 0.069269 0.955962
Si Si3 0.500000 0.184786 0.750000
Si Si4 0.409123 0.068826 0.107941
Si Si5 0.592559 0.728786 0.579552
Si Si6 0.500000 0.658111 0.750000
Si Si7 0.208571 0.317581 0.875019
Si Si8 0.129499 0.428151 0.246696
O O1 0.317407 0.563233 0.686464
O O2 0.368815 0.652484 0.946947
O O3 0.220489 0.602465 0.805766
O O4 0.346886 0.511871 0.975079
O O5 0.066951 0.104923 0.889701
O O6 0.222275 0.121601 0.102536
O O7 0.470532 0.237139 0.592984
O O8 0.423511 0.134862 0.725162
O O9 0.500000 0.080188 0.250000
O O10 0.359082 0.145329 0.084940
O O11 0.363767 0.001591 0.147927
O O12 0.413491 0.049031 0.943732
O O13 0.542247 0.712393 0.675880
O O14 0.665347 0.787367 0.688625
O O15 0.250000 0.250000 0.000000
#
# Coordination Sequence:
#
# PCOD8150291 Si02
#       8
#     8   8   4   8   8   4   8   8
#     4  11  23  46  68  99 134 180 233 275 348 410
#     4  11  24  42  73 102 133 181 233 289 338 419
#     4  12  30  43  65 106 146 174 232 290 354 399
#     4  12  25  40  69  96 135 178 224 289 341 412
#     4  11  27  44  68 101 140 183 224 290 343 416
#     4  10  24  45  71  98 132 182 238 272 354 409
#     4  12  22  42  71 102 131 179 237 276 342 411
#     4  12  24  44  65 100 133 178 229 278 344 422
#
# _framework density 20.841280999999999
#
# number of rings (size 3 to 8) (size 9 to 14) (size 15 to 20)
#    0.000    0.571    6.429    1.286    5.000    6.857 
#    0.000    0.000    0.000    0.000    0.000    0.000 
#    0.000    0.000    0.000    0.000    0.000    0.000 
#
# Total GULP energy -347375.189214 kJ/mol
# GULP energy per Si atom -12406.256758 kJ/mol
# Density = 2.079385 g / cm^3
# Si number density = 20.841281 Si / 1000 Ang^3
#
#
#
# Elastic Constant Matrix: (Units=GPa)
#
#
# Indices 1 2 3 4 5 6 
#
# 1 108.5708 42.4602 17.8172 0.0000 9.7208 0.0000
# 2 42.4602 127.6384 40.8737 0.0000 -2.4780 0.0000
# 3 17.8172 40.8737 82.1796 0.0000 6.1889 0.0000
# 4 0.0000 0.0000 0.0000 -345.3386 0.0000 -364.8881
# 5 9.7208 -2.4780 6.1889 0.0000 28.8057 0.0000
# 6 0.0000 0.0000 0.0000 -364.8881 0.0000 -309.4749
#
#
#
# Elastic Compliance Matrix: (Units=1/GPa)
#
#
# Indices 1 2 3 4 5 6 
#
# 1 0.011045 -0.003664 -0.000272 0.000000 -0.003984 0.000000
# 2 -0.003664 0.010630 -0.004731 0.000000 0.003168 0.000000
# 3 -0.000272 -0.004731 0.014845 0.000000 -0.003505 0.000000
# 4 0.000000 0.000000 0.000000 0.011781 0.000000 -0.013890
# 5 -0.003984 0.003168 -0.003505 0.000000 0.037085 0.000000
# 6 0.000000 0.000000 0.000000 -0.013890 0.000000 0.013146
#
#
# Mechanical properties :
#
#
# Convention : Reuss Voigt Hill
#
# Bulk Modulus (GPa) = 52.12577 57.85456 54.99017
# Shear Modulus (GPa) = 40.89584 -110.71904 -34.91160
#
# Velocity S-wave (km/s) = 4.43454 -7.29659 -4.09726
# Velocity P-wave (km/s) = 7.16137 6.57017 2.01472
#
# Compressibility (1/GPa) = 0.01918437
#
# Stress axis : x y z
#
# Youngs Moduli (GPa) = 90.53835 94.07121 67.36485
#
# Poissons Ratio (x) = 0.34472 0.01832
# Poissons Ratio (y) = 0.33178 0.31872
# Poissons Ratio (z) = 0.02463 0.44507
#
# Static dielectric constant tensor:
#      x y z
#    x 3.958610 0.000000 0.172460 
#    y 0.000000 3.905670 0.000000 
#    z 0.172460 0.000000 3.879900 
# 
# 
# High freq. dielectric constant tensor:
#      x y z
#    x 1.828290 0.000000 0.015050 
#    y 0.000000 1.826130 0.000000 
#    z 0.015050 0.000000 1.813210 
# 
# From -- ./inp_files/49204.got.cif
#   From: 2010.06.25/outbox.cif.g09.slc.cpg/sg15_25_cif.got.tgz:49204.got - 2010.06.28 07:06:18.
