data_PCOD8150719
_publ_section_title
;
Structure prediction by ZEFSAII (Michael W. Deem and Ramdas Pophale) SiO2 
 PCOD8150719
Probable space group: C 2/C
;
_chemical_formula_sum "Si O2"
_cell_formula_units_Z 40
_cell_length_a 18.650655
_cell_length_b 10.369470
_cell_length_c 8.748917
_cell_angle_alpha 90.000000
_cell_angle_beta 68.441848
_cell_angle_gamma 90.000000
_cell_volume 1573.652944
_symmetry_space_group_name_H-M "C 2/C"
_symmetry_group_IT_number 15
_symmetry_cell_setting 'monoclinic'
loop_
_space_group_symop_operation_xyz
x,y,z
-x,y,1/2-z
-x,-y,-z
x,-y,1/2+z
1/2+x,1/2+y,z
1/2-x,1/2+y,1/2-z
1/2-x,1/2-y,-z
1/2+x,1/2-y,1/2+z
loop_
_atom_site_type_symbol
_atom_site_label
_atom_site_fract_x
_atom_site_fract_y
_atom_site_fract_z
Si Si1 0.794834 0.867233 0.635999
Si Si2 0.116568 0.398852 0.750853
Si Si3 0.401063 0.839996 0.070665
Si Si4 0.957064 0.829713 0.015934
Si Si5 0.612185 0.504206 0.187003
O O1 0.708012 0.892825 0.657530
O O2 0.813623 0.715671 0.653232
O O3 0.815408 0.950190 0.768484
O O4 0.851975 0.896142 0.449754
O O5 0.075803 0.379754 0.619628
O O6 0.088682 0.538100 0.829109
O O7 0.093966 0.291528 0.891402
O O8 0.455858 0.719716 0.078489
O O9 0.954154 0.942184 0.149688
O O10 0.923089 0.878259 0.882228
#
# Coordination Sequence:
#
# PCOD8150719 Si02
#       5
#     8   8   8   8   8
#     4  11  25  46  76 108 144 191 248 305 363 436
#     4  12  27  48  73 108 152 193 243 301 372 437
#     4  12  28  48  73 106 152 195 244 298 371 439
#     4  11  26  49  73 110 150 190 247 303 367 436
#     4  10  25  47  78 108 143 189 253 305 364 429
#
# _framework density 25.418565000000001
#
# number of rings (size 3 to 8) (size 9 to 14) (size 15 to 20)
#    0.000    0.800    2.000    3.000    8.400    6.400 
#    0.000    0.000    0.000    0.000    0.000    0.000 
#    0.000    0.000    0.000    0.000    0.000    0.000 
#
# Total GULP energy -248125.458828 kJ/mol
# GULP energy per Si atom -12406.272941 kJ/mol
# Density = 2.536071 g / cm^3
# Si number density = 25.418565 Si / 1000 Ang^3
#
#
#
# Elastic Constant Matrix: (Units=GPa)
#
#
# Indices 1 2 3 4 5 6 
#
# 1 47.7749 -12.5395 7.4527 0.0000 1.0712 0.0000
# 2 -12.5395 94.3420 10.5026 0.0000 12.2909 0.0000
# 3 7.4527 10.5026 78.1909 0.0000 10.9708 0.0000
# 4 0.0000 0.0000 0.0000 48.5127 0.0000 -2.8056
# 5 1.0712 12.2909 10.9708 0.0000 40.4975 0.0000
# 6 0.0000 0.0000 0.0000 -2.8056 0.0000 44.0775
#
#
#
# Elastic Compliance Matrix: (Units=1/GPa)
#
#
# Indices 1 2 3 4 5 6 
#
# 1 0.022211 0.003346 -0.002434 0.000000 -0.000944 0.000000
# 2 0.003346 0.011624 -0.001427 0.000000 -0.003230 0.000000
# 3 -0.002434 -0.001427 0.013662 0.000000 -0.003204 0.000000
# 4 0.000000 0.000000 0.000000 0.020689 0.000000 0.001317
# 5 -0.000944 -0.003230 -0.003204 0.000000 0.026566 0.000000
# 6 0.000000 0.000000 0.000000 0.001317 0.000000 0.022771
#
#
# Mechanical properties :
#
#
# Convention : Reuss Voigt Hill
#
# Bulk Modulus (GPa) = 21.52070 25.68215 23.60142
# Shear Modulus (GPa) = 37.30154 40.94366 39.12260
#
# Velocity S-wave (km/s) = 3.83494 4.01780 3.92744
# Velocity P-wave (km/s) = 5.30037 5.62577 5.46549
#
# Compressibility (1/GPa) = 0.04646690
#
# Stress axis : x y z
#
# Youngs Moduli (GPa) = 45.02361 86.02797 73.19354
#
# Poissons Ratio (x) = -0.28785 0.17816
# Poissons Ratio (y) = -0.15065 0.10446
# Poissons Ratio (z) = 0.10959 0.12277
#
# Static dielectric constant tensor:
#      x y z
#    x 4.485470 0.000000 0.104700 
#    y 0.000000 4.696210 0.000000 
#    z 0.104700 0.000000 4.667690 
# 
# 
# High freq. dielectric constant tensor:
#      x y z
#    x 2.016860 0.000000 0.007580 
#    y 0.000000 2.030860 0.000000 
#    z 0.007580 0.000000 2.026170 
# 
# From -- ./inp_files/46080.got.cif
#   From: 2010.06.25/outbox.cif.g09.slc.cpg/sg15_24_cif.got.tgz:46080.got - 2010.06.28 07:06:18.
