data_PCOD8150724
_publ_section_title
;
Structure prediction by ZEFSAII (Michael W. Deem and Ramdas Pophale) SiO2 
 PCOD8150724
Probable space group: C 2/C
;
_chemical_formula_sum "Si O2"
_cell_formula_units_Z 44
_cell_length_a 12.110908
_cell_length_b 8.453542
_cell_length_c 17.816357
_cell_angle_alpha 90.000000
_cell_angle_beta 81.164016
_cell_angle_gamma 90.000000
_cell_volume 1802.392354
_symmetry_space_group_name_H-M "C 2/C"
_symmetry_group_IT_number 15
_symmetry_cell_setting 'monoclinic'
loop_
_space_group_symop_operation_xyz
x,y,z
-x,y,1/2-z
-x,-y,-z
x,-y,1/2+z
1/2+x,1/2+y,z
1/2-x,1/2+y,1/2-z
1/2-x,1/2-y,-z
1/2+x,1/2-y,1/2+z
loop_
_atom_site_type_symbol
_atom_site_label
_atom_site_fract_x
_atom_site_fract_y
_atom_site_fract_z
Si Si1 0.889990 0.641077 0.934919
Si Si2 0.008924 0.880968 0.331995
Si Si3 0.867627 0.640772 0.660348
Si Si4 0.000000 0.815615 0.750000
Si Si5 0.308732 0.794931 0.917537
Si Si6 0.814321 0.308366 0.607419
O O1 0.843013 0.475098 0.912324
O O2 0.813334 0.773467 0.902102
O O3 0.017492 0.658798 0.897758
O O4 0.885437 0.655253 0.025033
O O5 0.129726 0.839194 0.354693
O O6 0.000000 0.800553 0.250000
O O7 0.916651 0.815223 0.397845
O O8 0.989731 0.070745 0.324650
O O9 0.894824 0.697482 0.743566
O O10 0.776465 0.763747 0.640949
O O11 0.819162 0.463133 0.660621
O O12 0.250000 0.750000 0.000000
#
# Coordination Sequence:
#
# PCOD8150724 Si02
#       6
#     8   8   8   4   8   8
#     4  11  25  45  72 113 143 188 244 308 378 432
#     4  10  25  48  70 104 151 197 242 302 365 444
#     4  12  25  45  72 104 145 193 244 302 359 453
#     4  10  28  46  66 106 144 202 254 286 370 444
#     4  12  24  46  78 109 148 189 249 308 376 437
#     4  11  23  44  75 104 146 189 239 307 368 436
#
# _framework density 24.412001
#
# number of rings (size 3 to 8) (size 9 to 14) (size 15 to 20)
#    0.545    0.364    3.636    2.727    3.818    1.455 
#    0.000    4.545    0.000    0.000    0.000    0.000 
#    0.000    0.000    0.000    0.000    0.000    0.000 
#
# Total GULP energy -272715.647674 kJ/mol
# GULP energy per Si atom -12396.165803 kJ/mol
# Density = 2.435644 g / cm^3
# Si number density = 24.412001 Si / 1000 Ang^3
#
#
#
# Elastic Constant Matrix: (Units=GPa)
#
#
# Indices 1 2 3 4 5 6 
#
# 1 86.2487 26.5628 -1.8273 0.0000 23.5301 0.0000
# 2 26.5628 144.5595 29.6023 0.0000 23.4628 0.0000
# 3 -1.8273 29.6023 42.8453 0.0000 15.6370 0.0000
# 4 0.0000 0.0000 0.0000 40.4473 0.0000 14.4064
# 5 23.5301 23.4628 15.6370 0.0000 53.6219 0.0000
# 6 0.0000 0.0000 0.0000 14.4064 0.0000 50.1175
#
#
#
# Elastic Compliance Matrix: (Units=1/GPa)
#
#
# Indices 1 2 3 4 5 6 
#
# 1 0.014256 -0.002530 0.004739 0.000000 -0.006531 0.000000
# 2 -0.002530 0.008730 -0.005764 0.000000 -0.001029 0.000000
# 3 0.004739 -0.005764 0.030622 0.000000 -0.008488 0.000000
# 4 0.000000 0.000000 0.000000 0.027544 0.000000 -0.007917
# 5 -0.006531 -0.001029 -0.008488 0.000000 0.024440 0.000000
# 6 0.000000 0.000000 0.000000 -0.007917 0.000000 0.022229
#
#
# Mechanical properties :
#
#
# Convention : Reuss Voigt Hill
#
# Bulk Modulus (GPa) = 21.50618 42.48103 31.99360
# Shear Modulus (GPa) = 33.23842 43.45838 38.34840
#
# Velocity S-wave (km/s) = 3.69394 4.22383 3.96774
# Velocity P-wave (km/s) = 5.19830 6.42083 5.84164
#
# Compressibility (1/GPa) = 0.04649826
#
# Stress axis : x y z
#
# Youngs Moduli (GPa) = 70.14765 114.55093 32.65635
#
# Poissons Ratio (x) = 0.28982 -0.15477
# Poissons Ratio (y) = 0.17748 0.18823
# Poissons Ratio (z) = -0.33246 0.66026
#
# Static dielectric constant tensor:
#      x y z
#    x 4.421990 0.000000 0.406300 
#    y 0.000000 4.491420 0.000000 
#    z 0.406300 0.000000 4.551820 
# 
# 
# High freq. dielectric constant tensor:
#      x y z
#    x 1.984010 0.000000 0.013100 
#    y 0.000000 1.975280 0.000000 
#    z 0.013100 0.000000 1.963070 
# 
# From -- ./inp_files/236132.got.cif
#   From: 2010.06.25/outbox.cif.g09.slc.cpg/sg15_119_cif.got.tgz:236132.got - 2010.06.28 07:06:18.
