data_PCOD8150176
_publ_section_title
;
Structure prediction by ZEFSAII (Michael W. Deem and Ramdas Pophale) SiO2 
 PCOD8150176
Probable space group: C 2/C
;
_chemical_formula_sum "Si O2"
_cell_formula_units_Z 48
_cell_length_a 12.242287
_cell_length_b 20.305313
_cell_length_c 15.288006
_cell_angle_alpha 90.000000
_cell_angle_beta 35.551761
_cell_angle_gamma 90.000000
_cell_volume 2209.666052
_symmetry_space_group_name_H-M "C 2/C"
_symmetry_group_IT_number 15
_symmetry_cell_setting 'monoclinic'
loop_
_space_group_symop_operation_xyz
x,y,z
-x,y,1/2-z
-x,-y,-z
x,-y,1/2+z
1/2+x,1/2+y,z
1/2-x,1/2+y,1/2-z
1/2-x,1/2-y,-z
1/2+x,1/2-y,1/2+z
loop_
_atom_site_type_symbol
_atom_site_label
_atom_site_fract_x
_atom_site_fract_y
_atom_site_fract_z
Si Si1 0.143253 0.930459 0.008825
Si Si2 0.312354 0.892750 0.486919
Si Si3 0.211636 0.813456 0.081673
Si Si4 0.000000 0.022003 0.250000
Si Si5 0.094467 0.840460 0.463018
Si Si6 0.000000 0.511268 0.750000
Si Si7 0.907759 0.290419 0.129193
O O1 0.249070 0.877301 0.999565
O O2 0.011594 0.896536 0.022887
O O3 0.312142 0.969726 0.852847
O O4 0.015254 0.977580 0.152970
O O5 0.181185 0.930384 0.642296
O O6 0.191450 0.876171 0.480157
O O7 0.399815 0.826935 0.469956
O O8 0.476884 0.942928 0.350973
O O9 0.348321 0.818990 0.074670
O O10 0.000000 0.810672 0.250000
O O11 0.250000 0.750000 0.000000
O O12 0.245426 0.801513 0.305921
O O13 0.945828 0.787443 0.596972
#
# Coordination Sequence:
#
# PCOD8150176 Si02
#       7
#     8   8   8   4   8   4   8
#     4  11  23  46  68 101 134 185 232 290 348 413
#     4  11  25  48  66 105 139 185 240 284 349 425
#     4  12  23  43  67  99 139 174 235 291 346 412
#     4  10  24  46  70  96 144 186 236 284 350 422
#     4  12  25  44  73 101 145 179 240 291 351 417
#     4  10  24  44  70  96 140 188 230 284 342 418
#     4  12  24  44  71 103 140 185 227 299 351 415
#
# _framework density 21.722740000000002
#
# number of rings (size 3 to 8) (size 9 to 14) (size 15 to 20)
#    0.000    0.667    5.833    0.500    3.500    4.000 
#    6.000    2.500    0.000    0.000    0.000    0.000 
#    0.000    0.000    0.000    0.000    0.000    0.000 
#
# Total GULP energy -297695.753798 kJ/mol
# GULP energy per Si atom -12403.989742 kJ/mol
# Density = 2.167330 g / cm^3
# Si number density = 21.722740 Si / 1000 Ang^3
#
#
#
# Elastic Constant Matrix: (Units=GPa)
#
#
# Indices 1 2 3 4 5 6 
#
# 1 139.7710 50.4015 36.7878 0.0018 -0.2588 0.0083
# 2 50.4015 98.1330 47.6698 -0.1395 -0.4441 0.1193
# 3 36.7878 47.6698 109.6506 -0.2256 -5.4217 0.1659
# 4 0.0018 -0.1395 -0.2256 51.8558 0.0408 -13.8086
# 5 -0.2588 -0.4441 -5.4217 0.0408 22.4851 -0.0211
# 6 0.0083 0.1193 0.1659 -13.8086 -0.0211 53.4104
#
#
#
# Elastic Compliance Matrix: (Units=1/GPa)
#
#
# Indices 1 2 3 4 5 6 
#
# 1 0.008920 -0.003958 -0.001286 -0.000014 -0.000286 0.000008
# 2 -0.003958 0.014702 -0.005113 0.000015 -0.000988 -0.000013
# 3 -0.001286 -0.005113 0.011910 0.000032 0.002756 -0.000016
# 4 -0.000014 0.000015 0.000032 0.020710 -0.000025 0.005354
# 5 -0.000286 -0.000988 0.002756 -0.000025 0.045116 0.000005
# 6 0.000008 -0.000013 -0.000016 0.005354 0.000005 0.020107
#
#
# Mechanical properties :
#
#
# Convention : Reuss Voigt Hill
#
# Bulk Modulus (GPa) = 67.47990 68.58588 68.03289
# Shear Modulus (GPa) = 33.98631 39.72997 36.85814
#
# Velocity S-wave (km/s) = 3.95973 4.28127 4.12364
# Velocity P-wave (km/s) = 7.21371 7.48872 7.35250
#
# Compressibility (1/GPa) = 0.01481923
#
# Stress axis : x y z
#
# Youngs Moduli (GPa) = 112.11129 68.01768 83.96032
#
# Poissons Ratio (x) = 0.26920 0.10798
# Poissons Ratio (y) = 0.44371 0.42925
# Poissons Ratio (z) = 0.14419 0.34775
#
# Static dielectric constant tensor:
#      x y z
#    x 3.727600 0.000120 -0.114240 
#    y 0.000120 4.254210 0.000270 
#    z -0.114240 0.000270 3.912770 
# 
# 
# High freq. dielectric constant tensor:
#      x y z
#    x 1.842600 0.000000 -0.001030 
#    y 0.000000 1.874410 0.000000 
#    z -0.001030 0.000000 1.864730 
# 
# From -- ./inp_files/147405.got.cif
#   From: 2010.06.25/outbox.cif.g09.slc.cpg/sg15_74_cif.got.tgz:147405.got - 2010.06.28 07:06:18.
