data_PCOD8150842
_publ_section_title
;
Structure prediction by ZEFSAII (Michael W. Deem and Ramdas Pophale) SiO2 
 PCOD8150842
Probable space group: C 2/C
;
_chemical_formula_sum "Si O2"
_cell_formula_units_Z 40
_cell_length_a 13.964136
_cell_length_b 18.096921
_cell_length_c 20.242132
_cell_angle_alpha 90.000000
_cell_angle_beta 158.843009
_cell_angle_gamma 90.000000
_cell_volume 1846.254308
_symmetry_space_group_name_H-M "C 2/C"
_symmetry_group_IT_number 15
_symmetry_cell_setting 'monoclinic'
loop_
_space_group_symop_operation_xyz
x,y,z
-x,y,1/2-z
-x,-y,-z
x,-y,1/2+z
1/2+x,1/2+y,z
1/2-x,1/2+y,1/2-z
1/2-x,1/2-y,-z
1/2+x,1/2-y,1/2+z
loop_
_atom_site_type_symbol
_atom_site_label
_atom_site_fract_x
_atom_site_fract_y
_atom_site_fract_z
Si Si1 0.637888 0.349038 0.682768
Si Si2 0.030986 0.439361 0.846619
Si Si3 0.710240 0.422301 0.937075
Si Si4 0.562658 0.680928 0.865785
Si Si5 0.022131 0.701102 0.974903
O O1 0.439035 0.404996 0.590652
O O2 0.454295 0.287106 0.529832
O O3 0.789727 0.393620 0.723099
O O4 0.849706 0.313749 0.870692
O O5 0.000000 0.455400 0.750000
O O6 0.061130 0.517276 0.903973
O O7 0.302935 0.395010 0.027734
O O8 0.500000 0.455994 0.750000
O O9 0.831874 0.347138 0.986424
O O10 0.500000 0.682348 0.750000
O O11 0.288825 0.683559 0.729051
O O12 0.750000 0.750000 0.000000
#
# Coordination Sequence:
#
# PCOD8150842 Si02
#       5
#     8   8   8   8   8
#     4  11  25  44  69  98 131 174 220 272 328 393
#     4  12  27  42  64  99 133 175 219 273 332 386
#     4  10  26  46  68  94 133 180 217 266 333 397
#     4  12  22  40  64  98 133 171 219 271 327 387
#     4  11  23  43  70  98 130 172 220 273 324 391
#
# _framework density 21.665489000000001
#
# number of rings (size 3 to 8) (size 9 to 14) (size 15 to 20)
#    0.000    0.800    4.000    1.800    5.600    4.000 
#    0.000    0.000    0.000    0.000    0.000    0.000 
#    0.000    0.000    0.000    0.000    0.000    0.000 
#
# Total GULP energy -248059.479736 kJ/mol
# GULP energy per Si atom -12402.973987 kJ/mol
# Density = 2.161618 g / cm^3
# Si number density = 21.665489 Si / 1000 Ang^3
#
#
#
# Elastic Constant Matrix: (Units=GPa)
#
#
# Indices 1 2 3 4 5 6 
#
# 1 105.6077 35.4708 24.3643 -0.0062 -5.2732 0.0434
# 2 35.4708 121.2412 34.7522 -0.0836 -15.1626 -0.0077
# 3 24.3643 34.7522 76.0850 -0.0559 -4.7869 0.0620
# 4 -0.0062 -0.0836 -0.0559 46.7632 -0.0421 1.1628
# 5 -5.2732 -15.1626 -4.7869 -0.0421 28.5654 0.0428
# 6 0.0434 -0.0077 0.0620 1.1628 0.0428 25.8899
#
#
#
# Elastic Compliance Matrix: (Units=1/GPa)
#
#
# Indices 1 2 3 4 5 6 
#
# 1 0.010851 -0.002470 -0.002328 -0.000005 0.000302 -0.000014
# 2 -0.002470 0.010621 -0.003774 0.000018 0.004549 0.000008
# 3 -0.002328 -0.003774 0.015624 0.000013 0.000185 -0.000036
# 4 -0.000005 0.000018 0.000013 0.021408 0.000044 -0.000962
# 5 0.000302 0.004549 0.000185 0.000044 0.037509 -0.000064
# 6 -0.000014 0.000008 -0.000036 -0.000962 -0.000064 0.038669
#
#
# Mechanical properties :
#
#
# Convention : Reuss Voigt Hill
#
# Bulk Modulus (GPa) = 50.11738 54.67872 52.39805
# Shear Modulus (GPa) = 31.55048 34.13346 32.84197
#
# Velocity S-wave (km/s) = 3.82023 3.97353 3.89764
# Velocity P-wave (km/s) = 6.53004 6.80768 6.67030
#
# Compressibility (1/GPa) = 0.01995316
#
# Stress axis : x y z
#
# Youngs Moduli (GPa) = 92.16131 94.15000 64.00329
#
# Poissons Ratio (x) = 0.23250 0.14898
# Poissons Ratio (y) = 0.22759 0.24157
# Poissons Ratio (z) = 0.21452 0.35535
#
# Static dielectric constant tensor:
#      x y z
#    x 3.956180 0.000010 -0.017940 
#    y 0.000010 3.900080 -0.001490 
#    z -0.017940 -0.001490 4.092410 
# 
# 
# High freq. dielectric constant tensor:
#      x y z
#    x 1.863770 0.000000 0.000340 
#    y 0.000000 1.853780 -0.000020 
#    z 0.000340 -0.000020 1.852260 
# 
# From -- ./inp_files/38942.got.cif
#   From: 2010.06.25/outbox.cif.g09.slc.cpg/sg15_20_cif.got.tgz:38942.got - 2010.06.28 07:06:18.
