data_PCOD8150990
_publ_section_title
;
Structure prediction by ZEFSAII (Michael W. Deem and Ramdas Pophale) SiO2 
 PCOD8150990
Probable space group: C 2/C
;
_chemical_formula_sum "Si O2"
_cell_formula_units_Z 40
_cell_length_a 10.560318
_cell_length_b 21.548590
_cell_length_c 16.700121
_cell_angle_alpha 90.000000
_cell_angle_beta 33.223136
_cell_angle_gamma 90.000000
_cell_volume 2082.176860
_symmetry_space_group_name_H-M "C 2/C"
_symmetry_group_IT_number 15
_symmetry_cell_setting 'monoclinic'
loop_
_space_group_symop_operation_xyz
x,y,z
-x,y,1/2-z
-x,-y,-z
x,-y,1/2+z
1/2+x,1/2+y,z
1/2-x,1/2+y,1/2-z
1/2-x,1/2-y,-z
1/2+x,1/2-y,1/2+z
loop_
_atom_site_type_symbol
_atom_site_label
_atom_site_fract_x
_atom_site_fract_y
_atom_site_fract_z
Si Si1 0.843264 0.571747 0.761571
Si Si2 0.367135 0.607277 0.063749
Si Si3 0.232047 0.627140 0.867023
Si Si4 0.255362 0.261907 0.589815
Si Si5 0.492347 0.936178 0.635647
O O1 0.812820 0.616835 0.702576
O O2 0.000000 0.599883 0.750000
O O3 0.954136 0.509044 0.668605
O O4 0.592945 0.564553 0.935448
O O5 0.424202 0.680788 0.023037
O O6 0.193862 0.586712 0.086204
O O7 0.250478 0.596593 0.212448
O O8 0.500000 0.616296 0.750000
O O9 0.159147 0.698681 0.914823
O O10 0.065793 0.581697 0.006525
O O11 0.250000 0.250000 0.500000
O O12 0.000000 0.282651 0.750000
#
# Coordination Sequence:
#
# PCOD8150990 Si02
#       5
#     8   8   8   8   8
#     4  12  25  39  59  88 130 167 200 246 312 372
#     4  11  20  38  62  91 118 159 207 255 304 353
#     4  11  22  39  63  95 122 158 207 260 304 356
#     4  11  18  34  63  93 118 146 203 265 300 343
#     4  11  21  38  62  88 123 158 208 251 301 358
#
# _framework density 19.210663
#
# number of rings (size 3 to 8) (size 9 to 14) (size 15 to 20)
#    0.000    0.800    8.000    2.400    0.000    0.000 
#    0.000    2.000    0.000    0.000    0.000    0.000 
#    0.000    0.000    0.000    0.000    0.000    0.000 
#
# Total GULP energy -247897.942638 kJ/mol
# GULP energy per Si atom -12394.897132 kJ/mol
# Density = 1.916694 g / cm^3
# Si number density = 19.210663 Si / 1000 Ang^3
#
#
#
# Elastic Constant Matrix: (Units=GPa)
#
#
# Indices 1 2 3 4 5 6 
#
# 1 103.2577 41.7860 40.3954 -0.0085 13.5919 0.0145
# 2 41.7860 106.5490 23.0238 0.0143 1.2799 -0.0029
# 3 40.3954 23.0238 114.9206 0.0172 6.2879 -0.0074
# 4 -0.0085 0.0143 0.0172 29.0542 -0.0006 12.0887
# 5 13.5919 1.2799 6.2879 -0.0006 22.4154 -0.0067
# 6 0.0145 -0.0029 -0.0074 12.0887 -0.0067 6.8335
#
#
#
# Elastic Compliance Matrix: (Units=1/GPa)
#
#
# Indices 1 2 3 4 5 6 
#
# 1 0.013877 -0.004586 -0.003568 0.000098 -0.007152 -0.000216
# 2 -0.004586 0.011325 -0.000786 -0.000049 0.002354 0.000103
# 3 -0.003568 -0.000786 0.010148 -0.000053 -0.000638 0.000112
# 4 0.000098 -0.000049 -0.000053 0.130399 -0.000107 -0.230680
# 5 -0.007152 0.002354 -0.000638 -0.000107 0.048994 0.000252
# 6 -0.000216 0.000103 0.000112 -0.230680 0.000252 0.554419
#
#
# Mechanical properties :
#
#
# Convention : Reuss Voigt Hill
#
# Bulk Modulus (GPa) = 57.23440 59.45973 58.34707
# Shear Modulus (GPa) = 6.30624 26.29546 16.30085
#
# Velocity S-wave (km/s) = 1.81378 3.70374 2.91612
# Velocity P-wave (km/s) = 5.85185 7.02202 6.46347
#
# Compressibility (1/GPa) = 0.01747201
#
# Stress axis : x y z
#
# Youngs Moduli (GPa) = 72.05909 88.29838 98.53919
#
# Poissons Ratio (x) = 0.40489 0.35159
# Poissons Ratio (y) = 0.33043 0.07744
# Poissons Ratio (z) = 0.25711 0.06939
#
# Static dielectric constant tensor:
#      x y z
#    x 3.253280 0.000050 0.194120 
#    y 0.000050 4.121270 0.000030 
#    z 0.194120 0.000030 3.968240 
# 
# 
# High freq. dielectric constant tensor:
#      x y z
#    x 1.706070 0.000000 0.021670 
#    y 0.000000 1.755250 0.000000 
#    z 0.021670 0.000000 1.766350 
# 
# From -- ./inp_files/30162.got.cif
#   From: 2010.06.25/outbox.cif.g09.slc.cpg/sg15_16_cif.got.tgz:30162.got - 2010.06.28 07:06:18.
