data_PCOD8150178
_publ_section_title
;
Structure prediction by ZEFSAII (Michael W. Deem and Ramdas Pophale) SiO2 
 PCOD8150178
Probable space group: C 2/C
;
_chemical_formula_sum "Si O2"
_cell_formula_units_Z 40
_cell_length_a 5.130992
_cell_length_b 22.628392
_cell_length_c 16.022976
_cell_angle_alpha 90.000000
_cell_angle_beta 111.397861
_cell_angle_gamma 90.000000
_cell_volume 1732.129204
_symmetry_space_group_name_H-M "C 2/C"
_symmetry_group_IT_number 15
_symmetry_cell_setting 'monoclinic'
loop_
_space_group_symop_operation_xyz
x,y,z
-x,y,1/2-z
-x,-y,-z
x,-y,1/2+z
1/2+x,1/2+y,z
1/2-x,1/2+y,1/2-z
1/2-x,1/2-y,-z
1/2+x,1/2-y,1/2+z
loop_
_atom_site_type_symbol
_atom_site_label
_atom_site_fract_x
_atom_site_fract_y
_atom_site_fract_z
Si Si1 0.812100 0.721430 0.310975
Si Si2 0.443770 0.867415 0.527461
Si Si3 0.501996 0.654027 0.650934
Si Si4 0.180850 0.032730 0.693665
Si Si5 0.026548 0.057666 0.446850
O O1 0.500000 0.703576 0.250000
O O2 0.000000 0.714060 0.250000
O O3 0.902537 0.680412 0.398177
O O4 0.819720 0.787662 0.350919
O O5 0.305680 0.839625 0.427371
O O6 0.658798 0.918006 0.523064
O O7 0.192953 0.892581 0.554183
O O8 0.500000 0.653612 0.750000
O O9 0.642431 0.592356 0.630679
O O10 0.500000 0.022628 0.750000
O O11 0.000000 0.053228 0.750000
O O12 0.058998 0.969859 0.651961
O O13 0.000000 0.000000 0.500000
#
# Coordination Sequence:
#
# PCOD8150178 Si02
#       5
#     8   8   8   8   8
#     4  11  25  47  71 102 140 181 230 287 345 414
#     4  12  26  44  73 100 138 184 227 285 346 412
#     4  10  24  44  71 100 138 177 233 284 342 404
#     4  11  24  41  67  96 130 177 228 278 340 405
#     4  12  26  43  67  97 140 174 226 283 345 401
#
# _framework density 23.092965
#
# number of rings (size 3 to 8) (size 9 to 14) (size 15 to 20)
#    0.000    0.800    2.000    4.200    5.600    8.000 
#    0.000    7.000    0.000    0.000    0.000    0.000 
#    0.000    0.000    0.000    0.000    0.000    0.000 
#
# Total GULP energy -247847.643255 kJ/mol
# GULP energy per Si atom -12392.382163 kJ/mol
# Density = 2.304040 g / cm^3
# Si number density = 23.092965 Si / 1000 Ang^3
#
#
#
# Elastic Constant Matrix: (Units=GPa)
#
#
# Indices 1 2 3 4 5 6 
#
# 1 84.3289 12.1085 39.9909 0.0000 12.3118 0.0000
# 2 12.1085 98.3063 64.3171 0.0000 -9.9052 0.0000
# 3 39.9909 64.3171 195.8646 0.0000 17.7338 0.0000
# 4 0.0000 0.0000 0.0000 38.9261 0.0000 23.4745
# 5 12.3118 -9.9052 17.7338 0.0000 26.8482 0.0000
# 6 0.0000 0.0000 0.0000 23.4745 0.0000 10.2109
#
#
#
# Elastic Compliance Matrix: (Units=1/GPa)
#
#
# Indices 1 2 3 4 5 6 
#
# 1 0.013720 -0.000894 -0.002030 0.000000 -0.005281 0.000000
# 2 -0.000894 0.014898 -0.005578 0.000000 0.009591 0.000000
# 3 -0.002030 -0.005578 0.007928 0.000000 -0.006364 0.000000
# 4 0.000000 0.000000 0.000000 -0.066485 0.000000 0.152846
# 5 -0.005281 0.009591 -0.006364 0.000000 0.047410 0.000000
# 6 0.000000 0.000000 0.000000 0.152846 0.000000 -0.253454
#
#
# Mechanical properties :
#
#
# Convention : Reuss Voigt Hill
#
# Bulk Modulus (GPa) = 51.16996 67.92586 59.54791
# Shear Modulus (GPa) = -23.53329 32.66927 4.56799
#
# Velocity S-wave (km/s) = -3.19575 3.76531 1.40797
# Velocity P-wave (km/s) = 2.93075 6.95567 5.33716
#
# Compressibility (1/GPa) = 0.01954272
#
# Stress axis : x y z
#
# Youngs Moduli (GPa) = 72.88525 67.12220 126.13824
#
# Poissons Ratio (x) = 0.06002 0.25601
# Poissons Ratio (y) = 0.06517 0.70360
# Poissons Ratio (z) = 0.14793 0.37441
#
# Static dielectric constant tensor:
#      x y z
#    x 3.986670 0.000000 -0.149270 
#    y 0.000000 5.498540 0.000000 
#    z -0.149270 0.000000 4.876000 
# 
# 
# High freq. dielectric constant tensor:
#      x y z
#    x 1.897170 0.000000 0.000560 
#    y 0.000000 1.930570 0.000000 
#    z 0.000560 0.000000 1.932550 
# 
# From -- ./inp_files/261786.got.cif
#   From: 2010.06.25/outbox.cif.g09.slc.cpg/sg15_131_cif.got.tgz:261786.got - 2010.06.28 07:06:18.
