data_PCOD8150804
_publ_section_title
;
Structure prediction by ZEFSAII (Michael W. Deem and Ramdas Pophale) SiO2 
 PCOD8150804
Probable space group: C 2/C
;
_chemical_formula_sum "Si O2"
_cell_formula_units_Z 28
_cell_length_a 27.522144
_cell_length_b 7.519681
_cell_length_c 9.325661
_cell_angle_alpha 90.000000
_cell_angle_beta 143.046485
_cell_angle_gamma 90.000000
_cell_volume 1160.262751
_symmetry_space_group_name_H-M "C 2/C"
_symmetry_group_IT_number 15
_symmetry_cell_setting 'monoclinic'
loop_
_space_group_symop_operation_xyz
x,y,z
-x,y,1/2-z
-x,-y,-z
x,-y,1/2+z
1/2+x,1/2+y,z
1/2-x,1/2+y,1/2-z
1/2-x,1/2-y,-z
1/2+x,1/2-y,1/2+z
loop_
_atom_site_type_symbol
_atom_site_label
_atom_site_fract_x
_atom_site_fract_y
_atom_site_fract_z
Si Si1 0.659494 0.990282 0.990518
Si Si2 0.616539 0.680029 0.693013
Si Si3 0.500000 0.887568 0.250000
Si Si4 0.821220 0.119046 0.975381
O O1 0.573619 0.988133 0.871715
O O2 0.665344 0.838045 0.885578
O O3 0.672502 0.182215 0.945576
O O4 0.730277 0.957176 0.274746
O O5 0.527439 0.758081 0.445971
O O6 0.658814 0.625282 0.645548
O O7 0.615234 0.508022 0.792387
#
# Coordination Sequence:
#
# PCOD8150804 Si02
#       4
#     8   8   4   8
#     4  11  23  45  70 105 138 183 230 290 345 413
#     4  11  25  47  69 109 139 184 234 288 349 416
#     4  10  26  44  72 102 148 180 228 292 358 406
#     4  11  25  43  78 102 139 183 241 287 341 415
#
# _framework density 24.132465
#
# number of rings (size 3 to 8) (size 9 to 14) (size 15 to 20)
#    0.000    1.143    2.857    1.714    4.000   10.286 
#    0.000    7.143    0.000    0.000    0.000    0.000 
#    0.000    0.000    0.000    0.000    0.000    0.000 
#
# Total GULP energy -173551.319658 kJ/mol
# GULP energy per Si atom -12396.522833 kJ/mol
# Density = 2.407754 g / cm^3
# Si number density = 24.132465 Si / 1000 Ang^3
#
#
#
# Elastic Constant Matrix: (Units=GPa)
#
#
# Indices 1 2 3 4 5 6 
#
# 1 97.3669 32.7275 27.7544 0.0000 8.4435 0.0000
# 2 32.7275 159.4634 6.6382 0.0000 -28.5773 0.0000
# 3 27.7544 6.6382 46.5435 0.0000 -14.3531 0.0000
# 4 0.0000 0.0000 0.0000 41.5915 0.0000 -15.6023
# 5 8.4435 -28.5773 -14.3531 0.0000 39.3107 0.0000
# 6 0.0000 0.0000 0.0000 -15.6023 0.0000 23.7748
#
#
#
# Elastic Compliance Matrix: (Units=1/GPa)
#
#
# Indices 1 2 3 4 5 6 
#
# 1 0.016678 -0.005027 -0.012914 0.000000 -0.011952 0.000000
# 2 -0.005027 0.008744 0.004557 0.000000 0.009100 0.000000
# 3 -0.012914 0.004557 0.034272 0.000000 0.018600 0.000000
# 4 0.000000 0.000000 0.000000 0.031895 0.000000 0.020931
# 5 -0.011952 0.009100 0.018600 0.000000 0.041412 0.000000
# 6 0.000000 0.000000 0.000000 0.020931 0.000000 0.055798
#
#
# Mechanical properties :
#
#
# Convention : Reuss Voigt Hill
#
# Bulk Modulus (GPa) = 30.37169 48.62377 39.49773
# Shear Modulus (GPa) = 22.07099 36.68565 29.37832
#
# Velocity S-wave (km/s) = 3.02748 3.90318 3.49288
# Velocity P-wave (km/s) = 4.98333 6.36439 5.71573
#
# Compressibility (1/GPa) = 0.03292540
#
# Stress axis : x y z
#
# Youngs Moduli (GPa) = 59.96025 114.36538 29.17849
#
# Poissons Ratio (x) = 0.57493 0.37681
# Poissons Ratio (y) = 0.30143 -0.13297
# Poissons Ratio (z) = 0.77432 -0.52116
#
# Static dielectric constant tensor:
#      x y z
#    x 3.842390 0.000000 0.048220 
#    y 0.000000 4.510420 0.000000 
#    z 0.048220 0.000000 4.734070 
# 
# 
# High freq. dielectric constant tensor:
#      x y z
#    x 1.933550 0.000000 0.004240 
#    y 0.000000 1.964880 0.000000 
#    z 0.004240 0.000000 1.975050 
# 
# From -- ./inp_files/45405.got.cif
#   From: 2010.06.25/outbox.cif.g09.slc.cpg/sg15_23_cif.got.tgz:45405.got - 2010.06.28 07:06:18.
