data_PCOD8150192
_publ_section_title
;
Structure prediction by ZEFSAII (Michael W. Deem and Ramdas Pophale) SiO2 
 PCOD8150192
Probable space group: C 2/C
;
_chemical_formula_sum "Si O2"
_cell_formula_units_Z 48
_cell_length_a 14.099157
_cell_length_b 12.809510
_cell_length_c 12.048230
_cell_angle_alpha 90.000000
_cell_angle_beta 63.433888
_cell_angle_gamma 90.000000
_cell_volume 1946.210836
_symmetry_space_group_name_H-M "C 2/C"
_symmetry_group_IT_number 15
_symmetry_cell_setting 'monoclinic'
loop_
_space_group_symop_operation_xyz
x,y,z
-x,y,1/2-z
-x,-y,-z
x,-y,1/2+z
1/2+x,1/2+y,z
1/2-x,1/2+y,1/2-z
1/2-x,1/2-y,-z
1/2+x,1/2-y,1/2+z
loop_
_atom_site_type_symbol
_atom_site_label
_atom_site_fract_x
_atom_site_fract_y
_atom_site_fract_z
Si Si1 0.998522 0.340303 0.540128
Si Si2 0.360384 0.694770 0.164997
Si Si3 0.145420 0.002416 0.987355
Si Si4 0.500000 0.423894 0.750000
Si Si5 0.000000 0.195988 0.750000
Si Si6 0.834651 0.490114 0.549324
Si Si7 0.693959 0.368754 0.259758
O O1 0.987228 0.263477 0.647718
O O2 0.882673 0.379542 0.562750
O O3 0.050988 0.280067 0.410429
O O4 0.070224 0.436634 0.543164
O O5 0.349967 0.611447 0.070981
O O6 0.398300 0.642266 0.260578
O O7 0.248767 0.754945 0.240603
O O8 0.135193 0.096723 0.903295
O O9 0.041327 0.009733 0.121633
O O10 0.255606 0.025746 0.989762
O O11 0.891122 0.127962 0.799598
O O12 0.777731 0.541058 0.685913
#
# Coordination Sequence:
#
# PCOD8150192 Si02
#       7
#     8   8   8   4   4   8   8
#     4  10  24  44  72 105 146 194 248 301 376 433
#     4  11  26  48  71 113 149 199 248 310 368 447
#     4  12  26  46  77 106 156 196 250 308 372 445
#     4  12  28  45  75 106 156 196 251 308 371 450
#     4  12  24  43  75 104 142 196 249 302 359 458
#     4  10  24  46  69 107 146 193 246 310 364 444
#     4  11  27  46  75 111 151 196 251 304 378 436
#
# _framework density 24.663309000000002
#
# number of rings (size 3 to 8) (size 9 to 14) (size 15 to 20)
#    0.000    1.000    0.000    4.500    9.333    8.000 
#    0.000    0.000    0.000    0.000    0.000    0.000 
#    0.000    0.000    0.000    0.000    0.000    0.000 
#
# Total GULP energy -297661.633042 kJ/mol
# GULP energy per Si atom -12402.568043 kJ/mol
# Density = 2.460717 g / cm^3
# Si number density = 24.663309 Si / 1000 Ang^3
#
#
#
# Elastic Constant Matrix: (Units=GPa)
#
#
# Indices 1 2 3 4 5 6 
#
# 1 172.0208 57.8751 37.7244 0.0000 5.3536 0.0000
# 2 57.8751 126.4237 60.9523 0.0000 -1.7295 0.0000
# 3 37.7244 60.9523 98.1277 0.0000 -1.1769 0.0000
# 4 0.0000 0.0000 0.0000 25.2849 0.0000 0.0195
# 5 5.3536 -1.7295 -1.1769 0.0000 35.4783 0.0000
# 6 0.0000 0.0000 0.0000 0.0195 0.0000 56.8025
#
#
#
# Elastic Compliance Matrix: (Units=1/GPa)
#
#
# Indices 1 2 3 4 5 6 
#
# 1 0.006991 -0.002733 -0.001005 0.000000 -0.001221 0.000000
# 2 -0.002733 0.012363 -0.006619 0.000000 0.000795 0.000000
# 3 -0.001005 -0.006619 0.014693 0.000000 0.000316 0.000000
# 4 0.000000 0.000000 0.000000 0.039549 0.000000 -0.000014
# 5 -0.001221 0.000795 0.000316 0.000000 0.028420 0.000000
# 6 0.000000 0.000000 0.000000 -0.000014 0.000000 0.017605
#
#
# Mechanical properties :
#
#
# Convention : Reuss Voigt Hill
#
# Bulk Modulus (GPa) = 75.00200 78.85286 76.92743
# Shear Modulus (GPa) = 34.53550 39.51450 37.02500
#
# Velocity S-wave (km/s) = 3.74609 4.00704 3.87876
# Velocity P-wave (km/s) = 7.01336 7.31092 7.16369
#
# Compressibility (1/GPa) = 0.01333298
#
# Stress axis : x y z
#
# Youngs Moduli (GPa) = 143.04089 80.88604 68.06185
#
# Poissons Ratio (x) = 0.22103 0.06840
# Poissons Ratio (y) = 0.39087 0.45052
# Poissons Ratio (z) = 0.14374 0.53541
#
# Static dielectric constant tensor:
#      x y z
#    x 4.728930 0.000000 -0.089380 
#    y 0.000000 4.727890 0.000000 
#    z -0.089380 0.000000 4.367890 
# 
# 
# High freq. dielectric constant tensor:
#      x y z
#    x 1.998960 0.000000 -0.008790 
#    y 0.000000 1.997570 0.000000 
#    z -0.008790 0.000000 1.974020 
# 
# From -- ./inp_files/96916.got.cif
#   From: 2010.06.25/outbox.cif.g09.slc.cpg/sg15_49_cif.got.tgz:96916.got - 2010.06.28 07:06:18.
