data_PCOD8150214
_publ_section_title
;
Structure prediction by ZEFSAII (Michael W. Deem and Ramdas Pophale) SiO2 
 PCOD8150214
Probable space group: C 2/C
;
_chemical_formula_sum "Si O2"
_cell_formula_units_Z 28
_cell_length_a 10.456346
_cell_length_b 13.205795
_cell_length_c 10.221525
_cell_angle_alpha 90.000000
_cell_angle_beta 122.530051
_cell_angle_gamma 90.000000
_cell_volume 1189.992396
_symmetry_space_group_name_H-M "C 2/C"
_symmetry_group_IT_number 15
_symmetry_cell_setting 'monoclinic'
loop_
_space_group_symop_operation_xyz
x,y,z
-x,y,1/2-z
-x,-y,-z
x,-y,1/2+z
1/2+x,1/2+y,z
1/2-x,1/2+y,1/2-z
1/2-x,1/2-y,-z
1/2+x,1/2-y,1/2+z
loop_
_atom_site_type_symbol
_atom_site_label
_atom_site_fract_x
_atom_site_fract_y
_atom_site_fract_z
Si Si1 0.500000 0.846078 0.250000
Si Si2 0.393163 0.346795 0.805103
Si Si3 0.161620 0.467517 0.539164
Si Si4 0.362701 0.344347 0.079116
O O1 0.588471 0.775330 0.193482
O O2 0.634247 0.913401 0.385010
O O3 0.500000 0.397919 0.750000
O O4 0.224757 0.384766 0.677081
O O5 0.431426 0.376999 0.975159
O O6 0.273249 0.561642 0.590099
O O7 0.000000 0.500000 0.500000
O O8 0.500000 0.313823 0.250000
O O9 0.250000 0.250000 0.000000
#
# Coordination Sequence:
#
# PCOD8150214 Si02
#       4
#     4   8   8   8
#     4  10  24  44  76 104 148 198 250 304 378 454
#     4  10  26  47  77 108 152 200 256 309 385 452
#     4  12  25  46  77 114 154 200 255 317 384 453
#     4  12  30  49  78 113 157 200 258 319 382 456
#
# _framework density 23.52956
#
# number of rings (size 3 to 8) (size 9 to 14) (size 15 to 20)
#    0.857    0.000    0.000    5.143   10.000    6.857 
#    0.000    0.000    0.000    0.000    0.000    0.000 
#    0.000    0.000    0.000    0.000    0.000    0.000 
#
# Total GULP energy -173541.093911 kJ/mol
# GULP energy per Si atom -12395.792422 kJ/mol
# Density = 2.347601 g / cm^3
# Si number density = 23.529560 Si / 1000 Ang^3
#
#
#
# Elastic Constant Matrix: (Units=GPa)
#
#
# Indices 1 2 3 4 5 6 
#
# 1 116.8242 36.6396 63.8669 0.0000 1.9954 0.0000
# 2 36.6396 108.7748 42.2583 0.0000 26.6006 0.0000
# 3 63.8669 42.2583 204.5377 0.0000 17.6046 0.0000
# 4 0.0000 0.0000 0.0000 41.4698 0.0000 15.8675
# 5 1.9954 26.6006 17.6046 0.0000 50.3751 0.0000
# 6 0.0000 0.0000 0.0000 15.8675 0.0000 42.1871
#
#
#
# Elastic Compliance Matrix: (Units=1/GPa)
#
#
# Indices 1 2 3 4 5 6 
#
# 1 0.011164 -0.003138 -0.003033 0.000000 0.002275 0.000000
# 2 -0.003138 0.012086 -0.001009 0.000000 -0.005905 0.000000
# 3 -0.003033 -0.001009 0.006174 0.000000 -0.001505 0.000000
# 4 0.000000 0.000000 0.000000 0.028168 0.000000 -0.010594
# 5 0.002275 -0.005905 -0.001505 0.000000 0.023405 0.000000
# 6 0.000000 0.000000 0.000000 -0.010594 0.000000 0.027689
#
#
# Mechanical properties :
#
#
# Convention : Reuss Voigt Hill
#
# Bulk Modulus (GPa) = 66.38633 79.51848 72.95240
# Shear Modulus (GPa) = 39.04186 45.96455 42.50320
#
# Velocity S-wave (km/s) = 4.07783 4.42461 4.25476
# Velocity P-wave (km/s) = 7.10260 7.74412 7.43029
#
# Compressibility (1/GPa) = 0.01506334
#
# Stress axis : x y z
#
# Youngs Moduli (GPa) = 89.57753 82.73697 161.96515
#
# Poissons Ratio (x) = 0.25965 0.49128
# Poissons Ratio (y) = 0.28112 0.16341
# Poissons Ratio (z) = 0.27171 0.08347
#
# Static dielectric constant tensor:
#      x y z
#    x 4.075610 0.000000 -0.603040 
#    y 0.000000 4.415690 0.000000 
#    z -0.603040 0.000000 0.084290 
# 
# 
# High freq. dielectric constant tensor:
#      x y z
#    x 1.925410 0.000000 0.000780 
#    y 0.000000 1.939930 0.000000 
#    z 0.000780 0.000000 1.941570 
# 
# From -- ./inp_files/27783.got.cif
#   From: 2010.06.25/outbox.cif.g09.slc.cpg/sg15_14_cif.got.tgz:27783.got - 2010.06.28 07:06:18.
