data_PCOD8150851
_publ_section_title
;
Structure prediction by ZEFSAII (Michael W. Deem and Ramdas Pophale) SiO2 
 PCOD8150851
Probable space group: C 2/C
;
_chemical_formula_sum "Si O2"
_cell_formula_units_Z 56
_cell_length_a 8.505236
_cell_length_b 16.650705
_cell_length_c 20.900219
_cell_angle_alpha 90.000000
_cell_angle_beta 123.259594
_cell_angle_gamma 90.000000
_cell_volume 2475.010539
_symmetry_space_group_name_H-M "C 2/C"
_symmetry_group_IT_number 15
_symmetry_cell_setting 'monoclinic'
loop_
_space_group_symop_operation_xyz
x,y,z
-x,y,1/2-z
-x,-y,-z
x,-y,1/2+z
1/2+x,1/2+y,z
1/2-x,1/2+y,1/2-z
1/2-x,1/2-y,-z
1/2+x,1/2-y,1/2+z
loop_
_atom_site_type_symbol
_atom_site_label
_atom_site_fract_x
_atom_site_fract_y
_atom_site_fract_z
Si Si1 0.221237 0.063006 0.587719
Si Si2 0.739920 0.706207 0.686303
Si Si3 0.185726 0.735937 0.413625
Si Si4 0.627713 0.369247 0.832228
Si Si5 0.436957 0.600858 0.421736
Si Si6 0.068419 0.497157 0.588175
Si Si7 0.718376 0.645760 0.815605
O O1 0.274071 0.126703 0.652700
O O2 0.394798 0.015314 0.595557
O O3 0.103160 0.113578 0.509801
O O4 0.097282 0.994184 0.593412
O O5 0.532264 0.744045 0.642713
O O6 0.862820 0.776273 0.684289
O O7 0.817181 0.678249 0.773116
O O8 0.250000 0.750000 0.500000
O O9 0.248464 0.647016 0.404081
O O10 0.288797 0.796356 0.388256
O O11 0.500000 0.413425 0.750000
O O12 0.512476 0.368323 0.871794
O O13 0.835159 0.409676 0.881563
O O14 0.228575 0.559133 0.644953
O O15 0.000000 0.500000 0.500000
O O16 0.500000 0.644590 0.750000
#
# Coordination Sequence:
#
# PCOD8150851 Si02
#       7
#     8   8   8   8   8   8   8
#     4  11  26  43  72 106 149 189 245 303 373 430
#     4  11  26  48  71 107 146 196 244 306 368 440
#     4  11  23  42  76 102 145 194 241 299 365 435
#     4  12  28  47  73 104 148 189 248 302 371 440
#     4  11  25  45  69 110 145 189 244 305 360 444
#     4  12  27  46  75 107 143 191 247 304 368 445
#     4  10  26  46  74 106 147 190 244 301 371 429
#
# _framework density 22.626169000000001
#
# number of rings (size 3 to 8) (size 9 to 14) (size 15 to 20)
#    0.000    0.857    2.857    2.143   14.000    0.571 
#    0.000    1.429    0.000    0.000    0.000    0.000 
#    0.000    0.000    0.000    0.000    0.000    0.000 
#
# Total GULP energy -347025.388861 kJ/mol
# GULP energy per Si atom -12393.763888 kJ/mol
# Density = 2.257467 g / cm^3
# Si number density = 22.626169 Si / 1000 Ang^3
#
#
#
# Elastic Constant Matrix: (Units=GPa)
#
#
# Indices 1 2 3 4 5 6 
#
# 1 118.3514 41.7030 56.4061 0.0000 -21.5607 0.0000
# 2 41.7030 119.3121 61.8526 0.0000 -22.8434 0.0000
# 3 56.4061 61.8526 149.0496 0.0000 -30.6126 0.0000
# 4 0.0000 0.0000 0.0000 49.0555 0.0000 -5.4352
# 5 -21.5607 -22.8434 -30.6126 0.0000 45.8168 0.0000
# 6 0.0000 0.0000 0.0000 -5.4352 0.0000 45.3935
#
#
#
# Elastic Compliance Matrix: (Units=1/GPa)
#
#
# Indices 1 2 3 4 5 6 
#
# 1 0.010897 -0.001884 -0.002877 0.000000 0.002267 0.000000
# 2 -0.001884 0.011309 -0.003482 0.000000 0.002426 0.000000
# 3 -0.002877 -0.003482 0.009977 0.000000 0.003577 0.000000
# 4 0.000000 0.000000 0.000000 0.020659 0.000000 0.002474
# 5 0.002267 0.002426 0.003577 0.000000 0.026492 0.000000
# 6 0.000000 0.000000 0.000000 0.002474 0.000000 0.022326
#
#
# Mechanical properties :
#
#
# Convention : Reuss Voigt Hill
#
# Bulk Modulus (GPa) = 63.69784 78.51517 71.10650
# Shear Modulus (GPa) = 40.52575 43.16992 41.84784
#
# Velocity S-wave (km/s) = 4.23673 4.37276 4.30528
# Velocity P-wave (km/s) = 7.22126 7.76345 7.49726
#
# Compressibility (1/GPa) = 0.01569912
#
# Stress axis : x y z
#
# Youngs Moduli (GPa) = 91.76764 88.42263 100.22636
#
# Poissons Ratio (x) = 0.16655 0.28832
# Poissons Ratio (y) = 0.17285 0.34900
# Poissons Ratio (z) = 0.26399 0.30790
#
# Static dielectric constant tensor:
#      x y z
#    x 4.206530 0.000000 -0.115120 
#    y 0.000000 4.259790 0.000000 
#    z -0.115120 0.000000 4.327810 
# 
# 
# High freq. dielectric constant tensor:
#      x y z
#    x 1.900860 0.000000 -0.004520 
#    y 0.000000 1.900330 0.000000 
#    z -0.004520 0.000000 1.904500 
# 
# From -- ./inp_files/264798.got.cif
#   From: 2010.06.25/outbox.cif.g09.slc.cpg/sg15_133_cif.got.tgz:264798.got - 2010.06.28 07:06:18.
