data_PCOD8150095
_publ_section_title
;
Structure prediction by ZEFSAII (Michael W. Deem and Ramdas Pophale) SiO2 
 PCOD8150095
Probable space group: C 2/C
;
_chemical_formula_sum "Si O2"
_cell_formula_units_Z 48
_cell_length_a 23.177038
_cell_length_b 8.847381
_cell_length_c 9.607096
_cell_angle_alpha 90.000000
_cell_angle_beta 95.276837
_cell_angle_gamma 90.000000
_cell_volume 1961.644588
_symmetry_space_group_name_H-M "C 2/C"
_symmetry_group_IT_number 15
_symmetry_cell_setting 'monoclinic'
loop_
_space_group_symop_operation_xyz
x,y,z
-x,y,1/2-z
-x,-y,-z
x,-y,1/2+z
1/2+x,1/2+y,z
1/2-x,1/2+y,1/2-z
1/2-x,1/2-y,-z
1/2+x,1/2-y,1/2+z
loop_
_atom_site_type_symbol
_atom_site_label
_atom_site_fract_x
_atom_site_fract_y
_atom_site_fract_z
Si Si1 0.648350 0.942892 0.654801
Si Si2 0.000000 0.723526 0.750000
Si Si3 0.072109 0.473303 0.898882
Si Si4 0.500000 0.734176 0.750000
Si Si5 0.825079 0.102633 0.873636
Si Si6 0.944932 0.984098 0.888365
Si Si7 0.739016 0.410927 0.423855
O O1 0.627233 0.944739 0.809697
O O2 0.662736 0.778451 0.594250
O O3 0.594659 0.017169 0.560370
O O4 0.703726 0.047812 0.649481
O O5 0.036570 0.625611 0.865683
O O6 0.048974 0.826205 0.688432
O O7 0.026639 0.335448 0.879467
O O8 0.447154 0.629562 0.787314
O O9 0.810539 0.090421 0.705947
O O10 0.880138 0.998305 0.933658
O O11 0.774468 0.037621 0.961997
O O12 0.000000 0.000000 0.000000
O O13 0.750000 0.250000 0.500000
#
# Coordination Sequence:
#
# PCOD8150095 Si02
#       7
#     8   4   8   4   8   8   8
#     4  12  26  48  73 103 141 185 241 292 362 417
#     4  10  26  40  66 108 140 186 232 284 360 422
#     4  11  25  44  74 103 142 187 234 294 350 434
#     4  10  24  44  66 104 144 184 238 282 362 426
#     4  12  27  49  74 105 146 189 239 302 361 430
#     4  11  25  42  71 103 147 186 237 289 363 429
#     4  12  29  48  76 105 143 188 248 300 364 424
#
# _framework density 24.469266000000001
#
# number of rings (size 3 to 8) (size 9 to 14) (size 15 to 20)
#    0.000    0.667    1.667    4.500   11.667    1.333 
#    0.000    0.000    0.000    0.000    0.000    0.000 
#    0.000    0.000    0.000    0.000    0.000    0.000 
#
# Total GULP energy -297592.501380 kJ/mol
# GULP energy per Si atom -12399.687557 kJ/mol
# Density = 2.441357 g / cm^3
# Si number density = 24.469266 Si / 1000 Ang^3
#
#
#
# Elastic Constant Matrix: (Units=GPa)
#
#
# Indices 1 2 3 4 5 6 
#
# 1 102.8484 22.7155 1.3477 0.0000 2.3578 0.0000
# 2 22.7155 122.5774 1.6160 0.0000 2.8387 0.0000
# 3 1.3477 1.6160 91.4713 0.0000 19.3958 0.0000
# 4 0.0000 0.0000 0.0000 19.1318 0.0000 -0.5408
# 5 2.3578 2.8387 19.3958 0.0000 46.8207 0.0000
# 6 0.0000 0.0000 0.0000 -0.5408 0.0000 17.0366
#
#
#
# Elastic Compliance Matrix: (Units=1/GPa)
#
#
# Indices 1 2 3 4 5 6 
#
# 1 0.010145 -0.001871 -0.000035 0.000000 -0.000383 0.000000
# 2 -0.001871 0.008515 -0.000037 0.000000 -0.000407 0.000000
# 3 -0.000035 -0.000037 0.011986 0.000000 -0.004961 0.000000
# 4 0.000000 0.000000 0.000000 0.052316 0.000000 0.001661
# 5 -0.000383 -0.000407 -0.004961 0.000000 0.023457 0.000000
# 6 0.000000 0.000000 0.000000 0.001661 0.000000 0.058750
#
#
# Mechanical properties :
#
#
# Convention : Reuss Voigt Hill
#
# Bulk Modulus (GPa) = 37.36855 40.91727 39.14291
# Shear Modulus (GPa) = 28.09397 36.01235 32.05316
#
# Velocity S-wave (km/s) = 3.39209 3.84049 3.62323
# Velocity P-wave (km/s) = 5.53592 6.03523 5.79096
#
# Compressibility (1/GPa) = 0.02676047
#
# Stress axis : x y z
#
# Youngs Moduli (GPa) = 98.56609 117.44399 83.43405
#
# Poissons Ratio (x) = 0.21971 0.00294
# Poissons Ratio (y) = 0.18440 0.00305
# Poissons Ratio (z) = 0.00347 0.00430
#
# Static dielectric constant tensor:
#      x y z
#    x 4.124330 0.000000 -0.068280 
#    y 0.000000 4.620910 0.000000 
#    z -0.068280 0.000000 4.308370 
# 
# 
# High freq. dielectric constant tensor:
#      x y z
#    x 1.982830 0.000000 0.003850 
#    y 0.000000 1.987710 0.000000 
#    z 0.003850 0.000000 1.966740 
# 
# From -- ./inp_files/116822.got.cif
#   From: 2010.06.25/outbox.cif.g09.slc.cpg/sg15_59_cif.got.tgz:116822.got - 2010.06.28 07:06:18.
