data_PCOD8150811
_publ_section_title
;
Structure prediction by ZEFSAII (Michael W. Deem and Ramdas Pophale) SiO2 
 PCOD8150811
Probable space group: C 2/C
;
_chemical_formula_sum "Si O2"
_cell_formula_units_Z 52
_cell_length_a 15.901860
_cell_length_b 28.192329
_cell_length_c 9.427587
_cell_angle_alpha 90.000000
_cell_angle_beta 146.601811
_cell_angle_gamma 90.000000
_cell_volume 2326.487584
_symmetry_space_group_name_H-M "C 2/C"
_symmetry_group_IT_number 15
_symmetry_cell_setting 'monoclinic'
loop_
_space_group_symop_operation_xyz
x,y,z
-x,y,1/2-z
-x,-y,-z
x,-y,1/2+z
1/2+x,1/2+y,z
1/2-x,1/2+y,1/2-z
1/2-x,1/2-y,-z
1/2+x,1/2-y,1/2+z
loop_
_atom_site_type_symbol
_atom_site_label
_atom_site_fract_x
_atom_site_fract_y
_atom_site_fract_z
Si Si1 0.199690 0.915910 0.159742
Si Si2 0.590453 0.286024 0.608203
Si Si3 0.000000 0.991730 0.750000
Si Si4 0.233697 0.929330 0.523129
Si Si5 0.502002 0.908165 0.086901
Si Si6 0.000000 0.147599 0.750000
Si Si7 0.568615 0.200245 0.998766
Si Si8 0.000000 0.163080 0.250000
O O1 0.275953 0.914499 0.422257
O O2 0.330125 0.922424 0.226547
O O3 0.075982 0.958336 0.976790
O O4 0.114208 0.866936 0.007586
O O5 0.480992 0.320302 0.362846
O O6 0.515766 0.233690 0.504935
O O7 0.601393 0.305007 0.785709
O O8 0.753259 0.285989 0.758856
O O9 0.868277 0.023662 0.633042
O O10 0.146476 0.886070 0.476320
O O11 0.381880 0.939913 0.828488
O O12 0.500000 0.920475 0.250000
O O13 0.460852 0.853625 0.996184
O O14 0.500000 0.210412 0.750000
#
# Coordination Sequence:
#
# PCOD8150811 Si02
#       8
#     8   8   4   8   8   4   8   4
#     4  11  24  43  70 105 129 176 227 277 339 411
#     4  12  24  42  64  96 138 182 238 284 333 400
#     4  10  26  44  76 102 132 172 222 274 338 414
#     4  11  23  46  70  97 138 173 218 281 337 411
#     4  11  25  44  69  99 140 177 225 278 345 397
#     4  11  24  43  64  96 132 180 224 277 346 389
#     4  11  24  40  65  97 134 183 233 283 333 393
#     4  11  22  39  70  94 136 182 236 279 336 401
#
# _framework density 22.351291
#
# number of rings (size 3 to 8) (size 9 to 14) (size 15 to 20)
#    0.000    0.923    3.846    3.231    2.154    3.692 
#    2.769    0.000    0.000    0.000    0.000    0.000 
#    0.000    0.000    0.000    0.000    0.000    0.000 
#
# Total GULP energy -322461.317632 kJ/mol
# GULP energy per Si atom -12402.358370 kJ/mol
# Density = 2.230042 g / cm^3
# Si number density = 22.351291 Si / 1000 Ang^3
#
#
#
# Elastic Constant Matrix: (Units=GPa)
#
#
# Indices 1 2 3 4 5 6 
#
# 1 98.2550 34.5769 40.0141 0.0000 -2.7721 0.0000
# 2 34.5769 83.5083 30.0541 0.0000 3.3150 0.0000
# 3 40.0141 30.0541 119.8650 0.0000 -0.7980 0.0000
# 4 0.0000 0.0000 0.0000 19.2230 0.0000 4.8962
# 5 -2.7721 3.3150 -0.7980 0.0000 44.7682 0.0000
# 6 0.0000 0.0000 0.0000 4.8962 0.0000 25.6311
#
#
#
# Elastic Compliance Matrix: (Units=1/GPa)
#
#
# Indices 1 2 3 4 5 6 
#
# 1 0.013043 -0.004263 -0.003278 0.000000 0.001065 0.000000
# 2 -0.004263 0.014604 -0.002248 0.000000 -0.001385 0.000000
# 3 -0.003278 -0.002248 0.010002 0.000000 0.000142 0.000000
# 4 0.000000 0.000000 0.000000 0.054682 0.000000 -0.010446
# 5 0.001065 -0.001385 0.000142 0.000000 0.022508 0.000000
# 6 0.000000 0.000000 0.000000 -0.010446 0.000000 0.041010
#
#
# Mechanical properties :
#
#
# Convention : Reuss Voigt Hill
#
# Bulk Modulus (GPa) = 55.33848 56.76874 56.05361
# Shear Modulus (GPa) = 27.55583 31.05667 29.30625
#
# Velocity S-wave (km/s) = 3.51501 3.73162 3.62493
# Velocity P-wave (km/s) = 6.42542 6.63477 6.53093
#
# Compressibility (1/GPa) = 0.01807061
#
# Stress axis : x y z
#
# Youngs Moduli (GPa) = 76.67071 68.47481 99.98422
#
# Poissons Ratio (x) = 0.29190 0.32776
# Poissons Ratio (y) = 0.32684 0.22475
# Poissons Ratio (z) = 0.25133 0.15392
#
# Static dielectric constant tensor:
#      x y z
#    x 3.842080 0.000000 0.079190 
#    y 0.000000 4.091880 0.000000 
#    z 0.079190 0.000000 3.933310 
# 
# 
# High freq. dielectric constant tensor:
#      x y z
#    x 1.873820 0.000000 0.002130 
#    y 0.000000 1.883320 0.000000 
#    z 0.002130 0.000000 1.879870 
# 
# From -- ./inp_files/44958.got.cif
#   From: 2010.06.25/outbox.cif.g09.slc.cpg/sg15_23_cif.got.tgz:44958.got - 2010.06.28 07:06:18.
