data_PCOD8150462
_publ_section_title
;
Structure prediction by ZEFSAII (Michael W. Deem and Ramdas Pophale) SiO2 
 PCOD8150462
Probable space group: C 2/C
;
_chemical_formula_sum "Si O2"
_cell_formula_units_Z 52
_cell_length_a 17.521889
_cell_length_b 14.582632
_cell_length_c 13.645535
_cell_angle_alpha 90.000000
_cell_angle_beta 43.769177
_cell_angle_gamma 90.000000
_cell_volume 2411.901603
_symmetry_space_group_name_H-M "C 2/C"
_symmetry_group_IT_number 15
_symmetry_cell_setting 'monoclinic'
loop_
_space_group_symop_operation_xyz
x,y,z
-x,y,1/2-z
-x,-y,-z
x,-y,1/2+z
1/2+x,1/2+y,z
1/2-x,1/2+y,1/2-z
1/2-x,1/2-y,-z
1/2+x,1/2-y,1/2+z
loop_
_atom_site_type_symbol
_atom_site_label
_atom_site_fract_x
_atom_site_fract_y
_atom_site_fract_z
Si Si1 0.088771 0.232577 0.805791
Si Si2 0.151751 0.479948 0.001891
Si Si3 0.167224 0.933441 0.523184
Si Si4 0.012141 0.668276 0.922444
Si Si5 0.254599 0.895767 0.234405
Si Si6 0.000000 0.081890 0.750000
Si Si7 0.500000 0.713560 0.250000
Si Si8 0.500000 0.878984 0.750000
O O1 0.210727 0.200682 0.728552
O O2 0.035355 0.142466 0.809193
O O3 0.088603 0.315782 0.727030
O O4 0.017396 0.260807 0.965214
O O5 0.211021 0.436895 0.041857
O O6 0.246929 0.522833 0.844454
O O7 0.066326 0.559118 0.112318
O O8 0.088838 0.400682 0.001846
O O9 0.178604 0.926768 0.395502
O O10 0.105121 0.844322 0.619578
O O11 0.100620 0.023320 0.614834
O O12 0.119127 0.611528 0.851760
O O13 0.043413 0.723674 0.796915
#
# Coordination Sequence:
#
# PCOD8150462 Si02
#       8
#     8   8   8   8   8   4   4   4
#     4  11  25  45  71 102 137 176 239 280 348 399
#     4  12  26  45  69 105 140 182 226 283 350 407
#     4  11  25  43  72  99 141 183 230 278 351 403
#     4  12  26  45  68 103 142 176 232 288 334 412
#     4  12  25  45  70 102 133 185 227 280 346 412
#     4  10  24  48  66 102 138 184 226 296 332 414
#     4  11  25  45  67 100 142 182 231 283 333 407
#     4  11  25  47  71 100 142 178 227 297 339 409
#
# _framework density 21.559752
#
# number of rings (size 3 to 8) (size 9 to 14) (size 15 to 20)
#    0.000    0.615    4.615    2.769    4.308    4.923 
#    0.000    0.000    0.000    0.000    0.000    0.000 
#    0.000    0.000    0.000    0.000    0.000    0.000 
#
# Total GULP energy -322517.095186 kJ/mol
# GULP energy per Si atom -12404.503661 kJ/mol
# Density = 2.151068 g / cm^3
# Si number density = 21.559752 Si / 1000 Ang^3
#
#
#
# Elastic Constant Matrix: (Units=GPa)
#
#
# Indices 1 2 3 4 5 6 
#
# 1 96.8852 40.7569 32.3710 0.0000 6.5225 0.0000
# 2 40.7569 99.8706 49.4834 0.0000 10.7491 0.0000
# 3 32.3710 49.4834 112.7438 0.0000 21.1305 0.0000
# 4 0.0000 0.0000 0.0000 33.7722 0.0000 6.7129
# 5 6.5225 10.7491 21.1305 0.0000 42.0049 0.0000
# 6 0.0000 0.0000 0.0000 6.7129 0.0000 30.5999
#
#
#
# Elastic Compliance Matrix: (Units=1/GPa)
#
#
# Indices 1 2 3 4 5 6 
#
# 1 0.012727 -0.004324 -0.001759 0.000000 0.000015 0.000000
# 2 -0.004324 0.014274 -0.004929 0.000000 -0.000502 0.000000
# 3 -0.001759 -0.004929 0.012422 0.000000 -0.004714 0.000000
# 4 0.000000 0.000000 0.000000 0.030960 0.000000 -0.006792
# 5 0.000015 -0.000502 -0.004714 0.000000 0.026304 0.000000
# 6 0.000000 0.000000 0.000000 -0.006792 0.000000 0.034170
#
#
# Mechanical properties :
#
#
# Convention : Reuss Voigt Hill
#
# Bulk Modulus (GPa) = 57.47848 61.63581 59.55714
# Shear Modulus (GPa) = 31.50964 33.73461 32.62212
#
# Velocity S-wave (km/s) = 3.82711 3.95992 3.89408
# Velocity P-wave (km/s) = 6.80051 7.03977 6.92118
#
# Compressibility (1/GPa) = 0.01739782
#
# Stress axis : x y z
#
# Youngs Moduli (GPa) = 78.57171 70.05807 80.50333
#
# Poissons Ratio (x) = 0.30292 0.14163
# Poissons Ratio (y) = 0.33973 0.39683
# Poissons Ratio (z) = 0.13823 0.34534
#
# Static dielectric constant tensor:
#      x y z
#    x 4.145380 0.000000 0.134650 
#    y 0.000000 3.949550 0.000000 
#    z 0.134650 0.000000 3.910660 
# 
# 
# High freq. dielectric constant tensor:
#      x y z
#    x 1.863280 0.000000 0.013730 
#    y 0.000000 1.854040 0.000000 
#    z 0.013730 0.000000 1.845040 
# 
# From -- ./inp_files/112683.got.cif
#   From: 2010.06.25/outbox.cif.g09.slc.cpg/sg15_57_cif.got.tgz:112683.got - 2010.06.28 07:06:18.
