data_PCOD8150077
_publ_section_title
;
Structure prediction by ZEFSAII (Michael W. Deem and Ramdas Pophale) SiO2 
 PCOD8150077
Probable space group: C 2/C
;
_chemical_formula_sum "Si O2"
_cell_formula_units_Z 44
_cell_length_a 15.854865
_cell_length_b 9.938987
_cell_length_c 26.695847
_cell_angle_alpha 90.000000
_cell_angle_beta 150.287171
_cell_angle_gamma 90.000000
_cell_volume 2085.096917
_symmetry_space_group_name_H-M "C 2/C"
_symmetry_group_IT_number 15
_symmetry_cell_setting 'monoclinic'
loop_
_space_group_symop_operation_xyz
x,y,z
-x,y,1/2-z
-x,-y,-z
x,-y,1/2+z
1/2+x,1/2+y,z
1/2-x,1/2+y,1/2-z
1/2-x,1/2-y,-z
1/2+x,1/2-y,1/2+z
loop_
_atom_site_type_symbol
_atom_site_label
_atom_site_fract_x
_atom_site_fract_y
_atom_site_fract_z
Si Si1 0.500000 0.197324 0.250000
Si Si2 0.763440 0.792767 0.211438
Si Si3 0.974562 0.516794 0.566563
Si Si4 0.021397 0.226475 0.581893
Si Si5 0.922002 0.209741 0.998908
Si Si6 0.274504 0.967328 0.562185
O O1 0.412984 0.292328 0.247088
O O2 0.640573 0.100263 0.346043
O O3 0.674796 0.940021 0.170494
O O4 0.833480 0.750496 0.301943
O O5 0.615394 0.686707 0.118810
O O6 0.950234 0.373019 0.526802
O O7 0.867497 0.634062 0.482702
O O8 0.913078 0.488923 0.591071
O O9 0.092349 0.165674 0.566747
O O10 0.878405 0.132084 0.533284
O O11 0.794011 0.115112 0.962080
#
# Coordination Sequence:
#
# PCOD8150077 Si02
#       6
#     4   8   8   8   8   8
#     4  12  24  44  66 102 128 180 230 278 314 422
#     4  10  26  41  69  94 137 168 232 269 333 390
#     4  10  24  44  64  99 137 171 218 281 324 405
#     4  12  23  43  70  97 129 187 214 275 334 398
#     4  10  25  42  66 100 139 171 217 283 324 402
#     4  12  24  40  74  99 133 173 231 268 342 383
#
# _framework density 21.102136999999999
#
# number of rings (size 3 to 8) (size 9 to 14) (size 15 to 20)
#    1.091    0.000    3.636    2.182    5.091    0.000 
#    0.000    0.000    0.000    1.091    0.000    0.000 
#    0.000    0.000    0.000    0.000    0.000    0.000 
#
# Total GULP energy -272664.883074 kJ/mol
# GULP energy per Si atom -12393.858322 kJ/mol
# Density = 2.105411 g / cm^3
# Si number density = 21.102137 Si / 1000 Ang^3
#
#
#
# Elastic Constant Matrix: (Units=GPa)
#
#
# Indices 1 2 3 4 5 6 
#
# 1 74.4746 33.3179 44.9400 0.0000 -9.8823 0.0000
# 2 33.3179 106.2306 11.3071 0.0000 16.2966 0.0000
# 3 44.9400 11.3071 54.6990 0.0000 -13.3519 -0.0001
# 4 0.0000 0.0000 0.0000 25.2168 0.0000 8.8583
# 5 -9.8823 16.2966 -13.3519 0.0000 32.6730 0.0000
# 6 0.0000 0.0000 -0.0001 8.8583 0.0000 37.1393
#
#
#
# Elastic Compliance Matrix: (Units=1/GPa)
#
#
# Indices 1 2 3 4 5 6 
#
# 1 0.031675 -0.008070 -0.023366 0.000000 0.004057 0.000000
# 2 -0.008070 0.012979 0.001967 0.000000 -0.008111 0.000000
# 3 -0.023366 0.001967 0.038997 0.000000 0.007888 0.000000
# 4 0.000000 0.000000 0.000000 0.043283 0.000000 -0.010324
# 5 0.004057 -0.008111 0.007888 0.000000 0.039102 0.000000
# 6 0.000000 0.000000 0.000000 -0.010324 0.000000 0.029388
#
#
# Mechanical properties :
#
#
# Convention : Reuss Voigt Hill
#
# Bulk Modulus (GPa) = 40.45980 46.05935 43.25957
# Shear Modulus (GPa) = 19.04035 28.72846 23.88441
#
# Velocity S-wave (km/s) = 3.00708 3.69372 3.36794
# Velocity P-wave (km/s) = 5.59211 6.32974 5.97232
#
# Compressibility (1/GPa) = 0.02471589
#
# Stress axis : x y z
#
# Youngs Moduli (GPa) = 31.57020 77.04516 25.64272
#
# Poissons Ratio (x) = 0.62176 0.59916
# Poissons Ratio (y) = 0.25477 -0.05045
# Poissons Ratio (z) = 0.73765 -0.15158
#
# Static dielectric constant tensor:
#      x y z
#    x 3.743870 0.000000 0.034510 
#    y 0.000000 3.788980 0.000000 
#    z 0.034510 0.000000 3.625170 
# 
# 
# High freq. dielectric constant tensor:
#      x y z
#    x 1.837900 0.000000 -0.005240 
#    y 0.000000 1.824190 0.000000 
#    z -0.005240 0.000000 1.806320 
# 
# From -- ./inp_files/295979.got.cif
#   From: 2010.06.25/outbox.cif.g09.slc.cpg/sg15_148_cif.got.tgz:295979.got - 2010.06.28 07:06:18.
