data_PCOD8150149
_publ_section_title
;
Structure prediction by ZEFSAII (Michael W. Deem and Ramdas Pophale) SiO2 
 PCOD8150149
Probable space group: C 2/C
;
_chemical_formula_sum "Si O2"
_cell_formula_units_Z 40
_cell_length_a 13.394811
_cell_length_b 27.613296
_cell_length_c 8.820795
_cell_angle_alpha 90.000000
_cell_angle_beta 33.916095
_cell_angle_gamma 90.000000
_cell_volume 1820.454526
_symmetry_space_group_name_H-M "C 2/C"
_symmetry_group_IT_number 15
_symmetry_cell_setting 'monoclinic'
loop_
_space_group_symop_operation_xyz
x,y,z
-x,y,1/2-z
-x,-y,-z
x,-y,1/2+z
1/2+x,1/2+y,z
1/2-x,1/2+y,1/2-z
1/2-x,1/2-y,-z
1/2+x,1/2-y,1/2+z
loop_
_atom_site_type_symbol
_atom_site_label
_atom_site_fract_x
_atom_site_fract_y
_atom_site_fract_z
Si Si1 0.637900 0.492811 0.194776
Si Si2 0.706464 0.401228 0.516134
Si Si3 0.809508 0.398636 0.051000
Si Si4 0.726009 0.685485 0.194098
Si Si5 0.500000 0.652963 0.750000
Si Si6 0.500000 0.746298 0.250000
O O1 0.500000 0.469506 0.250000
O O2 0.500000 0.500000 0.500000
O O3 0.796144 0.456300 0.040465
O O4 0.734534 0.542394 0.021401
O O5 0.807322 0.387270 0.233081
O O6 0.774778 0.368770 0.572115
O O7 0.500000 0.390571 0.750000
O O8 0.640316 0.376625 0.175451
O O9 0.000000 0.379145 0.750000
O O10 0.614976 0.685616 0.489648
O O11 0.626703 0.710941 0.181039
O O12 0.901885 0.718387 0.996026
#
# Coordination Sequence:
#
# PCOD8150149 Si02
#       6
#     8   8   8   8   4   4
#     4  11  20  39  65  88 130 182 213 261 319 373
#     4  11  21  42  66  91 133 178 213 265 329 386
#     4  12  26  41  64 101 136 172 224 272 313 380
#     4  11  23  44  69  97 128 171 213 268 336 393
#     4  12  24  44  71  98 132 176 215 268 326 384
#     4  10  24  44  69  94 130 166 211 272 336 404
#
# _framework density 21.972535000000001
#
# number of rings (size 3 to 8) (size 9 to 14) (size 15 to 20)
#    0.000    0.800    8.000    0.000    2.800    1.600 
#    1.800    0.000    0.000    0.000    0.000    0.000 
#    0.000    0.000    0.000    0.000    0.000    0.000 
#
# Total GULP energy -247857.935972 kJ/mol
# GULP energy per Si atom -12392.896799 kJ/mol
# Density = 2.192252 g / cm^3
# Si number density = 21.972535 Si / 1000 Ang^3
#
#
#
# Elastic Constant Matrix: (Units=GPa)
#
#
# Indices 1 2 3 4 5 6 
#
# 1 43.1951 3.3199 20.6974 0.0000 16.0635 0.0000
# 2 3.3199 70.3625 21.8044 0.0000 3.0916 0.0000
# 3 20.6974 21.8044 158.0797 0.0000 27.9132 0.0000
# 4 0.0000 0.0000 0.0000 28.0977 0.0000 8.7848
# 5 16.0635 3.0916 27.9132 0.0000 41.7180 0.0000
# 6 0.0000 0.0000 0.0000 8.7848 0.0000 6.5619
#
#
#
# Elastic Compliance Matrix: (Units=1/GPa)
#
#
# Indices 1 2 3 4 5 6 
#
# 1 0.027554 -0.000295 -0.001925 0.000000 -0.009300 0.000000
# 2 -0.000295 0.014853 -0.002082 0.000000 0.000406 0.000000
# 3 -0.001925 -0.002082 0.007606 0.000000 -0.004193 0.000000
# 4 0.000000 0.000000 0.000000 0.061211 0.000000 -0.081947
# 5 -0.009300 0.000406 -0.004193 0.000000 0.030327 0.000000
# 6 0.000000 0.000000 0.000000 -0.081947 0.000000 0.262103
#
#
# Mechanical properties :
#
#
# Convention : Reuss Voigt Hill
#
# Bulk Modulus (GPa) = 24.14879 40.36449 32.25664
# Shear Modulus (GPa) = 11.73541 30.32991 21.03266
#
# Velocity S-wave (km/s) = 2.31356 3.71934 3.09726
# Velocity P-wave (km/s) = 4.26040 6.07083 5.24433
#
# Compressibility (1/GPa) = 0.04140995
#
# Stress axis : x y z
#
# Youngs Moduli (GPa) = 36.29203 67.32501 131.48309
#
# Poissons Ratio (x) = 0.01986 0.25308
# Poissons Ratio (y) = 0.01071 0.27372
# Poissons Ratio (z) = 0.06986 0.14016
#
# Static dielectric constant tensor:
#      x y z
#    x 3.736290 0.000000 0.126440 
#    y 0.000000 3.772410 0.000000 
#    z 0.126440 0.000000 4.061050 
# 
# 
# High freq. dielectric constant tensor:
#      x y z
#    x 1.852020 0.000000 0.010970 
#    y 0.000000 1.861850 0.000000 
#    z 0.010970 0.000000 1.867710 
# 
# From -- ./inp_files/25859.got.cif
#   From: 2010.06.25/outbox.cif.g09.slc.cpg/sg15_13_cif.got.tgz:25859.got - 2010.06.28 07:06:18.
