data_PCOD8150590
_publ_section_title
;
Structure prediction by ZEFSAII (Michael W. Deem and Ramdas Pophale) SiO2 
 PCOD8150590
Probable space group: C 2/C
;
_chemical_formula_sum "Si O2"
_cell_formula_units_Z 56
_cell_length_a 10.728812
_cell_length_b 10.732753
_cell_length_c 26.548808
_cell_angle_alpha 90.000000
_cell_angle_beta 54.324440
_cell_angle_gamma 90.000000
_cell_volume 2483.370712
_symmetry_space_group_name_H-M "C 2/C"
_symmetry_group_IT_number 15
_symmetry_cell_setting 'monoclinic'
loop_
_space_group_symop_operation_xyz
x,y,z
-x,y,1/2-z
-x,-y,-z
x,-y,1/2+z
1/2+x,1/2+y,z
1/2-x,1/2+y,1/2-z
1/2-x,1/2-y,-z
1/2+x,1/2-y,1/2+z
loop_
_atom_site_type_symbol
_atom_site_label
_atom_site_fract_x
_atom_site_fract_y
_atom_site_fract_z
Si Si1 0.654296 0.264897 0.471113
Si Si2 0.714846 0.343999 0.708861
Si Si3 0.971990 0.363306 0.813652
Si Si4 0.349345 0.748745 0.090510
Si Si5 0.805602 0.599712 0.845052
Si Si6 0.256760 0.977532 0.601634
Si Si7 0.072509 0.080142 0.343673
O O1 0.750000 0.250000 0.500000
O O2 0.478821 0.309274 0.522799
O O3 0.731844 0.366592 0.416375
O O4 0.641377 0.132393 0.445771
O O5 0.648109 0.222479 0.696471
O O6 0.724774 0.457118 0.667912
O O7 0.599497 0.389377 0.778941
O O8 0.884346 0.314127 0.689112
O O9 0.820895 0.306571 0.876105
O O10 0.956793 0.514487 0.818702
O O11 0.000000 0.315992 0.750000
O O12 0.410428 0.713536 0.132087
O O13 0.348216 0.894113 0.077809
O O14 0.693351 0.516042 0.837637
O O15 0.094905 0.979783 0.609962
#
# Coordination Sequence:
#
# PCOD8150590 Si02
#       7
#     8   8   8   8   8   8   8
#     4  11  24  47  68  98 135 184 239 286 347 413
#     4  11  24  42  67 103 138 175 231 281 351 421
#     4  11  23  44  68 103 136 181 225 277 356 417
#     4  11  24  43  69  95 138 176 226 287 345 405
#     4  10  25  43  69  96 139 178 232 280 347 412
#     4  11  25  42  69 101 134 181 233 287 348 409
#     4  11  23  44  66 103 135 183 224 285 359 413
#
# _framework density 22.549997000000001
#
# number of rings (size 3 to 8) (size 9 to 14) (size 15 to 20)
#    0.000    1.143    4.286    1.714    4.000    5.714 
#    0.000    3.571    0.000    0.000    0.000    0.000 
#    0.000    0.000    0.000    0.000    0.000    0.000 
#
# Total GULP energy -347127.186448 kJ/mol
# GULP energy per Si atom -12397.399516 kJ/mol
# Density = 2.249867 g / cm^3
# Si number density = 22.549997 Si / 1000 Ang^3
#
#
#
# Elastic Constant Matrix: (Units=GPa)
#
#
# Indices 1 2 3 4 5 6 
#
# 1 57.5604 0.1607 20.4232 0.0000 -5.9753 0.0000
# 2 0.1607 75.5094 20.3976 0.0000 8.8809 0.0000
# 3 20.4232 20.3976 110.3543 0.0000 -6.4251 0.0000
# 4 0.0000 0.0000 0.0000 29.2026 0.0000 -0.5427
# 5 -5.9753 8.8809 -6.4251 0.0000 37.5840 0.0000
# 6 0.0000 0.0000 0.0000 -0.5427 0.0000 24.5858
#
#
#
# Elastic Compliance Matrix: (Units=1/GPa)
#
#
# Indices 1 2 3 4 5 6 
#
# 1 0.018837 0.000633 -0.003472 0.000000 0.002252 0.000000
# 2 0.000633 0.014511 -0.003023 0.000000 -0.003845 0.000000
# 3 -0.003472 -0.003023 0.010376 0.000000 0.001936 0.000000
# 4 0.000000 0.000000 0.000000 0.034258 0.000000 0.000756
# 5 0.002252 -0.003845 0.001936 0.000000 0.028205 0.000000
# 6 0.000000 0.000000 0.000000 0.000756 0.000000 0.040691
#
#
# Mechanical properties :
#
#
# Convention : Reuss Voigt Hill
#
# Bulk Modulus (GPa) = 31.25073 36.15412 33.70243
# Shear Modulus (GPa) = 29.53909 31.77066 30.65487
#
# Velocity S-wave (km/s) = 3.62323 3.75760 3.69103
# Velocity P-wave (km/s) = 5.60288 5.90710 5.75700
#
# Compressibility (1/GPa) = 0.03199925
#
# Stress axis : x y z
#
# Youngs Moduli (GPa) = 53.08714 68.91365 96.37796
#
# Poissons Ratio (x) = -0.04362 0.33463
# Poissons Ratio (y) = -0.03360 0.29137
# Poissons Ratio (z) = 0.18432 0.20834
#
# Static dielectric constant tensor:
#      x y z
#    x 4.153880 0.000000 -0.065630 
#    y 0.000000 4.097370 0.000000 
#    z -0.065630 0.000000 4.221550 
# 
# 
# High freq. dielectric constant tensor:
#      x y z
#    x 1.891710 0.000000 -0.009130 
#    y 0.000000 1.880220 0.000000 
#    z -0.009130 0.000000 1.899220 
# 
# From -- ./inp_files/292204.got.cif
#   From: 2010.06.25/outbox.cif.g09.slc.cpg/sg15_147_cif.got.tgz:292204.got - 2010.06.28 07:06:18.
