data_PCOD8150868
_publ_section_title
;
Structure prediction by ZEFSAII (Michael W. Deem and Ramdas Pophale) SiO2 
 PCOD8150868
Probable space group: C 2/C
;
_chemical_formula_sum "Si O2"
_cell_formula_units_Z 64
_cell_length_a 24.045770
_cell_length_b 15.764123
_cell_length_c 11.534201
_cell_angle_alpha 90.000000
_cell_angle_beta 41.532827
_cell_angle_gamma 90.000000
_cell_volume 2898.956330
_symmetry_space_group_name_H-M "C 2/C"
_symmetry_group_IT_number 15
_symmetry_cell_setting 'monoclinic'
loop_
_space_group_symop_operation_xyz
x,y,z
-x,y,1/2-z
-x,-y,-z
x,-y,1/2+z
1/2+x,1/2+y,z
1/2-x,1/2+y,1/2-z
1/2-x,1/2-y,-z
1/2+x,1/2-y,1/2+z
loop_
_atom_site_type_symbol
_atom_site_label
_atom_site_fract_x
_atom_site_fract_y
_atom_site_fract_z
Si Si1 0.078918 0.102174 0.697500
Si Si2 0.875334 0.318933 0.678972
Si Si3 0.598329 0.872429 0.605124
Si Si4 0.750349 0.340541 0.559306
Si Si5 0.385597 0.588903 0.379232
Si Si6 0.953853 0.846377 0.999296
Si Si7 0.097189 0.432149 0.071860
Si Si8 0.801842 0.219736 0.118533
O O1 0.064758 0.098292 0.857410
O O2 0.155305 0.163920 0.548808
O O3 0.000000 0.139488 0.750000
O O4 0.095542 0.008468 0.625515
O O5 0.870999 0.352798 0.814487
O O6 0.951246 0.253111 0.537645
O O7 0.885708 0.402528 0.585295
O O8 0.792461 0.264987 0.777630
O O9 0.500000 0.854671 0.750000
O O10 0.649856 0.809465 0.439835
O O11 0.620755 0.968961 0.539308
O O12 0.750000 0.250000 0.500000
O O13 0.703591 0.404179 0.544825
O O14 0.844073 0.377427 0.432853
O O15 0.699286 0.332189 0.759301
O O16 0.385682 0.633888 0.504907
O O17 0.454051 0.632900 0.190246
O O18 0.000000 0.415637 0.250000
#
# Coordination Sequence:
#
# PCOD8150868 Si02
#       8
#     8   8   8   8   8   8   8   8
#     4  12  24  43  67 105 144 183 230 287 350 424
#     4  11  25  45  68 100 135 183 229 285 357 405
#     4  11  25  45  69 102 131 183 234 283 346 408
#     4  11  26  46  70 106 135 181 235 288 354 412
#     4  11  25  41  68 104 141 185 230 285 353 421
#     4  11  24  42  69 100 142 188 229 279 355 424
#     4  10  26  47  72  96 136 181 236 289 344 412
#     4  11  25  44  69 102 141 179 229 290 349 418
#
# _framework density 22.076910000000002
#
# number of rings (size 3 to 8) (size 9 to 14) (size 15 to 20)
#    0.000    1.000    2.500    3.375    8.750    3.000 
#    4.500    0.000    0.000    0.000    0.000    0.000 
#    0.000    0.000    0.000    0.000    0.000    0.000 
#
# Total GULP energy -396911.077666 kJ/mol
# GULP energy per Si atom -12403.471177 kJ/mol
# Density = 2.202666 g / cm^3
# Si number density = 22.076910 Si / 1000 Ang^3
#
#
#
# Elastic Constant Matrix: (Units=GPa)
#
#
# Indices 1 2 3 4 5 6 
#
# 1 118.7887 24.3742 35.3162 0.0000 1.3145 0.0000
# 2 24.3742 137.3303 38.8381 0.0000 -10.9631 0.0000
# 3 35.3162 38.8381 89.6661 0.0000 2.1956 0.0000
# 4 0.0000 0.0000 0.0000 32.6511 0.0000 -4.1434
# 5 1.3145 -10.9631 2.1956 0.0000 41.8005 0.0000
# 6 0.0000 0.0000 0.0000 -4.1434 0.0000 8.5286
#
#
#
# Elastic Compliance Matrix: (Units=1/GPa)
#
#
# Indices 1 2 3 4 5 6 
#
# 1 0.009601 -0.000755 -0.003447 0.000000 -0.000319 0.000000
# 2 -0.000755 0.008598 -0.003487 0.000000 0.002462 0.000000
# 3 -0.003447 -0.003487 0.014058 0.000000 -0.001545 0.000000
# 4 0.000000 0.000000 0.000000 0.032639 0.000000 0.015857
# 5 -0.000319 0.002462 -0.001545 0.000000 0.024660 0.000000
# 6 0.000000 0.000000 0.000000 0.015857 0.000000 0.124955
#
#
# Mechanical properties :
#
#
# Convention : Reuss Voigt Hill
#
# Bulk Modulus (GPa) = 59.24075 60.31578 59.77827
# Shear Modulus (GPa) = 21.22981 33.07982 27.15481
#
# Velocity S-wave (km/s) = 3.10438 3.87510 3.51095
# Velocity P-wave (km/s) = 6.30410 6.88491 6.60089
#
# Compressibility (1/GPa) = 0.01688027
#
# Stress axis : x y z
#
# Youngs Moduli (GPa) = 104.15047 116.29968 71.13151
#
# Poissons Ratio (x) = 0.08778 0.24519
# Poissons Ratio (y) = 0.07861 0.24806
# Poissons Ratio (z) = 0.35900 0.40558
#
# Static dielectric constant tensor:
#      x y z
#    x 4.416750 0.000000 -0.058550 
#    y 0.000000 4.097490 0.000000 
#    z -0.058550 0.000000 4.008330 
# 
# 
# High freq. dielectric constant tensor:
#      x y z
#    x 1.881430 0.000000 0.003990 
#    y 0.000000 1.873700 0.000000 
#    z 0.003990 0.000000 1.865270 
# 
# From -- ./inp_files/123499.got.cif
#   From: 2010.06.25/outbox.cif.g09.slc.cpg/sg15_62_cif.got.tgz:123499.got - 2010.06.28 07:06:18.
