data_PCOD8150776
_publ_section_title
;
Structure prediction by ZEFSAII (Michael W. Deem and Ramdas Pophale) SiO2 
 PCOD8150776
Probable space group: C 2/C
;
_chemical_formula_sum "Si O2"
_cell_formula_units_Z 56
_cell_length_a 11.582490
_cell_length_b 21.540254
_cell_length_c 11.423440
_cell_angle_alpha 90.000000
_cell_angle_beta 108.178516
_cell_angle_gamma 90.000000
_cell_volume 2707.783856
_symmetry_space_group_name_H-M "C 2/C"
_symmetry_group_IT_number 15
_symmetry_cell_setting 'monoclinic'
loop_
_space_group_symop_operation_xyz
x,y,z
-x,y,1/2-z
-x,-y,-z
x,-y,1/2+z
1/2+x,1/2+y,z
1/2-x,1/2+y,1/2-z
1/2-x,1/2-y,-z
1/2+x,1/2-y,1/2+z
loop_
_atom_site_type_symbol
_atom_site_label
_atom_site_fract_x
_atom_site_fract_y
_atom_site_fract_z
Si Si1 0.194870 0.577753 0.720222
Si Si2 0.500000 0.017804 0.250000
Si Si3 0.572300 0.701168 0.439605
Si Si4 0.618843 0.492951 0.615190
Si Si5 0.500000 0.597226 0.250000
Si Si6 0.795261 0.292488 0.177772
Si Si7 0.192474 0.414323 0.946491
Si Si8 0.296082 0.713120 0.404204
O O1 0.097927 0.523720 0.712607
O O2 0.328824 0.555748 0.807804
O O3 0.153460 0.640401 0.771482
O O4 0.198724 0.596687 0.586153
O O5 0.440857 0.063366 0.134991
O O6 0.579225 0.639584 0.362316
O O7 0.670534 0.696137 0.571051
O O8 0.600319 0.760935 0.367718
O O9 0.441360 0.707129 0.457634
O O10 0.500000 0.500000 0.500000
O O11 0.596934 0.444336 0.712294
O O12 0.717722 0.470107 0.554781
O O13 0.759600 0.248667 0.274839
O O14 0.232218 0.353772 0.885970
O O15 0.250000 0.750000 0.500000
#
# Coordination Sequence:
#
# PCOD8150776 Si02
#       8
#     8   4   8   8   4   8   8   8
#     4  11  24  42  67  98 133 173 225 269 329 407
#     4  10  26  43  68  95 134 184 224 268 330 404
#     4  11  24  43  69  98 132 174 230 276 335 409
#     4  11  23  40  64  98 132 173 212 272 338 394
#     4  12  20  41  68  89 134 170 214 278 322 398
#     4  11  24  43  69 101 130 178 224 277 342 400
#     4  11  23  44  64  95 134 172 222 275 332 398
#     4  12  24  44  67  97 139 175 220 287 344 396
#
# _framework density 20.681118000000001
#
# number of rings (size 3 to 8) (size 9 to 14) (size 15 to 20)
#    0.000    0.857    4.286    2.143    2.000    2.857 
#    0.000    2.857    0.000    0.000    0.000    0.000 
#    0.000    0.000    0.000    0.000    0.000    0.000 
#
# Total GULP energy -347268.650037 kJ/mol
# GULP energy per Si atom -12402.451787 kJ/mol
# Density = 2.063405 g / cm^3
# Si number density = 20.681118 Si / 1000 Ang^3
#
#
#
# Elastic Constant Matrix: (Units=GPa)
#
#
# Indices 1 2 3 4 5 6 
#
# 1 105.6714 46.9435 44.3287 0.0000 1.9601 0.0000
# 2 46.9435 127.0573 41.4908 0.0000 3.2848 0.0000
# 3 44.3287 41.4908 101.1995 0.0000 4.2633 0.0000
# 4 0.0000 0.0000 0.0000 24.4399 0.0000 -5.5780
# 5 1.9601 3.2848 4.2633 0.0000 33.2849 0.0000
# 6 0.0000 0.0000 0.0000 -5.5780 0.0000 36.1133
#
#
#
# Elastic Compliance Matrix: (Units=1/GPa)
#
#
# Indices 1 2 3 4 5 6 
#
# 1 0.012702 -0.003322 -0.004207 0.000000 0.000119 0.000000
# 2 -0.003322 0.009962 -0.002610 0.000000 -0.000453 0.000000
# 3 -0.004207 -0.002610 0.012842 0.000000 -0.001140 0.000000
# 4 0.000000 0.000000 0.000000 0.042412 0.000000 0.006551
# 5 0.000119 -0.000453 -0.001140 0.000000 0.030227 0.000000
# 6 0.000000 0.000000 0.000000 0.006551 0.000000 0.028702
#
#
# Mechanical properties :
#
#
# Convention : Reuss Voigt Hill
#
# Bulk Modulus (GPa) = 65.66815 66.60603 66.13709
# Shear Modulus (GPa) = 30.82592 32.17862 31.50227
#
# Velocity S-wave (km/s) = 3.86493 3.94882 3.90710
# Velocity P-wave (km/s) = 7.19295 7.28471 7.23898
#
# Compressibility (1/GPa) = 0.01522808
#
# Stress axis : x y z
#
# Youngs Moduli (GPa) = 78.72999 100.38226 77.86827
#
# Poissons Ratio (x) = 0.33349 0.32757
# Poissons Ratio (y) = 0.26156 0.20323
# Poissons Ratio (z) = 0.33119 0.26199
#
# Static dielectric constant tensor:
#      x y z
#    x 3.666960 0.000000 -0.054650 
#    y 0.000000 3.983460 0.000000 
#    z -0.054650 0.000000 3.896510 
# 
# 
# High freq. dielectric constant tensor:
#      x y z
#    x 1.809230 0.000000 -0.001960 
#    y 0.000000 1.822670 0.000000 
#    z -0.001960 0.000000 1.819220 
# 
# From -- ./inp_files/89696.got.cif
#   From: 2010.06.25/outbox.cif.g09.slc.cpg/sg15_45_cif.got.tgz:89696.got - 2010.06.28 07:06:18.
