data_PCOD8150782
_publ_section_title
;
Structure prediction by ZEFSAII (Michael W. Deem and Ramdas Pophale) SiO2 
 PCOD8150782
Probable space group: C 2/C
;
_chemical_formula_sum "Si O2"
_cell_formula_units_Z 52
_cell_length_a 16.959043
_cell_length_b 14.128799
_cell_length_c 10.501794
_cell_angle_alpha 90.000000
_cell_angle_beta 79.566960
_cell_angle_gamma 90.000000
_cell_volume 2474.742220
_symmetry_space_group_name_H-M "C 2/C"
_symmetry_group_IT_number 15
_symmetry_cell_setting 'monoclinic'
loop_
_space_group_symop_operation_xyz
x,y,z
-x,y,1/2-z
-x,-y,-z
x,-y,1/2+z
1/2+x,1/2+y,z
1/2-x,1/2+y,1/2-z
1/2-x,1/2-y,-z
1/2+x,1/2-y,1/2+z
loop_
_atom_site_type_symbol
_atom_site_label
_atom_site_fract_x
_atom_site_fract_y
_atom_site_fract_z
Si Si1 0.837603 0.501302 0.026108
Si Si2 0.809689 0.237144 0.206555
Si Si3 0.061096 0.328099 0.484899
Si Si4 0.261815 0.526166 0.194638
Si Si5 0.895203 0.704682 0.934774
Si Si6 0.152076 0.837942 0.330526
Si Si7 0.000000 0.232383 0.750000
O O1 0.917896 0.439396 0.021149
O O2 0.792431 0.461467 0.914722
O O3 0.858525 0.610353 0.005873
O O4 0.786828 0.489169 0.169342
O O5 0.805504 0.124204 0.213556
O O6 0.862214 0.280402 0.304574
O O7 0.721679 0.282467 0.234409
O O8 0.857923 0.268128 0.066129
O O9 0.991629 0.304228 0.402467
O O10 0.026371 0.302508 0.631718
O O11 0.328461 0.446954 0.147153
O O12 0.863446 0.791187 0.028386
O O13 0.072507 0.835523 0.268685
#
# Coordination Sequence:
#
# PCOD8150782 Si02
#       7
#     8   8   8   8   8   8   4
#     4  12  23  43  70 108 135 181 226 288 352 417
#     4  12  23  44  70  97 136 184 229 288 339 426
#     4  11  25  42  68 102 138 177 228 284 346 411
#     4  12  26  39  73 104 134 182 242 280 340 416
#     4  11  23  45  68  98 145 179 221 286 360 411
#     4  11  22  45  65  95 137 180 227 284 342 409
#     4  10  26  44  62  94 138 182 226 292 340 390
#
# _framework density 21.012291000000001
#
# number of rings (size 3 to 8) (size 9 to 14) (size 15 to 20)
#    0.000    0.615    4.615    3.231    4.308    1.231 
#    5.538    1.538    0.000    0.000    0.000    0.000 
#    0.000    0.000    0.000    0.000    0.000    0.000 
#
# Total GULP energy -322530.366306 kJ/mol
# GULP energy per Si atom -12405.014089 kJ/mol
# Density = 2.096447 g / cm^3
# Si number density = 21.012291 Si / 1000 Ang^3
#
#
#
# Elastic Constant Matrix: (Units=GPa)
#
#
# Indices 1 2 3 4 5 6 
#
# 1 119.1897 45.5466 50.6358 0.0000 -14.7491 0.0000
# 2 45.5466 135.3478 22.5706 0.0000 -10.6174 0.0000
# 3 50.6358 22.5706 100.2392 0.0000 0.3376 0.0000
# 4 0.0000 0.0000 0.0000 31.9411 0.0000 -4.7471
# 5 -14.7491 -10.6174 0.3376 0.0000 14.5747 0.0000
# 6 0.0000 0.0000 0.0000 -4.7471 0.0000 33.9787
#
#
#
# Elastic Compliance Matrix: (Units=1/GPa)
#
#
# Indices 1 2 3 4 5 6 
#
# 1 0.013524 -0.002563 -0.006295 0.000000 0.011965 0.000000
# 2 -0.002563 0.008654 -0.000667 0.000000 0.003726 0.000000
# 3 -0.006295 -0.000667 0.013330 0.000000 -0.007165 0.000000
# 4 0.000000 0.000000 0.000000 0.031971 0.000000 0.004467
# 5 0.011965 0.003726 -0.007165 0.000000 0.083600 0.000000
# 6 0.000000 0.000000 0.000000 0.004467 0.000000 0.030054
#
#
# Mechanical properties :
#
#
# Convention : Reuss Voigt Hill
#
# Bulk Modulus (GPa) = 60.75335 65.80917 63.28126
# Shear Modulus (GPa) = 24.31075 31.83384 28.07230
#
# Velocity S-wave (km/s) = 3.40513 3.89654 3.65909
# Velocity P-wave (km/s) = 6.66602 7.18550 6.93063
#
# Compressibility (1/GPa) = 0.01646000
#
# Stress axis : x y z
#
# Youngs Moduli (GPa) = 73.94137 115.54994 75.01720
#
# Poissons Ratio (x) = 0.29613 0.47223
# Poissons Ratio (y) = 0.18949 0.05001
# Poissons Ratio (z) = 0.46546 0.07703
#
# Static dielectric constant tensor:
#      x y z
#    x 4.103480 0.000000 -0.024370 
#    y 0.000000 3.744340 0.000000 
#    z -0.024370 0.000000 3.858270 
# 
# 
# High freq. dielectric constant tensor:
#      x y z
#    x 1.829340 0.000000 0.000000 
#    y 0.000000 1.826380 0.000000 
#    z 0.000000 0.000000 1.832310 
# 
# From -- ./inp_files/96963.got.cif
#   From: 2010.06.25/outbox.cif.g09.slc.cpg/sg15_49_cif.got.tgz:96963.got - 2010.06.28 07:06:18.
