data_PCOD8150708
_publ_section_title
;
Structure prediction by ZEFSAII (Michael W. Deem and Ramdas Pophale) SiO2 
 PCOD8150708
Probable space group: C 2/C
;
_chemical_formula_sum "Si O2"
_cell_formula_units_Z 60
_cell_length_a 17.073031
_cell_length_b 8.220815
_cell_length_c 19.408054
_cell_angle_alpha 90.000000
_cell_angle_beta 111.836849
_cell_angle_gamma 90.000000
_cell_volume 2528.546554
_symmetry_space_group_name_H-M "C 2/C"
_symmetry_group_IT_number 15
_symmetry_cell_setting 'monoclinic'
loop_
_space_group_symop_operation_xyz
x,y,z
-x,y,1/2-z
-x,-y,-z
x,-y,1/2+z
1/2+x,1/2+y,z
1/2-x,1/2+y,1/2-z
1/2-x,1/2-y,-z
1/2+x,1/2-y,1/2+z
loop_
_atom_site_type_symbol
_atom_site_label
_atom_site_fract_x
_atom_site_fract_y
_atom_site_fract_z
Si Si1 0.500000 0.696136 0.250000
Si Si2 0.266858 0.987861 0.189530
Si Si3 0.020915 0.959130 0.147278
Si Si4 0.873188 0.640567 0.607439
Si Si5 0.619467 0.631287 0.072456
Si Si6 0.848353 0.690626 0.328690
Si Si7 0.163666 0.007357 0.443137
Si Si8 0.650918 0.978984 0.038092
O O1 0.556332 0.574595 0.220706
O O2 0.548636 0.811911 0.318810
O O3 0.191210 0.116979 0.155087
O O4 0.331721 0.046945 0.269099
O O5 0.313183 0.974038 0.131912
O O6 0.230262 0.813340 0.199661
O O7 0.065618 0.784172 0.163879
O O8 0.919366 0.936987 0.123429
O O9 0.035635 0.050841 0.078638
O O10 0.896929 0.538822 0.546749
O O11 0.825002 0.801192 0.566134
O O12 0.602063 0.816890 0.046201
O O13 0.651793 0.523742 0.019707
O O14 0.858587 0.616872 0.407692
O O15 0.250794 0.929354 0.443521
#
# Coordination Sequence:
#
# PCOD8150708 Si02
#       8
#     4   8   8   8   8   8   8   8
#     4  10  26  46  70  96 144 196 234 284 374 424
#     4  11  23  40  68 101 140 179 237 289 353 414
#     4  10  25  47  71  97 142 192 233 288 365 429
#     4  11  23  44  68  98 137 188 233 289 346 430
#     4  11  24  42  72 106 140 180 235 296 353 419
#     4  11  25  43  72 107 140 186 237 298 355 426
#     4  11  22  45  72 100 139 185 234 285 353 428
#     4  12  24  44  75 108 139 182 244 296 349 418
#
# _framework density 23.729046
#
# number of rings (size 3 to 8) (size 9 to 14) (size 15 to 20)
#    0.000    1.067    2.667    3.600    5.600    3.200 
#    2.400    3.333    0.000    0.000    0.000    0.000 
#    0.000    0.000    0.000    0.000    0.000    0.000 
#
# Total GULP energy -371940.206232 kJ/mol
# GULP energy per Si atom -12398.006874 kJ/mol
# Density = 2.367504 g / cm^3
# Si number density = 23.729046 Si / 1000 Ang^3
#
#
#
# Elastic Constant Matrix: (Units=GPa)
#
#
# Indices 1 2 3 4 5 6 
#
# 1 63.8161 20.6416 33.3968 0.0000 2.9071 0.0000
# 2 20.6416 96.2085 60.0723 0.0000 -8.9007 0.0000
# 3 33.3968 60.0723 141.0786 0.0000 0.3080 0.0000
# 4 0.0000 0.0000 0.0000 49.4651 0.0000 -8.1491
# 5 2.9071 -8.9007 0.3080 0.0000 31.9584 0.0000
# 6 0.0000 0.0000 0.0000 -8.1491 0.0000 23.2497
#
#
#
# Elastic Compliance Matrix: (Units=1/GPa)
#
#
# Indices 1 2 3 4 5 6 
#
# 1 0.018217 -0.001933 -0.003485 0.000000 -0.002162 0.000000
# 2 -0.001933 0.014894 -0.005894 0.000000 0.004381 0.000000
# 3 -0.003485 -0.005894 0.010426 0.000000 -0.001425 0.000000
# 4 0.000000 0.000000 0.000000 0.021455 0.000000 0.007520
# 5 -0.002162 0.004381 -0.001425 0.000000 0.032721 0.000000
# 6 0.000000 0.000000 0.000000 0.007520 0.000000 0.045647
#
#
# Mechanical properties :
#
#
# Convention : Reuss Voigt Hill
#
# Bulk Modulus (GPa) = 47.81379 58.81384 53.31382
# Shear Modulus (GPa) = 28.90908 33.40080 31.15494
#
# Velocity S-wave (km/s) = 3.49420 3.75586 3.62739
# Velocity P-wave (km/s) = 6.03928 6.60667 6.32933
#
# Compressibility (1/GPa) = 0.02091447
#
# Stress axis : x y z
#
# Youngs Moduli (GPa) = 54.89274 67.13963 95.91315
#
# Poissons Ratio (x) = 0.12976 0.33424
# Poissons Ratio (y) = 0.10609 0.56533
# Poissons Ratio (z) = 0.19129 0.39573
#
# Static dielectric constant tensor:
#      x y z
#    x 4.261030 0.000000 -0.157090 
#    y 0.000000 4.074680 0.000000 
#    z -0.157090 0.000000 4.350210 
# 
# 
# High freq. dielectric constant tensor:
#      x y z
#    x 1.928350 0.000000 -0.009830 
#    y 0.000000 1.932090 0.000000 
#    z -0.009830 0.000000 1.953750 
# 
# From -- ./inp_files/247533.got.cif
#   From: 2010.06.25/outbox.cif.g09.slc.cpg/sg15_124_cif.got.tgz:247533.got - 2010.06.28 07:06:18.
