data_PCOD8150144
_publ_section_title
;
Structure prediction by ZEFSAII (Michael W. Deem and Ramdas Pophale) SiO2 
 PCOD8150144
Probable space group: C 2/C
;
_chemical_formula_sum "Si O2"
_cell_formula_units_Z 40
_cell_length_a 9.259943
_cell_length_b 10.224204
_cell_length_c 23.515905
_cell_angle_alpha 90.000000
_cell_angle_beta 52.232103
_cell_angle_gamma 90.000000
_cell_volume 1759.950520
_symmetry_space_group_name_H-M "C 2/C"
_symmetry_group_IT_number 15
_symmetry_cell_setting 'monoclinic'
loop_
_space_group_symop_operation_xyz
x,y,z
-x,y,1/2-z
-x,-y,-z
x,-y,1/2+z
1/2+x,1/2+y,z
1/2-x,1/2+y,1/2-z
1/2-x,1/2-y,-z
1/2+x,1/2-y,1/2+z
loop_
_atom_site_type_symbol
_atom_site_label
_atom_site_fract_x
_atom_site_fract_y
_atom_site_fract_z
Si Si1 0.456696 0.348610 0.173730
Si Si2 0.047435 0.641233 0.799761
Si Si3 0.533785 0.094807 0.104721
Si Si4 0.598476 0.464402 0.033912
Si Si5 0.665175 0.596995 0.126592
O O1 0.265464 0.352846 0.251945
O O2 0.529823 0.199099 0.158123
O O3 0.588461 0.457839 0.170423
O O4 0.454190 0.378151 0.105591
O O5 0.967823 0.550232 0.868459
O O6 0.000000 0.579997 0.750000
O O7 0.966379 0.786444 0.822790
O O8 0.718271 0.115812 0.024623
O O9 0.366238 0.118240 0.102190
O O10 0.500000 0.500000 0.000000
O O11 0.660812 0.588363 0.058331
#
# Coordination Sequence:
#
# PCOD8150144 Si02
#       5
#     8   8   8   8   8
#     4  10  24  44  69 101 142 178 234 286 344 417
#     4  12  24  45  71 101 142 185 232 289 355 414
#     4  12  24  47  73  99 143 185 235 291 348 419
#     4  10  24  46  72 106 140 186 236 289 353 416
#     4  10  26  45  71 104 139 182 237 289 347 421
#
# _framework density 22.727912
#
# number of rings (size 3 to 8) (size 9 to 14) (size 15 to 20)
#    1.200    0.000    2.000    3.600    0.000    2.400 
#    3.600    0.000    0.000    0.000    0.000    0.000 
#    0.000    0.000    0.000    0.000    0.000    0.000 
#
# Total GULP energy -247816.585110 kJ/mol
# GULP energy per Si atom -12390.829256 kJ/mol
# Density = 2.267618 g / cm^3
# Si number density = 22.727912 Si / 1000 Ang^3
#
#
#
# Elastic Constant Matrix: (Units=GPa)
#
#
# Indices 1 2 3 4 5 6 
#
# 1 96.6965 41.0062 36.5637 0.0000 -8.3357 0.0000
# 2 41.0062 118.3029 25.0123 0.0000 -4.1078 0.0000
# 3 36.5637 25.0123 87.9732 0.0000 -5.6519 0.0000
# 4 0.0000 0.0000 0.0000 32.5490 0.0000 -2.8414
# 5 -8.3357 -4.1078 -5.6519 0.0000 38.3748 0.0000
# 6 0.0000 0.0000 0.0000 -2.8414 0.0000 17.8004
#
#
#
# Elastic Compliance Matrix: (Units=1/GPa)
#
#
# Indices 1 2 3 4 5 6 
#
# 1 0.013825 -0.003763 -0.004552 0.000000 0.001930 0.000000
# 2 -0.003763 0.010031 -0.001284 0.000000 0.000067 0.000000
# 3 -0.004552 -0.001284 0.013681 0.000000 0.000889 0.000000
# 4 0.000000 0.000000 0.000000 0.031157 0.000000 0.004973
# 5 0.001930 0.000067 0.000889 0.000000 0.026616 0.000000
# 6 0.000000 0.000000 0.000000 0.004973 0.000000 0.056972
#
#
# Mechanical properties :
#
#
# Convention : Reuss Voigt Hill
#
# Bulk Modulus (GPa) = 54.52618 56.45967 55.49292
# Shear Modulus (GPa) = 28.15431 31.10421 29.62926
#
# Velocity S-wave (km/s) = 3.52341 3.70340 3.61453
# Velocity P-wave (km/s) = 6.37146 6.57133 6.47217
#
# Compressibility (1/GPa) = 0.01833981
#
# Stress axis : x y z
#
# Youngs Moduli (GPa) = 72.33328 99.69276 73.09292
#
# Poissons Ratio (x) = 0.37510 0.33274
# Poissons Ratio (y) = 0.27216 0.09384
# Poissons Ratio (z) = 0.32928 0.12799
#
# Static dielectric constant tensor:
#      x y z
#    x 3.926310 0.000000 -0.085430 
#    y 0.000000 4.194910 0.000000 
#    z -0.085430 0.000000 4.130950 
# 
# 
# High freq. dielectric constant tensor:
#      x y z
#    x 1.883210 0.000000 -0.009590 
#    y 0.000000 1.897930 0.000000 
#    z -0.009590 0.000000 1.905200 
# 
# From -- ./inp_files/291014.got.cif
#   From: 2010.06.25/outbox.cif.g09.slc.cpg/sg15_146_cif.got.tgz:291014.got - 2010.06.28 07:06:18.
