data_PCOD8150658
_publ_section_title
;
Structure prediction by ZEFSAII (Michael W. Deem and Ramdas Pophale) SiO2 
 PCOD8150658
Probable space group: C 2/C
;
_chemical_formula_sum "Si O2"
_cell_formula_units_Z 44
_cell_length_a 5.329532
_cell_length_b 13.629750
_cell_length_c 26.899217
_cell_angle_alpha 90.000000
_cell_angle_beta 115.767121
_cell_angle_gamma 90.000000
_cell_volume 1759.678373
_symmetry_space_group_name_H-M "C 2/C"
_symmetry_group_IT_number 15
_symmetry_cell_setting 'monoclinic'
loop_
_space_group_symop_operation_xyz
x,y,z
-x,y,1/2-z
-x,-y,-z
x,-y,1/2+z
1/2+x,1/2+y,z
1/2-x,1/2+y,1/2-z
1/2-x,1/2-y,-z
1/2+x,1/2-y,1/2+z
loop_
_atom_site_type_symbol
_atom_site_label
_atom_site_fract_x
_atom_site_fract_y
_atom_site_fract_z
Si Si1 0.432605 0.834196 0.577928
Si Si2 0.718309 0.457220 0.081539
Si Si3 0.366969 0.861651 0.462043
Si Si4 0.576783 0.926843 0.202003
Si Si5 0.251797 0.133133 0.305044
Si Si6 0.000000 0.756105 0.250000
O O1 0.520270 0.840902 0.527737
O O2 0.246400 0.738270 0.571487
O O3 0.719474 0.830119 0.635357
O O4 0.252231 0.926029 0.582055
O O5 0.392570 0.433356 0.047129
O O6 0.909461 0.408989 0.055294
O O7 0.807990 0.414983 0.143303
O O8 0.500000 0.963969 0.250000
O O9 0.732531 0.824489 0.219418
O O10 0.761276 0.014795 0.194682
O O11 0.509896 0.184445 0.298770
O O12 0.000000 0.175608 0.250000
#
# Coordination Sequence:
#
# PCOD8150658 Si02
#       6
#     8   8   8   8   8   4
#     4  10  25  45  70 102 144 179 235 292 342 418
#     4  11  26  45  73 102 141 182 234 288 350 407
#     4  11  25  48  71 107 135 189 234 282 352 412
#     4  11  25  43  67 100 136 181 230 286 340 419
#     4  11  24  45  66 102 136 180 227 285 347 410
#     4  12  24  42  68  92 138 178 228 276 352 408
#
# _framework density 25.004570000000001
#
# number of rings (size 3 to 8) (size 9 to 14) (size 15 to 20)
#    0.000    1.091    1.818    2.727    7.636    4.364 
#    3.273    0.000    0.000    0.000    0.000    0.000 
#    0.000    0.000    0.000    0.000    0.000    0.000 
#
# Total GULP energy -272684.267488 kJ/mol
# GULP energy per Si atom -12394.739431 kJ/mol
# Density = 2.494766 g / cm^3
# Si number density = 25.004570 Si / 1000 Ang^3
#
#
#
# Elastic Constant Matrix: (Units=GPa)
#
#
# Indices 1 2 3 4 5 6 
#
# 1 59.7928 3.7256 34.8123 0.0000 -10.0017 0.0000
# 2 3.7256 127.5127 9.4853 0.0000 1.3748 0.0000
# 3 34.8123 9.4853 195.3647 0.0000 6.9006 -0.0001
# 4 0.0000 0.0000 0.0000 29.3706 0.0000 1.4241
# 5 -10.0017 1.3748 6.9006 0.0000 25.8529 0.0000
# 6 0.0000 0.0000 -0.0001 1.4241 0.0000 32.1281
#
#
#
# Elastic Compliance Matrix: (Units=1/GPa)
#
#
# Indices 1 2 3 4 5 6 
#
# 1 0.020570 -0.000403 -0.003965 0.000000 0.009038 0.000000
# 2 -0.000403 0.007881 -0.000293 0.000000 -0.000497 0.000000
# 3 -0.003965 -0.000293 0.005949 0.000000 -0.003106 0.000000
# 4 0.000000 0.000000 0.000000 0.034121 0.000000 -0.001512
# 5 0.009038 -0.000497 -0.003106 0.000000 0.043032 0.000000
# 6 0.000000 0.000000 0.000000 -0.001512 0.000000 0.031192
#
#
# Mechanical properties :
#
#
# Convention : Reuss Voigt Hill
#
# Bulk Modulus (GPa) = 39.87747 53.19073 46.53410
# Shear Modulus (GPa) = 31.16661 39.78013 35.47337
#
# Velocity S-wave (km/s) = 3.53432 3.99295 3.77062
# Velocity P-wave (km/s) = 5.71296 6.52509 6.13249
#
# Compressibility (1/GPa) = 0.02507682
#
# Stress axis : x y z
#
# Youngs Moduli (GPa) = 48.61509 126.88242 168.09235
#
# Poissons Ratio (x) = 0.05120 0.66648
# Poissons Ratio (y) = 0.01962 0.04928
# Poissons Ratio (z) = 0.19276 0.03720
#
# Static dielectric constant tensor:
#      x y z
#    x 4.068100 0.000000 -0.025550 
#    y 0.000000 4.623480 0.000000 
#    z -0.025550 0.000000 5.102970 
# 
# 
# High freq. dielectric constant tensor:
#      x y z
#    x 1.954670 0.000000 -0.002340 
#    y 0.000000 2.020090 0.000000 
#    z -0.002340 0.000000 2.023430 
# 
# From -- ./inp_files/260349.got.cif
#   From: 2010.06.25/outbox.cif.g09.slc.cpg/sg15_131_cif.got.tgz:260349.got - 2010.06.28 07:06:18.
