data_PCOD8150092
_publ_section_title
;
Structure prediction by ZEFSAII (Michael W. Deem and Ramdas Pophale) SiO2 
 PCOD8150092
Probable space group: C 2/C
;
_chemical_formula_sum "Si O2"
_cell_formula_units_Z 64
_cell_length_a 15.375606
_cell_length_b 16.513005
_cell_length_c 16.876756
_cell_angle_alpha 90.000000
_cell_angle_beta 140.990252
_cell_angle_gamma 90.000000
_cell_volume 2697.182656
_symmetry_space_group_name_H-M "C 2/C"
_symmetry_group_IT_number 15
_symmetry_cell_setting 'monoclinic'
loop_
_space_group_symop_operation_xyz
x,y,z
-x,y,1/2-z
-x,-y,-z
x,-y,1/2+z
1/2+x,1/2+y,z
1/2-x,1/2+y,1/2-z
1/2-x,1/2-y,-z
1/2+x,1/2-y,1/2+z
loop_
_atom_site_type_symbol
_atom_site_label
_atom_site_fract_x
_atom_site_fract_y
_atom_site_fract_z
Si Si1 0.214170 0.084621 0.027908
Si Si2 0.361587 0.679037 0.309799
Si Si3 0.158963 0.461678 0.041133
Si Si4 0.998485 0.211296 0.656053
Si Si5 0.140047 0.908763 0.021015
Si Si6 0.153748 0.896744 0.857517
Si Si7 0.090589 0.384437 0.700840
Si Si8 0.727234 0.851405 0.228559
O O1 0.360357 0.092144 0.176193
O O2 0.130852 0.006110 0.001777
O O3 0.242949 0.079333 0.955118
O O4 0.128383 0.167412 0.978810
O O5 0.490473 0.628445 0.436179
O O6 0.359496 0.678522 0.212083
O O7 0.225943 0.634979 0.246117
O O8 0.373450 0.773314 0.341257
O O9 0.221932 0.551049 0.093001
O O10 0.159168 0.420164 0.126945
O O11 0.998298 0.458400 0.899265
O O12 0.988041 0.306873 0.631234
O O13 0.132671 0.174196 0.712761
O O14 0.000000 0.192828 0.750000
O O15 0.248044 0.886877 0.166108
O O16 0.193755 0.870551 0.975359
O O17 0.000000 0.940030 0.750000
#
# Coordination Sequence:
#
# PCOD8150092 Si02
#       8
#     8   8   8   8   8   8   8   8
#     4  11  24  44  69  97 135 183 238 273 329 408
#     4  10  24  44  66 101 135 177 230 277 343 404
#     4  11  24  41  66  99 139 178 219 279 346 406
#     4  11  23  38  64  97 135 182 221 269 333 401
#     4  10  24  46  73 100 125 179 243 291 327 394
#     4   9  22  46  74  97 129 176 238 289 331 396
#     4  11  26  40  61  99 145 183 218 273 345 419
#     4  11  25  39  66 102 135 171 224 282 344 398
#
# _framework density 23.728463000000001
#
# number of rings (size 3 to 8) (size 9 to 14) (size 15 to 20)
#    0.000    1.500    1.250    1.875   14.000    3.000 
#    0.000    0.000    0.000    0.000    0.000    0.000 
#    0.000    0.000    0.000    0.000    0.000    0.000 
#
# Total GULP energy -396691.863292 kJ/mol
# GULP energy per Si atom -12396.620728 kJ/mol
# Density = 2.367446 g / cm^3
# Si number density = 23.728463 Si / 1000 Ang^3
#
#
#
# Elastic Constant Matrix: (Units=GPa)
#
#
# Indices 1 2 3 4 5 6 
#
# 1 72.6344 42.3053 36.9521 0.0000 -15.7468 0.0000
# 2 42.3053 76.4348 40.8608 -0.0001 4.8835 0.0000
# 3 36.9521 40.8608 131.8745 0.0000 -13.9690 0.0000
# 4 0.0000 -0.0001 0.0000 21.5425 0.0000 -5.6698
# 5 -15.7468 4.8835 -13.9690 0.0000 44.9973 0.0000
# 6 0.0000 0.0000 0.0000 -5.6698 0.0000 36.8428
#
#
#
# Elastic Compliance Matrix: (Units=1/GPa)
#
#
# Indices 1 2 3 4 5 6 
#
# 1 0.024354 -0.013141 -0.001756 0.000000 0.009404 0.000000
# 2 -0.013141 0.023266 -0.004427 0.000000 -0.008498 0.000000
# 3 -0.001756 -0.004427 0.009753 0.000000 0.002894 0.000000
# 4 0.000000 0.000000 0.000000 0.048379 0.000000 0.007445
# 5 0.009404 -0.008498 0.002894 0.000000 0.027335 0.000000
# 6 0.000000 0.000000 0.000000 0.007445 0.000000 0.028288
#
#
# Mechanical properties :
#
#
# Convention : Reuss Voigt Hill
#
# Bulk Modulus (GPa) = 53.40646 57.90890 55.65768
# Shear Modulus (GPa) = 24.24065 31.39825 27.81945
#
# Velocity S-wave (km/s) = 3.19969 3.64157 3.42776
# Velocity P-wave (km/s) = 6.01722 6.49147 6.25884
#
# Compressibility (1/GPa) = 0.01872433
#
# Stress axis : x y z
#
# Youngs Moduli (GPa) = 41.06146 42.98126 102.53057
#
# Poissons Ratio (x) = 0.56483 0.18006
# Poissons Ratio (y) = 0.53960 0.45388
# Poissons Ratio (z) = 0.07211 0.19027
#
# Static dielectric constant tensor:
#      x y z
#    x 4.417660 0.000000 -0.245710 
#    y 0.000000 4.157370 0.000000 
#    z -0.245710 0.000000 4.315020 
# 
# 
# High freq. dielectric constant tensor:
#      x y z
#    x 1.954500 0.000000 -0.015390 
#    y 0.000000 1.916540 0.000000 
#    z -0.015390 0.000000 1.940960 
# 
# From -- ./inp_files/206462.got.cif
#   From: 2010.06.25/outbox.cif.g09.slc.cpg/sg15_104_cif.got.tgz:206462.got - 2010.06.28 07:06:18.
