data_PCOD8150964
_publ_section_title
;
Structure prediction by ZEFSAII (Michael W. Deem and Ramdas Pophale) SiO2 
 PCOD8150964
Probable space group: C 2/C
;
_chemical_formula_sum "Si O2"
_cell_formula_units_Z 64
_cell_length_a 21.048793
_cell_length_b 22.201432
_cell_length_c 10.171695
_cell_angle_alpha 90.000000
_cell_angle_beta 61.262544
_cell_angle_gamma 90.000000
_cell_volume 4167.906086
_symmetry_space_group_name_H-M "C 2/C"
_symmetry_group_IT_number 15
_symmetry_cell_setting 'monoclinic'
loop_
_space_group_symop_operation_xyz
x,y,z
-x,y,1/2-z
-x,-y,-z
x,-y,1/2+z
1/2+x,1/2+y,z
1/2-x,1/2+y,1/2-z
1/2-x,1/2-y,-z
1/2+x,1/2-y,1/2+z
loop_
_atom_site_type_symbol
_atom_site_label
_atom_site_fract_x
_atom_site_fract_y
_atom_site_fract_z
Si Si1 0.418469 0.256693 0.986558
Si Si2 0.083347 0.564881 0.678426
Si Si3 0.781115 0.183736 0.321793
Si Si4 0.416319 0.924079 0.824945
Si Si5 0.858103 0.632556 0.638432
Si Si6 0.418872 0.744520 0.176805
Si Si7 0.779793 0.182388 0.613717
Si Si8 0.141759 0.633358 0.375948
O O1 0.500093 0.277531 0.937024
O O2 0.408071 0.242165 0.842365
O O3 0.362991 0.310641 0.083269
O O4 0.401430 0.196290 0.084758
O O5 0.092813 0.494572 0.642507
O O6 0.112016 0.581100 0.794503
O O7 0.129073 0.600358 0.525785
O O8 0.000000 0.584746 0.750000
O O9 0.864048 0.190550 0.186871
O O10 0.779941 0.153609 0.467691
O O11 0.751645 0.250986 0.361993
O O12 0.728840 0.145199 0.278254
O O13 0.500000 0.904827 0.750000
O O14 0.384654 0.908392 0.714693
O O15 0.370249 0.888144 0.978023
O O16 0.902054 0.694015 0.617565
O O17 0.771261 0.641528 0.743030
#
# Coordination Sequence:
#
# PCOD8150964 Si02
#       8
#     8   8   8   8   8   8   8   8
#     4   9  15  25  46  70  89 111 143 176 210 255
#     4  11  20  32  47  60  79 115 156 183 208 244
#     4   8  14  26  43  65  85 109 144 177 205 252
#     4  11  24  32  39  62  91 113 148 189 210 242
#     4  11  18  31  46  61  87 120 144 175 218 252
#     4   9  15  25  46  70  89 111 143 176 210 255
#     4   8  14  26  43  65  85 109 144 177 205 252
#     4  11  18  31  46  61  87 120 144 175 218 252
#
# _framework density 15.355433
#
# number of rings (size 3 to 8) (size 9 to 14) (size 15 to 20)
#    0.000    2.250    2.500    4.500    0.000    2.000 
#    0.000    5.625    0.000    0.000    0.000    0.000 
#    0.000    6.000    0.000    0.000    0.000    0.000 
#
# Total GULP energy -396629.424197 kJ/mol
# GULP energy per Si atom -12394.669506 kJ/mol
# Density = 1.532048 g / cm^3
# Si number density = 15.355433 Si / 1000 Ang^3
#
#
#
# Elastic Constant Matrix: (Units=GPa)
#
#
# Indices 1 2 3 4 5 6 
#
# 1 103.6864 28.7108 24.5828 0.0000 -28.3727 0.0000
# 2 28.7108 36.1960 15.3977 0.0000 -11.1819 0.0000
# 3 24.5828 15.3977 45.8918 0.0000 -12.8811 0.0000
# 4 0.0000 0.0000 0.0000 12.8196 0.0000 -3.6588
# 5 -28.3727 -11.1819 -12.8811 0.0000 28.2661 0.0000
# 6 0.0000 0.0000 0.0000 -3.6588 0.0000 16.1676
#
#
#
# Elastic Compliance Matrix: (Units=1/GPa)
#
#
# Indices 1 2 3 4 5 6 
#
# 1 0.015478 -0.007700 -0.002525 0.000000 0.011340 0.000000
# 2 -0.007700 0.038171 -0.007583 0.000000 0.003915 0.000000
# 3 -0.002525 -0.007583 0.027674 0.000000 0.007077 0.000000
# 4 0.000000 0.000000 0.000000 0.083392 0.000000 0.018872
# 5 0.011340 0.003915 0.007077 0.000000 0.051534 0.000000
# 6 0.000000 0.000000 0.000000 0.018872 0.000000 0.066123
#
#
# Mechanical properties :
#
#
# Convention : Reuss Voigt Hill
#
# Bulk Modulus (GPa) = 21.87907 35.90630 28.89268
# Shear Modulus (GPa) = 15.00494 19.25620 17.13057
#
# Velocity S-wave (km/s) = 3.12937 3.54507 3.34369
# Velocity P-wave (km/s) = 5.22844 6.33963 5.81066
#
# Compressibility (1/GPa) = 0.04570579
#
# Stress axis : x y z
#
# Youngs Moduli (GPa) = 64.60662 26.19815 36.13551
#
# Poissons Ratio (x) = 0.20173 0.09123
# Poissons Ratio (y) = 0.49748 0.27403
# Poissons Ratio (z) = 0.16311 0.19867
#
# Static dielectric constant tensor:
#      x y z
#    x 3.290770 0.000000 -0.322890 
#    y 0.000000 2.677010 0.000000 
#    z -0.322890 0.000000 2.856590 
# 
# 
# High freq. dielectric constant tensor:
#      x y z
#    x 1.590820 0.000000 -0.013080 
#    y 0.000000 1.549850 0.000000 
#    z -0.013080 0.000000 1.570700 
# 
# From -- ./inp_files/63706.got.cif
#   From: 2010.06.25/outbox.cif.g09.slc.cpg/sg15_32_cif.got.tgz:63706.got - 2010.06.28 07:06:18.
