data_PCOD8150581
_publ_section_title
;
Structure prediction by ZEFSAII (Michael W. Deem and Ramdas Pophale) SiO2 
 PCOD8150581
Probable space group: C 2/C
;
_chemical_formula_sum "Si O2"
_cell_formula_units_Z 64
_cell_length_a 9.772672
_cell_length_b 10.687229
_cell_length_c 30.411698
_cell_angle_alpha 90.000000
_cell_angle_beta 98.203347
_cell_angle_gamma 90.000000
_cell_volume 3143.782346
_symmetry_space_group_name_H-M "C 2/C"
_symmetry_group_IT_number 15
_symmetry_cell_setting 'monoclinic'
loop_
_space_group_symop_operation_xyz
x,y,z
-x,y,1/2-z
-x,-y,-z
x,-y,1/2+z
1/2+x,1/2+y,z
1/2-x,1/2+y,1/2-z
1/2-x,1/2-y,-z
1/2+x,1/2-y,1/2+z
loop_
_atom_site_type_symbol
_atom_site_label
_atom_site_fract_x
_atom_site_fract_y
_atom_site_fract_z
Si Si1 0.549874 0.631771 0.091357
Si Si2 0.645710 0.070116 0.000017
Si Si3 0.358542 0.360131 0.004114
Si Si4 0.026664 0.853254 0.098199
Si Si5 0.653750 0.085783 0.267026
Si Si6 0.196492 0.741961 0.348588
Si Si7 0.661143 0.363706 0.261269
Si Si8 0.275324 0.757234 0.070439
O O1 0.547241 0.496258 0.113685
O O2 0.664586 0.723349 0.117173
O O3 0.399113 0.680056 0.096783
O O4 0.568262 0.626722 0.039600
O O5 0.654179 0.124981 0.951242
O O6 0.666905 0.181424 0.035168
O O7 0.500000 0.000000 0.000000
O O8 0.775864 0.982425 0.013736
O O9 0.476162 0.342291 0.045541
O O10 0.250000 0.250000 0.000000
O O11 0.929218 0.772388 0.124847
O O12 0.182151 0.799892 0.107209
O O13 0.500000 0.037983 0.250000
O O14 0.665063 0.114324 0.319941
O O15 0.684061 0.220297 0.243211
O O16 0.756176 0.972970 0.259462
O O17 0.209644 0.858247 0.314816
O O18 0.500000 0.398104 0.250000
#
# Coordination Sequence:
#
# PCOD8150581 Si02
#       8
#     8   8   8   8   8   8   8   8
#     4  12  24  42  61  96 137 178 227 274 325 388
#     4  11  22  38  61  88 118 168 246 280 311 385
#     4  12  21  40  63  86 131 190 225 270 328 375
#     4  12  24  43  61  93 139 181 222 278 327 384
#     4   9  21  46  72 102 133 168 213 266 343 422
#     4  10  25  43  67 101 133 170 217 274 335 399
#     4   9  21  45  73 100 132 168 212 269 340 420
#     4  11  24  40  60  90 121 172 226 277 327 371
#
# _framework density 20.357645000000002
#
# number of rings (size 3 to 8) (size 9 to 14) (size 15 to 20)
#    0.750    0.500    3.750    3.375    1.750    0.500 
#    4.500    0.000    0.000    0.000    0.000    0.000 
#    0.000    0.000    0.000    0.000    0.000    0.000 
#
# Total GULP energy -396545.251499 kJ/mol
# GULP energy per Si atom -12392.039109 kJ/mol
# Density = 2.031131 g / cm^3
# Si number density = 20.357645 Si / 1000 Ang^3
#
#
#
# Elastic Constant Matrix: (Units=GPa)
#
#
# Indices 1 2 3 4 5 6 
#
# 1 157.6287 72.7127 45.4115 0.0000 -18.5196 0.0000
# 2 72.7127 116.9589 26.4331 0.0000 -19.1038 0.0000
# 3 45.4115 26.4331 89.4812 0.0000 -5.2307 0.0000
# 4 0.0000 0.0000 0.0000 11.5821 0.0000 -2.6664
# 5 -18.5196 -19.1038 -5.2307 0.0000 11.7880 0.0000
# 6 0.0000 0.0000 0.0000 -2.6664 0.0000 47.5848
#
#
#
# Elastic Compliance Matrix: (Units=1/GPa)
#
#
# Indices 1 2 3 4 5 6 
#
# 1 0.010231 -0.004355 -0.003468 0.000000 0.007475 0.000000
# 2 -0.004355 0.014005 -0.001027 0.000000 0.015398 0.000000
# 3 -0.003468 -0.001027 0.013165 0.000000 -0.001271 0.000000
# 4 0.000000 0.000000 0.000000 0.087468 0.000000 0.004901
# 5 0.007475 0.015398 -0.001271 0.000000 0.120967 0.000000
# 6 0.000000 0.000000 0.000000 0.004901 0.000000 0.021290
#
#
# Mechanical properties :
#
#
# Convention : Reuss Voigt Hill
#
# Bulk Modulus (GPa) = 50.76321 72.57593 61.66957
# Shear Modulus (GPa) = 17.15897 28.82508 22.99202
#
# Velocity S-wave (km/s) = 2.90638 3.76697 3.36431
# Velocity P-wave (km/s) = 6.02101 7.39243 6.74168
#
# Compressibility (1/GPa) = 0.01969930
#
# Stress axis : x y z
#
# Youngs Moduli (GPa) = 97.74551 71.40342 75.96067
#
# Poissons Ratio (x) = 0.31099 0.26346
# Poissons Ratio (y) = 0.42573 0.07798
# Poissons Ratio (z) = 0.33902 0.07330
#
# Static dielectric constant tensor:
#      x y z
#    x 4.012040 0.000000 -0.071320 
#    y 0.000000 3.826630 0.000000 
#    z -0.071320 0.000000 3.503920 
# 
# 
# High freq. dielectric constant tensor:
#      x y z
#    x 1.809890 0.000000 0.005120 
#    y 0.000000 1.801380 0.000000 
#    z 0.005120 0.000000 1.763310 
# 
# From -- ./inp_files/307482.got.cif
#   From: 2010.06.25/outbox.cif.g09.slc.cpg/sg15_154_cif.got.tgz:307482.got - 2010.06.28 07:06:18.
