data_PCOD8150075
_publ_section_title
;
Structure prediction by ZEFSAII (Michael W. Deem and Ramdas Pophale) SiO2 
 PCOD8150075
Probable space group: C 2/C
;
_chemical_formula_sum "Si O2"
_cell_formula_units_Z 48
_cell_length_a 11.536917
_cell_length_b 8.816698
_cell_length_c 21.137134
_cell_angle_alpha 90.000000
_cell_angle_beta 92.301961
_cell_angle_gamma 90.000000
_cell_volume 2148.281685
_symmetry_space_group_name_H-M "C 2/C"
_symmetry_group_IT_number 15
_symmetry_cell_setting 'monoclinic'
loop_
_space_group_symop_operation_xyz
x,y,z
-x,y,1/2-z
-x,-y,-z
x,-y,1/2+z
1/2+x,1/2+y,z
1/2-x,1/2+y,1/2-z
1/2-x,1/2-y,-z
1/2+x,1/2-y,1/2+z
loop_
_atom_site_type_symbol
_atom_site_label
_atom_site_fract_x
_atom_site_fract_y
_atom_site_fract_z
Si Si1 0.186908 0.410985 0.992664
Si Si2 0.398401 0.614118 0.013813
Si Si3 0.408982 0.644856 0.163421
Si Si4 0.544472 0.892961 0.571410
Si Si5 0.000000 0.103134 0.750000
Si Si6 0.152439 0.352526 0.706036
Si Si7 0.500000 0.893876 0.250000
O O1 0.280641 0.542364 0.983844
O O2 0.110515 0.449872 0.054107
O O3 0.250000 0.250000 0.000000
O O4 0.095761 0.410290 0.932308
O O5 0.388469 0.640526 0.088558
O O6 0.500000 0.500000 0.000000
O O7 0.417992 0.773047 0.981109
O O8 0.482602 0.498984 0.186967
O O9 0.288550 0.644234 0.198781
O O10 0.479186 0.794290 0.186392
O O11 0.579676 0.836958 0.640219
O O12 0.115410 0.205429 0.745405
O O13 0.114114 0.504609 0.741459
#
# Coordination Sequence:
#
# PCOD8150075 Si02
#       7
#     8   8   8   8   4   8   4
#     4  11  24  42  62  96 134 168 210 262 328 393
#     4  12  24  42  67 100 136 174 212 264 338 396
#     4  11  24  44  66  91 136 168 218 271 321 388
#     4  11  25  41  67  99 132 171 214 268 332 395
#     4  10  24  44  64  96 122 174 222 270 322 382
#     4  11  23  44  69  92 130 167 224 271 324 381
#     4  10  26  42  68  96 120 178 224 268 320 380
#
# _framework density 22.343440000000001
#
# number of rings (size 3 to 8) (size 9 to 14) (size 15 to 20)
#    0.000    1.000    3.333    2.500    4.667    0.000 
#    0.000    6.667    0.000    0.000    0.000    0.000 
#    0.000    0.000    0.000    0.000    0.000    0.000 
#
# Total GULP energy -297645.385942 kJ/mol
# GULP energy per Si atom -12401.891081 kJ/mol
# Density = 2.229259 g / cm^3
# Si number density = 22.343440 Si / 1000 Ang^3
#
#
#
# Elastic Constant Matrix: (Units=GPa)
#
#
# Indices 1 2 3 4 5 6 
#
# 1 115.3525 33.7842 0.7421 0.0000 1.5836 0.0000
# 2 33.7842 127.8733 38.6930 0.0000 -2.2394 0.0000
# 3 0.7421 38.6930 63.3293 0.0000 -0.8382 0.0000
# 4 0.0000 0.0000 0.0000 11.7518 0.0000 -0.8922
# 5 1.5836 -2.2394 -0.8382 0.0000 34.6620 0.0000
# 6 0.0000 0.0000 0.0000 -0.8922 0.0000 35.1720
#
#
#
# Elastic Compliance Matrix: (Units=1/GPa)
#
#
# Indices 1 2 3 4 5 6 
#
# 1 0.009565 -0.003068 0.001755 0.000000 -0.000593 0.000000
# 2 -0.003068 0.010586 -0.006423 0.000000 0.000669 0.000000
# 3 0.001755 -0.006423 0.019694 0.000000 -0.000019 0.000000
# 4 0.000000 0.000000 0.000000 0.085257 0.000000 0.002163
# 5 -0.000593 0.000669 -0.000019 0.000000 0.028920 0.000000
# 6 0.000000 0.000000 0.000000 0.002163 0.000000 0.028487
#
#
# Mechanical properties :
#
#
# Convention : Reuss Voigt Hill
#
# Bulk Modulus (GPa) = 41.03170 50.33267 45.68218
# Shear Modulus (GPa) = 24.25937 31.87288 28.06613
#
# Velocity S-wave (km/s) = 3.29865 3.78100 3.54803
# Velocity P-wave (km/s) = 5.73690 6.45267 6.10529
#
# Compressibility (1/GPa) = 0.02437140
#
# Stress axis : x y z
#
# Youngs Moduli (GPa) = 104.55257 94.46286 50.77670
#
# Poissons Ratio (x) = 0.28984 -0.08910
# Poissons Ratio (y) = 0.32080 0.32615
# Poissons Ratio (z) = -0.18346 0.60675
#
# Static dielectric constant tensor:
#      x y z
#    x 4.070170 0.000000 -0.059030 
#    y 0.000000 5.366400 0.000000 
#    z -0.059030 0.000000 3.742240 
# 
# 
# High freq. dielectric constant tensor:
#      x y z
#    x 1.894030 0.000000 0.003680 
#    y 0.000000 1.898800 0.000000 
#    z 0.003680 0.000000 1.861790 
# 
# From -- ./inp_files/267753.got.cif
#   From: 2010.06.25/outbox.cif.g09.slc.cpg/sg15_134_cif.got.tgz:267753.got - 2010.06.28 07:06:18.
