data_PCOD8150816
_publ_section_title
;
Structure prediction by ZEFSAII (Michael W. Deem and Ramdas Pophale) SiO2 
 PCOD8150816
Probable space group: C 2/C
;
_chemical_formula_sum "Si O2"
_cell_formula_units_Z 64
_cell_length_a 29.335065
_cell_length_b 22.107087
_cell_length_c 14.127238
_cell_angle_alpha 90.000000
_cell_angle_beta 18.728592
_cell_angle_gamma 90.000000
_cell_volume 2941.688677
_symmetry_space_group_name_H-M "C 2/C"
_symmetry_group_IT_number 15
_symmetry_cell_setting 'monoclinic'
loop_
_space_group_symop_operation_xyz
x,y,z
-x,y,1/2-z
-x,-y,-z
x,-y,1/2+z
1/2+x,1/2+y,z
1/2-x,1/2+y,1/2-z
1/2-x,1/2-y,-z
1/2+x,1/2-y,1/2+z
loop_
_atom_site_type_symbol
_atom_site_label
_atom_site_fract_x
_atom_site_fract_y
_atom_site_fract_z
Si Si1 0.406806 0.058119 0.667772
Si Si2 0.713685 0.546408 0.211483
Si Si3 0.054437 0.887885 0.303297
Si Si4 0.834603 0.178232 0.595380
Si Si5 0.166820 0.756943 0.066115
Si Si6 0.808738 0.000799 0.542119
Si Si7 0.060827 0.338376 0.528208
Si Si8 0.574519 0.429351 0.464194
O O1 0.483478 0.115735 0.469761
O O2 0.500000 0.000000 0.500000
O O3 0.296665 0.044480 0.802549
O O4 0.340633 0.075708 0.900576
O O5 0.590630 0.596866 0.468339
O O6 0.756482 0.518677 0.228325
O O7 0.660119 0.487970 0.255922
O O8 0.123742 0.826010 0.133075
O O9 0.017297 0.889867 0.488416
O O10 0.170272 0.939217 0.056458
O O11 0.826180 0.114690 0.668644
O O12 0.773575 0.234168 0.775252
O O13 0.732238 0.171969 0.703678
O O14 0.000000 0.192531 0.250000
O O15 0.017234 0.722083 0.353830
O O16 0.250000 0.750000 0.000000
O O17 0.949941 0.042033 0.274137
O O18 0.000000 0.359536 0.750000
#
# Coordination Sequence:
#
# PCOD8150816 Si02
#       8
#     8   8   8   8   8   8   8   8
#     4  12  26  39  64  97 142 179 224 281 353 414
#     4  11  23  39  65 103 133 174 218 281 354 410
#     4  11  21  41  71  97 130 174 228 281 341 413
#     4  11  23  42  75 102 132 175 239 293 342 414
#     4  11  25  45  72  94 134 189 236 285 344 406
#     4  11  23  40  67 102 134 171 219 284 353 418
#     4  10  26  45  68 100 136 187 240 283 345 426
#     4  11  18  38  71 100 129 165 223 285 338 411
#
# _framework density 21.756211
#
# number of rings (size 3 to 8) (size 9 to 14) (size 15 to 20)
#    0.000    1.000    3.750    4.500    7.000    3.000 
#    0.000    3.750    0.000    0.000    0.000    0.000 
#    0.000    0.000    0.000    0.000    0.000    0.000 
#
# Total GULP energy -396556.156112 kJ/mol
# GULP energy per Si atom -12392.379879 kJ/mol
# Density = 2.170669 g / cm^3
# Si number density = 21.756211 Si / 1000 Ang^3
#
#
#
# Elastic Constant Matrix: (Units=GPa)
#
#
# Indices 1 2 3 4 5 6 
#
# 1 87.3816 25.8420 26.4791 0.0035 10.1695 -0.0025
# 2 25.8420 124.2704 39.1548 0.0036 0.6940 -0.0041
# 3 26.4791 39.1548 90.7837 0.0031 1.7631 -0.0059
# 4 0.0035 0.0036 0.0031 32.9701 -0.0054 -2.6094
# 5 10.1695 0.6940 1.7631 -0.0054 35.3340 0.0034
# 6 -0.0025 -0.0041 -0.0059 -2.6094 0.0034 38.4217
#
#
#
# Elastic Compliance Matrix: (Units=1/GPa)
#
#
# Indices 1 2 3 4 5 6 
#
# 1 0.013320 -0.001791 -0.003042 -0.000002 -0.003647 0.000000
# 2 -0.001791 0.009553 -0.003608 0.000000 0.000508 0.000000
# 3 -0.003042 -0.003608 0.013453 0.000000 0.000275 0.000001
# 4 -0.000002 0.000000 0.000000 0.030494 0.000005 0.002071
# 5 -0.003647 0.000508 0.000275 0.000005 0.029327 -0.000002
# 6 0.000000 0.000000 0.000001 0.002071 -0.000002 0.026168
#
#
# Mechanical properties :
#
#
# Convention : Reuss Voigt Hill
#
# Bulk Modulus (GPa) = 51.42698 53.93195 52.67947
# Shear Modulus (GPa) = 34.32218 35.40914 34.86566
#
# Velocity S-wave (km/s) = 3.97619 4.03866 4.00754
# Velocity P-wave (km/s) = 6.69098 6.82574 6.75870
#
# Compressibility (1/GPa) = 0.01944505
#
# Stress axis : x y z
#
# Youngs Moduli (GPa) = 75.07576 104.67567 74.33262
#
# Poissons Ratio (x) = 0.18749 0.22610
# Poissons Ratio (y) = 0.13447 0.26817
# Poissons Ratio (z) = 0.22836 0.37764
#
# Static dielectric constant tensor:
#      x y z
#    x 3.892710 0.000000 0.176840 
#    y 0.000000 3.904750 0.000020 
#    z 0.176840 0.000020 3.827780 
# 
# 
# High freq. dielectric constant tensor:
#      x y z
#    x 1.863560 0.000000 0.000640 
#    y 0.000000 1.845990 0.000000 
#    z 0.000640 0.000000 1.839020 
# 
# From -- ./inp_files/183124.got.cif
#   From: 2010.06.25/outbox.cif.g09.slc.cpg/sg15_92_cif.got.tgz:183124.got - 2010.06.28 07:06:18.
