data_PCOD8150612
_publ_section_title
;
Structure prediction by ZEFSAII (Michael W. Deem and Ramdas Pophale) SiO2 
 PCOD8150612
Probable space group: C 2/C
;
_chemical_formula_sum "Si O2"
_cell_formula_units_Z 36
_cell_length_a 10.942799
_cell_length_b 9.077672
_cell_length_c 13.741886
_cell_angle_alpha 90.000000
_cell_angle_beta 84.547871
_cell_angle_gamma 90.000000
_cell_volume 1358.876580
_symmetry_space_group_name_H-M "C 2/C"
_symmetry_group_IT_number 15
_symmetry_cell_setting 'monoclinic'
loop_
_space_group_symop_operation_xyz
x,y,z
-x,y,1/2-z
-x,-y,-z
x,-y,1/2+z
1/2+x,1/2+y,z
1/2-x,1/2+y,1/2-z
1/2-x,1/2-y,-z
1/2+x,1/2-y,1/2+z
loop_
_atom_site_type_symbol
_atom_site_label
_atom_site_fract_x
_atom_site_fract_y
_atom_site_fract_z
Si Si1 0.749838 0.581387 0.969534
Si Si2 0.737501 0.714729 0.776632
Si Si3 0.556519 0.910366 0.899836
Si Si4 0.855605 0.825610 0.429084
Si Si5 0.000000 0.361118 0.250000
O O1 0.734091 0.576277 0.854057
O O2 0.882210 0.519767 0.004900
O O3 0.750000 0.750000 0.000000
O O4 0.637718 0.491119 0.027416
O O5 0.671704 0.860634 0.822872
O O6 0.675448 0.664155 0.682112
O O7 0.882315 0.745291 0.748528
O O8 0.482768 0.760965 0.929841
O O9 0.483662 0.035214 0.846554
O O10 0.750000 0.750000 0.500000
#
# Coordination Sequence:
#
# PCOD8150612 Si02
#       5
#     8   8   8   8   4
#     4  10  25  44  68 102 145 184 235 294 357 423
#     4  11  25  43  69 106 141 189 241 292 358 427
#     4  11  24  48  70 105 151 188 239 305 357 428
#     4  12  25  43  76 109 138 192 246 291 362 432
#     4  12  22  42  76  96 146 192 238 292 362 426
#
# _framework density 26.492471999999999
#
# number of rings (size 3 to 8) (size 9 to 14) (size 15 to 20)
#    0.000    0.889    4.444    1.333    3.111    5.333 
#    0.000    4.444    0.000    0.000    0.000    0.000 
#    0.000    0.000    0.000    0.000    0.000    0.000 
#
# Total GULP energy -223114.639637 kJ/mol
# GULP energy per Si atom -12395.257758 kJ/mol
# Density = 2.643217 g / cm^3
# Si number density = 26.492472 Si / 1000 Ang^3
#
#
#
# Elastic Constant Matrix: (Units=GPa)
#
#
# Indices 1 2 3 4 5 6 
#
# 1 105.3576 25.9417 23.6941 0.0000 -3.0755 0.0000
# 2 25.9417 93.4151 24.8626 0.0000 -8.9609 0.0000
# 3 23.6941 24.8626 192.8021 0.0000 22.7283 0.0000
# 4 0.0000 0.0000 0.0000 40.1356 0.0000 -8.8866
# 5 -3.0755 -8.9609 22.7283 0.0000 42.8011 0.0000
# 6 0.0000 0.0000 0.0000 -8.8866 0.0000 46.3169
#
#
#
# Elastic Compliance Matrix: (Units=1/GPa)
#
#
# Indices 1 2 3 4 5 6 
#
# 1 0.010370 -0.002530 -0.001039 0.000000 0.000767 0.000000
# 2 -0.002530 0.012153 -0.001637 0.000000 0.003232 0.000000
# 3 -0.001039 -0.001637 0.005947 0.000000 -0.003575 0.000000
# 4 0.000000 0.000000 0.000000 0.026021 0.000000 0.004993
# 5 0.000767 0.003232 -0.003575 0.000000 0.025994 0.000000
# 6 0.000000 0.000000 0.000000 0.004993 0.000000 0.022548
#
#
# Mechanical properties :
#
#
# Convention : Reuss Voigt Hill
#
# Bulk Modulus (GPa) = 55.37432 60.06352 57.71892
# Shear Modulus (GPa) = 41.85313 46.98915 44.42114
#
# Velocity S-wave (km/s) = 3.97900 4.21608 4.09925
# Velocity P-wave (km/s) = 6.48515 6.81334 6.65127
#
# Compressibility (1/GPa) = 0.01805891
#
# Stress axis : x y z
#
# Youngs Moduli (GPa) = 96.42854 82.28231 168.15407
#
# Poissons Ratio (x) = 0.20816 0.17465
# Poissons Ratio (y) = 0.24395 0.27532
# Poissons Ratio (z) = 0.10015 0.13472
#
# Static dielectric constant tensor:
#      x y z
#    x 5.343960 0.000000 0.190280 
#    y 0.000000 5.304300 0.000000 
#    z 0.190280 0.000000 5.982510 
# 
# 
# High freq. dielectric constant tensor:
#      x y z
#    x 2.069790 0.000000 0.000110 
#    y 0.000000 2.040570 0.000000 
#    z 0.000110 0.000000 2.096160 
# 
# From -- ./inp_files/194919.got.cif
#   From: 2010.06.25/outbox.cif.g09.slc.cpg/sg15_98_cif.got.tgz:194919.got - 2010.06.28 07:06:18.
