data_PCOD8150812
_publ_section_title
;
Structure prediction by ZEFSAII (Michael W. Deem and Ramdas Pophale) SiO2 
 PCOD8150812
Probable space group: C 2/C
;
_chemical_formula_sum "Si O2"
_cell_formula_units_Z 44
_cell_length_a 12.978043
_cell_length_b 9.016490
_cell_length_c 17.954278
_cell_angle_alpha 90.000000
_cell_angle_beta 66.755881
_cell_angle_gamma 90.000000
_cell_volume 1930.414809
_symmetry_space_group_name_H-M "C 2/C"
_symmetry_group_IT_number 15
_symmetry_cell_setting 'monoclinic'
loop_
_space_group_symop_operation_xyz
x,y,z
-x,y,1/2-z
-x,-y,-z
x,-y,1/2+z
1/2+x,1/2+y,z
1/2-x,1/2+y,1/2-z
1/2-x,1/2-y,-z
1/2+x,1/2-y,1/2+z
loop_
_atom_site_type_symbol
_atom_site_label
_atom_site_fract_x
_atom_site_fract_y
_atom_site_fract_z
Si Si1 0.030920 0.598843 0.092892
Si Si2 0.093382 0.121928 0.478156
Si Si3 0.767904 0.533262 0.165712
Si Si4 0.847079 0.746018 0.693556
Si Si5 0.500000 0.034550 0.750000
Si Si6 0.733242 0.923340 0.994017
O O1 0.060356 0.574524 0.172737
O O2 0.101235 0.468640 0.030415
O O3 0.898147 0.579884 0.120428
O O4 0.070082 0.758125 0.050005
O O5 0.090102 0.196856 0.397902
O O6 0.208047 0.032317 0.462856
O O7 0.000000 0.000000 0.500000
O O8 0.749475 0.362196 0.192429
O O9 0.704847 0.620794 0.247128
O O10 0.709748 0.552059 0.102623
O O11 0.920399 0.644221 0.727068
O O12 0.750000 0.750000 0.000000
#
# Coordination Sequence:
#
# PCOD8150812 Si02
#       6
#     8   8   8   8   4   8
#     4  11  25  49  73 106 144 195 242 306 362 437
#     4  12  29  47  74 108 150 191 250 299 368 441
#     4  11  26  44  74 102 149 183 246 297 372 433
#     4  11  27  48  70 109 144 191 240 308 362 440
#     4  10  26  44  78 100 148 190 252 294 376 420
#     4  12  26  44  76 102 143 192 241 297 368 435
#
# _framework density 22.793028
#
# number of rings (size 3 to 8) (size 9 to 14) (size 15 to 20)
#    0.000    0.727    1.818    3.273   20.364    0.000 
#    0.000    0.000    0.000    0.000    0.000    0.000 
#    0.000    0.000    0.000    0.000    0.000    0.000 
#
# Total GULP energy -272585.045699 kJ/mol
# GULP energy per Si atom -12390.229350 kJ/mol
# Density = 2.274115 g / cm^3
# Si number density = 22.793028 Si / 1000 Ang^3
#
#
#
# Elastic Constant Matrix: (Units=GPa)
#
#
# Indices 1 2 3 4 5 6 
#
# 1 53.5283 22.0678 25.1897 0.0000 8.3618 0.0000
# 2 22.0678 155.1784 80.7646 0.0000 7.9718 0.0000
# 3 25.1897 80.7646 169.0744 0.0000 23.1141 0.0000
# 4 0.0000 0.0000 0.0000 59.9341 0.0000 2.2674
# 5 8.3618 7.9718 23.1141 0.0000 40.0385 0.0000
# 6 0.0000 0.0000 0.0000 2.2674 0.0000 46.0147
#
#
#
# Elastic Compliance Matrix: (Units=1/GPa)
#
#
# Indices 1 2 3 4 5 6 
#
# 1 0.020755 -0.001863 -0.001803 0.000000 -0.002923 0.000000
# 2 -0.001863 0.008763 -0.004042 0.000000 0.000978 0.000000
# 3 -0.001803 -0.004042 0.008634 0.000000 -0.003803 0.000000
# 4 0.000000 0.000000 0.000000 0.016716 0.000000 -0.000824
# 5 -0.002923 0.000978 -0.003803 0.000000 0.027587 0.000000
# 6 0.000000 0.000000 0.000000 -0.000824 0.000000 0.021773
#
#
# Mechanical properties :
#
#
# Convention : Reuss Voigt Hill
#
# Bulk Modulus (GPa) = 43.98341 70.42503 57.20422
# Shear Modulus (GPa) = 39.30171 45.84805 42.57488
#
# Velocity S-wave (km/s) = 4.15696 4.48983 4.32660
# Velocity P-wave (km/s) = 6.50993 7.60545 7.07891
#
# Compressibility (1/GPa) = 0.02273585
#
# Stress axis : x y z
#
# Youngs Moduli (GPa) = 48.18188 114.12192 115.82443
#
# Poissons Ratio (x) = 0.21263 0.20878
# Poissons Ratio (y) = 0.08977 0.46814
# Poissons Ratio (z) = 0.08685 0.46126
#
# Static dielectric constant tensor:
#      x y z
#    x 4.136260 0.000000 -0.165610 
#    y 0.000000 4.328740 0.000000 
#    z -0.165610 0.000000 4.425320 
# 
# 
# High freq. dielectric constant tensor:
#      x y z
#    x 1.888750 0.000000 0.019090 
#    y 0.000000 1.915100 0.000000 
#    z 0.019090 0.000000 1.919580 
# 
# From -- ./inp_files/202787.got.cif
#   From: 2010.06.25/outbox.cif.g09.slc.cpg/sg15_102_cif.got.tgz:202787.got - 2010.06.28 07:06:18.
