data_PCOD8150660
_publ_section_title
;
Structure prediction by ZEFSAII (Michael W. Deem and Ramdas Pophale) SiO2 
 PCOD8150660
Probable space group: C 2/C
;
_chemical_formula_sum "Si O2"
_cell_formula_units_Z 44
_cell_length_a 13.904524
_cell_length_b 5.372664
_cell_length_c 23.199007
_cell_angle_alpha 90.000000
_cell_angle_beta 99.207277
_cell_angle_gamma 90.000000
_cell_volume 1710.737490
_symmetry_space_group_name_H-M "C 2/C"
_symmetry_group_IT_number 15
_symmetry_cell_setting 'monoclinic'
loop_
_space_group_symop_operation_xyz
x,y,z
-x,y,1/2-z
-x,-y,-z
x,-y,1/2+z
1/2+x,1/2+y,z
1/2-x,1/2+y,1/2-z
1/2-x,1/2-y,-z
1/2+x,1/2-y,1/2+z
loop_
_atom_site_type_symbol
_atom_site_label
_atom_site_fract_x
_atom_site_fract_y
_atom_site_fract_z
Si Si1 0.837838 0.847947 0.112638
Si Si2 0.583024 0.849376 0.436667
Si Si3 0.500000 0.009158 0.750000
Si Si4 0.371556 0.280504 0.320281
Si Si5 0.871443 0.478541 0.933280
Si Si6 0.658463 0.383439 0.775111
O O1 0.888062 0.085041 0.086897
O O2 0.722485 0.851006 0.088057
O O3 0.880581 0.585906 0.096605
O O4 0.857367 0.880854 0.183118
O O5 0.466437 0.851240 0.432974
O O6 0.633830 0.864133 0.503916
O O7 0.588188 0.162650 0.787872
O O8 0.536570 0.858433 0.698198
O O9 0.373816 0.258289 0.389424
O O10 0.375083 0.558918 0.294482
O O11 0.271402 0.175749 0.285161
#
# Coordination Sequence:
#
# PCOD8150660 Si02
#       6
#     8   8   4   8   8   8
#     4  11  26  45  73 101 142 181 229 286 347 410
#     4  11  25  48  72 106 135 186 233 282 347 414
#     4  12  24  42  68  92 138 178 226 278 346 404
#     4  11  24  46  65 101 137 180 226 285 341 409
#     4  10  25  45  71 103 142 179 234 290 341 409
#     4  11  25  42  68 101 135 180 229 281 340 416
#
# _framework density 25.719904
#
# number of rings (size 3 to 8) (size 9 to 14) (size 15 to 20)
#    0.000    1.091    1.818    2.727    7.636    4.364 
#    3.273    0.000    0.000    0.000    0.000    0.000 
#    0.000    0.000    0.000    0.000    0.000    0.000 
#
# Total GULP energy -272727.441421 kJ/mol
# GULP energy per Si atom -12396.701883 kJ/mol
# Density = 2.566136 g / cm^3
# Si number density = 25.719904 Si / 1000 Ang^3
#
#
#
# Elastic Constant Matrix: (Units=GPa)
#
#
# Indices 1 2 3 4 5 6 
#
# 1 126.7824 10.4703 -19.2661 0.0000 -5.9498 0.0000
# 2 10.4703 59.3383 -19.4163 0.0000 -13.2828 0.0000
# 3 -19.2661 -19.4163 46.9341 0.0000 -8.5472 0.0000
# 4 0.0000 0.0000 0.0000 25.2851 0.0000 -1.6182
# 5 -5.9498 -13.2828 -8.5472 0.0000 34.9475 0.0000
# 6 0.0000 0.0000 0.0000 -1.6182 0.0000 24.8932
#
#
#
# Elastic Compliance Matrix: (Units=1/GPa)
#
#
# Indices 1 2 3 4 5 6 
#
# 1 0.008615 0.000455 0.004211 0.000000 0.002670 0.000000
# 2 0.000455 0.023370 0.012022 0.000000 0.011900 0.000000
# 3 0.004211 0.012022 0.030322 0.000000 0.012702 0.000000
# 4 0.000000 0.000000 0.000000 0.039714 0.000000 0.002582
# 5 0.002670 0.011900 0.012702 0.000000 0.036698 0.000000
# 6 0.000000 0.000000 0.000000 0.002582 0.000000 0.040339
#
#
# Mechanical properties :
#
#
# Convention : Reuss Voigt Hill
#
# Bulk Modulus (GPa) = 10.45118 19.62562 15.03840
# Shear Modulus (GPa) = 28.15692 34.44295 31.29994
#
# Velocity S-wave (km/s) = 3.31229 3.66342 3.49227
# Velocity P-wave (km/s) = 4.32443 5.05384 4.70329
#
# Compressibility (1/GPa) = 0.09568301
#
# Stress axis : x y z
#
# Youngs Moduli (GPa) = 116.07491 42.79044 32.97978
#
# Poissons Ratio (x) = -0.01948 -0.13888
# Poissons Ratio (y) = -0.05286 -0.39648
# Poissons Ratio (z) = -0.48879 -0.51442
#
# Static dielectric constant tensor:
#      x y z
#    x 5.055160 0.000000 -0.098460 
#    y 0.000000 4.446570 0.000000 
#    z -0.098460 0.000000 4.983590 
# 
# 
# High freq. dielectric constant tensor:
#      x y z
#    x 2.061100 0.000000 0.000200 
#    y 0.000000 2.006710 0.000000 
#    z 0.000200 0.000000 2.039190 
# 
# From -- ./inp_files/271926.got.cif
#   From: 2010.06.25/outbox.cif.g09.slc.cpg/sg15_136_cif.got.tgz:271926.got - 2010.06.28 07:06:18.
