data_PCOD8150693
_publ_section_title
;
Structure prediction by ZEFSAII (Michael W. Deem and Ramdas Pophale) SiO2 
 PCOD8150693
Probable space group: C 2/C
;
_chemical_formula_sum "Si O2"
_cell_formula_units_Z 44
_cell_length_a 8.892037
_cell_length_b 27.868261
_cell_length_c 9.280024
_cell_angle_alpha 90.000000
_cell_angle_beta 54.171997
_cell_angle_gamma 90.000000
_cell_volume 1864.498735
_symmetry_space_group_name_H-M "C 2/C"
_symmetry_group_IT_number 15
_symmetry_cell_setting 'monoclinic'
loop_
_space_group_symop_operation_xyz
x,y,z
-x,y,1/2-z
-x,-y,-z
x,-y,1/2+z
1/2+x,1/2+y,z
1/2-x,1/2+y,1/2-z
1/2-x,1/2-y,-z
1/2+x,1/2-y,1/2+z
loop_
_atom_site_type_symbol
_atom_site_label
_atom_site_fract_x
_atom_site_fract_y
_atom_site_fract_z
Si Si1 0.291066 0.605440 0.205360
Si Si2 0.036551 0.793126 0.891995
Si Si3 0.197860 0.064371 0.596503
Si Si4 0.500000 0.527262 0.250000
Si Si5 0.303654 0.711766 0.779410
Si Si6 0.457602 0.876054 0.106283
O O1 0.419684 0.651231 0.117015
O O2 0.422851 0.560536 0.167516
O O3 0.145059 0.618441 0.410391
O O4 0.209792 0.589623 0.095924
O O5 0.200460 0.761738 0.875222
O O6 0.000000 0.776404 0.750000
O O7 0.845856 0.785765 0.085186
O O8 0.339329 0.075295 0.648069
O O9 0.000000 0.088541 0.750000
O O10 0.166947 0.006862 0.595567
O O11 0.500000 0.705515 0.750000
O O12 0.160765 0.668476 0.891052
O O13 0.500000 0.869188 0.250000
#
# Coordination Sequence:
#
# PCOD8150693 Si02
#       6
#     8   8   8   4   8   8
#     4  12  24  45  76 106 144 194 242 300 362 431
#     4  12  24  43  72 103 146 189 242 289 360 424
#     4  10  25  46  73 102 144 187 243 295 369 419
#     4  10  26  46  78 104 144 186 252 298 374 416
#     4  12  26  46  71 108 150 190 236 294 356 435
#     4  12  26  44  72 109 149 190 243 296 359 430
#
# _framework density 23.598835999999999
#
# number of rings (size 3 to 8) (size 9 to 14) (size 15 to 20)
#    0.545    0.000    0.909    7.636    2.545    2.182 
#    0.000    0.000    0.000    0.000    0.000    0.000 
#    0.000    0.000    0.000    0.000    0.000    0.000 
#
# Total GULP energy -272743.804685 kJ/mol
# GULP energy per Si atom -12397.445667 kJ/mol
# Density = 2.354512 g / cm^3
# Si number density = 23.598836 Si / 1000 Ang^3
#
#
#
# Elastic Constant Matrix: (Units=GPa)
#
#
# Indices 1 2 3 4 5 6 
#
# 1 92.3733 50.1602 -0.0409 0.0000 9.9761 0.0000
# 2 50.1602 147.1366 43.0301 0.0000 -8.7286 0.0000
# 3 -0.0409 43.0301 92.4343 0.0000 -3.3111 0.0000
# 4 0.0000 0.0000 0.0000 14.4943 0.0000 25.6996
# 5 9.9761 -8.7286 -3.3111 0.0000 34.1283 0.0000
# 6 0.0000 0.0000 0.0000 25.6996 0.0000 -8.2561
#
#
#
# Elastic Compliance Matrix: (Units=1/GPa)
#
#
# Indices 1 2 3 4 5 6 
#
# 1 0.014776 -0.006152 0.002669 0.000000 -0.005634 0.000000
# 2 -0.006152 0.010524 -0.004758 0.000000 0.004028 0.000000
# 3 0.002669 -0.004758 0.013008 0.000000 -0.000735 0.000000
# 4 0.000000 0.000000 0.000000 0.010583 0.000000 0.032943
# 5 -0.005634 0.004028 -0.000735 0.000000 0.031907 0.000000
# 6 0.000000 0.000000 0.000000 0.032943 0.000000 -0.018579
#
#
# Mechanical properties :
#
#
# Convention : Reuss Voigt Hill
#
# Bulk Modulus (GPa) = 45.81656 57.58255 51.69955
# Shear Modulus (GPa) = 58.15619 23.99297 41.07458
#
# Velocity S-wave (km/s) = 4.96962 3.19203 4.17650
# Velocity P-wave (km/s) = 7.23785 6.16758 6.72404
#
# Compressibility (1/GPa) = 0.02182617
#
# Stress axis : x y z
#
# Youngs Moduli (GPa) = 67.67837 95.02158 76.87524
#
# Poissons Ratio (x) = 0.58455 -0.20514
# Poissons Ratio (y) = 0.41634 0.36574
# Poissons Ratio (z) = -0.18060 0.45207
#
# Static dielectric constant tensor:
#      x y z
#    x 4.233640 0.000000 0.099040 
#    y 0.000000 4.214680 0.000000 
#    z 0.099040 0.000000 4.369710 
# 
# 
# High freq. dielectric constant tensor:
#      x y z
#    x 1.933250 0.000000 0.004790 
#    y 0.000000 1.939720 0.000000 
#    z 0.004790 0.000000 1.940220 
# 
# From -- ./inp_files/25998.got.cif
#   From: 2010.06.25/outbox.cif.g09.slc.cpg/sg15_13_cif.got.tgz:25998.got - 2010.06.28 07:06:18.
