data_PCOD8150499
_publ_section_title
;
Structure prediction by ZEFSAII (Michael W. Deem and Ramdas Pophale) SiO2 
 PCOD8150499
Probable space group: C 2/C
;
_chemical_formula_sum "Si O2"
_cell_formula_units_Z 36
_cell_length_a 7.920342
_cell_length_b 30.771288
_cell_length_c 9.045247
_cell_angle_alpha 90.000000
_cell_angle_beta 130.294493
_cell_angle_gamma 90.000000
_cell_volume 1681.439128
_symmetry_space_group_name_H-M "C 2/C"
_symmetry_group_IT_number 15
_symmetry_cell_setting 'monoclinic'
loop_
_space_group_symop_operation_xyz
x,y,z
-x,y,1/2-z
-x,-y,-z
x,-y,1/2+z
1/2+x,1/2+y,z
1/2-x,1/2+y,1/2-z
1/2-x,1/2-y,-z
1/2+x,1/2-y,1/2+z
loop_
_atom_site_type_symbol
_atom_site_label
_atom_site_fract_x
_atom_site_fract_y
_atom_site_fract_z
Si Si1 0.000000 0.501241 0.750000
Si Si2 0.732907 0.698761 0.301506
Si Si3 0.087872 0.360188 0.144397
Si Si4 0.752734 0.450115 0.357010
Si Si5 0.055556 0.213450 0.616660
O O1 0.180623 0.530497 0.765624
O O2 0.888879 0.470825 0.566428
O O3 0.500000 0.693470 0.250000
O O4 0.851666 0.743849 0.414121
O O5 0.890725 0.658813 0.432003
O O6 0.671793 0.698212 0.092015
O O7 0.202055 0.398598 0.117521
O O8 0.264671 0.324001 0.287412
O O9 0.000000 0.378861 0.250000
O O10 0.500000 0.459745 0.250000
O O11 0.000000 0.226988 0.750000
#
# Coordination Sequence:
#
# PCOD8150499 Si02
#       5
#     4   8   8   8   8
#     4  10  24  48  78 108 138 176 220 282 348 426
#     4  12  24  42  65  90 130 189 233 275 343 399
#     4  12  25  43  66  99 141 179 232 286 332 407
#     4  11  24  47  75 107 141 178 224 279 348 410
#     4  12  25  41  64  95 131 178 237 292 335 395
#
# _framework density 21.410231
#
# number of rings (size 3 to 8) (size 9 to 14) (size 15 to 20)
#    0.000    0.444    5.556    3.333    0.000    3.556 
#    0.000    1.111    0.000    0.000    0.000    0.000 
#    0.000    0.000    0.000    0.000    0.000    0.000 
#
# Total GULP energy -223245.953822 kJ/mol
# GULP energy per Si atom -12402.552990 kJ/mol
# Density = 2.136150 g / cm^3
# Si number density = 21.410231 Si / 1000 Ang^3
#
#
#
# Elastic Constant Matrix: (Units=GPa)
#
#
# Indices 1 2 3 4 5 6 
#
# 1 111.0104 30.8534 23.3139 0.0000 -2.4822 0.0000
# 2 30.8534 77.9826 16.7268 0.0000 -1.1478 0.0000
# 3 23.3139 16.7268 125.6316 0.0000 -2.1483 0.0000
# 4 0.0000 0.0000 0.0000 -84.4861 0.0000 30.8847
# 5 -2.4822 -1.1478 -2.1483 0.0000 35.0219 0.0000
# 6 0.0000 0.0000 0.0000 30.8847 0.0000 28.5551
#
#
#
# Elastic Compliance Matrix: (Units=1/GPa)
#
#
# Indices 1 2 3 4 5 6 
#
# 1 0.010370 -0.003793 -0.001411 0.000000 0.000524 0.000000
# 2 -0.003793 0.014591 -0.001237 0.000000 0.000134 0.000000
# 3 -0.001411 -0.001237 0.008393 0.000000 0.000374 0.000000
# 4 0.000000 0.000000 0.000000 -0.008482 0.000000 0.009174
# 5 0.000524 0.000134 0.000374 0.000000 0.028618 0.000000
# 6 0.000000 0.000000 0.000000 0.009174 0.000000 0.025097
#
#
# Mechanical properties :
#
#
# Convention : Reuss Voigt Hill
#
# Bulk Modulus (GPa) = 48.84146 50.71252 49.77699
# Shear Modulus (GPa) = 50.86941 12.06689 31.46815
#
# Velocity S-wave (km/s) = 4.87965 2.37661 3.83792
# Velocity P-wave (km/s) = 7.38984 5.59183 6.55280
#
# Compressibility (1/GPa) = 0.02047441
#
# Stress axis : x y z
#
# Youngs Moduli (GPa) = 96.43004 68.53484 119.15299
#
# Poissons Ratio (x) = 0.25993 0.16807
# Poissons Ratio (y) = 0.36573 0.14734
# Poissons Ratio (z) = 0.13602 0.08475
#
# Static dielectric constant tensor:
#      x y z
#    x 4.179600 0.000000 -0.046950 
#    y 0.000000 3.733040 0.000000 
#    z -0.046950 0.000000 4.366550 
# 
# 
# High freq. dielectric constant tensor:
#      x y z
#    x 1.853530 0.000000 -0.003070 
#    y 0.000000 1.832340 0.000000 
#    z -0.003070 0.000000 1.853790 
# 
# From -- ./inp_files/25269.got.cif
#   From: 2010.06.25/outbox.cif.g09.slc.cpg/sg15_13_cif.got.tgz:25269.got - 2010.06.28 07:06:18.
