data_PCOD8150346
_publ_section_title
;
Structure prediction by ZEFSAII (Michael W. Deem and Ramdas Pophale) SiO2 
 PCOD8150346
Probable space group: C 2/C
;
_chemical_formula_sum "Si O2"
_cell_formula_units_Z 48
_cell_length_a 9.702322
_cell_length_b 24.159731
_cell_length_c 10.247467
_cell_angle_alpha 90.000000
_cell_angle_beta 92.726504
_cell_angle_gamma 90.000000
_cell_volume 2399.343330
_symmetry_space_group_name_H-M "C 2/C"
_symmetry_group_IT_number 15
_symmetry_cell_setting 'monoclinic'
loop_
_space_group_symop_operation_xyz
x,y,z
-x,y,1/2-z
-x,-y,-z
x,-y,1/2+z
1/2+x,1/2+y,z
1/2-x,1/2+y,1/2-z
1/2-x,1/2-y,-z
1/2+x,1/2-y,1/2+z
loop_
_atom_site_type_symbol
_atom_site_label
_atom_site_fract_x
_atom_site_fract_y
_atom_site_fract_z
Si Si1 0.720035 0.143633 0.636621
Si Si2 0.370907 0.744959 0.323988
Si Si3 0.712874 0.138706 0.939574
Si Si4 0.000975 0.550355 0.901136
Si Si5 0.508260 0.670743 0.964621
Si Si6 0.395041 0.783178 0.847289
O O1 0.675378 0.204664 0.578897
O O2 0.702089 0.156130 0.788879
O O3 0.626518 0.093000 0.581627
O O4 0.880968 0.133093 0.609953
O O5 0.500000 0.768390 0.250000
O O6 0.415692 0.689635 0.401259
O O7 0.253440 0.725105 0.220907
O O8 0.644768 0.078682 0.946893
O O9 0.872784 0.134237 0.991041
O O10 0.625143 0.181890 0.021796
O O11 0.000000 0.530278 0.750000
O O12 0.000000 0.500000 0.000000
O O13 0.461487 0.724083 0.881539
O O14 0.500000 0.813274 0.750000
#
# Coordination Sequence:
#
# PCOD8150346 Si02
#       6
#     8   8   8   8   8   8
#     4  11  22  39  62  89 123 165 207 249 307 368
#     4  12  22  36  56  90 137 174 205 242 293 367
#     4  11  22  40  62  88 125 163 204 254 304 367
#     4  10  24  46  69  90 114 157 216 275 326 371
#     4  12  22  37  56  91 133 168 206 244 301 373
#     4  12  23  36  56  93 135 174 206 244 293 366
#
# _framework density 20.005475000000001
#
# number of rings (size 3 to 8) (size 9 to 14) (size 15 to 20)
#    0.000    0.667    5.000    5.000    2.333    0.667 
#    0.000    0.833    0.000    0.000    0.000    0.000 
#    0.000    0.000    0.000    0.000    0.000    0.000 
#
# Total GULP energy -297510.954965 kJ/mol
# GULP energy per Si atom -12396.289790 kJ/mol
# Density = 1.995994 g / cm^3
# Si number density = 20.005475 Si / 1000 Ang^3
#
#
#
# Elastic Constant Matrix: (Units=GPa)
#
#
# Indices 1 2 3 4 5 6 
#
# 1 143.1056 57.0359 51.0830 0.0000 -16.4157 0.0000
# 2 57.0359 103.5873 55.9181 0.0000 0.9160 0.0000
# 3 51.0830 55.9181 82.5713 0.0000 1.1282 0.0000
# 4 0.0000 0.0000 0.0000 30.4766 0.0000 -3.6113
# 5 -16.4157 0.9160 1.1282 0.0000 35.5304 0.0000
# 6 0.0000 0.0000 0.0000 -3.6113 0.0000 15.4155
#
#
#
# Elastic Compliance Matrix: (Units=1/GPa)
#
#
# Indices 1 2 3 4 5 6 
#
# 1 0.010467 -0.003586 -0.004116 0.000000 0.005059 0.000000
# 2 -0.003586 0.016445 -0.008894 0.000000 -0.001798 0.000000
# 3 -0.004116 -0.008894 0.020712 0.000000 -0.002330 0.000000
# 4 0.000000 0.000000 0.000000 0.033749 0.000000 0.007906
# 5 0.005059 -0.001798 -0.002330 0.000000 0.030603 0.000000
# 6 0.000000 0.000000 0.000000 0.007906 0.000000 0.066722
#
#
# Mechanical properties :
#
#
# Convention : Reuss Voigt Hill
#
# Bulk Modulus (GPa) = 69.28873 73.03757 71.16315
# Shear Modulus (GPa) = 23.07355 27.29964 25.18659
#
# Velocity S-wave (km/s) = 3.39980 3.69807 3.55207
# Velocity P-wave (km/s) = 7.07966 7.40421 7.24375
#
# Compressibility (1/GPa) = 0.01443236
#
# Stress axis : x y z
#
# Youngs Moduli (GPa) = 95.54257 60.80887 48.28173
#
# Poissons Ratio (x) = 0.21805 0.19872
# Poissons Ratio (y) = 0.34260 0.42940
# Poissons Ratio (z) = 0.39324 0.54082
#
# Static dielectric constant tensor:
#      x y z
#    x 4.261170 0.000000 -0.075680 
#    y 0.000000 3.250350 0.000000 
#    z -0.075680 0.000000 3.746920 
# 
# 
# High freq. dielectric constant tensor:
#      x y z
#    x 1.810730 0.000000 -0.000660 
#    y 0.000000 1.720370 0.000000 
#    z -0.000660 0.000000 1.784980 
# 
# From -- ./inp_files/79283.got.cif
#   From: 2010.06.25/outbox.cif.g09.slc.cpg/sg15_40_cif.got.tgz:79283.got - 2010.06.28 07:06:18.
