data_PCOD8150758
_publ_section_title
;
Structure prediction by ZEFSAII (Michael W. Deem and Ramdas Pophale) SiO2 
 PCOD8150758
Probable space group: C 2/C
;
_chemical_formula_sum "Si O2"
_cell_formula_units_Z 36
_cell_length_a 18.027404
_cell_length_b 17.995083
_cell_length_c 10.641506
_cell_angle_alpha 90.000000
_cell_angle_beta 151.079053
_cell_angle_gamma 90.000000
_cell_volume 1669.469931
_symmetry_space_group_name_H-M "C 2/C"
_symmetry_group_IT_number 15
_symmetry_cell_setting 'monoclinic'
loop_
_space_group_symop_operation_xyz
x,y,z
-x,y,1/2-z
-x,-y,-z
x,-y,1/2+z
1/2+x,1/2+y,z
1/2-x,1/2+y,1/2-z
1/2-x,1/2-y,-z
1/2+x,1/2-y,1/2+z
loop_
_atom_site_type_symbol
_atom_site_label
_atom_site_fract_x
_atom_site_fract_y
_atom_site_fract_z
Si Si1 0.500000 0.483242 0.750000
Si Si2 0.282878 0.123188 0.342934
Si Si3 0.500000 0.243357 0.750000
Si Si4 0.500000 0.995827 0.750000
Si Si5 0.256570 0.907203 0.533111
Si Si6 0.535480 0.366183 0.004357
O O1 0.363515 0.529085 0.608539
O O2 0.577626 0.431511 0.970656
O O3 0.351167 0.190282 0.526820
O O4 0.374576 0.046518 0.495073
O O5 0.109082 0.109556 0.126291
O O6 0.288747 0.143440 0.203347
O O7 0.497204 0.290932 0.872982
O O8 0.416206 0.943346 0.726591
O O9 0.182368 0.855995 0.313425
#
# Coordination Sequence:
#
# PCOD8150758 Si02
#       6
#     4   8   4   4   8   8
#     4  11  20  37  68  93 124 159 204 246 318 379
#     4  11  22  42  64  92 128 165 206 259 307 369
#     4  10  26  42  62  88 124 170 216 254 306 360
#     4  11  24  39  62 101 134 153 200 258 322 371
#     4  12  22  40  66  97 125 162 205 259 316 369
#     4  11  22  41  66  91 125 169 209 253 303 379
#
# _framework density 21.56373
#
# number of rings (size 3 to 8) (size 9 to 14) (size 15 to 20)
#    0.000    0.889    4.444    3.333    0.000    0.889 
#    8.000    0.000    0.000    0.000    0.000    0.000 
#    0.000    0.000    0.000    0.000    0.000    0.000 
#
# Total GULP energy -223254.401670 kJ/mol
# GULP energy per Si atom -12403.022315 kJ/mol
# Density = 2.151465 g / cm^3
# Si number density = 21.563730 Si / 1000 Ang^3
#
#
#
# Elastic Constant Matrix: (Units=GPa)
#
#
# Indices 1 2 3 4 5 6 
#
# 1 108.0415 30.6067 31.5656 0.0000 -0.8438 0.0000
# 2 30.6067 77.2479 36.2832 0.0000 -6.2975 0.0000
# 3 31.5656 36.2832 96.0734 0.0000 -16.2589 0.0000
# 4 0.0000 0.0000 0.0000 12.5569 0.0000 -2.3022
# 5 -0.8438 -6.2975 -16.2589 0.0000 49.9513 0.0000
# 6 0.0000 0.0000 0.0000 -2.3022 0.0000 25.0194
#
#
#
# Elastic Compliance Matrix: (Units=1/GPa)
#
#
# Indices 1 2 3 4 5 6 
#
# 1 0.010901 -0.003208 -0.002548 0.000000 -0.001050 0.000000
# 2 -0.003208 0.016681 -0.005185 0.000000 0.000361 0.000000
# 3 -0.002548 -0.005185 0.013849 0.000000 0.003811 0.000000
# 4 0.000000 0.000000 0.000000 0.081004 0.000000 0.007454
# 5 -0.001050 0.000361 0.003811 0.000000 0.021288 0.000000
# 6 0.000000 0.000000 0.000000 0.007454 0.000000 0.040655
#
#
# Mechanical properties :
#
#
# Convention : Reuss Voigt Hill
#
# Bulk Modulus (GPa) = 51.15083 53.14154 52.14619
# Shear Modulus (GPa) = 23.49912 29.69934 26.59923
#
# Velocity S-wave (km/s) = 3.30472 3.71520 3.51596
# Velocity P-wave (km/s) = 6.19143 6.56514 6.38102
#
# Compressibility (1/GPa) = 0.01955003
#
# Stress axis : x y z
#
# Youngs Moduli (GPa) = 91.73831 59.94836 72.20877
#
# Poissons Ratio (x) = 0.19231 0.18396
# Poissons Ratio (y) = 0.29429 0.37438
# Poissons Ratio (z) = 0.23371 0.31081
#
# Static dielectric constant tensor:
#      x y z
#    x 3.907170 0.000000 -0.206030 
#    y 0.000000 3.665080 0.000000 
#    z -0.206030 0.000000 4.085910 
# 
# 
# High freq. dielectric constant tensor:
#      x y z
#    x 1.851810 0.000000 -0.010060 
#    y 0.000000 1.825890 0.000000 
#    z -0.010060 0.000000 1.858800 
# 
# From -- ./inp_files/29459.got.cif
#   From: 2010.06.25/outbox.cif.g09.slc.cpg/sg15_15_cif.got.tgz:29459.got - 2010.06.28 07:06:18.
