data_PCOD8150533
_publ_section_title
;
Structure prediction by ZEFSAII (Michael W. Deem and Ramdas Pophale) SiO2 
 PCOD8150533
Probable space group: C 2/C
;
_chemical_formula_sum "Si O2"
_cell_formula_units_Z 56
_cell_length_a 29.528016
_cell_length_b 12.650836
_cell_length_c 14.911210
_cell_angle_alpha 90.000000
_cell_angle_beta 28.650019
_cell_angle_gamma 90.000000
_cell_volume 2670.650681
_symmetry_space_group_name_H-M "C 2/C"
_symmetry_group_IT_number 15
_symmetry_cell_setting 'monoclinic'
loop_
_space_group_symop_operation_xyz
x,y,z
-x,y,1/2-z
-x,-y,-z
x,-y,1/2+z
1/2+x,1/2+y,z
1/2-x,1/2+y,1/2-z
1/2-x,1/2-y,-z
1/2+x,1/2-y,1/2+z
loop_
_atom_site_type_symbol
_atom_site_label
_atom_site_fract_x
_atom_site_fract_y
_atom_site_fract_z
Si Si1 0.353377 0.656235 0.995337
Si Si2 0.987037 0.914760 0.400150
Si Si3 0.402788 0.035059 0.713665
Si Si4 0.479891 0.175081 0.883353
Si Si5 0.199221 0.385660 0.467906
Si Si6 0.322585 0.011622 0.173546
Si Si7 0.413038 0.375579 0.095995
O O1 0.415476 0.579196 0.824509
O O2 0.412762 0.668024 0.985030
O O3 0.341455 0.767660 0.966271
O O4 0.253884 0.603950 0.188270
O O5 0.009064 0.876017 0.461457
O O6 0.938738 0.030324 0.483037
O O7 0.422815 0.145017 0.732248
O O8 0.500000 0.000000 0.500000
O O9 0.328946 0.048205 0.759351
O O10 0.364927 0.949143 0.850732
O O11 0.500000 0.219396 0.750000
O O12 0.421141 0.066884 0.977701
O O13 0.418978 0.262983 0.038571
O O14 0.200778 0.429771 0.364064
O O15 0.306523 0.387721 0.318066
#
# Coordination Sequence:
#
# PCOD8150533 Si02
#       7
#     8   8   8   8   8   8   8
#     4  11  24  42  69  98 132 173 221 272 327 393
#     4  10  25  42  64  98 134 167 225 266 323 394
#     4  10  25  40  64 101 135 166 217 277 326 390
#     4  11  23  41  66  96 135 173 215 267 339 389
#     4  12  24  43  72  97 134 174 220 276 331 387
#     4  11  23  43  66  99 134 169 222 275 328 388
#     4  11  24  43  69  93 133 178 215 271 330 397
#
# _framework density 20.968672000000002
#
# number of rings (size 3 to 8) (size 9 to 14) (size 15 to 20)
#    0.000    1.143    4.286    0.857    8.000    4.571 
#    0.000    0.000    0.000    5.143    0.000    0.000 
#    0.000    0.000    0.000    0.000    0.000    0.000 
#
# Total GULP energy -347164.752756 kJ/mol
# GULP energy per Si atom -12398.741170 kJ/mol
# Density = 2.092095 g / cm^3
# Si number density = 20.968672 Si / 1000 Ang^3
#
#
#
# Elastic Constant Matrix: (Units=GPa)
#
#
# Indices 1 2 3 4 5 6 
#
# 1 118.4206 22.6337 36.1401 0.0000 3.8807 0.0000
# 2 22.6337 70.5698 42.5412 0.0000 -2.3810 0.0000
# 3 36.1401 42.5412 107.4448 0.0000 2.7494 0.0000
# 4 0.0000 0.0000 0.0000 36.8377 0.0000 -2.7974
# 5 3.8807 -2.3810 2.7494 0.0000 31.6227 0.0000
# 6 0.0000 0.0000 0.0000 -2.7974 0.0000 22.6368
#
#
#
# Elastic Compliance Matrix: (Units=1/GPa)
#
#
# Indices 1 2 3 4 5 6 
#
# 1 0.009562 -0.001550 -0.002575 0.000000 -0.001066 0.000000
# 2 -0.001550 0.018997 -0.007057 0.000000 0.002234 0.000000
# 3 -0.002575 -0.007057 0.013002 0.000000 -0.001346 0.000000
# 4 0.000000 0.000000 0.000000 0.027403 0.000000 0.003386
# 5 -0.001066 0.002234 -0.001346 0.000000 0.032039 0.000000
# 6 0.000000 0.000000 0.000000 0.003386 0.000000 0.044594
#
#
# Mechanical properties :
#
#
# Convention : Reuss Voigt Hill
#
# Bulk Modulus (GPa) = 52.09599 55.45168 53.77383
# Shear Modulus (GPa) = 28.67606 31.22746 29.95176
#
# Velocity S-wave (km/s) = 3.70207 3.86326 3.78352
# Velocity P-wave (km/s) = 6.57057 6.81191 6.69233
#
# Compressibility (1/GPa) = 0.01919534
#
# Stress axis : x y z
#
# Youngs Moduli (GPa) = 104.58507 52.63887 76.91157
#
# Poissons Ratio (x) = 0.08161 0.19805
# Poissons Ratio (y) = 0.16214 0.54280
# Poissons Ratio (z) = 0.26931 0.37149
#
# Static dielectric constant tensor:
#      x y z
#    x 4.387380 0.000000 -0.050730 
#    y 0.000000 3.598110 0.000000 
#    z -0.050730 0.000000 3.671370 
# 
# 
# High freq. dielectric constant tensor:
#      x y z
#    x 1.843340 0.000000 -0.000450 
#    y 0.000000 1.801740 0.000000 
#    z -0.000450 0.000000 1.820540 
# 
# From -- ./inp_files/181902.got.cif
#   From: 2010.06.25/outbox.cif.g09.slc.cpg/sg15_91_cif.got.tgz:181902.got - 2010.06.28 07:06:18.
