data_PCOD8150251
_publ_section_title
;
Structure prediction by ZEFSAII (Michael W. Deem and Ramdas Pophale) SiO2 
 PCOD8150251
Probable space group: C 2/C
;
_chemical_formula_sum "Si O2"
_cell_formula_units_Z 48
_cell_length_a 21.708400
_cell_length_b 11.396585
_cell_length_c 11.855516
_cell_angle_alpha 90.000000
_cell_angle_beta 52.698641
_cell_angle_gamma 90.000000
_cell_volume 2333.140372
_symmetry_space_group_name_H-M "C 2/C"
_symmetry_group_IT_number 15
_symmetry_cell_setting 'monoclinic'
loop_
_space_group_symop_operation_xyz
x,y,z
-x,y,1/2-z
-x,-y,-z
x,-y,1/2+z
1/2+x,1/2+y,z
1/2-x,1/2+y,1/2-z
1/2-x,1/2-y,-z
1/2+x,1/2-y,1/2+z
loop_
_atom_site_type_symbol
_atom_site_label
_atom_site_fract_x
_atom_site_fract_y
_atom_site_fract_z
Si Si1 0.581472 0.435646 0.415299
Si Si2 0.924144 0.304589 0.703172
Si Si3 0.898919 0.338165 0.986464
Si Si4 0.087994 0.789559 0.621704
Si Si5 0.828854 0.157215 0.241884
Si Si6 0.155010 0.406736 0.910592
O O1 0.500000 0.500000 0.500000
O O2 0.576778 0.328891 0.334691
O O3 0.607093 0.391776 0.510678
O O4 0.647131 0.523290 0.301548
O O5 0.891361 0.301030 0.865380
O O6 0.867093 0.387007 0.695162
O O7 0.010163 0.357661 0.590481
O O8 0.863622 0.237714 0.104621
O O9 0.849067 0.455607 0.060448
O O10 0.143030 0.796469 0.668590
O O11 0.094944 0.661112 0.558243
O O12 0.000000 0.808893 0.750000
O O13 0.736618 0.155878 0.343030
#
# Coordination Sequence:
#
# PCOD8150251 Si02
#       6
#     8   8   8   8   8   8
#     4  11  22  43  68  99 129 171 220 276 321 390
#     4  10  24  45  68  96 128 173 229 266 328 391
#     4  11  25  43  71  96 128 176 222 272 324 399
#     4  11  24  43  69  95 131 177 224 268 328 394
#     4  12  26  42  68 100 135 171 221 271 341 390
#     4  11  27  43  66  96 139 172 214 278 334 394
#
# _framework density 20.573129999999999
#
# number of rings (size 3 to 8) (size 9 to 14) (size 15 to 20)
#    0.000    1.000    3.333    2.000   11.667    2.000 
#    0.000    0.000    0.000    0.000    0.000    0.000 
#    0.000    0.000    0.000    0.000    0.000    0.000 
#
# Total GULP energy -297679.499068 kJ/mol
# GULP energy per Si atom -12403.312461 kJ/mol
# Density = 2.052631 g / cm^3
# Si number density = 20.573130 Si / 1000 Ang^3
#
#
#
# Elastic Constant Matrix: (Units=GPa)
#
#
# Indices 1 2 3 4 5 6 
#
# 1 128.0894 28.9115 51.7273 0.0000 24.4227 0.0000
# 2 28.9115 102.1664 45.9693 0.0000 14.5125 0.0000
# 3 51.7273 45.9693 91.9196 0.0000 34.0664 0.0000
# 4 0.0000 0.0000 0.0000 5.5625 0.0000 1.7077
# 5 24.4227 14.5125 34.0664 0.0000 32.5045 0.0000
# 6 0.0000 0.0000 0.0000 1.7077 0.0000 28.6952
#
#
#
# Elastic Compliance Matrix: (Units=1/GPa)
#
#
# Indices 1 2 3 4 5 6 
#
# 1 0.010265 -0.000483 -0.004507 0.000000 -0.002773 0.000000
# 2 -0.000483 0.012704 -0.006727 0.000000 0.001741 0.000000
# 3 -0.004507 -0.006727 0.023564 0.000000 -0.018307 0.000000
# 4 0.000000 0.000000 0.000000 0.183121 0.000000 -0.010898
# 5 -0.002773 0.001741 -0.018307 0.000000 0.051258 0.000000
# 6 0.000000 0.000000 0.000000 -0.010898 0.000000 0.035498
#
#
# Mechanical properties :
#
#
# Convention : Reuss Voigt Hill
#
# Bulk Modulus (GPa) = 43.29104 63.93240 53.61172
# Shear Modulus (GPa) = 14.38668 26.39025 20.38847
#
# Velocity S-wave (km/s) = 2.64729 3.58544 3.15147
# Velocity P-wave (km/s) = 5.51655 6.94864 6.27360
#
# Compressibility (1/GPa) = 0.02309947
#
# Stress axis : x y z
#
# Youngs Moduli (GPa) = 97.41810 78.71539 42.43726
#
# Poissons Ratio (x) = 0.03801 0.19128
# Poissons Ratio (y) = 0.04704 0.28546
# Poissons Ratio (z) = 0.43909 0.52950
#
# Static dielectric constant tensor:
#      x y z
#    x 3.656340 0.000000 -0.153850 
#    y 0.000000 1.618730 0.000000 
#    z -0.153850 0.000000 3.625430 
# 
# 
# High freq. dielectric constant tensor:
#      x y z
#    x 1.813120 0.000000 0.008970 
#    y 0.000000 1.812370 0.000000 
#    z 0.008970 0.000000 1.811470 
# 
# From -- ./inp_files/110880.got.cif
#   From: 2010.06.25/outbox.cif.g09.slc.cpg/sg15_56_cif.got.tgz:110880.got - 2010.06.28 07:06:18.
