data_PCOD8150930
_publ_section_title
;
Structure prediction by ZEFSAII (Michael W. Deem and Ramdas Pophale) SiO2 
 PCOD8150930
Probable space group: C 2/C
;
_chemical_formula_sum "Si O2"
_cell_formula_units_Z 60
_cell_length_a 23.542467
_cell_length_b 20.547526
_cell_length_c 9.133369
_cell_angle_alpha 90.000000
_cell_angle_beta 41.696784
_cell_angle_gamma 90.000000
_cell_volume 2938.916245
_symmetry_space_group_name_H-M "C 2/C"
_symmetry_group_IT_number 15
_symmetry_cell_setting 'monoclinic'
loop_
_space_group_symop_operation_xyz
x,y,z
-x,y,1/2-z
-x,-y,-z
x,-y,1/2+z
1/2+x,1/2+y,z
1/2-x,1/2+y,1/2-z
1/2-x,1/2-y,-z
1/2+x,1/2-y,1/2+z
loop_
_atom_site_type_symbol
_atom_site_label
_atom_site_fract_x
_atom_site_fract_y
_atom_site_fract_z
Si Si1 0.000000 0.012754 0.750000
Si Si2 0.593810 0.425302 0.338621
Si Si3 0.035408 0.560104 0.342853
Si Si4 0.283772 0.894245 0.942359
Si Si5 0.066157 0.222554 0.900475
Si Si6 0.428333 0.819348 0.122903
Si Si7 0.674752 0.810289 0.899467
Si Si8 0.175911 0.722148 0.940716
O O1 0.064899 0.970194 0.528549
O O2 0.053198 0.056942 0.760130
O O3 0.564322 0.353251 0.440816
O O4 0.695925 0.433592 0.126087
O O5 0.138612 0.561471 0.146691
O O6 0.000000 0.551859 0.250000
O O7 0.000000 0.500000 0.500000
O O8 0.003903 0.627663 0.475225
O O9 0.302413 0.874086 0.739016
O O10 0.272326 0.827059 0.054598
O O11 0.106195 0.263808 0.954756
O O12 0.116167 0.231843 0.652532
O O13 0.969260 0.248104 0.067574
O O14 0.362177 0.836868 0.377670
O O15 0.379434 0.821223 0.063066
O O16 0.759300 0.768314 0.771154
#
# Coordination Sequence:
#
# PCOD8150930 Si02
#       8
#     4   8   8   8   8   8   8   8
#     4  10  28  48  68  96 134 166 230 274 330 408
#     4  11  24  48  70  98 128 177 220 278 334 392
#     4  12  27  45  67  95 137 188 224 265 326 394
#     4  11  22  43  70  90 140 174 222 269 327 392
#     4  11  21  36  71  92 126 171 213 262 337 388
#     4  12  24  39  63 105 138 163 224 277 322 393
#     4  11  22  37  63 104 131 166 212 279 331 392
#     4  11  20  41  61 100 132 168 211 278 336 386
#
# _framework density 20.415689
#
# number of rings (size 3 to 8) (size 9 to 14) (size 15 to 20)
#    0.000    0.800    6.667    2.000    5.600    1.067 
#    0.000    1.333    0.000    0.000    0.000    0.000 
#    0.000    0.000    0.000    0.000    0.000    0.000 
#
# Total GULP energy -372160.087188 kJ/mol
# GULP energy per Si atom -12405.336240 kJ/mol
# Density = 2.036922 g / cm^3
# Si number density = 20.415689 Si / 1000 Ang^3
#
#
#
# Elastic Constant Matrix: (Units=GPa)
#
#
# Indices 1 2 3 4 5 6 
#
# 1 76.5519 22.3003 34.9330 0.0000 -14.3072 0.0000
# 2 22.3003 71.6290 21.4762 0.0000 -6.8315 0.0000
# 3 34.9330 21.4762 97.6822 0.0000 -12.0106 0.0000
# 4 0.0000 0.0000 0.0000 33.2976 0.0000 -6.4466
# 5 -14.3072 -6.8315 -12.0106 0.0000 34.6923 0.0000
# 6 0.0000 0.0000 0.0000 -6.4466 0.0000 18.2797
#
#
#
# Elastic Compliance Matrix: (Units=1/GPa)
#
#
# Indices 1 2 3 4 5 6 
#
# 1 0.017137 -0.003448 -0.004789 0.000000 0.004730 0.000000
# 2 -0.003448 0.015759 -0.002115 0.000000 0.000949 0.000000
# 3 -0.004789 -0.002115 0.012660 0.000000 0.001991 0.000000
# 4 0.000000 0.000000 0.000000 0.032233 0.000000 0.011367
# 5 0.004730 0.000949 0.001991 0.000000 0.031652 0.000000
# 6 0.000000 0.000000 0.000000 0.011367 0.000000 0.058714
#
#
# Mechanical properties :
#
#
# Convention : Reuss Voigt Hill
#
# Bulk Modulus (GPa) = 40.23865 44.80913 42.52389
# Shear Modulus (GPa) = 25.36236 28.39750 26.87993
#
# Velocity S-wave (km/s) = 3.52845 3.73361 3.63248
# Velocity P-wave (km/s) = 6.02929 6.37044 6.20221
#
# Compressibility (1/GPa) = 0.02485173
#
# Stress axis : x y z
#
# Youngs Moduli (GPa) = 58.35367 63.45589 78.99113
#
# Poissons Ratio (x) = 0.21882 0.37826
# Poissons Ratio (y) = 0.20122 0.16706
# Poissons Ratio (z) = 0.27944 0.13420
#
# Static dielectric constant tensor:
#      x y z
#    x 3.704960 0.000000 -0.035950 
#    y 0.000000 3.530700 0.000000 
#    z -0.035950 0.000000 3.747400 
# 
# 
# High freq. dielectric constant tensor:
#      x y z
#    x 1.802880 0.000000 -0.003200 
#    y 0.000000 1.781060 0.000000 
#    z -0.003200 0.000000 1.806200 
# 
# From -- ./inp_files/63496.got.cif
#   From: 2010.06.25/outbox.cif.g09.slc.cpg/sg15_32_cif.got.tgz:63496.got - 2010.06.28 07:06:18.
