data_PCOD8150655
_publ_section_title
;
Structure prediction by ZEFSAII (Michael W. Deem and Ramdas Pophale) SiO2 
 PCOD8150655
Probable space group: C 2/C
;
_chemical_formula_sum "Si O2"
_cell_formula_units_Z 32
_cell_length_a 16.761392
_cell_length_b 8.774591
_cell_length_c 10.193827
_cell_angle_alpha 90.000000
_cell_angle_beta 116.881363
_cell_angle_gamma 90.000000
_cell_volume 1337.248529
_symmetry_space_group_name_H-M "C 2/C"
_symmetry_group_IT_number 15
_symmetry_cell_setting 'monoclinic'
loop_
_space_group_symop_operation_xyz
x,y,z
-x,y,1/2-z
-x,-y,-z
x,-y,1/2+z
1/2+x,1/2+y,z
1/2-x,1/2+y,1/2-z
1/2-x,1/2-y,-z
1/2+x,1/2-y,1/2+z
loop_
_atom_site_type_symbol
_atom_site_label
_atom_site_fract_x
_atom_site_fract_y
_atom_site_fract_z
Si Si1 0.080881 0.005623 0.904885
Si Si2 0.230116 0.577642 0.526773
Si Si3 0.118360 0.520616 0.701041
Si Si4 0.992322 0.253359 0.992005
O O1 0.000000 0.968242 0.750000
O O2 0.077225 0.873752 0.011265
O O3 0.174538 0.992359 0.899699
O O4 0.068816 0.173394 0.959683
O O5 0.250000 0.750000 0.500000
O O6 0.190057 0.557390 0.641072
O O7 0.165894 0.489728 0.376643
O O8 0.067163 0.362502 0.641970
O O9 0.043606 0.654229 0.645274
#
# Coordination Sequence:
#
# PCOD8150655 Si02
#       4
#     8   8   8   8
#     4  11  25  43  71 100 148 186 235 292 360 422
#     4  12  27  47  74 108 146 185 241 301 356 419
#     4  11  27  47  75 103 143 189 241 295 356 425
#     4  10  25  45  69 104 141 190 236 289 359 426
#
# _framework density 23.929732999999999
#
# number of rings (size 3 to 8) (size 9 to 14) (size 15 to 20)
#    0.000    1.000    2.500    1.500   14.000    3.000 
#    0.000    0.000    0.000    0.000    0.000    0.000 
#    0.000    0.000    0.000    0.000    0.000    0.000 
#
# Total GULP energy -198441.599919 kJ/mol
# GULP energy per Si atom -12402.599995 kJ/mol
# Density = 2.387527 g / cm^3
# Si number density = 23.929733 Si / 1000 Ang^3
#
#
#
# Elastic Constant Matrix: (Units=GPa)
#
#
# Indices 1 2 3 4 5 6 
#
# 1 93.3878 16.8528 -7.1340 0.0000 14.9934 0.0000
# 2 16.8528 98.7626 -5.0184 0.0000 5.2942 0.0000
# 3 -7.1340 -5.0184 72.3022 0.0000 18.6925 0.0000
# 4 0.0000 0.0000 0.0000 22.1671 0.0000 0.2706
# 5 14.9934 5.2942 18.6925 0.0000 43.1503 0.0000
# 6 0.0000 0.0000 0.0000 0.2706 0.0000 15.7587
#
#
#
# Elastic Compliance Matrix: (Units=1/GPa)
#
#
# Indices 1 2 3 4 5 6 
#
# 1 0.011987 -0.001659 0.002356 0.000000 -0.004982 0.000000
# 2 -0.001659 0.010509 0.000845 0.000000 -0.001079 0.000000
# 3 0.002356 0.000845 0.016171 0.000000 -0.007928 0.000000
# 4 0.000000 0.000000 0.000000 0.045121 0.000000 -0.000775
# 5 -0.004982 -0.001079 -0.007928 0.000000 0.028472 0.000000
# 6 0.000000 0.000000 0.000000 -0.000775 0.000000 0.063470
#
#
# Mechanical properties :
#
#
# Convention : Reuss Voigt Hill
#
# Bulk Modulus (GPa) = 23.95151 30.42817 27.18984
# Shear Modulus (GPa) = 26.80022 33.53203 30.16612
#
# Velocity S-wave (km/s) = 3.35020 3.74742 3.55436
# Velocity P-wave (km/s) = 4.99960 5.60958 5.31335
#
# Compressibility (1/GPa) = 0.04175102
#
# Stress axis : x y z
#
# Youngs Moduli (GPa) = 83.42228 95.15566 61.83750
#
# Poissons Ratio (x) = 0.15784 -0.14567
# Poissons Ratio (y) = 0.13837 -0.05223
# Poissons Ratio (z) = -0.19652 -0.08038
#
# Static dielectric constant tensor:
#      x y z
#    x 4.555260 0.000000 0.045790 
#    y 0.000000 4.443820 0.000000 
#    z 0.045790 0.000000 4.161300 
# 
# 
# High freq. dielectric constant tensor:
#      x y z
#    x 1.960140 0.000000 0.007610 
#    y 0.000000 1.961710 0.000000 
#    z 0.007610 0.000000 1.938900 
# 
# From -- ./inp_files/102283.got.cif
#   From: 2010.06.25/outbox.cif.g09.slc.cpg/sg15_52_cif.got.tgz:102283.got - 2010.06.28 07:06:18.
