data_PCOD8150662
_publ_section_title
;
Structure prediction by ZEFSAII (Michael W. Deem and Ramdas Pophale) SiO2 
 PCOD8150662
Probable space group: C 2/C
;
_chemical_formula_sum "Si O2"
_cell_formula_units_Z 60
_cell_length_a 8.076801
_cell_length_b 13.680645
_cell_length_c 22.638381
_cell_angle_alpha 90.000000
_cell_angle_beta 91.851137
_cell_angle_gamma 90.000000
_cell_volume 2500.141653
_symmetry_space_group_name_H-M "C 2/C"
_symmetry_group_IT_number 15
_symmetry_cell_setting 'monoclinic'
loop_
_space_group_symop_operation_xyz
x,y,z
-x,y,1/2-z
-x,-y,-z
x,-y,1/2+z
1/2+x,1/2+y,z
1/2-x,1/2+y,1/2-z
1/2-x,1/2-y,-z
1/2+x,1/2-y,1/2+z
loop_
_atom_site_type_symbol
_atom_site_label
_atom_site_fract_x
_atom_site_fract_y
_atom_site_fract_z
Si Si1 0.000000 0.490303 0.750000
Si Si2 0.092302 0.991107 0.104632
Si Si3 0.378550 0.710415 0.835155
Si Si4 0.834691 0.914291 0.779598
Si Si5 0.565753 0.926991 0.135590
Si Si6 0.721444 0.714596 0.793580
Si Si7 0.748484 0.611582 0.405764
Si Si8 0.138243 0.432437 0.473606
O O1 0.168408 0.428528 0.737716
O O2 0.959781 0.559672 0.693958
O O3 0.198946 0.034500 0.159006
O O4 0.929279 0.057917 0.097420
O O5 0.069060 0.876190 0.119475
O O6 0.204769 0.997667 0.046925
O O7 0.550404 0.761094 0.816434
O O8 0.297507 0.668603 0.772871
O O9 0.260056 0.790964 0.865629
O O10 0.858466 0.799276 0.790696
O O11 0.000000 0.956892 0.750000
O O12 0.723310 0.862566 0.155866
O O13 0.445945 0.877006 0.084228
O O14 0.618088 0.032824 0.113333
O O15 0.794158 0.640275 0.474447
O O16 0.000000 0.500000 0.500000
#
# Coordination Sequence:
#
# PCOD8150662 Si02
#       8
#     4   8   8   8   8   8   8   8
#     4  12  22  42  70  98 150 192 234 314 384 436
#     4  12  24  46  73 106 140 192 255 305 369 446
#     4  11  25  43  75 111 149 191 245 311 381 456
#     4  12  26  41  70 110 150 194 242 302 383 463
#     4  11  22  43  71 103 140 193 236 304 377 441
#     4  11  24  42  69 114 153 187 241 308 385 459
#     4  11  24  48  73 100 145 195 245 304 371 440
#     4  10  25  45  72 100 144 195 250 303 366 446
#
# _framework density 23.998639000000001
#
# number of rings (size 3 to 8) (size 9 to 14) (size 15 to 20)
#    0.000    0.800    2.667    5.200    4.667    1.600 
#    0.000    2.000    0.000    0.000    0.000    0.000 
#    0.000    0.000    0.000    0.000    0.000    0.000 
#
# Total GULP energy -371688.161473 kJ/mol
# GULP energy per Si atom -12389.605382 kJ/mol
# Density = 2.394402 g / cm^3
# Si number density = 23.998639 Si / 1000 Ang^3
#
#
#
# Elastic Constant Matrix: (Units=GPa)
#
#
# Indices 1 2 3 4 5 6 
#
# 1 147.0566 36.4828 50.6847 0.0000 -4.8646 0.0000
# 2 36.4828 78.0058 42.5030 0.0000 0.5711 0.0000
# 3 50.6847 42.5030 172.7908 0.0000 13.0923 0.0000
# 4 0.0000 0.0000 0.0000 23.6186 0.0000 1.7344
# 5 -4.8646 0.5711 13.0923 0.0000 43.5760 0.0000
# 6 0.0000 0.0000 0.0000 1.7344 0.0000 34.2905
#
#
#
# Elastic Compliance Matrix: (Units=1/GPa)
#
#
# Indices 1 2 3 4 5 6 
#
# 1 0.008181 -0.002850 -0.001812 0.000000 0.001495 0.000000
# 2 -0.002850 0.015833 -0.003089 0.000000 0.000402 0.000000
# 3 -0.001812 -0.003089 0.007256 0.000000 -0.002342 0.000000
# 4 0.000000 0.000000 0.000000 0.042497 0.000000 -0.002149
# 5 0.001495 0.000402 -0.002342 0.000000 0.023814 0.000000
# 6 0.000000 0.000000 0.000000 -0.002149 0.000000 0.029271
#
#
# Mechanical properties :
#
#
# Convention : Reuss Voigt Hill
#
# Bulk Modulus (GPa) = 63.41967 73.02159 68.22063
# Shear Modulus (GPa) = 33.87299 38.17584 36.02441
#
# Velocity S-wave (km/s) = 3.76101 3.99275 3.87861
# Velocity P-wave (km/s) = 6.73379 7.19371 6.96755
#
# Compressibility (1/GPa) = 0.01576798
#
# Stress axis : x y z
#
# Youngs Moduli (GPa) = 122.23273 63.16078 137.81408
#
# Poissons Ratio (x) = 0.18000 0.24972
# Poissons Ratio (y) = 0.34835 0.42571
# Poissons Ratio (z) = 0.22149 0.19511
#
# Static dielectric constant tensor:
#      x y z
#    x 4.322010 0.000000 0.089160 
#    y 0.000000 3.931920 0.000000 
#    z 0.089160 0.000000 5.059100 
# 
# 
# High freq. dielectric constant tensor:
#      x y z
#    x 1.967190 0.000000 -0.001750 
#    y 0.000000 1.921420 0.000000 
#    z -0.001750 0.000000 1.961060 
# 
# From -- ./inp_files/264372.got.cif
#   From: 2010.06.25/outbox.cif.g09.slc.cpg/sg15_133_cif.got.tgz:264372.got - 2010.06.28 07:06:18.
