data_PCOD8150492
_publ_section_title
;
Structure prediction by ZEFSAII (Michael W. Deem and Ramdas Pophale) SiO2 
 PCOD8150492
Probable space group: C 2/C
;
_chemical_formula_sum "Si O2"
_cell_formula_units_Z 40
_cell_length_a 16.109687
_cell_length_b 24.587883
_cell_length_c 8.212175
_cell_angle_alpha 90.000000
_cell_angle_beta 31.525394
_cell_angle_gamma 90.000000
_cell_volume 1700.847929
_symmetry_space_group_name_H-M "C 2/C"
_symmetry_group_IT_number 15
_symmetry_cell_setting 'monoclinic'
loop_
_space_group_symop_operation_xyz
x,y,z
-x,y,1/2-z
-x,-y,-z
x,-y,1/2+z
1/2+x,1/2+y,z
1/2-x,1/2+y,1/2-z
1/2-x,1/2-y,-z
1/2+x,1/2-y,1/2+z
loop_
_atom_site_type_symbol
_atom_site_label
_atom_site_fract_x
_atom_site_fract_y
_atom_site_fract_z
Si Si1 0.236965 0.286138 0.777904
Si Si2 0.568517 0.804047 0.383169
Si Si3 0.500000 0.636589 0.750000
Si Si4 0.333701 0.978174 0.206622
Si Si5 0.377258 0.545692 0.157902
Si Si6 0.000000 0.606468 0.250000
O O1 0.334751 0.231161 0.647805
O O2 0.344082 0.326384 0.491399
O O3 0.182984 0.315991 0.036912
O O4 0.083501 0.270201 0.927581
O O5 0.498273 0.857933 0.587658
O O6 0.524171 0.599916 0.548733
O O7 0.243417 0.943120 0.493949
O O8 0.225576 0.028255 0.328490
O O9 0.354039 0.936060 0.020150
O O10 0.500000 0.000000 0.000000
O O11 0.500000 0.500000 0.000000
#
# Coordination Sequence:
#
# PCOD8150492 Si02
#       6
#     8   8   4   8   8   4
#     4  10  24  48  75 106 140 183 230 294 357 429
#     4  10  24  48  75 106 141 179 236 290 358 429
#     4  12  25  40  74 100 148 182 235 282 354 400
#     4  12  25  46  68  97 138 192 239 282 338 410
#     4  12  25  46  66  99 140 188 235 286 339 405
#     4  12  25  40  74 104 140 182 243 280 344 412
#
# _framework density 23.517683999999999
#
# number of rings (size 3 to 8) (size 9 to 14) (size 15 to 20)
#    0.000    0.800    4.000    1.800    5.600    3.200 
#    0.000    0.000    0.000    0.000    0.000    0.000 
#    0.000    0.000    0.000    0.000    0.000    0.000 
#
# Total GULP energy -247886.980550 kJ/mol
# GULP energy per Si atom -12394.349028 kJ/mol
# Density = 2.346416 g / cm^3
# Si number density = 23.517684 Si / 1000 Ang^3
#
#
#
# Elastic Constant Matrix: (Units=GPa)
#
#
# Indices 1 2 3 4 5 6 
#
# 1 88.5172 20.1068 33.1127 0.0001 -19.9379 0.0000
# 2 20.1068 80.9484 54.0694 0.0000 -0.4753 0.0000
# 3 33.1127 54.0694 167.4034 0.0002 9.6512 0.0000
# 4 0.0001 0.0000 0.0002 56.1465 -0.0001 12.0895
# 5 -19.9379 -0.4753 9.6512 -0.0001 45.0166 0.0000
# 6 0.0000 0.0000 0.0000 12.0895 0.0000 27.1886
#
#
#
# Elastic Compliance Matrix: (Units=1/GPa)
#
#
# Indices 1 2 3 4 5 6 
#
# 1 0.014223 -0.001721 -0.002652 0.000000 0.006850 0.000000
# 2 -0.001721 0.016032 -0.004864 0.000000 0.000450 0.000000
# 3 -0.002652 -0.004864 0.008242 0.000000 -0.002993 0.000000
# 4 0.000000 0.000000 0.000000 0.019696 0.000000 -0.008758
# 5 0.006850 0.000450 -0.002993 0.000000 0.025894 0.000000
# 6 0.000000 0.000000 0.000000 -0.008758 0.000000 0.040674
#
#
# Mechanical properties :
#
#
# Convention : Reuss Voigt Hill
#
# Bulk Modulus (GPa) = 49.94261 61.27190 55.60726
# Shear Modulus (GPa) = 33.35304 40.97570 37.16437
#
# Velocity S-wave (km/s) = 3.77000 4.17866 3.97958
# Velocity P-wave (km/s) = 6.34294 7.02792 6.69420
#
# Compressibility (1/GPa) = 0.02002298
#
# Stress axis : x y z
#
# Youngs Moduli (GPa) = 70.30712 62.37352 121.33318
#
# Poissons Ratio (x) = 0.10735 0.32183
# Poissons Ratio (y) = 0.12100 0.59014
# Poissons Ratio (z) = 0.18649 0.30337
#
# Static dielectric constant tensor:
#      x y z
#    x 4.140600 0.000000 0.145550 
#    y 0.000000 3.996100 0.000000 
#    z 0.145550 0.000000 4.909060 
# 
# 
# High freq. dielectric constant tensor:
#      x y z
#    x 1.907790 0.000000 0.009400 
#    y 0.000000 1.913840 0.000000 
#    z 0.009400 0.000000 1.970390 
# 
# From -- ./inp_files/51680.got.cif
#   From: 2010.06.25/outbox.cif.g09.slc.cpg/sg15_26_cif.got.tgz:51680.got - 2010.06.28 07:06:18.
