data_PCOD8150566
_publ_section_title
;
Structure prediction by ZEFSAII (Michael W. Deem and Ramdas Pophale) SiO2 
 PCOD8150566
Probable space group: C 2/C
;
_chemical_formula_sum "Si O2"
_cell_formula_units_Z 48
_cell_length_a 12.354333
_cell_length_b 14.317845
_cell_length_c 11.002617
_cell_angle_alpha 90.000000
_cell_angle_beta 77.683757
_cell_angle_gamma 90.000000
_cell_volume 1901.432507
_symmetry_space_group_name_H-M "C 2/C"
_symmetry_group_IT_number 15
_symmetry_cell_setting 'monoclinic'
loop_
_space_group_symop_operation_xyz
x,y,z
-x,y,1/2-z
-x,-y,-z
x,-y,1/2+z
1/2+x,1/2+y,z
1/2-x,1/2+y,1/2-z
1/2-x,1/2-y,-z
1/2+x,1/2-y,1/2+z
loop_
_atom_site_type_symbol
_atom_site_label
_atom_site_fract_x
_atom_site_fract_y
_atom_site_fract_z
Si Si1 0.227992 0.603054 0.998290
Si Si2 0.376192 0.476648 0.269847
Si Si3 0.444868 0.028891 0.885975
Si Si4 0.421089 0.710742 0.653266
Si Si5 0.281873 0.670045 0.232239
Si Si6 0.043126 0.287831 0.399776
O O1 0.258370 0.679184 0.093255
O O2 0.179274 0.511185 0.078792
O O3 0.340210 0.573353 0.903435
O O4 0.140182 0.644795 0.925967
O O5 0.500000 0.516755 0.250000
O O6 0.373982 0.395171 0.167768
O O7 0.292870 0.561642 0.265397
O O8 0.500000 0.984331 0.750000
O O9 0.448449 0.141906 0.871142
O O10 0.500000 0.000000 0.000000
O O11 0.500000 0.731226 0.750000
O O12 0.319492 0.784119 0.671012
O O13 0.491012 0.721358 0.514156
O O14 0.399160 0.725258 0.220797
#
# Coordination Sequence:
#
# PCOD8150566 Si02
#       6
#     8   8   8   8   8   8
#     4  11  23  41  69 101 132 181 242 297 342 418
#     4  11  26  44  64  99 142 178 232 291 357 422
#     4  10  25  42  70 110 146 182 236 304 355 415
#     4  11  22  41  70  99 133 180 238 287 346 418
#     4  12  24  42  71  97 137 184 229 285 359 425
#     4  11  23  41  66 100 137 180 232 292 350 419
#
# _framework density 25.244122999999998
#
# number of rings (size 3 to 8) (size 9 to 14) (size 15 to 20)
#    0.000    1.000    3.333    3.500    9.333    3.333 
#    0.000    0.000    0.000    6.000    0.000    0.000 
#    0.000    0.000    0.000    0.000    0.000    0.000 
#
# Total GULP energy -297503.514348 kJ/mol
# GULP energy per Si atom -12395.979765 kJ/mol
# Density = 2.518667 g / cm^3
# Si number density = 25.244123 Si / 1000 Ang^3
#
#
#
# Elastic Constant Matrix: (Units=GPa)
#
#
# Indices 1 2 3 4 5 6 
#
# 1 52.7425 30.0350 9.4741 0.0000 -26.8452 0.0000
# 2 30.0350 130.1530 4.2395 0.0000 -16.6167 0.0000
# 3 9.4741 4.2395 109.1559 0.0000 -23.3465 0.0000
# 4 0.0000 0.0000 0.0000 33.3473 0.0000 -13.6960
# 5 -26.8452 -16.6167 -23.3465 0.0000 39.0639 0.0000
# 6 0.0000 0.0000 0.0000 -13.6960 0.0000 47.2264
#
#
#
# Elastic Compliance Matrix: (Units=1/GPa)
#
#
# Indices 1 2 3 4 5 6 
#
# 1 0.032118 -0.004768 0.001931 0.000000 0.021198 0.000000
# 2 -0.004768 0.008855 0.000200 0.000000 0.000610 0.000000
# 3 0.001931 0.000200 0.010649 0.000000 0.007777 0.000000
# 4 0.000000 0.000000 0.000000 0.034042 0.000000 0.009873
# 5 0.021198 0.000610 0.007777 0.000000 0.045073 0.000000
# 6 0.000000 0.000000 0.000000 0.009873 0.000000 0.024038
#
#
# Mechanical properties :
#
#
# Convention : Reuss Voigt Hill
#
# Bulk Modulus (GPa) = 21.57562 42.17208 31.87385
# Shear Modulus (GPa) = 28.49034 40.48104 34.48569
#
# Velocity S-wave (km/s) = 3.36310 4.00882 3.70007
# Velocity P-wave (km/s) = 4.86271 6.17815 5.55947
#
# Compressibility (1/GPa) = 0.04634860
#
# Stress axis : x y z
#
# Youngs Moduli (GPa) = 31.13534 112.93142 93.90433
#
# Poissons Ratio (x) = 0.53849 -0.18136
# Poissons Ratio (y) = 0.14846 -0.01881
# Poissons Ratio (z) = -0.06013 -0.02262
#
# Static dielectric constant tensor:
#      x y z
#    x 4.491080 0.000000 -0.298770 
#    y 0.000000 4.958700 0.000000 
#    z -0.298770 0.000000 4.522660 
# 
# 
# High freq. dielectric constant tensor:
#      x y z
#    x 1.993740 0.000000 -0.020990 
#    y 0.000000 2.017890 0.000000 
#    z -0.020990 0.000000 2.005030 
# 
# From -- ./inp_files/96849.got.cif
#   From: 2010.06.25/outbox.cif.g09.slc.cpg/sg15_49_cif.got.tgz:96849.got - 2010.06.28 07:06:18.
