data_PCOD8150784
_publ_section_title
;
Structure prediction by ZEFSAII (Michael W. Deem and Ramdas Pophale) SiO2 
 PCOD8150784
Probable space group: C 2/C
;
_chemical_formula_sum "Si O2"
_cell_formula_units_Z 52
_cell_length_a 20.202375
_cell_length_b 6.371027
_cell_length_c 22.669860
_cell_angle_alpha 90.000000
_cell_angle_beta 55.082887
_cell_angle_gamma 90.000000
_cell_volume 2392.569024
_symmetry_space_group_name_H-M "C 2/C"
_symmetry_group_IT_number 15
_symmetry_cell_setting 'monoclinic'
loop_
_space_group_symop_operation_xyz
x,y,z
-x,y,1/2-z
-x,-y,-z
x,-y,1/2+z
1/2+x,1/2+y,z
1/2-x,1/2+y,1/2-z
1/2-x,1/2-y,-z
1/2+x,1/2-y,1/2+z
loop_
_atom_site_type_symbol
_atom_site_label
_atom_site_fract_x
_atom_site_fract_y
_atom_site_fract_z
Si Si1 0.551918 0.206175 0.987377
Si Si2 0.369180 0.973936 0.843842
Si Si3 0.500000 0.301374 0.750000
Si Si4 0.185321 0.593273 0.006526
Si Si5 0.371161 0.429816 0.260944
Si Si6 0.763086 0.714121 0.111039
Si Si7 0.595639 0.581449 0.889522
O O1 0.583316 0.337261 0.914220
O O2 0.637328 0.171282 0.974368
O O3 0.495862 0.336594 0.060504
O O4 0.500000 0.000000 0.000000
O O5 0.377301 0.923172 0.908424
O O6 0.384299 0.782589 0.791777
O O7 0.433390 0.156998 0.812061
O O8 0.281389 0.063762 0.872770
O O9 0.545521 0.442627 0.775016
O O10 0.250000 0.750000 0.000000
O O11 0.226619 0.380253 0.960414
O O12 0.290668 0.552008 0.322644
O O13 0.363846 0.389104 0.195101
O O14 0.849002 0.773184 0.096046
#
# Coordination Sequence:
#
# PCOD8150784 Si02
#       7
#     8   8   4   8   8   8   8
#     4  11  26  46  69 103 137 190 235 295 357 418
#     4  11  25  43  72 100 139 185 231 296 359 418
#     4  10  26  44  64 104 138 176 246 278 370 424
#     4  12  24  45  75 100 143 180 238 295 357 429
#     4  11  26  44  70 102 142 188 230 301 357 426
#     4  11  25  45  66 108 137 187 238 288 359 429
#     4  11  27  44  70 100 144 181 245 287 357 433
#
# _framework density 21.733961000000001
#
# number of rings (size 3 to 8) (size 9 to 14) (size 15 to 20)
#    0.000    0.923    3.077    1.846    8.615    1.231 
#    0.000    0.000    0.000    0.000    0.000    0.000 
#    0.000    0.000    0.000    0.000    0.000    0.000 
#
# Total GULP energy -322132.806109 kJ/mol
# GULP energy per Si atom -12389.723312 kJ/mol
# Density = 2.168449 g / cm^3
# Si number density = 21.733961 Si / 1000 Ang^3
#
#
#
# Elastic Constant Matrix: (Units=GPa)
#
#
# Indices 1 2 3 4 5 6 
#
# 1 106.6033 50.1983 31.0510 0.0061 -6.3117 0.1155
# 2 50.1983 132.4978 55.3880 0.0207 10.2085 0.0798
# 3 31.0510 55.3880 130.9083 0.0325 24.6897 -0.0305
# 4 0.0061 0.0207 0.0325 -36.4488 -0.0232 67.9558
# 5 -6.3117 10.2085 24.6897 -0.0232 33.4922 0.0329
# 6 0.1155 0.0798 -0.0305 67.9558 0.0329 -31.3044
#
#
#
# Elastic Compliance Matrix: (Units=1/GPa)
#
#
# Indices 1 2 3 4 5 6 
#
# 1 0.012258 -0.004154 -0.002119 -0.000024 0.005138 -0.000010
# 2 -0.004154 0.010577 -0.003176 -0.000009 -0.001666 -0.000007
# 3 -0.002119 -0.003176 0.010892 0.000017 -0.007461 0.000003
# 4 -0.000024 -0.000009 0.000017 0.009003 -0.000027 0.019545
# 5 0.005138 -0.001666 -0.007461 -0.000027 0.036834 0.000002
# 6 -0.000010 -0.000007 0.000003 0.019545 0.000002 0.010483
#
#
# Mechanical properties :
#
#
# Convention : Reuss Voigt Hill
#
# Bulk Modulus (GPa) = 67.43209 71.47602 69.45405
# Shear Modulus (GPa) = 43.90246 8.70596 26.30421
#
# Velocity S-wave (km/s) = 4.49931 2.00359 3.48268
# Velocity P-wave (km/s) = 7.62137 6.18956 6.94247
#
# Compressibility (1/GPa) = 0.01482973
#
# Stress axis : x y z
#
# Youngs Moduli (GPa) = 81.57792 94.54442 91.80740
#
# Poissons Ratio (x) = 0.39276 0.19454
# Poissons Ratio (y) = 0.33889 0.29155
# Poissons Ratio (z) = 0.17287 0.30024
#
# Static dielectric constant tensor:
#      x y z
#    x 5.928780 0.001890 0.256470 
#    y 0.001890 4.588580 -0.000200 
#    z 0.256470 -0.000200 3.812850 
# 
# 
# High freq. dielectric constant tensor:
#      x y z
#    x 1.861370 -0.000010 -0.014270 
#    y -0.000010 1.867790 0.000000 
#    z -0.014270 0.000000 1.856930 
# 
# From -- ./inp_files/278878.got.cif
#   From: 2010.06.25/outbox.cif.g09.slc.cpg/sg15_140_cif.got.tgz:278878.got - 2010.06.28 07:06:18.
