data_PCOD8150215
_publ_section_title
;
Structure prediction by ZEFSAII (Michael W. Deem and Ramdas Pophale) SiO2 
 PCOD8150215
Probable space group: C 2/C
;
_chemical_formula_sum "Si O2"
_cell_formula_units_Z 36
_cell_length_a 8.507297
_cell_length_b 11.888650
_cell_length_c 20.720239
_cell_angle_alpha 90.000000
_cell_angle_beta 138.741487
_cell_angle_gamma 90.000000
_cell_volume 1381.992606
_symmetry_space_group_name_H-M "C 2/C"
_symmetry_group_IT_number 15
_symmetry_cell_setting 'monoclinic'
loop_
_space_group_symop_operation_xyz
x,y,z
-x,y,1/2-z
-x,-y,-z
x,-y,1/2+z
1/2+x,1/2+y,z
1/2-x,1/2+y,1/2-z
1/2-x,1/2-y,-z
1/2+x,1/2-y,1/2+z
loop_
_atom_site_type_symbol
_atom_site_label
_atom_site_fract_x
_atom_site_fract_y
_atom_site_fract_z
Si Si1 0.008464 0.213085 0.959143
Si Si2 0.874133 0.309861 0.371888
Si Si3 0.336016 0.149211 0.295753
Si Si4 0.000000 0.018209 0.750000
Si Si5 0.348007 0.041011 0.639105
O O1 0.815073 0.279970 0.855304
O O2 0.928649 0.079578 0.932552
O O3 0.250000 0.250000 0.000000
O O4 0.992479 0.253224 0.027584
O O5 0.712794 0.221262 0.282652
O O6 0.695137 0.403892 0.346076
O O7 0.069295 0.366044 0.386758
O O8 0.601925 0.087429 0.371155
O O9 0.133916 0.052859 0.236079
O O10 0.500000 0.054148 0.750000
#
# Coordination Sequence:
#
# PCOD8150215 Si02
#       5
#     8   8   8   4   8
#     4  12  27  45  73 113 146 186 247 302 357 433
#     4  11  24  47  75 105 149 189 240 304 359 426
#     4  11  25  46  75 102 151 192 236 302 366 422
#     4  10  24  44  76 108 140 190 244 288 370 436
#     4  11  25  46  75 104 143 197 244 286 370 436
#
# _framework density 26.049341999999999
#
# number of rings (size 3 to 8) (size 9 to 14) (size 15 to 20)
#    0.000    0.889    2.222    3.333    7.778    6.222 
#    0.000    0.000    0.000    0.000    0.000    0.000 
#    0.000    0.000    0.000    0.000    0.000    0.000 
#
# Total GULP energy -223072.084504 kJ/mol
# GULP energy per Si atom -12392.893584 kJ/mol
# Density = 2.599005 g / cm^3
# Si number density = 26.049342 Si / 1000 Ang^3
#
#
#
# Elastic Constant Matrix: (Units=GPa)
#
#
# Indices 1 2 3 4 5 6 
#
# 1 76.1994 29.9699 7.6870 0.0000 -8.0415 0.0000
# 2 29.9699 130.4511 28.1799 0.0000 -13.5942 0.0000
# 3 7.6870 28.1799 86.3505 0.0000 -46.5144 0.0000
# 4 0.0000 0.0000 0.0000 -14.7866 0.0000 -28.3659
# 5 -8.0415 -13.5942 -46.5144 0.0000 52.6643 0.0000
# 6 0.0000 0.0000 0.0000 -28.3659 0.0000 32.6310
#
#
#
# Elastic Compliance Matrix: (Units=1/GPa)
#
#
# Indices 1 2 3 4 5 6 
#
# 1 0.014569 -0.003329 0.001001 0.000000 0.002250 0.000000
# 2 -0.003329 0.009014 -0.003177 0.000000 -0.000988 0.000000
# 3 0.001001 -0.003177 0.023213 0.000000 0.019835 0.000000
# 4 0.000000 0.000000 0.000000 -0.025352 0.000000 -0.022038
# 5 0.002250 -0.000988 0.019835 0.000000 0.036595 0.000000
# 6 0.000000 0.000000 0.000000 -0.022038 0.000000 0.011488
#
#
# Mechanical properties :
#
#
# Convention : Reuss Voigt Hill
#
# Bulk Modulus (GPa) = 27.94415 47.18609 37.56512
# Shear Modulus (GPa) = 54.07350 29.24603 41.65976
#
# Velocity S-wave (km/s) = 4.56105 3.35433 4.00342
# Velocity P-wave (km/s) = 6.20389 5.75808 5.98514
#
# Compressibility (1/GPa) = 0.03578566
#
# Stress axis : x y z
#
# Youngs Moduli (GPa) = 68.63796 110.93906 43.07929
#
# Poissons Ratio (x) = 0.36932 -0.04313
# Poissons Ratio (y) = 0.22850 0.13688
# Poissons Ratio (z) = -0.06872 0.35251
#
# Static dielectric constant tensor:
#      x y z
#    x 5.008370 0.000000 -0.215500 
#    y 0.000000 5.449300 0.000000 
#    z -0.215500 0.000000 5.012870 
# 
# 
# High freq. dielectric constant tensor:
#      x y z
#    x 2.052460 0.000000 0.004100 
#    y 0.000000 2.054790 0.000000 
#    z 0.004100 0.000000 2.034760 
# 
# From -- ./inp_files/230087.got.cif
#   From: 2010.06.25/outbox.cif.g09.slc.cpg/sg15_116_cif.got.tgz:230087.got - 2010.06.28 07:06:18.
