data_PCOD8150363
_publ_section_title
;
Structure prediction by ZEFSAII (Michael W. Deem and Ramdas Pophale) SiO2 
 PCOD8150363
Probable space group: C 2/C
;
_chemical_formula_sum "Si O2"
_cell_formula_units_Z 44
_cell_length_a 4.910634
_cell_length_b 17.715887
_cell_length_c 22.406379
_cell_angle_alpha 90.000000
_cell_angle_beta 104.341096
_cell_angle_gamma 90.000000
_cell_volume 1888.528109
_symmetry_space_group_name_H-M "C 2/C"
_symmetry_group_IT_number 15
_symmetry_cell_setting 'monoclinic'
loop_
_space_group_symop_operation_xyz
x,y,z
-x,y,1/2-z
-x,-y,-z
x,-y,1/2+z
1/2+x,1/2+y,z
1/2-x,1/2+y,1/2-z
1/2-x,1/2-y,-z
1/2+x,1/2-y,1/2+z
loop_
_atom_site_type_symbol
_atom_site_label
_atom_site_fract_x
_atom_site_fract_y
_atom_site_fract_z
Si Si1 0.107812 0.823908 0.021561
Si Si2 0.500000 0.401998 0.750000
Si Si3 0.683710 0.151066 0.600532
Si Si4 0.783670 0.598825 0.095946
Si Si5 0.294016 0.782838 0.687124
Si Si6 0.309495 0.484785 0.635527
O O1 0.378272 0.870873 0.058087
O O2 0.892890 0.807662 0.064453
O O3 0.250000 0.750000 0.000000
O O4 0.927642 0.872842 0.966102
O O5 0.595490 0.345833 0.703661
O O6 0.279278 0.457088 0.703577
O O7 0.636650 0.209378 0.652847
O O8 0.818209 0.074843 0.632507
O O9 0.924553 0.670311 0.138560
O O10 0.609853 0.541181 0.127442
O O11 0.048579 0.551737 0.084303
O O12 0.500000 0.754108 0.750000
#
# Coordination Sequence:
#
# PCOD8150363 Si02
#       6
#     8   4   8   8   8   8
#     4  12  26  46  72 105 143 184 234 293 347 422
#     4  10  24  46  70  98 142 190 226 282 352 424
#     4  12  28  43  72 109 141 179 237 297 350 407
#     4  11  24  45  74  95 140 191 228 280 350 427
#     4  11  24  43  71 101 134 188 236 281 345 424
#     4  11  25  45  68 106 139 181 234 288 354 411
#
# _framework density 23.298568
#
# number of rings (size 3 to 8) (size 9 to 14) (size 15 to 20)
#    0.000    0.727    3.636    2.727    6.364    4.364 
#    0.000    0.000    0.000    0.000    0.000    0.000 
#    0.000    0.000    0.000    0.000    0.000    0.000 
#
# Total GULP energy -272548.421201 kJ/mol
# GULP energy per Si atom -12388.564600 kJ/mol
# Density = 2.324554 g / cm^3
# Si number density = 23.298568 Si / 1000 Ang^3
#
#
#
# Elastic Constant Matrix: (Units=GPa)
#
#
# Indices 1 2 3 4 5 6 
#
# 1 84.3908 -5.8999 31.6421 0.0000 9.5355 0.0000
# 2 -5.8999 92.6410 64.2644 0.0000 -0.3173 0.0000
# 3 31.6421 64.2644 129.8313 0.0000 14.2409 0.0000
# 4 0.0000 0.0000 0.0000 14.7978 0.0000 3.5459
# 5 9.5355 -0.3173 14.2409 0.0000 31.1773 0.0000
# 6 0.0000 0.0000 0.0000 3.5459 0.0000 34.5759
#
#
#
# Elastic Compliance Matrix: (Units=1/GPa)
#
#
# Indices 1 2 3 4 5 6 
#
# 1 0.014573 0.004953 -0.005811 0.000000 -0.001752 0.000000
# 2 0.004953 0.018633 -0.010827 0.000000 0.003620 0.000000
# 3 -0.005811 -0.010827 0.015049 0.000000 -0.005207 0.000000
# 4 0.000000 0.000000 0.000000 0.069280 0.000000 -0.007105
# 5 -0.001752 0.003620 -0.005207 0.000000 0.035026 0.000000
# 6 0.000000 0.000000 0.000000 -0.007105 0.000000 0.029651
#
#
# Mechanical properties :
#
#
# Convention : Reuss Voigt Hill
#
# Bulk Modulus (GPa) = 40.18588 54.09736 47.14162
# Shear Modulus (GPa) = 23.37796 30.56730 26.97263
#
# Velocity S-wave (km/s) = 3.17110 3.62606 3.40618
# Velocity P-wave (km/s) = 5.54017 6.38754 5.97888
#
# Compressibility (1/GPa) = 0.02488436
#
# Stress axis : x y z
#
# Youngs Moduli (GPa) = 68.62087 53.66800 66.44918
#
# Poissons Ratio (x) = -0.26583 0.38615
# Poissons Ratio (y) = -0.33990 0.71947
# Poissons Ratio (z) = 0.39877 0.58108
#
# Static dielectric constant tensor:
#      x y z
#    x 4.484610 0.000000 -0.118990 
#    y 0.000000 4.043600 0.000000 
#    z -0.118990 0.000000 4.847750 
# 
# 
# High freq. dielectric constant tensor:
#      x y z
#    x 1.912310 0.000000 0.011650 
#    y 0.000000 1.921680 0.000000 
#    z 0.011650 0.000000 1.928720 
# 
# From -- ./inp_files/260787.got.cif
#   From: 2010.06.25/outbox.cif.g09.slc.cpg/sg15_131_cif.got.tgz:260787.got - 2010.06.28 07:06:18.
