data_PCOD8150425
_publ_section_title
;
Structure prediction by ZEFSAII (Michael W. Deem and Ramdas Pophale) SiO2 
 PCOD8150425
Probable space group: C 2/C
;
_chemical_formula_sum "Si O2"
_cell_formula_units_Z 52
_cell_length_a 15.489537
_cell_length_b 6.324702
_cell_length_c 23.316984
_cell_angle_alpha 90.000000
_cell_angle_beta 64.350429
_cell_angle_gamma 90.000000
_cell_volume 2059.190608
_symmetry_space_group_name_H-M "C 2/C"
_symmetry_group_IT_number 15
_symmetry_cell_setting 'monoclinic'
loop_
_space_group_symop_operation_xyz
x,y,z
-x,y,1/2-z
-x,-y,-z
x,-y,1/2+z
1/2+x,1/2+y,z
1/2-x,1/2+y,1/2-z
1/2-x,1/2-y,-z
1/2+x,1/2-y,1/2+z
loop_
_atom_site_type_symbol
_atom_site_label
_atom_site_fract_x
_atom_site_fract_y
_atom_site_fract_z
Si Si1 0.155586 0.637940 0.824638
Si Si2 0.515499 0.489515 0.839447
Si Si3 0.199361 0.481793 0.691635
Si Si4 0.461140 0.207570 0.069386
Si Si5 0.635727 0.067369 0.506771
Si Si6 0.314870 0.315065 0.896491
Si Si7 0.000000 0.693764 0.250000
O O1 0.210741 0.524608 0.756389
O O2 0.102672 0.474090 0.881520
O O3 0.230378 0.781192 0.839957
O O4 0.074502 0.775749 0.815547
O O5 0.405207 0.456329 0.853212
O O6 0.549381 0.670284 0.786140
O O7 0.537142 0.572361 0.897334
O O8 0.230901 0.686704 0.644565
O O9 0.089560 0.444980 0.702513
O O10 0.572293 0.141764 0.030641
O O11 0.419872 0.240947 0.017112
O O12 0.650577 0.150316 0.565986
O O13 0.736898 0.025007 0.446083
#
# Coordination Sequence:
#
# PCOD8150425 Si02
#       7
#     8   8   8   8   8   8   4
#     4  12  26  47  70 107 138 189 232 296 352 438
#     4  12  24  44  74 101 145 182 235 289 365 413
#     4  12  26  45  75 102 146 180 242 290 365 425
#     4  11  24  48  70 102 139 189 238 288 348 429
#     4  10  24  47  67 100 145 181 243 284 345 420
#     4  11  24  45  70 105 138 186 231 297 351 417
#     4  12  24  42  68 108 136 182 222 302 356 420
#
# _framework density 25.252641000000001
#
# number of rings (size 3 to 8) (size 9 to 14) (size 15 to 20)
#    0.000    0.615    3.077    4.615    4.308    1.231 
#   11.077    0.000    0.000    0.000    0.000    0.000 
#    0.000    0.000    0.000    0.000    0.000    0.000 
#
# Total GULP energy -322411.518394 kJ/mol
# GULP energy per Si atom -12400.443015 kJ/mol
# Density = 2.519516 g / cm^3
# Si number density = 25.252641 Si / 1000 Ang^3
#
#
#
# Elastic Constant Matrix: (Units=GPa)
#
#
# Indices 1 2 3 4 5 6 
#
# 1 100.6206 10.1449 20.7005 0.0003 -6.5827 0.0035
# 2 10.1449 53.3185 15.9175 -0.0004 -9.7681 0.0050
# 3 20.7005 15.9175 83.6480 -0.0011 -4.6409 -0.0015
# 4 0.0003 -0.0004 -0.0011 19.1532 -0.0004 5.5951
# 5 -6.5827 -9.7681 -4.6409 -0.0004 45.5752 0.0001
# 6 0.0035 0.0050 -0.0015 5.5951 0.0001 52.3180
#
#
#
# Elastic Compliance Matrix: (Units=1/GPa)
#
#
# Indices 1 2 3 4 5 6 
#
# 1 0.010604 -0.001123 -0.002352 0.000000 0.001051 -0.000001
# 2 -0.001123 0.020717 -0.003447 0.000001 0.003927 -0.000002
# 3 -0.002352 -0.003447 0.013208 0.000000 0.000266 0.000001
# 4 0.000000 0.000001 0.000000 0.053894 0.000001 -0.005764
# 5 0.001051 0.003927 0.000266 0.000001 0.022962 -0.000001
# 6 -0.000001 -0.000002 0.000001 -0.005764 -0.000001 0.019730
#
#
# Mechanical properties :
#
#
# Convention : Reuss Voigt Hill
#
# Bulk Modulus (GPa) = 32.58830 36.79032 34.68931
# Shear Modulus (GPa) = 30.26854 36.13089 33.19972
#
# Velocity S-wave (km/s) = 3.46588 3.78666 3.62982
# Velocity P-wave (km/s) = 5.38046 5.80680 5.59769
#
# Compressibility (1/GPa) = 0.03068586
#
# Stress axis : x y z
#
# Youngs Moduli (GPa) = 94.30188 48.26895 75.71391
#
# Poissons Ratio (x) = 0.05420 0.17810
# Poissons Ratio (y) = 0.10588 0.26095
# Poissons Ratio (z) = 0.22182 0.16636
#
# Static dielectric constant tensor:
#      x y z
#    x 4.614360 0.000000 -0.132060 
#    y 0.000000 4.148720 0.000000 
#    z -0.132060 0.000000 4.647530 
# 
# 
# High freq. dielectric constant tensor:
#      x y z
#    x 2.024810 0.000000 -0.004580 
#    y 0.000000 1.981580 0.000000 
#    z -0.004580 0.000000 2.016210 
# 
# From -- ./inp_files/297696.got.cif
#   From: 2010.06.25/outbox.cif.g09.slc.cpg/sg15_149_cif.got.tgz:297696.got - 2010.06.28 07:06:18.
