data_PCOD8150538
_publ_section_title
;
Structure prediction by ZEFSAII (Michael W. Deem and Ramdas Pophale) SiO2 
 PCOD8150538
Probable space group: C 2/C
;
_chemical_formula_sum "Si O2"
_cell_formula_units_Z 60
_cell_length_a 17.066713
_cell_length_b 8.405166
_cell_length_c 24.014983
_cell_angle_alpha 90.000000
_cell_angle_beta 117.644643
_cell_angle_gamma 90.000000
_cell_volume 3051.651186
_symmetry_space_group_name_H-M "C 2/C"
_symmetry_group_IT_number 15
_symmetry_cell_setting 'monoclinic'
loop_
_space_group_symop_operation_xyz
x,y,z
-x,y,1/2-z
-x,-y,-z
x,-y,1/2+z
1/2+x,1/2+y,z
1/2-x,1/2+y,1/2-z
1/2-x,1/2-y,-z
1/2+x,1/2-y,1/2+z
loop_
_atom_site_type_symbol
_atom_site_label
_atom_site_fract_x
_atom_site_fract_y
_atom_site_fract_z
Si Si1 0.500000 0.645179 0.750000
Si Si2 0.791169 0.451226 0.651715
Si Si3 0.863120 0.070320 0.151296
Si Si4 0.411942 0.115874 0.296056
Si Si5 0.690110 0.241032 0.130512
Si Si6 0.746364 0.170915 0.558435
Si Si7 0.437487 0.121373 0.628389
Si Si8 0.090944 0.437141 0.507579
O O1 0.585917 0.539166 0.788185
O O2 0.517151 0.754412 0.701589
O O3 0.839262 0.416456 0.725434
O O4 0.710133 0.570853 0.637735
O O5 0.751901 0.291851 0.612058
O O6 0.859984 0.519580 0.630157
O O7 0.783623 0.150257 0.159306
O O8 0.932237 0.198883 0.149697
O O9 0.823855 0.961579 0.088603
O O10 0.363468 0.183855 0.333712
O O11 0.466114 0.953819 0.327177
O O12 0.630369 0.206875 0.056880
O O13 0.750000 0.250000 0.500000
O O14 0.652069 0.090312 0.532131
O O15 0.418933 0.129951 0.557232
O O16 0.000000 0.500000 0.500000
#
# Coordination Sequence:
#
# PCOD8150538 Si02
#       8
#     4   8   8   8   8   8   8   8
#     4  12  24  42  64  94 136 164 218 264 328 388
#     4  11  23  42  67  95 126 178 217 267 333 389
#     4  10  25  41  63  99 125 170 219 267 318 400
#     4  12  23  43  66  94 133 173 215 274 331 394
#     4  10  26  41  65  95 131 168 222 267 330 392
#     4  11  22  41  67  90 127 170 217 265 321 384
#     4  11  22  42  70  94 129 174 217 269 330 395
#     4  11  23  43  65  93 131 168 216 273 328 383
#
# _framework density 19.661487999999999
#
# number of rings (size 3 to 8) (size 9 to 14) (size 15 to 20)
#    0.000    1.067    5.333    0.000    7.467    1.600 
#    2.400    0.667    0.000    0.000    0.000    0.000 
#    0.000    0.000    0.000    0.000    0.000    0.000 
#
# Total GULP energy -372075.357586 kJ/mol
# GULP energy per Si atom -12402.511920 kJ/mol
# Density = 1.961674 g / cm^3
# Si number density = 19.661488 Si / 1000 Ang^3
#
#
#
# Elastic Constant Matrix: (Units=GPa)
#
#
# Indices 1 2 3 4 5 6 
#
# 1 99.8314 51.8790 50.1700 0.0000 -4.6805 0.0000
# 2 51.8790 124.8187 51.4764 0.0000 3.1259 0.0000
# 3 50.1700 51.4764 128.0683 0.0000 -6.4036 0.0000
# 4 0.0000 0.0000 0.0000 25.0046 0.0000 8.8351
# 5 -4.6805 3.1259 -6.4036 0.0000 38.3322 0.0000
# 6 0.0000 0.0000 0.0000 8.8351 0.0000 31.0992
#
#
#
# Elastic Compliance Matrix: (Units=1/GPa)
#
#
# Indices 1 2 3 4 5 6 
#
# 1 0.014263 -0.004425 -0.003735 0.000000 0.001478 0.000000
# 2 -0.004425 0.011056 -0.002806 0.000000 -0.001911 0.000000
# 3 -0.003735 -0.002806 0.010475 0.000000 0.001523 0.000000
# 4 0.000000 0.000000 0.000000 0.044455 0.000000 -0.012629
# 5 0.001478 -0.001911 0.001523 0.000000 0.026678 0.000000
# 6 0.000000 0.000000 0.000000 -0.012629 0.000000 0.035743
#
#
# Mechanical properties :
#
#
# Convention : Reuss Voigt Hill
#
# Bulk Modulus (GPa) = 72.13654 73.30769 72.72212
# Shear Modulus (GPa) = 29.54696 32.16675 30.85685
#
# Velocity S-wave (km/s) = 3.88078 4.04917 3.96587
# Velocity P-wave (km/s) = 7.53986 7.69590 7.61828
#
# Compressibility (1/GPa) = 0.01386260
#
# Stress axis : x y z
#
# Youngs Moduli (GPa) = 70.11389 90.45068 95.46165
#
# Poissons Ratio (x) = 0.40022 0.35653
# Poissons Ratio (y) = 0.31024 0.26786
# Poissons Ratio (z) = 0.26186 0.25380
#
# Static dielectric constant tensor:
#      x y z
#    x 3.595380 0.000000 0.046170 
#    y 0.000000 3.422980 0.000000 
#    z 0.046170 0.000000 3.876990 
# 
# 
# High freq. dielectric constant tensor:
#      x y z
#    x 1.761820 0.000000 0.006340 
#    y 0.000000 1.773870 0.000000 
#    z 0.006340 0.000000 1.778510 
# 
# From -- ./inp_files/247849.got.cif
#   From: 2010.06.25/outbox.cif.g09.slc.cpg/sg15_124_cif.got.tgz:247849.got - 2010.06.28 07:06:18.
