data_PCOD8150476
_publ_section_title
;
Structure prediction by ZEFSAII (Michael W. Deem and Ramdas Pophale) SiO2 
 PCOD8150476
Probable space group: C 2/C
;
_chemical_formula_sum "Si O2"
_cell_formula_units_Z 28
_cell_length_a 8.023435
_cell_length_b 17.039614
_cell_length_c 15.602603
_cell_angle_alpha 90.000000
_cell_angle_beta 35.980355
_cell_angle_gamma 90.000000
_cell_volume 1253.230075
_symmetry_space_group_name_H-M "C 2/C"
_symmetry_group_IT_number 15
_symmetry_cell_setting 'monoclinic'
loop_
_space_group_symop_operation_xyz
x,y,z
-x,y,1/2-z
-x,-y,-z
x,-y,1/2+z
1/2+x,1/2+y,z
1/2-x,1/2+y,1/2-z
1/2-x,1/2-y,-z
1/2+x,1/2-y,1/2+z
loop_
_atom_site_type_symbol
_atom_site_label
_atom_site_fract_x
_atom_site_fract_y
_atom_site_fract_z
Si Si1 0.815024 0.458753 0.648768
Si Si2 0.000000 0.199050 0.750000
Si Si3 0.250737 0.399565 0.207818
Si Si4 0.337450 0.151820 0.399231
O O1 0.500000 0.440091 0.750000
O O2 0.196136 0.511361 0.760044
O O3 0.000000 0.500000 0.500000
O O4 0.969059 0.375303 0.601262
O O5 0.780653 0.148348 0.785046
O O6 0.823997 0.252865 0.891901
O O7 0.000000 0.369556 0.250000
O O8 0.532768 0.388894 0.034039
O O9 0.500000 0.115670 0.250000
#
# Coordination Sequence:
#
# PCOD8150476 Si02
#       4
#     8   4   8   8
#     4  12  24  42  70 101 137 179 227 281 340 398
#     4  10  24  48  68  98 144 174 226 282 338 404
#     4  12  25  44  74  99 138 181 229 278 341 402
#     4  10  25  44  66 100 141 173 228 281 335 402
#
# _framework density 22.342265999999999
#
# number of rings (size 3 to 8) (size 9 to 14) (size 15 to 20)
#    0.857    0.000    4.286    1.714    4.000    4.571 
#    0.000    0.000    0.000    0.000    0.000    0.000 
#    0.000    0.000    0.000    0.000    0.000    0.000 
#
# Total GULP energy -173477.419911 kJ/mol
# GULP energy per Si atom -12391.244279 kJ/mol
# Density = 2.229141 g / cm^3
# Si number density = 22.342266 Si / 1000 Ang^3
#
#
#
# Elastic Constant Matrix: (Units=GPa)
#
#
# Indices 1 2 3 4 5 6 
#
# 1 195.5058 54.6859 40.7629 0.0037 -32.1510 0.0033
# 2 54.6859 94.5761 1.3208 0.0015 -9.9409 -0.0023
# 3 40.7629 1.3208 97.1825 0.0143 -28.1079 -0.0254
# 4 0.0037 0.0015 0.0143 15.1303 -0.0061 9.0811
# 5 -32.1510 -9.9409 -28.1079 -0.0061 44.2260 0.0018
# 6 0.0033 -0.0023 -0.0254 9.0811 0.0018 27.5393
#
#
#
# Elastic Compliance Matrix: (Units=1/GPa)
#
#
# Indices 1 2 3 4 5 6 
#
# 1 0.007087 -0.003753 -0.002053 0.000005 0.003004 -0.000005
# 2 -0.003753 0.012854 0.001772 -0.000004 0.001287 0.000004
# 3 -0.002053 0.001772 0.013245 -0.000021 0.007324 0.000019
# 4 0.000005 -0.000004 -0.000021 0.082401 0.000002 -0.027172
# 5 0.003004 0.001287 0.007324 0.000002 0.029739 0.000004
# 6 -0.000005 0.000004 0.000019 -0.027172 0.000004 0.045272
#
#
# Mechanical properties :
#
#
# Convention : Reuss Voigt Hill
#
# Bulk Modulus (GPa) = 39.81281 64.53373 52.17327
# Shear Modulus (GPa) = 24.15012 36.74545 30.44778
#
# Velocity S-wave (km/s) = 3.29130 4.05984 3.69560
# Velocity P-wave (km/s) = 5.68346 7.13605 6.45077
#
# Compressibility (1/GPa) = 0.02511754
#
# Stress axis : x y z
#
# Youngs Moduli (GPa) = 141.10867 77.79525 75.49919
#
# Poissons Ratio (x) = 0.29199 0.15498
# Poissons Ratio (y) = 0.52963 -0.13377
# Poissons Ratio (z) = 0.28967 -0.13784
#
# Static dielectric constant tensor:
#      x y z
#    x 3.927360 -0.000020 0.192320 
#    y -0.000020 4.031030 0.000010 
#    z 0.192320 0.000010 3.961020 
# 
# 
# High freq. dielectric constant tensor:
#      x y z
#    x 1.879760 0.000000 0.016630 
#    y 0.000000 1.878010 0.000000 
#    z 0.016630 0.000000 1.896890 
# 
# From -- ./inp_files/128579.got.cif
#   From: 2010.06.25/outbox.cif.g09.slc.cpg/sg15_65_cif.got.tgz:128579.got - 2010.06.28 07:06:18.
