data_PCOD8150939
_publ_section_title
;
Structure prediction by ZEFSAII (Michael W. Deem and Ramdas Pophale) SiO2 
 PCOD8150939
Probable space group: C 2/C
;
_chemical_formula_sum "Si O2"
_cell_formula_units_Z 36
_cell_length_a 18.063166
_cell_length_b 5.131378
_cell_length_c 27.294468
_cell_angle_alpha 90.000000
_cell_angle_beta 145.872384
_cell_angle_gamma 90.000000
_cell_volume 1419.367407
_symmetry_space_group_name_H-M "C 2/C"
_symmetry_group_IT_number 15
_symmetry_cell_setting 'monoclinic'
loop_
_space_group_symop_operation_xyz
x,y,z
-x,y,1/2-z
-x,-y,-z
x,-y,1/2+z
1/2+x,1/2+y,z
1/2-x,1/2+y,1/2-z
1/2-x,1/2-y,-z
1/2+x,1/2-y,1/2+z
loop_
_atom_site_type_symbol
_atom_site_label
_atom_site_fract_x
_atom_site_fract_y
_atom_site_fract_z
Si Si1 0.436729 0.203729 0.819274
Si Si2 0.916403 0.979640 0.029884
Si Si3 0.218885 0.504264 0.082236
Si Si4 0.000000 0.202051 0.250000
Si Si5 0.142737 0.352131 0.641070
O O1 0.538952 0.434396 0.890522
O O2 0.471744 0.118655 0.782686
O O3 0.285448 0.290826 0.740428
O O4 0.449553 0.977204 0.866756
O O5 0.055850 0.904666 0.079016
O O6 0.819841 0.727897 0.975776
O O7 0.835418 0.214040 0.962234
O O8 0.376402 0.513808 0.172685
O O9 0.156700 0.453796 0.102354
#
# Coordination Sequence:
#
# PCOD8150939 Si02
#       5
#     8   8   8   4   8
#     4  11  24  45  75 104 149 188 241 288 361 424
#     4  12  24  44  75 110 137 185 241 298 346 423
#     4  11  27  45  74 103 148 181 240 294 360 417
#     4  10  28  54  64 108 146 202 228 300 360 428
#     4  11  23  43  73 110 141 187 233 298 353 425
#
# _framework density 25.363409999999998
#
# number of rings (size 3 to 8) (size 9 to 14) (size 15 to 20)
#    0.000    0.889    4.444    1.333    3.111    2.667 
#    4.000    0.000    0.000    0.000    0.000    0.000 
#    0.000    0.000    0.000    0.000    0.000    0.000 
#
# Total GULP energy -222997.238954 kJ/mol
# GULP energy per Si atom -12388.735497 kJ/mol
# Density = 2.530568 g / cm^3
# Si number density = 25.363410 Si / 1000 Ang^3
#
#
#
# Elastic Constant Matrix: (Units=GPa)
#
#
# Indices 1 2 3 4 5 6 
#
# 1 147.0744 41.5225 49.5500 0.0041 -8.0904 0.0507
# 2 41.5225 129.2549 65.8773 -0.0060 5.3444 0.1028
# 3 49.5500 65.8773 180.2516 -0.0073 32.3684 0.0256
# 4 0.0041 -0.0060 -0.0073 23.8207 0.0083 -6.3109
# 5 -8.0904 5.3444 32.3684 0.0083 25.9412 -0.0359
# 6 0.0507 0.1028 0.0256 -6.3109 -0.0359 18.4719
#
#
#
# Elastic Compliance Matrix: (Units=1/GPa)
#
#
# Indices 1 2 3 4 5 6 
#
# 1 0.008621 -0.001500 -0.003041 -0.000005 0.006793 0.000000
# 2 -0.001500 0.009961 -0.003577 -0.000011 0.001943 -0.000046
# 3 -0.003041 -0.003577 0.009961 0.000005 -0.012641 -0.000008
# 4 -0.000005 -0.000011 0.000005 0.046158 0.000002 0.015770
# 5 0.006793 0.001943 -0.012641 0.000002 0.056039 0.000098
# 6 0.000000 -0.000046 -0.000008 0.015770 0.000098 0.059525
#
#
# Mechanical properties :
#
#
# Convention : Reuss Voigt Hill
#
# Bulk Modulus (GPa) = 81.26053 85.60897 83.43475
# Shear Modulus (GPa) = 23.74099 33.62215 28.68157
#
# Velocity S-wave (km/s) = 3.06278 3.64485 3.36642
# Velocity P-wave (km/s) = 6.67949 7.17910 6.93380
#
# Compressibility (1/GPa) = 0.01230610
#
# Stress axis : x y z
#
# Youngs Moduli (GPa) = 115.99374 100.38665 100.38978
#
# Poissons Ratio (x) = 0.15061 0.30532
# Poissons Ratio (y) = 0.17402 0.35911
# Poissons Ratio (z) = 0.35278 0.35910
#
# Static dielectric constant tensor:
#      x y z
#    x 4.460200 -0.000140 -0.042770 
#    y -0.000140 4.293070 0.000080 
#    z -0.042770 0.000080 5.091320 
# 
# 
# High freq. dielectric constant tensor:
#      x y z
#    x 1.987290 -0.000010 0.003760 
#    y -0.000010 1.983530 0.000000 
#    z 0.003760 0.000000 2.055350 
# 
# From -- ./inp_files/297597.got.cif
#   From: 2010.06.25/outbox.cif.g09.slc.cpg/sg15_149_cif.got.tgz:297597.got - 2010.06.28 07:06:18.
