data_PCOD8150354
_publ_section_title
;
Structure prediction by ZEFSAII (Michael W. Deem and Ramdas Pophale) SiO2 
 PCOD8150354
Probable space group: C 2/C
;
_chemical_formula_sum "Si O2"
_cell_formula_units_Z 56
_cell_length_a 29.318800
_cell_length_b 13.821195
_cell_length_c 12.296333
_cell_angle_alpha 90.000000
_cell_angle_beta 29.193200
_cell_angle_gamma 90.000000
_cell_volume 2430.356990
_symmetry_space_group_name_H-M "C 2/C"
_symmetry_group_IT_number 15
_symmetry_cell_setting 'monoclinic'
loop_
_space_group_symop_operation_xyz
x,y,z
-x,y,1/2-z
-x,-y,-z
x,-y,1/2+z
1/2+x,1/2+y,z
1/2-x,1/2+y,1/2-z
1/2-x,1/2-y,-z
1/2+x,1/2-y,1/2+z
loop_
_atom_site_type_symbol
_atom_site_label
_atom_site_fract_x
_atom_site_fract_y
_atom_site_fract_z
Si Si1 0.711523 0.853120 0.842849
Si Si2 0.734679 0.461268 0.383912
Si Si3 0.047431 0.579856 0.263569
Si Si4 0.908349 0.216594 0.872658
Si Si5 0.891569 0.827362 0.001459
Si Si6 0.085696 0.073687 0.823721
Si Si7 0.876813 0.404799 0.262027
O O1 0.704156 0.966052 0.820845
O O2 0.821736 0.830715 0.616235
O O3 0.657292 0.777578 0.876470
O O4 0.663939 0.833776 0.060158
O O5 0.665434 0.385682 0.471208
O O6 0.676949 0.526456 0.585296
O O7 0.806013 0.403510 0.309631
O O8 0.114194 0.669224 0.091775
O O9 0.109058 0.504656 0.201911
O O10 0.000000 0.537745 0.250000
O O11 0.973320 0.625851 0.504183
O O12 0.933192 0.170417 0.704938
O O13 0.000000 0.196982 0.750000
O O14 0.000000 0.809482 0.750000
O O15 0.886226 0.896764 0.114809
O O16 0.000000 0.000000 0.000000
#
# Coordination Sequence:
#
# PCOD8150354 Si02
#       7
#     8   8   8   8   8   8   8
#     4  11  28  44  73 110 144 195 252 307 368 452
#     4  11  26  45  73 104 146 191 244 312 370 445
#     4  10  24  46  70 106 144 189 233 308 370 445
#     4  10  26  44  70 100 145 185 242 301 372 446
#     4  12  28  46  73 109 148 192 251 312 366 447
#     4  11  25  43  71  97 141 191 237 297 376 436
#     4  11  25  44  77 103 146 189 248 300 380 439
#
# _framework density 23.041882999999999
#
# number of rings (size 3 to 8) (size 9 to 14) (size 15 to 20)
#    0.000    1.143    1.429    1.714   18.000    3.429 
#    0.000    0.000    0.000    0.000    0.000    0.000 
#    0.000    0.000    0.000    0.000    0.000    0.000 
#
# Total GULP energy -347076.427518 kJ/mol
# GULP energy per Si atom -12395.586697 kJ/mol
# Density = 2.298944 g / cm^3
# Si number density = 23.041883 Si / 1000 Ang^3
#
#
#
# Elastic Constant Matrix: (Units=GPa)
#
#
# Indices 1 2 3 4 5 6 
#
# 1 104.3978 27.5111 26.9594 0.0000 -9.4215 0.0000
# 2 27.5111 69.7364 -9.1298 0.0000 -12.6715 0.0000
# 3 26.9594 -9.1298 92.8477 0.0000 9.1740 0.0000
# 4 0.0000 0.0000 0.0000 29.0726 0.0000 -0.3104
# 5 -9.4215 -12.6715 9.1740 0.0000 34.0339 0.0000
# 6 0.0000 0.0000 0.0000 -0.3104 0.0000 32.2089
#
#
#
# Elastic Compliance Matrix: (Units=1/GPa)
#
#
# Indices 1 2 3 4 5 6 
#
# 1 0.012223 -0.004890 -0.004299 0.000000 0.002722 0.000000
# 2 -0.004890 0.017423 0.002698 0.000000 0.004406 0.000000
# 3 -0.004299 0.002698 0.012639 0.000000 -0.003592 0.000000
# 4 0.000000 0.000000 0.000000 0.034400 0.000000 0.000332
# 5 0.002722 0.004406 -0.003592 0.000000 0.032745 0.000000
# 6 0.000000 0.000000 0.000000 0.000332 0.000000 0.031050
#
#
# Mechanical properties :
#
#
# Convention : Reuss Voigt Hill
#
# Bulk Modulus (GPa) = 34.12755 39.74037 36.93396
# Shear Modulus (GPa) = 30.63157 33.83917 32.23537
#
# Velocity S-wave (km/s) = 3.65003 3.83638 3.74437
# Velocity P-wave (km/s) = 5.71024 6.07521 5.89555
#
# Compressibility (1/GPa) = 0.02930184
#
# Stress axis : x y z
#
# Youngs Moduli (GPa) = 81.81137 57.39632 79.12132
#
# Poissons Ratio (x) = 0.28069 0.34014
# Poissons Ratio (y) = 0.40009 -0.21346
# Poissons Ratio (z) = 0.35170 -0.15485
#
# Static dielectric constant tensor:
#      x y z
#    x 3.983830 0.000000 0.048930 
#    y 0.000000 4.266710 0.000000 
#    z 0.048930 0.000000 4.464560 
# 
# 
# High freq. dielectric constant tensor:
#      x y z
#    x 1.910060 0.000000 0.002500 
#    y 0.000000 1.906770 0.000000 
#    z 0.002500 0.000000 1.933540 
# 
# From -- ./inp_files/126976.got.cif
#   From: 2010.06.25/outbox.cif.g09.slc.cpg/sg15_64_cif.got.tgz:126976.got - 2010.06.28 07:06:18.
