data_PCOD8150087
_publ_section_title
;
Structure prediction by ZEFSAII (Michael W. Deem and Ramdas Pophale) SiO2 
 PCOD8150087
Probable space group: C 2/C
;
_chemical_formula_sum "Si O2"
_cell_formula_units_Z 44
_cell_length_a 28.779820
_cell_length_b 16.556349
_cell_length_c 11.760045
_cell_angle_alpha 90.000000
_cell_angle_beta 158.876032
_cell_angle_gamma 90.000000
_cell_volume 2019.439313
_symmetry_space_group_name_H-M "C 2/C"
_symmetry_group_IT_number 15
_symmetry_cell_setting 'monoclinic'
loop_
_space_group_symop_operation_xyz
x,y,z
-x,y,1/2-z
-x,-y,-z
x,-y,1/2+z
1/2+x,1/2+y,z
1/2-x,1/2+y,1/2-z
1/2-x,1/2-y,-z
1/2+x,1/2-y,1/2+z
loop_
_atom_site_type_symbol
_atom_site_label
_atom_site_fract_x
_atom_site_fract_y
_atom_site_fract_z
Si Si1 0.706222 0.599254 0.110865
Si Si2 0.500000 0.478977 0.750000
Si Si3 0.365614 0.962126 0.159424
Si Si4 0.203309 0.892840 0.338585
Si Si5 0.150857 0.684259 0.726468
Si Si6 0.359791 0.780444 0.548888
O O1 0.844703 0.584388 0.490686
O O2 0.599392 0.535874 0.909214
O O3 0.731140 0.597401 0.034212
O O4 0.655997 0.688273 0.024565
O O5 0.443434 0.415205 0.527808
O O6 0.315269 0.902297 0.142455
O O7 0.500000 0.000000 0.500000
O O8 0.278169 0.038997 0.942225
O O9 0.255816 0.807555 0.407630
O O10 0.162592 0.669996 0.618309
O O11 0.004428 0.707902 0.427769
O O12 0.250000 0.750000 0.000000
#
# Coordination Sequence:
#
# PCOD8150087 Si02
#       6
#     8   4   8   8   8   8
#     4  11  24  44  68  95 137 176 233 286 352 423
#     4  10  24  44  66 100 128 188 228 282 350 422
#     4  11  24  44  66 102 133 183 230 289 354 412
#     4  11  25  42  66  99 139 176 228 293 354 414
#     4  11  23  42  68  96 135 183 233 280 339 423
#     4  11  24  42  67 100 133 179 233 287 345 418
#
# _framework density 21.788226000000002
#
# number of rings (size 3 to 8) (size 9 to 14) (size 15 to 20)
#    0.000    1.091    3.636    2.182    7.636    2.182 
#    0.000    0.000    0.000    0.000    0.000    0.000 
#    0.000    0.000    0.000    0.000    0.000    0.000 
#
# Total GULP energy -272583.939895 kJ/mol
# GULP energy per Si atom -12390.179086 kJ/mol
# Density = 2.173864 g / cm^3
# Si number density = 21.788226 Si / 1000 Ang^3
#
#
#
# Elastic Constant Matrix: (Units=GPa)
#
#
# Indices 1 2 3 4 5 6 
#
# 1 124.1853 28.1554 49.3114 0.0000 -22.7525 0.0000
# 2 28.1554 67.7237 41.5528 0.0000 1.6481 0.0000
# 3 49.3114 41.5528 137.4431 0.0000 -21.5220 0.0000
# 4 0.0000 0.0000 0.0000 34.6622 0.0000 0.3047
# 5 -22.7525 1.6481 -21.5220 0.0000 36.0957 0.0000
# 6 0.0000 0.0000 0.0000 0.3047 0.0000 36.3910
#
#
#
# Elastic Compliance Matrix: (Units=1/GPa)
#
#
# Indices 1 2 3 4 5 6 
#
# 1 0.010621 -0.003397 -0.001887 0.000000 0.005725 0.000000
# 2 -0.003397 0.019909 -0.005821 0.000000 -0.006521 0.000000
# 3 -0.001887 -0.005821 0.010553 0.000000 0.005369 0.000000
# 4 0.000000 0.000000 0.000000 0.028852 0.000000 -0.000242
# 5 0.005725 -0.006521 0.005369 0.000000 0.034811 0.000000
# 6 0.000000 0.000000 0.000000 -0.000242 0.000000 0.027481
#
#
# Mechanical properties :
#
#
# Convention : Reuss Voigt Hill
#
# Bulk Modulus (GPa) = 52.98831 63.04348 58.01589
# Shear Modulus (GPa) = 31.10828 35.45194 33.28011
#
# Velocity S-wave (km/s) = 3.78267 4.03813 3.91248
# Velocity P-wave (km/s) = 6.59170 7.12316 6.86258
#
# Compressibility (1/GPa) = 0.01887209
#
# Stress axis : x y z
#
# Youngs Moduli (GPa) = 94.15488 50.22969 94.75616
#
# Poissons Ratio (x) = 0.17063 0.17881
# Poissons Ratio (y) = 0.31984 0.55160
# Poissons Ratio (z) = 0.17768 0.29240
#
# Static dielectric constant tensor:
#      x y z
#    x 3.744350 0.000000 -0.210170 
#    y 0.000000 4.300180 0.000000 
#    z -0.210170 0.000000 3.616170 
# 
# 
# High freq. dielectric constant tensor:
#      x y z
#    x 1.842730 0.000000 -0.023550 
#    y 0.000000 1.868260 0.000000 
#    z -0.023550 0.000000 1.868780 
# 
# From -- ./inp_files/87558.got.cif
#   From: 2010.06.25/outbox.cif.g09.slc.cpg/sg15_44_cif.got.tgz:87558.got - 2010.06.28 07:06:18.
