data_PCOD8150463
_publ_section_title
;
Structure prediction by ZEFSAII (Michael W. Deem and Ramdas Pophale) SiO2 
 PCOD8150463
Probable space group: C 2/C
;
_chemical_formula_sum "Si O2"
_cell_formula_units_Z 52
_cell_length_a 19.634784
_cell_length_b 11.834773
_cell_length_c 19.425871
_cell_angle_alpha 90.000000
_cell_angle_beta 148.097117
_cell_angle_gamma 90.000000
_cell_volume 2385.590968
_symmetry_space_group_name_H-M "C 2/C"
_symmetry_group_IT_number 15
_symmetry_cell_setting 'monoclinic'
loop_
_space_group_symop_operation_xyz
x,y,z
-x,y,1/2-z
-x,-y,-z
x,-y,1/2+z
1/2+x,1/2+y,z
1/2-x,1/2+y,1/2-z
1/2-x,1/2-y,-z
1/2+x,1/2-y,1/2+z
loop_
_atom_site_type_symbol
_atom_site_label
_atom_site_fract_x
_atom_site_fract_y
_atom_site_fract_z
Si Si1 0.003060 0.489479 0.420447
Si Si2 0.911256 0.319013 0.741595
Si Si3 0.282211 0.408199 0.652929
Si Si4 0.845343 0.048394 0.491021
Si Si5 0.240005 0.654349 0.821825
Si Si6 0.401126 0.612996 0.829197
Si Si7 0.000000 0.979840 0.750000
O O1 0.140320 0.448806 0.509291
O O2 0.000000 0.500000 0.500000
O O3 0.972681 0.607143 0.356147
O O4 0.899425 0.395402 0.312995
O O5 0.775654 0.371549 0.601666
O O6 0.882218 0.195796 0.747258
O O7 0.000000 0.314250 0.750000
O O8 0.277317 0.281448 0.672464
O O9 0.335875 0.491698 0.757645
O O10 0.380489 0.405009 0.673393
O O11 0.946167 0.097672 0.520643
O O12 0.805624 0.920715 0.438030
O O13 0.937851 0.056339 0.637158
O O14 0.331354 0.663220 0.834713
#
# Coordination Sequence:
#
# PCOD8150463 Si02
#       7
#     8   8   8   8   8   8   4
#     4  11  23  46  72 105 140 183 236 294 353 415
#     4  11  26  45  72 105 140 186 234 291 352 423
#     4  11  25  43  71  98 140 182 231 281 351 422
#     4  10  25  46  70 101 137 182 235 285 352 421
#     4  11  25  45  71 103 135 185 233 292 348 415
#     4  11  25  42  72 102 140 178 227 293 351 417
#     4  10  24  48  66 102 138 184 232 284 348 418
#
# _framework density 21.797533999999999
#
# number of rings (size 3 to 8) (size 9 to 14) (size 15 to 20)
#    0.000    1.231    1.538    2.308   12.923    2.462 
#    5.538    0.000    0.000    0.000    0.000    0.000 
#    0.000    0.000    0.000    0.000    0.000    0.000 
#
# Total GULP energy -322336.625008 kJ/mol
# GULP energy per Si atom -12397.562500 kJ/mol
# Density = 2.174792 g / cm^3
# Si number density = 21.797534 Si / 1000 Ang^3
#
#
#
# Elastic Constant Matrix: (Units=GPa)
#
#
# Indices 1 2 3 4 5 6 
#
# 1 113.0808 20.1771 48.6870 0.0000 29.3389 0.0000
# 2 20.1771 123.0764 43.0717 0.0000 9.7890 0.0000
# 3 48.6870 43.0717 138.6606 0.0000 20.0214 0.0000
# 4 0.0000 0.0000 0.0000 17.8780 0.0000 7.3968
# 5 29.3389 9.7890 20.0214 0.0000 45.4679 0.0000
# 6 0.0000 0.0000 0.0000 7.3968 0.0000 29.0860
#
#
#
# Elastic Compliance Matrix: (Units=1/GPa)
#
#
# Indices 1 2 3 4 5 6 
#
# 1 0.011876 -0.000346 -0.003168 0.000000 -0.006194 0.000000
# 2 -0.000346 0.009151 -0.002637 0.000000 -0.000586 0.000000
# 3 -0.003168 -0.002637 0.009361 0.000000 -0.001510 0.000000
# 4 0.000000 0.000000 0.000000 0.062512 0.000000 -0.015897
# 5 -0.006194 -0.000586 -0.001510 0.000000 0.026781 0.000000
# 6 0.000000 0.000000 0.000000 -0.015897 0.000000 0.038424
#
#
# Mechanical properties :
#
#
# Convention : Reuss Voigt Hill
#
# Bulk Modulus (GPa) = 55.28683 66.52104 60.90393
# Shear Modulus (GPa) = 28.33903 36.01185 32.17544
#
# Velocity S-wave (km/s) = 3.60961 4.06902 3.84618
# Velocity P-wave (km/s) = 6.54150 7.25671 6.90837
#
# Compressibility (1/GPa) = 0.01808749
#
# Stress axis : x y z
#
# Youngs Moduli (GPa) = 84.20391 109.27763 106.82215
#
# Poissons Ratio (x) = 0.03776 0.33844
# Poissons Ratio (y) = 0.02910 0.28164
# Poissons Ratio (z) = 0.26678 0.28812
#
# Static dielectric constant tensor:
#      x y z
#    x 4.707890 -0.000020 0.566920 
#    y -0.000020 1.334270 -0.000020 
#    z 0.566920 -0.000020 4.291420 
# 
# 
# High freq. dielectric constant tensor:
#      x y z
#    x 1.871600 0.000000 0.022970 
#    y 0.000000 1.860070 0.000000 
#    z 0.022970 0.000000 1.865330 
# 
# From -- ./inp_files/252757.got.cif
#   From: 2010.06.25/outbox.cif.g09.slc.cpg/sg15_127_cif.got.tgz:252757.got - 2010.06.28 07:06:18.
