data_PCOD8150526
_publ_section_title
;
Structure prediction by ZEFSAII (Michael W. Deem and Ramdas Pophale) SiO2 
 PCOD8150526
Probable space group: C 2/C
;
_chemical_formula_sum "Si O2"
_cell_formula_units_Z 48
_cell_length_a 11.835164
_cell_length_b 8.842191
_cell_length_c 25.798838
_cell_angle_alpha 90.000000
_cell_angle_beta 120.585828
_cell_angle_gamma 90.000000
_cell_volume 2324.185767
_symmetry_space_group_name_H-M "C 2/C"
_symmetry_group_IT_number 15
_symmetry_cell_setting 'monoclinic'
loop_
_space_group_symop_operation_xyz
x,y,z
-x,y,1/2-z
-x,-y,-z
x,-y,1/2+z
1/2+x,1/2+y,z
1/2-x,1/2+y,1/2-z
1/2-x,1/2-y,-z
1/2+x,1/2-y,1/2+z
loop_
_atom_site_type_symbol
_atom_site_label
_atom_site_fract_x
_atom_site_fract_y
_atom_site_fract_z
Si Si1 0.428152 0.788878 0.187308
Si Si2 0.948878 0.243275 0.579570
Si Si3 0.696353 0.781670 0.565924
Si Si4 0.253583 0.495959 0.990362
Si Si5 0.168885 0.540912 0.742838
Si Si6 0.919677 0.211226 0.783273
O O1 0.500000 0.687705 0.250000
O O2 0.335150 0.693606 0.128288
O O3 0.343262 0.918418 0.198393
O O4 0.546973 0.874639 0.184153
O O5 0.853880 0.387942 0.560856
O O6 0.878879 0.101712 0.536163
O O7 0.076811 0.292323 0.577454
O O8 0.985017 0.189904 0.645561
O O9 0.696434 0.617584 0.539473
O O10 0.686050 0.917895 0.522842
O O11 0.160681 0.364982 0.730099
O O12 0.311384 0.581081 0.754810
O O13 0.000000 0.206953 0.750000
#
# Coordination Sequence:
#
# PCOD8150526 Si02
#       6
#     8   8   8   8   8   8
#     4   8  17  39  61  86 121 161 186 251 315 352
#     4  11  23  43  61  88 131 158 202 265 300 364
#     4  11  20  43  66  88 123 163 207 254 306 366
#     4  10  25  38  64  93 116 167 213 246 306 365
#     4   9  21  39  60  91 122 159 196 250 310 366
#     4  12  23  41  64  93 125 164 204 250 317 372
#
# _framework density 20.652394999999999
#
# number of rings (size 3 to 8) (size 9 to 14) (size 15 to 20)
#    1.000    0.667    3.333    2.000    0.000    2.667 
#    3.000    6.667    0.000    0.000    0.000    0.000 
#    0.000    0.000    0.000    0.000    0.000    0.000 
#
# Total GULP energy -297441.827995 kJ/mol
# GULP energy per Si atom -12393.409500 kJ/mol
# Density = 2.060539 g / cm^3
# Si number density = 20.652395 Si / 1000 Ang^3
#
#
#
# Elastic Constant Matrix: (Units=GPa)
#
#
# Indices 1 2 3 4 5 6 
#
# 1 108.1035 24.8755 15.8110 0.0000 27.9080 0.0000
# 2 24.8755 59.0025 43.0275 0.0000 5.5558 0.0000
# 3 15.8110 43.0275 247.8657 0.0000 -48.8887 0.0000
# 4 0.0000 0.0000 0.0000 16.8960 0.0000 3.3285
# 5 27.9080 5.5558 -48.8887 0.0000 53.4689 0.0000
# 6 0.0000 0.0000 0.0000 3.3285 0.0000 20.5005
#
#
#
# Elastic Compliance Matrix: (Units=1/GPa)
#
#
# Indices 1 2 3 4 5 6 
#
# 1 0.012199 -0.003162 -0.001733 0.000000 -0.007624 0.000000
# 2 -0.003162 0.022081 -0.004585 0.000000 -0.004837 0.000000
# 3 -0.001733 -0.004585 0.006360 0.000000 0.007197 0.000000
# 4 0.000000 0.000000 0.000000 0.061141 0.000000 -0.009927
# 5 -0.007624 -0.004837 0.007197 0.000000 0.029764 0.000000
# 6 0.000000 0.000000 0.000000 -0.009927 0.000000 0.050391
#
#
# Mechanical properties :
#
#
# Convention : Reuss Voigt Hill
#
# Bulk Modulus (GPa) = 46.12430 64.71108 55.41769
# Shear Modulus (GPa) = 24.02414 40.25692 32.14053
#
# Velocity S-wave (km/s) = 3.41436 4.41983 3.94923
# Velocity P-wave (km/s) = 6.15840 7.57945 6.90558
#
# Compressibility (1/GPa) = 0.02168054
#
# Stress axis : x y z
#
# Youngs Moduli (GPa) = 81.97061 45.28856 157.22294
#
# Poissons Ratio (x) = 0.14319 0.27247
# Poissons Ratio (y) = 0.25916 0.72091
# Poissons Ratio (z) = 0.14206 0.20766
#
# Static dielectric constant tensor:
#      x y z
#    x 3.592520 0.000000 0.138990 
#    y 0.000000 3.713890 0.000000 
#    z 0.138990 0.000000 3.771310 
# 
# 
# High freq. dielectric constant tensor:
#      x y z
#    x 1.810990 0.000000 0.010820 
#    y 0.000000 1.798750 0.000000 
#    z 0.010820 0.000000 1.804360 
# 
# From -- ./inp_files/291306.got.cif
#   From: 2010.06.25/outbox.cif.g09.slc.cpg/sg15_146_cif.got.tgz:291306.got - 2010.06.28 07:06:18.
