data_PCOD8150678
_publ_section_title
;
Structure prediction by ZEFSAII (Michael W. Deem and Ramdas Pophale) SiO2 
 PCOD8150678
Probable space group: C 2/C
;
_chemical_formula_sum "Si O2"
_cell_formula_units_Z 32
_cell_length_a 14.659159
_cell_length_b 10.134117
_cell_length_c 17.342415
_cell_angle_alpha 90.000000
_cell_angle_beta 29.123897
_cell_angle_gamma 90.000000
_cell_volume 1253.908040
_symmetry_space_group_name_H-M "C 2/C"
_symmetry_group_IT_number 15
_symmetry_cell_setting 'monoclinic'
loop_
_space_group_symop_operation_xyz
x,y,z
-x,y,1/2-z
-x,-y,-z
x,-y,1/2+z
1/2+x,1/2+y,z
1/2-x,1/2+y,1/2-z
1/2-x,1/2-y,-z
1/2+x,1/2-y,1/2+z
loop_
_atom_site_type_symbol
_atom_site_label
_atom_site_fract_x
_atom_site_fract_y
_atom_site_fract_z
Si Si1 0.347317 0.111114 0.804614
Si Si2 0.319766 0.608364 0.975567
Si Si3 0.730022 0.434307 0.155705
Si Si4 0.046354 0.675835 0.502583
O O1 0.500000 0.176483 0.750000
O O2 0.148708 0.189099 0.949636
O O3 0.436259 0.108852 0.655115
O O4 0.301437 0.961897 0.867917
O O5 0.296331 0.525466 0.914112
O O6 0.538147 0.611571 0.837987
O O7 0.250000 0.750000 0.000000
O O8 0.800976 0.570865 0.141955
O O9 0.882347 0.314458 0.057987
#
# Coordination Sequence:
#
# PCOD8150678 Si02
#       4
#     8   8   8   8
#     4  12  25  45  77 107 143 196 245 303 367 436
#     4  11  26  47  72 100 148 196 246 294 373 437
#     4  10  25  46  69 104 149 189 237 311 361 434
#     4  11  25  45  74 110 147 183 252 304 367 434
#
# _framework density 25.520211
#
# number of rings (size 3 to 8) (size 9 to 14) (size 15 to 20)
#    0.000    1.000    2.500    2.250   10.500    1.000 
#    4.500    0.000    0.000    0.000    0.000    0.000 
#    0.000    0.000    0.000    0.000    0.000    0.000 
#
# Total GULP energy -198291.008439 kJ/mol
# GULP energy per Si atom -12393.188027 kJ/mol
# Density = 2.546213 g / cm^3
# Si number density = 25.520211 Si / 1000 Ang^3
#
#
#
# Elastic Constant Matrix: (Units=GPa)
#
#
# Indices 1 2 3 4 5 6 
#
# 1 88.0934 20.3424 41.3332 0.0027 -40.4234 -0.0001
# 2 20.3424 126.9929 59.7251 0.0069 -18.6135 -0.0011
# 3 41.3332 59.7251 140.4225 0.0174 -24.9285 -0.0024
# 4 0.0027 0.0069 0.0174 33.4303 -0.0018 -9.8480
# 5 -40.4234 -18.6135 -24.9285 -0.0018 55.2756 -0.0003
# 6 -0.0001 -0.0011 -0.0024 -9.8480 -0.0003 25.8021
#
#
#
# Elastic Compliance Matrix: (Units=1/GPa)
#
#
# Indices 1 2 3 4 5 6 
#
# 1 0.018403 0.000449 -0.003470 0.000001 0.012045 0.000000
# 2 0.000449 0.009978 -0.004045 0.000000 0.001864 0.000000
# 3 -0.003470 -0.004045 0.009969 -0.000004 0.000596 -0.000001
# 4 0.000001 0.000000 -0.000004 0.033702 0.000000 0.012863
# 5 0.012045 0.001864 0.000596 0.000000 0.027796 0.000001
# 6 0.000000 0.000000 -0.000001 0.012863 0.000001 0.043666
#
#
# Mechanical properties :
#
#
# Convention : Reuss Voigt Hill
#
# Bulk Modulus (GPa) = 41.29040 66.47889 53.88464
# Shear Modulus (GPa) = 30.17160 38.50882 34.34021
#
# Velocity S-wave (km/s) = 3.44214 3.88874 3.67223
# Velocity P-wave (km/s) = 5.65794 6.80214 6.25626
#
# Compressibility (1/GPa) = 0.02421871
#
# Stress axis : x y z
#
# Youngs Moduli (GPa) = 54.33995 100.21806 100.31003
#
# Poissons Ratio (x) = -0.04503 0.34805
# Poissons Ratio (y) = -0.02442 0.40578
# Poissons Ratio (z) = 0.18854 0.40541
#
# Static dielectric constant tensor:
#      x y z
#    x 5.639520 -0.000010 -0.389460 
#    y -0.000010 4.129270 0.000000 
#    z -0.389460 0.000000 4.600720 
# 
# 
# High freq. dielectric constant tensor:
#      x y z
#    x 2.039070 0.000000 -0.023480 
#    y 0.000000 1.993450 0.000000 
#    z -0.023480 0.000000 2.022090 
# 
# From -- ./inp_files/203760.got.cif
#   From: 2010.06.25/outbox.cif.g09.slc.cpg/sg15_102_cif.got.tgz:203760.got - 2010.06.28 07:06:18.
