data_PCOD8151367
_publ_section_title
;
Structure prediction by ZEFSAII (Michael W. Deem and Ramdas Pophale) SiO2 
 PCOD8151367
Probable space group: C 2/C
;
_chemical_formula_sum "Si O2"
_cell_formula_units_Z 48
_cell_length_a 19.709959
_cell_length_b 12.670940
_cell_length_c 14.133425
_cell_angle_alpha 90.000000
_cell_angle_beta 138.551889
_cell_angle_gamma 90.000000
_cell_volume 2336.477384
_symmetry_space_group_name_H-M "C 2/C"
_symmetry_group_IT_number 15
_symmetry_cell_setting 'monoclinic'
loop_
_space_group_symop_operation_xyz
x,y,z
-x,y,1/2-z
-x,-y,-z
x,-y,1/2+z
1/2+x,1/2+y,z
1/2-x,1/2+y,1/2-z
1/2-x,1/2-y,-z
1/2+x,1/2-y,1/2+z
loop_
_atom_site_type_symbol
_atom_site_label
_atom_site_fract_x
_atom_site_fract_y
_atom_site_fract_z
Si Si1 0.204189 0.384632 0.744897
Si Si2 0.916495 0.798332 0.409445
Si Si3 0.114187 0.625365 0.357676
Si Si4 0.725109 0.458994 0.328155
Si Si5 0.911440 0.821982 0.045224
Si Si6 0.513905 0.548666 0.164481
O O1 0.135531 0.307979 0.604653
O O2 0.147774 0.396024 0.785998
O O3 0.216044 0.493838 0.701502
O O4 0.313691 0.332860 0.877080
O O5 0.825194 0.849336 0.253130
O O6 0.005430 0.760459 0.431043
O O7 0.958126 0.881954 0.527581
O O8 0.193571 0.559654 0.504216
O O9 0.112886 0.750830 0.386868
O O10 0.000000 0.578503 0.250000
O O11 0.633788 0.537478 0.265838
O O12 0.954938 0.937448 0.115837
O O13 0.500000 0.608326 0.250000
#
# Coordination Sequence:
#
# PCOD8151367 Si02
#       6
#     8   8   8   8   8   8
#     4  12  23  41  68  95 134 169 217 271 325 384
#     4  11  22  40  66  95 129 170 212 275 322 374
#     4  12  25  40  65 101 129 172 217 267 332 382
#     4  11  24  41  65  98 134 172 215 267 327 386
#     4  11  20  40  63  99 128 157 216 274 322 378
#     4  11  22  40  68  96 129 170 221 271 319 384
#
# _framework density 20.543745999999999
#
# number of rings (size 3 to 8) (size 9 to 14) (size 15 to 20)
#    0.000    0.667    6.667    3.000    2.333    0.667 
#    0.000    1.667    0.000    0.000    0.000    0.000 
#    0.000    0.000    0.000    0.000    0.000    0.000 
#
# Total GULP energy -297461.978857 kJ/mol
# GULP energy per Si atom -12394.249119 kJ/mol
# Density = 2.049699 g / cm^3
# Si number density = 20.543746 Si / 1000 Ang^3
#
#
#
# Elastic Constant Matrix: (Units=GPa)
#
#
# Indices 1 2 3 4 5 6 
#
# 1 118.0490 56.1851 42.1533 0.0000 -0.7288 0.0000
# 2 56.1851 43.4009 37.7345 0.0000 4.9542 0.0000
# 3 42.1533 37.7345 125.5816 0.0000 15.6495 0.0000
# 4 0.0000 0.0000 0.0000 29.9705 0.0000 0.4689
# 5 -0.7288 4.9542 15.6495 0.0000 34.7250 0.0000
# 6 0.0000 0.0000 0.0000 0.4689 0.0000 14.4945
#
#
#
# Elastic Compliance Matrix: (Units=1/GPa)
#
#
# Indices 1 2 3 4 5 6 
#
# 1 0.022930 -0.031158 0.001114 0.000000 0.004425 0.000000
# 2 -0.031158 0.073530 -0.010856 0.000000 -0.006252 0.000000
# 3 0.001114 -0.010856 0.011289 0.000000 -0.003515 0.000000
# 4 0.000000 0.000000 0.000000 0.033383 0.000000 -0.001080
# 5 0.004425 -0.006252 -0.003515 0.000000 0.031367 0.000000
# 6 0.000000 0.000000 0.000000 -0.001080 0.000000 0.069027
#
#
# Mechanical properties :
#
#
# Convention : Reuss Voigt Hill
#
# Bulk Modulus (GPa) = 38.53807 62.13081 50.33444
# Shear Modulus (GPa) = 15.06130 25.90189 20.48160
#
# Velocity S-wave (km/s) = 2.71058 3.55465 3.16092
# Velocity P-wave (km/s) = 5.34753 6.86704 6.15436
#
# Compressibility (1/GPa) = 0.02594837
#
# Stress axis : x y z
#
# Youngs Moduli (GPa) = 43.61044 13.59988 88.58082
#
# Poissons Ratio (x) = 0.42375 -0.09869
# Poissons Ratio (y) = 1.35883 0.96166
# Poissons Ratio (z) = -0.04859 0.14764
#
# Static dielectric constant tensor:
#      x y z
#    x 3.989900 0.000000 0.212710 
#    y 0.000000 3.543520 0.000000 
#    z 0.212710 0.000000 3.959100 
# 
# 
# High freq. dielectric constant tensor:
#      x y z
#    x 1.812960 0.000000 0.015280 
#    y 0.000000 1.768600 0.000000 
#    z 0.015280 0.000000 1.816770 
# 
# From -- ./inp_files/167921.got.cif
#   From: 2010.06.25/outbox.cif.g09.slc.cpg/sg15_84_cif.got.tgz:167921.got - 2010.06.28 07:06:18.
