data_PCOD8151359
_publ_section_title
;
Structure prediction by ZEFSAII (Michael W. Deem and Ramdas Pophale) SiO2 
 PCOD8151359
Probable space group: C 2/C
;
_chemical_formula_sum "Si O2"
_cell_formula_units_Z 64
_cell_length_a 22.015096
_cell_length_b 6.632556
_cell_length_c 21.913928
_cell_angle_alpha 90.000000
_cell_angle_beta 76.581948
_cell_angle_gamma 90.000000
_cell_volume 3112.446619
_symmetry_space_group_name_H-M "C 2/C"
_symmetry_group_IT_number 15
_symmetry_cell_setting 'monoclinic'
loop_
_space_group_symop_operation_xyz
x,y,z
-x,y,1/2-z
-x,-y,-z
x,-y,1/2+z
1/2+x,1/2+y,z
1/2-x,1/2+y,1/2-z
1/2-x,1/2-y,-z
1/2+x,1/2-y,1/2+z
loop_
_atom_site_type_symbol
_atom_site_label
_atom_site_fract_x
_atom_site_fract_y
_atom_site_fract_z
Si Si1 0.854527 0.524096 0.378742
Si Si2 0.931573 0.012915 0.191460
Si Si3 0.232649 0.397571 0.801173
Si Si4 0.730886 0.219829 0.902581
Si Si5 0.157314 0.903866 0.390716
Si Si6 0.450137 0.687603 0.803344
Si Si7 0.348469 0.168067 0.752157
Si Si8 0.187885 0.637326 0.493074
O O1 0.790727 0.645627 0.402581
O O2 0.911960 0.680324 0.360085
O O3 0.857975 0.368908 0.321720
O O4 0.859860 0.393085 0.439210
O O5 0.910230 0.248677 0.202609
O O6 0.903797 0.903848 0.137961
O O7 0.905824 0.919110 0.262543
O O8 0.007073 0.981667 0.171060
O O9 0.246952 0.585729 0.840650
O O10 0.215607 0.194959 0.841584
O O11 0.295828 0.340342 0.750711
O O12 0.175018 0.455848 0.770320
O O13 0.672576 0.366537 0.903781
O O14 0.710382 0.078998 0.963088
O O15 0.148016 0.766782 0.453298
O O16 0.500000 0.819270 0.750000
O O17 0.250000 0.750000 0.500000
#
# Coordination Sequence:
#
# PCOD8151359 Si02
#       8
#     8   8   8   8   8   8   8   8
#     4  12  21  39  61  90 126 172 211 265 328 395
#     4   9  20  41  59  87 120 168 211 275 323 373
#     4  11  21  31  54  96 123 160 202 255 342 408
#     4  11  21  38  62  88 131 169 201 263 335 395
#     4  11  20  40  58  90 131 164 212 267 324 402
#     4   8  22  43  61  84 122 169 220 273 323 382
#     4  12  20  33  60  93 133 159 210 270 334 402
#     4  11  24  38  60 100 132 169 217 262 330 412
#
# _framework density 20.562601999999998
#
# number of rings (size 3 to 8) (size 9 to 14) (size 15 to 20)
#    0.750    0.500    3.750    4.125    0.000    0.000 
#    2.250    0.625    0.000    0.750    0.000    0.000 
#    0.000    0.000    0.000    0.000    0.000    0.000 
#
# Total GULP energy -396477.731602 kJ/mol
# GULP energy per Si atom -12389.929113 kJ/mol
# Density = 2.051580 g / cm^3
# Si number density = 20.562602 Si / 1000 Ang^3
#
#
#
# Elastic Constant Matrix: (Units=GPa)
#
#
# Indices 1 2 3 4 5 6 
#
# 1 93.8989 37.4779 38.2868 0.0000 18.8869 0.0000
# 2 37.4779 99.4413 36.1991 0.0000 10.9843 0.0000
# 3 38.2868 36.1991 87.9377 0.0000 16.3705 0.0000
# 4 0.0000 0.0000 0.0000 37.1292 0.0000 3.3107
# 5 18.8869 10.9843 16.3705 0.0000 29.4525 0.0000
# 6 0.0000 0.0000 0.0000 3.3107 0.0000 29.3481
#
#
#
# Elastic Compliance Matrix: (Units=1/GPa)
#
#
# Indices 1 2 3 4 5 6 
#
# 1 0.014858 -0.003513 -0.003896 0.000000 -0.006052 0.000000
# 2 -0.003513 0.012756 -0.003631 0.000000 -0.000486 0.000000
# 3 -0.003896 -0.003631 0.015443 0.000000 -0.004731 0.000000
# 4 0.000000 0.000000 0.000000 0.027207 0.000000 -0.003069
# 5 -0.006052 -0.000486 -0.004731 0.000000 0.040645 0.000000
# 6 0.000000 0.000000 0.000000 -0.003069 0.000000 0.034420
#
#
# Mechanical properties :
#
#
# Convention : Reuss Voigt Hill
#
# Bulk Modulus (GPa) = 47.67084 56.13393 51.90238
# Shear Modulus (GPa) = 28.66965 30.47357 29.57161
#
# Velocity S-wave (km/s) = 3.73803 3.85384 3.79638
# Velocity P-wave (km/s) = 6.47025 6.86739 6.67178
#
# Compressibility (1/GPa) = 0.02097718
#
# Stress axis : x y z
#
# Youngs Moduli (GPa) = 67.30471 78.39737 64.75268
#
# Poissons Ratio (x) = 0.27540 0.25229
# Poissons Ratio (y) = 0.23643 0.23510
# Poissons Ratio (z) = 0.26223 0.28464
#
# Static dielectric constant tensor:
#      x y z
#    x 3.515190 0.000000 0.261010 
#    y 0.000000 3.762870 0.000000 
#    z 0.261010 0.000000 3.764620 
# 
# 
# High freq. dielectric constant tensor:
#      x y z
#    x 1.776720 0.000000 0.025250 
#    y 0.000000 1.807120 0.000000 
#    z 0.025250 0.000000 1.790640 
# 
# From -- ./inp_files/281187.got.cif
#   From: 2010.06.25/outbox.cif.g09.slc.cpg/sg15_141_cif.got.tgz:281187.got - 2010.06.28 07:06:18.
