data_PCOD8151027
_publ_section_title
;
Structure prediction by ZEFSAII (Michael W. Deem and Ramdas Pophale) SiO2 
 PCOD8151027
Probable space group: C 2/C
;
_chemical_formula_sum "Si O2"
_cell_formula_units_Z 48
_cell_length_a 19.169494
_cell_length_b 7.392729
_cell_length_c 22.801292
_cell_angle_alpha 90.000000
_cell_angle_beta 127.532437
_cell_angle_gamma 90.000000
_cell_volume 2562.434510
_symmetry_space_group_name_H-M "C 2/C"
_symmetry_group_IT_number 15
_symmetry_cell_setting 'monoclinic'
loop_
_space_group_symop_operation_xyz
x,y,z
-x,y,1/2-z
-x,-y,-z
x,-y,1/2+z
1/2+x,1/2+y,z
1/2-x,1/2+y,1/2-z
1/2-x,1/2-y,-z
1/2+x,1/2-y,1/2+z
loop_
_atom_site_type_symbol
_atom_site_label
_atom_site_fract_x
_atom_site_fract_y
_atom_site_fract_z
Si Si1 0.352558 0.996363 0.783500
Si Si2 0.735023 0.337634 0.813478
Si Si3 0.187914 0.843277 0.921800
Si Si4 0.897578 0.870201 0.259397
Si Si5 0.912680 0.825749 0.132472
Si Si6 0.962598 0.561193 0.665477
O O1 0.324795 0.929469 0.834727
O O2 0.345142 0.817363 0.739928
O O3 0.452873 0.073067 0.834604
O O4 0.282544 0.136711 0.719959
O O5 0.739171 0.343486 0.886121
O O6 0.656474 0.457940 0.746215
O O7 0.094780 0.740368 0.868129
O O8 0.163414 0.045496 0.934182
O O9 0.250000 0.750000 0.000000
O O10 0.913753 0.893472 0.199368
O O11 0.989359 0.865982 0.342470
O O12 0.898530 0.609927 0.117296
O O13 0.000000 0.531999 0.750000
#
# Coordination Sequence:
#
# PCOD8151027 Si02
#       6
#     8   8   8   8   8   8
#     4  11  19  31  54  89 111 138 185 252 292 321
#     4  11  20  32  54  83 118 141 183 239 291 335
#     4  11  24  38  56  83 119 158 189 228 291 363
#     4   9  16  29  51  83 105 134 175 235 285 320
#     4   9  17  32  56  80 107 138 186 235 279 323
#     4  11  19  35  60  85 111 147 200 247 283 331
#
# _framework density 18.732185999999999
#
# number of rings (size 3 to 8) (size 9 to 14) (size 15 to 20)
#    0.000    1.667    6.667    1.000    2.333    0.667 
#    0.000    0.833    0.000    4.000    0.000    0.000 
#    0.000    0.000    0.000    0.000    0.000    0.000 
#
# Total GULP energy -297326.585194 kJ/mol
# GULP energy per Si atom -12388.607716 kJ/mol
# Density = 1.868955 g / cm^3
# Si number density = 18.732186 Si / 1000 Ang^3
#
#
#
# Elastic Constant Matrix: (Units=GPa)
#
#
# Indices 1 2 3 4 5 6 
#
# 1 125.2167 27.4756 19.2883 0.0000 -6.6139 0.0000
# 2 27.4756 84.3830 6.8421 0.0000 -3.0291 0.0000
# 3 19.2883 6.8421 23.8839 0.0000 -3.0540 0.0000
# 4 0.0000 0.0000 0.0000 15.6780 0.0000 5.8263
# 5 -6.6139 -3.0291 -3.0540 0.0000 10.8819 0.0000
# 6 0.0000 0.0000 0.0000 5.8263 0.0000 37.3306
#
#
#
# Elastic Compliance Matrix: (Units=1/GPa)
#
#
# Indices 1 2 3 4 5 6 
#
# 1 0.009749 -0.002509 -0.006728 0.000000 0.003339 0.000000
# 2 -0.002509 0.012844 -0.001443 0.000000 0.001645 0.000000
# 3 -0.006728 -0.001443 0.048896 0.000000 0.009232 0.000000
# 4 0.000000 0.000000 0.000000 0.067711 0.000000 -0.010568
# 5 0.003339 0.001645 0.009232 0.000000 0.096974 0.000000
# 6 0.000000 0.000000 0.000000 -0.010568 0.000000 0.028437
#
#
# Mechanical properties :
#
#
# Convention : Reuss Voigt Hill
#
# Bulk Modulus (GPa) = 19.94800 37.85507 28.90154
# Shear Modulus (GPa) = 16.51903 24.76992 20.64447
#
# Velocity S-wave (km/s) = 2.97282 3.64031 3.32337
# Velocity P-wave (km/s) = 4.73875 6.15805 5.49442
#
# Compressibility (1/GPa) = 0.05013033
#
# Stress axis : x y z
#
# Youngs Moduli (GPa) = 102.57022 77.85888 20.45144
#
# Poissons Ratio (x) = 0.19536 0.13759
# Poissons Ratio (y) = 0.25736 0.02951
# Poissons Ratio (z) = 0.69007 0.11233
#
# Static dielectric constant tensor:
#      x y z
#    x 3.871450 0.000000 0.173730 
#    y 0.000000 3.784440 0.000000 
#    z 0.173730 0.000000 2.876850 
# 
# 
# High freq. dielectric constant tensor:
#      x y z
#    x 1.737650 0.000000 0.011960 
#    y 0.000000 1.754720 0.000000 
#    z 0.011960 0.000000 1.647900 
# 
# From -- ./inp_files/246843.got.cif
#   From: 2010.06.25/outbox.cif.g09.slc.cpg/sg15_124_cif.got.tgz:246843.got - 2010.06.28 07:06:18.
