data_PCOD8151619
_publ_section_title
;
Structure prediction by ZEFSAII (Michael W. Deem and Ramdas Pophale) SiO2 
 PCOD8151619
Probable space group: C 2/C
;
_chemical_formula_sum "Si O2"
_cell_formula_units_Z 64
_cell_length_a 9.150558
_cell_length_b 18.329343
_cell_length_c 19.032551
_cell_angle_alpha 90.000000
_cell_angle_beta 79.517193
_cell_angle_gamma 90.000000
_cell_volume 3138.930751
_symmetry_space_group_name_H-M "C 2/C"
_symmetry_group_IT_number 15
_symmetry_cell_setting 'monoclinic'
loop_
_space_group_symop_operation_xyz
x,y,z
-x,y,1/2-z
-x,-y,-z
x,-y,1/2+z
1/2+x,1/2+y,z
1/2-x,1/2+y,1/2-z
1/2-x,1/2-y,-z
1/2+x,1/2-y,1/2+z
loop_
_atom_site_type_symbol
_atom_site_label
_atom_site_fract_x
_atom_site_fract_y
_atom_site_fract_z
Si Si1 0.449111 0.307328 0.405199
Si Si2 0.648508 0.866702 0.934645
Si Si3 0.030724 0.655952 0.167586
Si Si4 0.232351 0.478877 0.448947
Si Si5 0.612084 0.167568 0.951221
Si Si6 0.321107 0.428973 0.594967
Si Si7 0.453237 0.304577 0.949553
Si Si8 0.997827 0.038585 0.666135
O O1 0.455772 0.241424 0.350296
O O2 0.281619 0.310553 0.451226
O O3 0.551430 0.302901 0.465203
O O4 0.500352 0.376689 0.355310
O O5 0.622410 0.875052 0.853997
O O6 0.782905 0.812436 0.940394
O O7 0.652800 0.944898 0.972513
O O8 0.488719 0.830024 0.969591
O O9 0.171489 0.608488 0.132925
O O10 0.000000 0.643725 0.250000
O O11 0.120105 0.417347 0.425243
O O12 0.307063 0.452162 0.514728
O O13 0.355456 0.497996 0.379943
O O14 0.527281 0.228987 0.910980
O O15 0.457007 0.372578 0.589036
O O16 0.356873 0.497567 0.642939
O O17 0.000000 0.029332 0.750000
#
# Coordination Sequence:
#
# PCOD8151619 Si02
#       8
#     8   8   8   8   8   8   8   8
#     4  11  21  43  67  90 126 166 218 253 323 389
#     4  12  24  38  61 100 130 156 213 272 324 371
#     4  12  27  43  64  91 130 177 213 260 326 396
#     4  11  22  40  63  95 129 165 213 263 324 377
#     4  11  21  37  64  96 123 161 200 268 319 377
#     4  12  22  43  67  90 125 171 217 263 319 388
#     4  12  20  38  68  97 121 158 216 272 315 371
#     4  11  24  39  65  95 125 168 217 269 317 387
#
# _framework density 20.389109999999999
#
# number of rings (size 3 to 8) (size 9 to 14) (size 15 to 20)
#    0.000    0.500    7.500    2.625    1.750    0.000 
#    0.000    0.000    0.000    0.000    3.250    0.000 
#    0.000    0.000    0.000    0.000    0.000    0.000 
#
# Total GULP energy -396421.971571 kJ/mol
# GULP energy per Si atom -12388.186612 kJ/mol
# Density = 2.034270 g / cm^3
# Si number density = 20.389110 Si / 1000 Ang^3
#
#
#
# Elastic Constant Matrix: (Units=GPa)
#
#
# Indices 1 2 3 4 5 6 
#
# 1 113.1467 47.0798 65.7494 0.0000 10.1112 0.0000
# 2 47.0798 129.3072 31.5707 0.0000 10.8779 0.0000
# 3 65.7494 31.5707 122.5427 0.0000 0.7529 0.0000
# 4 0.0000 0.0000 0.0000 -194.4247 0.0000 65.1315
# 5 10.1112 10.8779 0.7529 0.0000 17.3969 0.0000
# 6 0.0000 0.0000 0.0000 65.1315 0.0000 12.1088
#
#
#
# Elastic Compliance Matrix: (Units=1/GPa)
#
#
# Indices 1 2 3 4 5 6 
#
# 1 0.014848 -0.003132 -0.007120 0.000000 -0.006363 0.000000
# 2 -0.003132 0.009386 -0.000713 0.000000 -0.004018 0.000000
# 3 -0.007120 -0.000713 0.012139 0.000000 0.004059 0.000000
# 4 0.000000 0.000000 0.000000 -0.001836 0.000000 0.009874
# 5 -0.006363 -0.004018 0.004059 0.000000 0.063516 0.000000
# 6 0.000000 0.000000 0.000000 0.009874 0.000000 0.029475
#
#
# Mechanical properties :
#
#
# Convention : Reuss Voigt Hill
#
# Bulk Modulus (GPa) = 69.24114 72.64405 70.94260
# Shear Modulus (GPa) = 32.41012 -18.27734 7.06639
#
# Velocity S-wave (km/s) = 3.99128 -2.99729 1.86368
# Velocity P-wave (km/s) = 7.43465 4.87113 6.28498
#
# Compressibility (1/GPa) = 0.01444228
#
# Stress axis : x y z
#
# Youngs Moduli (GPa) = 67.35103 106.54230 82.37572
#
# Poissons Ratio (x) = 0.33371 0.58654
# Poissons Ratio (y) = 0.21096 0.05872
# Poissons Ratio (z) = 0.47956 0.07595
#
# Static dielectric constant tensor:
#      x y z
#    x 3.791990 0.000000 -0.045050 
#    y 0.000000 4.212650 0.000000 
#    z -0.045050 0.000000 3.435890 
# 
# 
# High freq. dielectric constant tensor:
#      x y z
#    x 1.798310 0.000000 -0.004500 
#    y 0.000000 1.829750 0.000000 
#    z -0.004500 0.000000 1.755910 
# 
# From -- ./inp_files/192182.got.cif
#   From: 2010.06.25/outbox.cif.g09.slc.cpg/sg15_97_cif.got.tgz:192182.got - 2010.06.28 07:06:18.
