data_PCOD8151015
_publ_section_title
;
Structure prediction by ZEFSAII (Michael W. Deem and Ramdas Pophale) SiO2 
 PCOD8151015
Probable space group: C 2/C
;
_chemical_formula_sum "Si O2"
_cell_formula_units_Z 44
_cell_length_a 12.745520
_cell_length_b 14.490953
_cell_length_c 14.468232
_cell_angle_alpha 90.000000
_cell_angle_beta 127.016628
_cell_angle_gamma 90.000000
_cell_volume 2133.651975
_symmetry_space_group_name_H-M "C 2/C"
_symmetry_group_IT_number 15
_symmetry_cell_setting 'monoclinic'
loop_
_space_group_symop_operation_xyz
x,y,z
-x,y,1/2-z
-x,-y,-z
x,-y,1/2+z
1/2+x,1/2+y,z
1/2-x,1/2+y,1/2-z
1/2-x,1/2-y,-z
1/2+x,1/2-y,1/2+z
loop_
_atom_site_type_symbol
_atom_site_label
_atom_site_fract_x
_atom_site_fract_y
_atom_site_fract_z
Si Si1 0.209390 0.589529 0.201051
Si Si2 0.517760 0.598136 0.059410
Si Si3 0.863102 0.204264 0.842772
Si Si4 0.186553 0.024529 0.435051
Si Si5 0.145090 0.563576 0.801680
Si Si6 0.500000 0.379035 0.250000
O O1 0.338729 0.610769 0.326946
O O2 0.140457 0.686442 0.149722
O O3 0.234773 0.546867 0.114820
O O4 0.124382 0.515166 0.212749
O O5 0.414840 0.605871 0.090251
O O6 0.500000 0.500000 0.000000
O O7 0.487583 0.679281 0.972156
O O8 0.733452 0.148183 0.808704
O O9 0.897749 0.180830 0.755417
O O10 0.288081 0.013740 0.574204
O O11 0.092022 0.936632 0.368807
O O12 0.000000 0.601944 0.750000
#
# Coordination Sequence:
#
# PCOD8151015 Si02
#       6
#     8   8   8   8   8   4
#     4  12  23  41  67 102 130 172 225 278 333 388
#     4  11  18  42  69  94 126 175 233 272 311 398
#     4  11  25  39  68 100 130 172 225 275 330 390
#     4  11  20  40  76  88 121 190 226 264 322 393
#     4  11  25  44  60  96 144 172 211 276 338 399
#     4  12  18  44  68  96 120 176 236 268 316 400
#
# _framework density 20.621918999999998
#
# number of rings (size 3 to 8) (size 9 to 14) (size 15 to 20)
#    0.000    0.727    9.091    0.000    1.273    6.545 
#    3.273    1.818    0.000    0.000    0.000    0.000 
#    0.000    0.000    0.000    0.000    0.000    0.000 
#
# Total GULP energy -272670.051591 kJ/mol
# GULP energy per Si atom -12394.093254 kJ/mol
# Density = 2.057498 g / cm^3
# Si number density = 20.621919 Si / 1000 Ang^3
#
#
#
# Elastic Constant Matrix: (Units=GPa)
#
#
# Indices 1 2 3 4 5 6 
#
# 1 125.5257 20.2261 26.7143 0.0000 -15.0814 0.0000
# 2 20.2261 84.9453 1.0191 0.0000 -15.0353 0.0000
# 3 26.7143 1.0191 50.4770 0.0000 -12.9449 0.0000
# 4 0.0000 0.0000 0.0000 24.5483 0.0000 6.8431
# 5 -15.0814 -15.0353 -12.9449 0.0000 24.6586 0.0000
# 6 0.0000 0.0000 0.0000 6.8431 0.0000 11.4569
#
#
#
# Elastic Compliance Matrix: (Units=1/GPa)
#
#
# Indices 1 2 3 4 5 6 
#
# 1 0.009470 -0.001774 -0.004354 0.000000 0.002425 0.000000
# 2 -0.001774 0.013720 0.002922 0.000000 0.008815 0.000000
# 3 -0.004354 0.002922 0.025227 0.000000 0.012362 0.000000
# 4 0.000000 0.000000 0.000000 0.048873 0.000000 -0.029192
# 5 0.002425 0.008815 0.012362 0.000000 0.053901 0.000000
# 6 0.000000 0.000000 0.000000 -0.029192 0.000000 0.104719
#
#
# Mechanical properties :
#
#
# Convention : Reuss Voigt Hill
#
# Bulk Modulus (GPa) = 23.80650 39.65190 31.72920
# Shear Modulus (GPa) = 18.09471 26.33199 22.21335
#
# Velocity S-wave (km/s) = 2.96539 3.57724 3.28559
# Velocity P-wave (km/s) = 4.82639 6.02760 5.46013
#
# Compressibility (1/GPa) = 0.04200534
#
# Stress axis : x y z
#
# Youngs Moduli (GPa) = 105.59330 72.88776 39.64054
#
# Poissons Ratio (x) = 0.12927 0.17261
# Poissons Ratio (y) = 0.18727 -0.11584
# Poissons Ratio (z) = 0.45979 -0.21299
#
# Static dielectric constant tensor:
#      x y z
#    x 4.022390 0.000000 -0.514790 
#    y 0.000000 4.458790 0.000000 
#    z -0.514790 0.000000 3.338370 
# 
# 
# High freq. dielectric constant tensor:
#      x y z
#    x 1.820120 0.000000 -0.017870 
#    y 0.000000 1.777010 0.000000 
#    z -0.017870 0.000000 1.813720 
# 
# From -- ./inp_files/143350.got.cif
#   From: 2010.06.25/outbox.cif.g09.slc.cpg/sg15_72_cif.got.tgz:143350.got - 2010.06.28 07:06:18.
