data_PCOD8151039
_publ_section_title
;
Structure prediction by ZEFSAII (Michael W. Deem and Ramdas Pophale) SiO2 
 PCOD8151039
Probable space group: C 2/C
;
_chemical_formula_sum "Si O2"
_cell_formula_units_Z 56
_cell_length_a 13.242923
_cell_length_b 20.205353
_cell_length_c 11.909243
_cell_angle_alpha 90.000000
_cell_angle_beta 68.395276
_cell_angle_gamma 90.000000
_cell_volume 2962.776101
_symmetry_space_group_name_H-M "C 2/C"
_symmetry_group_IT_number 15
_symmetry_cell_setting 'monoclinic'
loop_
_space_group_symop_operation_xyz
x,y,z
-x,y,1/2-z
-x,-y,-z
x,-y,1/2+z
1/2+x,1/2+y,z
1/2-x,1/2+y,1/2-z
1/2-x,1/2-y,-z
1/2+x,1/2-y,1/2+z
loop_
_atom_site_type_symbol
_atom_site_label
_atom_site_fract_x
_atom_site_fract_y
_atom_site_fract_z
Si Si1 0.149863 0.704068 0.513505
Si Si2 0.872028 0.584468 0.813308
Si Si3 0.294851 0.189130 0.262202
Si Si4 0.879438 0.436609 0.847527
Si Si5 0.897192 0.190227 0.857520
Si Si6 0.075701 0.758674 0.918301
Si Si7 0.182611 0.376133 0.408707
O O1 0.250000 0.750000 0.500000
O O2 0.164042 0.635646 0.575425
O O3 0.146591 0.688451 0.382182
O O4 0.039914 0.743910 0.594602
O O5 0.832351 0.510291 0.853871
O O6 0.816352 0.602011 0.719724
O O7 0.000000 0.588199 0.750000
O O8 0.303895 0.116739 0.314635
O O9 0.353096 0.241378 0.321062
O O10 0.167049 0.208989 0.298678
O O11 0.000000 0.429827 0.750000
O O12 0.876854 0.426893 0.983211
O O13 0.806924 0.133522 0.893488
O O14 0.000000 0.162552 0.750000
O O15 0.938283 0.195631 0.967864
O O16 0.117334 0.690537 0.951169
#
# Coordination Sequence:
#
# PCOD8151039 Si02
#       7
#     8   8   8   8   8   8   8
#     4  12  25  39  61  89 126 161 200 253 315 371
#     4  11  26  39  58  87 127 167 194 245 311 370
#     4  11  21  36  61  91 120 153 200 254 303 359
#     4  11  23  37  60  91 121 161 203 247 303 364
#     4  11  19  34  61  93 113 152 201 254 304 345
#     4  11  20  37  62  89 121 151 203 255 303 353
#     4  11  21  40  60  84 124 153 200 251 294 363
#
# _framework density 18.901192999999999
#
# number of rings (size 3 to 8) (size 9 to 14) (size 15 to 20)
#    0.000    0.857    5.714    3.857    2.000    1.143 
#    0.000    0.000    0.000    3.429    0.000    0.000 
#    0.000    0.000    0.000    0.000    0.000    0.000 
#
# Total GULP energy -347144.507053 kJ/mol
# GULP energy per Si atom -12398.018109 kJ/mol
# Density = 1.885817 g / cm^3
# Si number density = 18.901193 Si / 1000 Ang^3
#
#
#
# Elastic Constant Matrix: (Units=GPa)
#
#
# Indices 1 2 3 4 5 6 
#
# 1 92.3335 27.8559 22.3992 0.0000 -16.3999 0.0000
# 2 27.8559 70.9151 41.4984 0.0000 -4.1963 0.0000
# 3 22.3992 41.4984 103.3359 0.0000 -0.1435 0.0000
# 4 0.0000 0.0000 0.0000 37.5861 0.0000 -0.2927
# 5 -16.3999 -4.1963 -0.1435 0.0000 35.0102 0.0000
# 6 0.0000 0.0000 0.0000 -0.2927 0.0000 18.4388
#
#
#
# Elastic Compliance Matrix: (Units=1/GPa)
#
#
# Indices 1 2 3 4 5 6 
#
# 1 0.013423 -0.004226 -0.001204 0.000000 0.005776 0.000000
# 2 -0.004226 0.019932 -0.007088 0.000000 0.000380 0.000000
# 3 -0.001204 -0.007088 0.012783 0.000000 -0.001361 0.000000
# 4 0.000000 0.000000 0.000000 0.026609 0.000000 0.000422
# 5 0.005776 0.000380 -0.001361 0.000000 0.031309 0.000000
# 6 0.000000 0.000000 0.000000 0.000422 0.000000 0.054240
#
#
# Mechanical properties :
#
#
# Convention : Reuss Voigt Hill
#
# Bulk Modulus (GPa) = 47.39093 50.01015 48.70054
# Shear Modulus (GPa) = 26.26520 29.86243 28.06381
#
# Velocity S-wave (km/s) = 3.73179 3.97914 3.85744
# Velocity P-wave (km/s) = 6.61027 6.90127 6.75734
#
# Compressibility (1/GPa) = 0.02110108
#
# Stress axis : x y z
#
# Youngs Moduli (GPa) = 74.49633 50.17179 78.23079
#
# Poissons Ratio (x) = 0.21203 0.09423
# Poissons Ratio (y) = 0.31483 0.55447
# Poissons Ratio (z) = 0.08973 0.35560
#
# Static dielectric constant tensor:
#      x y z
#    x 4.258760 0.000000 0.310370 
#    y 0.000000 3.642950 0.000000 
#    z 0.310370 0.000000 3.716600 
# 
# 
# High freq. dielectric constant tensor:
#      x y z
#    x 1.724810 0.000000 -0.000860 
#    y 0.000000 1.711620 0.000000 
#    z -0.000860 0.000000 1.751990 
# 
# From -- ./inp_files/89567.got.cif
#   From: 2010.06.25/outbox.cif.g09.slc.cpg/sg15_45_cif.got.tgz:89567.got - 2010.06.28 07:06:18.
