data_PCOD8151879
_publ_section_title
;
Structure prediction by ZEFSAII (Michael W. Deem and Ramdas Pophale) SiO2 
 PCOD8151879
Probable space group: C 2/C
;
_chemical_formula_sum "Si O2"
_cell_formula_units_Z 40
_cell_length_a 9.386709
_cell_length_b 22.216573
_cell_length_c 13.464090
_cell_angle_alpha 90.000000
_cell_angle_beta 38.812551
_cell_angle_gamma 90.000000
_cell_volume 1759.862584
_symmetry_space_group_name_H-M "C 2/C"
_symmetry_group_IT_number 15
_symmetry_cell_setting 'monoclinic'
loop_
_space_group_symop_operation_xyz
x,y,z
-x,y,1/2-z
-x,-y,-z
x,-y,1/2+z
1/2+x,1/2+y,z
1/2-x,1/2+y,1/2-z
1/2-x,1/2-y,-z
1/2+x,1/2-y,1/2+z
loop_
_atom_site_type_symbol
_atom_site_label
_atom_site_fract_x
_atom_site_fract_y
_atom_site_fract_z
Si Si1 0.279851 0.040807 0.315884
Si Si2 0.425471 0.092234 0.684698
Si Si3 0.898783 0.309313 0.912893
Si Si4 0.961081 0.087500 0.877825
Si Si5 0.259555 0.367879 0.837603
O O1 0.500000 0.070200 0.250000
O O2 0.088745 0.037712 0.508505
O O3 0.193753 0.085003 0.276403
O O4 0.354810 0.977755 0.229427
O O5 0.500000 0.118729 0.750000
O O6 0.627792 0.098721 0.497479
O O7 0.191997 0.124888 0.778398
O O8 0.000000 0.313728 0.750000
O O9 0.108349 0.311895 0.878430
O O10 0.750000 0.250000 0.000000
O O11 0.741590 0.365938 0.022882
O O12 0.000000 0.054534 0.750000
O O13 0.500000 0.343907 0.750000
#
# Coordination Sequence:
#
# PCOD8151879 Si02
#       5
#     8   8   8   8   8
#     4  11  21  42  64 101 144 195 236 271 341 419
#     4  11  25  38  65 105 145 190 232 280 349 405
#     4  12  26  49  78 103 132 181 239 292 363 421
#     4  12  21  42  70 100 140 181 238 295 336 418
#     4  12  24  46  69 102 145 181 230 302 347 412
#
# _framework density 22.729047999999999
#
# number of rings (size 3 to 8) (size 9 to 14) (size 15 to 20)
#    0.000    0.400    6.000    3.000    0.000    4.000 
#    0.000    2.000    0.000    0.000    0.000    0.000 
#    0.000    0.000    0.000    0.000    0.000    0.000 
#
# Total GULP energy -247906.509823 kJ/mol
# GULP energy per Si atom -12395.325491 kJ/mol
# Density = 2.267732 g / cm^3
# Si number density = 22.729048 Si / 1000 Ang^3
#
#
#
# Elastic Constant Matrix: (Units=GPa)
#
#
# Indices 1 2 3 4 5 6 
#
# 1 187.7678 25.4174 73.4101 0.0000 -10.2663 0.0001
# 2 25.4174 72.8324 39.1253 0.0000 5.5314 0.0000
# 3 73.4101 39.1253 181.5294 0.0000 18.6881 0.0001
# 4 0.0000 0.0000 0.0000 15.8295 0.0000 -6.8039
# 5 -10.2663 5.5314 18.6881 0.0000 54.5520 -0.0001
# 6 0.0001 0.0000 0.0001 -6.8039 -0.0001 16.0655
#
#
#
# Elastic Compliance Matrix: (Units=1/GPa)
#
#
# Indices 1 2 3 4 5 6 
#
# 1 0.006646 -0.001044 -0.002698 0.000000 0.002281 0.000000
# 2 -0.001044 0.015702 -0.002880 0.000000 -0.000802 0.000000
# 3 -0.002698 -0.002880 0.007507 0.000000 -0.002788 0.000000
# 4 0.000000 0.000000 0.000000 0.077232 0.000000 0.032709
# 5 0.002281 -0.000802 -0.002788 0.000000 0.019797 0.000000
# 6 0.000000 0.000000 0.000000 0.032709 0.000000 0.076098
#
#
# Mechanical properties :
#
#
# Convention : Reuss Voigt Hill
#
# Bulk Modulus (GPa) = 60.19009 79.78170 69.98590
# Shear Modulus (GPa) = 22.54667 37.56785 30.05726
#
# Velocity S-wave (km/s) = 3.15298 4.06994 3.64045
# Velocity P-wave (km/s) = 6.30826 7.56725 6.96626
#
# Compressibility (1/GPa) = 0.01661403
#
# Stress axis : x y z
#
# Youngs Moduli (GPa) = 150.45804 63.68519 133.20316
#
# Poissons Ratio (x) = 0.06646 0.35934
# Poissons Ratio (y) = 0.15701 0.38359
# Poissons Ratio (z) = 0.40589 0.18340
#
# Static dielectric constant tensor:
#      x y z
#    x 4.854010 0.000000 -0.001220 
#    y 0.000000 3.507320 0.000000 
#    z -0.001220 0.000000 5.206040 
# 
# 
# High freq. dielectric constant tensor:
#      x y z
#    x 1.924220 0.000000 -0.003760 
#    y 0.000000 1.837230 0.000000 
#    z -0.003760 0.000000 1.929770 
# 
# From -- ./inp_files/81987.got.cif
#   From: 2010.06.25/outbox.cif.g09.slc.cpg/sg15_41_cif.got.tgz:81987.got - 2010.06.28 07:06:18.
