data_PCOD8151915
_publ_section_title
;
Structure prediction by ZEFSAII (Michael W. Deem and Ramdas Pophale) SiO2 
 PCOD8151915
Probable space group: C 2/C
;
_chemical_formula_sum "Si O2"
_cell_formula_units_Z 48
_cell_length_a 35.449402
_cell_length_b 7.978691
_cell_length_c 19.762098
_cell_angle_alpha 90.000000
_cell_angle_beta 23.870518
_cell_angle_gamma 90.000000
_cell_volume 2261.912466
_symmetry_space_group_name_H-M "C 2/C"
_symmetry_group_IT_number 15
_symmetry_cell_setting 'monoclinic'
loop_
_space_group_symop_operation_xyz
x,y,z
-x,y,1/2-z
-x,-y,-z
x,-y,1/2+z
1/2+x,1/2+y,z
1/2-x,1/2+y,1/2-z
1/2-x,1/2-y,-z
1/2+x,1/2-y,1/2+z
loop_
_atom_site_type_symbol
_atom_site_label
_atom_site_fract_x
_atom_site_fract_y
_atom_site_fract_z
Si Si1 0.176453 0.611318 0.197963
Si Si2 0.774458 0.219036 0.536699
Si Si3 0.805659 0.495432 0.585255
Si Si4 0.869176 0.707089 0.367780
Si Si5 0.360898 0.732806 0.606960
Si Si6 0.467334 0.543324 0.228660
O O1 0.210451 0.431271 0.167929
O O2 0.118874 0.600881 0.221691
O O3 0.116031 0.685261 0.358375
O O4 0.263205 0.733551 0.045727
O O5 0.750000 0.250000 0.500000
O O6 0.750013 0.379281 0.622678
O O7 0.883315 0.175182 0.364870
O O8 0.884039 0.594883 0.411537
O O9 0.734604 0.624445 0.737823
O O10 0.855356 0.378992 0.559563
O O11 0.939220 0.861919 0.246355
O O12 0.446890 0.610161 0.455087
O O13 0.500000 0.513825 0.250000
#
# Coordination Sequence:
#
# PCOD8151915 Si02
#       6
#     8   8   8   8   8   8
#     4   9  19  39  64  92 124 169 216 265 325 399
#     4  11  21  42  70  92 130 181 221 263 337 407
#     4  11  22  41  66  96 127 178 218 267 334 402
#     4   9  20  39  65  88 124 173 216 256 334 398
#     4  11  24  40  65  98 134 166 222 283 328 387
#     4  11  24  43  62  95 134 173 221 283 330 391
#
# _framework density 21.220980000000001
#
# number of rings (size 3 to 8) (size 9 to 14) (size 15 to 20)
#    0.000    1.667    3.333    1.000    7.000    0.667 
#    3.000    0.833    0.000    0.000    0.000    0.000 
#    0.000    0.000    0.000    0.000    0.000    0.000 
#
# Total GULP energy -297536.932109 kJ/mol
# GULP energy per Si atom -12397.372171 kJ/mol
# Density = 2.117268 g / cm^3
# Si number density = 21.220980 Si / 1000 Ang^3
#
#
#
# Elastic Constant Matrix: (Units=GPa)
#
#
# Indices 1 2 3 4 5 6 
#
# 1 109.6695 28.1102 41.7173 0.0000 20.6032 0.0000
# 2 28.1102 99.0515 40.5406 -0.0007 20.1571 0.0000
# 3 41.7173 40.5406 84.7037 -0.0002 16.0668 0.0000
# 4 0.0000 -0.0007 -0.0002 97.3472 0.0000 -3.9993
# 5 20.6032 20.1571 16.0668 0.0000 30.1317 0.0000
# 6 0.0000 0.0000 0.0000 -3.9993 0.0000 46.7035
#
#
#
# Elastic Compliance Matrix: (Units=1/GPa)
#
#
# Indices 1 2 3 4 5 6 
#
# 1 0.012033 -0.000375 -0.004710 0.000000 -0.005465 0.000000
# 2 -0.000375 0.013542 -0.005148 0.000000 -0.006058 0.000000
# 3 -0.004710 -0.005148 0.017050 0.000000 -0.002427 0.000000
# 4 0.000000 0.000000 0.000000 0.010309 0.000000 0.000883
# 5 -0.005465 -0.006058 -0.002427 0.000000 0.042271 0.000000
# 6 0.000000 0.000000 0.000000 0.000883 0.000000 0.021487
#
#
# Mechanical properties :
#
#
# Convention : Reuss Voigt Hill
#
# Bulk Modulus (GPa) = 45.12821 57.12901 51.12861
# Shear Modulus (GPa) = 34.59166 47.04025 40.81596
#
# Velocity S-wave (km/s) = 4.04179 4.71328 4.39039
# Velocity P-wave (km/s) = 6.56456 7.52326 7.06020
#
# Compressibility (1/GPa) = 0.02215909
#
# Stress axis : x y z
#
# Youngs Moduli (GPa) = 83.10572 73.84550 58.65169
#
# Poissons Ratio (x) = 0.02768 0.27626
# Poissons Ratio (y) = 0.03115 0.30192
# Poissons Ratio (z) = 0.39145 0.38013
#
# Static dielectric constant tensor:
#      x y z
#    x 4.027800 0.000000 0.276200 
#    y 0.000000 4.231930 0.000000 
#    z 0.276200 0.000000 3.508430 
# 
# 
# High freq. dielectric constant tensor:
#      x y z
#    x 1.841060 0.000000 0.020930 
#    y 0.000000 1.848390 0.000000 
#    z 0.020930 0.000000 1.797490 
# 
# From -- ./inp_files/224540.got.cif
#   From: 2010.06.25/outbox.cif.g09.slc.cpg/sg15_113_cif.got.tgz:224540.got - 2010.06.28 07:06:18.
