data_PCOD8151863
_publ_section_title
;
Structure prediction by ZEFSAII (Michael W. Deem and Ramdas Pophale) SiO2 
 PCOD8151863
Probable space group: C 2/C
;
_chemical_formula_sum "Si O2"
_cell_formula_units_Z 48
_cell_length_a 13.393162
_cell_length_b 29.425277
_cell_length_c 11.183542
_cell_angle_alpha 90.000000
_cell_angle_beta 146.614401
_cell_angle_gamma 90.000000
_cell_volume 2425.267193
_symmetry_space_group_name_H-M "C 2/C"
_symmetry_group_IT_number 15
_symmetry_cell_setting 'monoclinic'
loop_
_space_group_symop_operation_xyz
x,y,z
-x,y,1/2-z
-x,-y,-z
x,-y,1/2+z
1/2+x,1/2+y,z
1/2-x,1/2+y,1/2-z
1/2-x,1/2-y,-z
1/2+x,1/2-y,1/2+z
loop_
_atom_site_type_symbol
_atom_site_label
_atom_site_fract_x
_atom_site_fract_y
_atom_site_fract_z
Si Si1 0.706139 0.199539 0.212776
Si Si2 0.293818 0.199527 0.800426
Si Si3 0.500018 0.451209 0.558178
Si Si4 0.500038 0.365565 0.389083
Si Si5 0.795488 0.568469 0.545495
Si Si6 0.708948 0.668820 0.458930
O O1 0.749930 0.250011 0.303471
O O2 0.746082 0.198756 0.111401
O O3 0.822884 0.163010 0.400430
O O4 0.499978 0.187085 0.034172
O O5 0.177095 0.162977 0.754561
O O6 0.253955 0.198751 0.619238
O O7 0.500000 0.500000 0.500000
O O8 0.500136 0.413007 0.457279
O O9 0.315389 0.446981 0.449101
O O10 0.684570 0.447014 0.818356
O O11 0.500000 0.376878 0.250000
O O12 0.822851 0.622693 0.572805
O O13 0.000000 0.547352 0.750000
O O14 0.500000 0.653546 0.250000
#
# Coordination Sequence:
#
# PCOD8151863 Si02
#       6
#     8   8   8   8   8   8
#     4  12  23  41  64  96 132 173 219 270 327 392
#     4  12  23  41  64  96 132 173 219 270 327 392
#     4  11  25  46  72  99 133 176 220 277 339 393
#     4  12  27  45  64  93 133 181 231 268 320 397
#     4  11  21  41  72 103 134 167 210 282 345 387
#     4  12  19  38  67 102 136 166 207 271 345 388
#
# _framework density 19.791633000000001
#
# number of rings (size 3 to 8) (size 9 to 14) (size 15 to 20)
#    0.000    0.333    8.333    2.000    2.333    2.000 
#    0.000    0.000    0.000    0.000    0.000    0.000 
#    0.000    0.000    0.000    0.000    0.000    0.000 
#
# Total GULP energy -297716.473181 kJ/mol
# GULP energy per Si atom -12404.853049 kJ/mol
# Density = 1.974659 g / cm^3
# Si number density = 19.791633 Si / 1000 Ang^3
#
#
#
# Elastic Constant Matrix: (Units=GPa)
#
#
# Indices 1 2 3 4 5 6 
#
# 1 150.8647 59.7837 67.3995 0.0000 9.5477 0.0000
# 2 59.7837 152.0460 54.2984 0.0000 -5.8591 0.0000
# 3 67.3995 54.2984 169.5665 0.0000 14.2418 0.0000
# 4 0.0000 0.0000 0.0000 13.9800 0.0000 0.8020
# 5 9.5477 -5.8591 14.2418 0.0000 51.0090 0.0000
# 6 0.0000 0.0000 0.0000 0.8020 0.0000 13.2968
#
#
#
# Elastic Compliance Matrix: (Units=1/GPa)
#
#
# Indices 1 2 3 4 5 6 
#
# 1 0.008906 -0.002623 -0.002596 0.000000 -0.001244 0.000000
# 2 -0.002623 0.008321 -0.001785 0.000000 0.001945 0.000000
# 3 -0.002596 -0.001785 0.007657 0.000000 -0.001857 0.000000
# 4 0.000000 0.000000 0.000000 0.071779 0.000000 -0.004329
# 5 -0.001244 0.001945 -0.001857 0.000000 0.020579 0.000000
# 6 0.000000 0.000000 0.000000 -0.004329 0.000000 0.075467
#
#
# Mechanical properties :
#
#
# Convention : Reuss Voigt Hill
#
# Bulk Modulus (GPa) = 91.94521 92.82671 92.38596
# Shear Modulus (GPa) = 23.77083 35.05687 29.41385
#
# Velocity S-wave (km/s) = 3.46938 4.21324 3.85928
# Velocity P-wave (km/s) = 7.91241 8.40669 8.16329
#
# Compressibility (1/GPa) = 0.01087604
#
# Stress axis : x y z
#
# Youngs Moduli (GPa) = 112.28202 120.18136 130.60291
#
# Poissons Ratio (x) = 0.31521 0.33901
# Poissons Ratio (y) = 0.29449 0.23317
# Poissons Ratio (z) = 0.29145 0.21456
#
# Static dielectric constant tensor:
#      x y z
#    x 3.591490 0.000000 0.146900 
#    y 0.000000 3.463170 0.000000 
#    z 0.146900 0.000000 3.714600 
# 
# 
# High freq. dielectric constant tensor:
#      x y z
#    x 1.769980 0.000000 0.011860 
#    y 0.000000 1.767180 0.000000 
#    z 0.011860 0.000000 1.779890 
# 
# From -- ./inp_files/101258.got.cif
#   From: 2010.06.25/outbox.cif.g09.slc.cpg/sg15_51_cif.got.tgz:101258.got - 2010.06.28 07:06:18.
