data_PCOD8151757
_publ_section_title
;
Structure prediction by ZEFSAII (Michael W. Deem and Ramdas Pophale) SiO2 
 PCOD8151757
Probable space group: C 2/C
;
_chemical_formula_sum "Si O2"
_cell_formula_units_Z 56
_cell_length_a 9.891828
_cell_length_b 17.900883
_cell_length_c 16.387588
_cell_angle_alpha 90.000000
_cell_angle_beta 76.755306
_cell_angle_gamma 90.000000
_cell_volume 2824.604216
_symmetry_space_group_name_H-M "C 2/C"
_symmetry_group_IT_number 15
_symmetry_cell_setting 'monoclinic'
loop_
_space_group_symop_operation_xyz
x,y,z
-x,y,1/2-z
-x,-y,-z
x,-y,1/2+z
1/2+x,1/2+y,z
1/2-x,1/2+y,1/2-z
1/2-x,1/2-y,-z
1/2+x,1/2-y,1/2+z
loop_
_atom_site_type_symbol
_atom_site_label
_atom_site_fract_x
_atom_site_fract_y
_atom_site_fract_z
Si Si1 0.143466 0.101144 0.377135
Si Si2 0.194605 0.665359 0.001093
Si Si3 0.117515 0.931848 0.342676
Si Si4 0.669435 0.637235 0.676648
Si Si5 0.852930 0.701245 0.254585
Si Si6 0.612190 0.802801 0.934175
Si Si7 0.135370 0.853679 0.509742
O O1 0.217139 0.109499 0.454553
O O2 0.219241 0.155321 0.302458
O O3 0.981819 0.119208 0.411550
O O4 0.147060 0.019278 0.338795
O O5 0.036405 0.657484 0.051215
O O6 0.250000 0.750000 0.000000
O O7 0.207518 0.634857 0.906687
O O8 0.216217 0.898213 0.257003
O O9 0.154548 0.903310 0.427016
O O10 0.960900 0.908123 0.341998
O O11 0.630283 0.723672 0.694640
O O12 0.830834 0.719297 0.162641
O O13 0.000000 0.657783 0.250000
O O14 0.594458 0.729912 0.991500
O O15 0.719919 0.858749 0.961960
#
# Coordination Sequence:
#
# PCOD8151757 Si02
#       7
#     8   8   8   8   8   8   8
#     4  12  25  39  68  98 136 163 226 275 328 388
#     4  12  20  40  68 101 119 173 232 270 312 403
#     4  11  23  41  65  98 131 177 212 283 331 397
#     4  11  21  39  72  91 128 173 239 259 323 400
#     4  12  20  40  67  97 125 173 226 276 306 398
#     4  11  23  38  68  98 129 166 221 275 332 378
#     4  11  22  42  62  97 136 167 211 279 335 389
#
# _framework density 19.825786000000001
#
# number of rings (size 3 to 8) (size 9 to 14) (size 15 to 20)
#    0.000    0.571    8.571    0.429    0.000    2.857 
#    0.000    2.857    0.000    0.000    0.000    0.000 
#    0.000    0.000    0.000    0.000    0.000    0.000 
#
# Total GULP energy -347160.323702 kJ/mol
# GULP energy per Si atom -12398.582989 kJ/mol
# Density = 1.978066 g / cm^3
# Si number density = 19.825786 Si / 1000 Ang^3
#
#
#
# Elastic Constant Matrix: (Units=GPa)
#
#
# Indices 1 2 3 4 5 6 
#
# 1 90.3062 40.6570 34.7995 0.0000 -3.9251 0.0000
# 2 40.6570 101.4877 36.8476 0.0000 -6.3483 0.0000
# 3 34.7995 36.8476 140.0215 0.0000 -14.8958 0.0000
# 4 0.0000 0.0000 0.0000 27.7585 0.0000 2.0281
# 5 -3.9251 -6.3483 -14.8958 0.0000 26.2578 0.0000
# 6 0.0000 0.0000 0.0000 2.0281 0.0000 23.5108
#
#
#
# Elastic Compliance Matrix: (Units=1/GPa)
#
#
# Indices 1 2 3 4 5 6 
#
# 1 0.014118 -0.004854 -0.002269 0.000000 -0.000350 0.000000
# 2 -0.004854 0.012592 -0.001980 0.000000 0.001195 0.000000
# 3 -0.002269 -0.001980 0.008662 0.000000 0.004096 0.000000
# 4 0.000000 0.000000 0.000000 0.036253 0.000000 -0.003127
# 5 -0.000350 0.001195 0.004096 0.000000 0.040644 0.000000
# 6 0.000000 0.000000 0.000000 -0.003127 0.000000 0.042803
#
#
# Mechanical properties :
#
#
# Convention : Reuss Voigt Hill
#
# Bulk Modulus (GPa) = 58.25257 61.82484 60.03871
# Shear Modulus (GPa) = 27.93288 30.13950 29.03619
#
# Velocity S-wave (km/s) = 3.75763 3.90323 3.83112
# Velocity P-wave (km/s) = 6.94783 7.18090 7.06533
#
# Compressibility (1/GPa) = 0.01716662
#
# Stress axis : x y z
#
# Youngs Moduli (GPa) = 70.83292 79.41779 115.44137
#
# Poissons Ratio (x) = 0.38549 0.26189
# Poissons Ratio (y) = 0.34382 0.22858
# Poissons Ratio (z) = 0.16069 0.15725
#
# Static dielectric constant tensor:
#      x y z
#    x 3.519210 0.000000 0.015750 
#    y 0.000000 3.455570 0.000000 
#    z 0.015750 0.000000 4.077090 
# 
# 
# High freq. dielectric constant tensor:
#      x y z
#    x 1.752560 0.000000 0.001320 
#    y 0.000000 1.749840 0.000000 
#    z 0.001320 0.000000 1.800560 
# 
# From -- ./inp_files/190917.got.cif
#   From: 2010.06.25/outbox.cif.g09.slc.cpg/sg15_96_cif.got.tgz:190917.got - 2010.06.28 07:06:18.
