data_PCOD8151656
_publ_section_title
;
Structure prediction by ZEFSAII (Michael W. Deem and Ramdas Pophale) SiO2 
 PCOD8151656
Probable space group: C 2/C
;
_chemical_formula_sum "Si O2"
_cell_formula_units_Z 40
_cell_length_a 22.731637
_cell_length_b 9.300663
_cell_length_c 8.708927
_cell_angle_alpha 90.000000
_cell_angle_beta 86.736194
_cell_angle_gamma 90.000000
_cell_volume 1838.248689
_symmetry_space_group_name_H-M "C 2/C"
_symmetry_group_IT_number 15
_symmetry_cell_setting 'monoclinic'
loop_
_space_group_symop_operation_xyz
x,y,z
-x,y,1/2-z
-x,-y,-z
x,-y,1/2+z
1/2+x,1/2+y,z
1/2-x,1/2+y,1/2-z
1/2-x,1/2-y,-z
1/2+x,1/2-y,1/2+z
loop_
_atom_site_type_symbol
_atom_site_label
_atom_site_fract_x
_atom_site_fract_y
_atom_site_fract_z
Si Si1 0.356324 0.869537 0.899437
Si Si2 0.958370 0.417695 0.389855
Si Si3 0.337921 0.586172 0.757809
Si Si4 0.638388 0.308285 0.580041
Si Si5 0.296471 0.087959 0.727990
O O1 0.371364 0.706333 0.853237
O O2 0.411973 0.964366 0.840346
O O3 0.303786 0.927305 0.796926
O O4 0.341149 0.883883 0.080844
O O5 0.922552 0.275704 0.450471
O O6 0.000000 0.360344 0.250000
O O7 0.000000 0.500000 0.500000
O O8 0.368616 0.434029 0.791580
O O9 0.339708 0.614579 0.576786
O O10 0.269933 0.596036 0.821743
O O11 0.687603 0.198219 0.636627
#
# Coordination Sequence:
#
# PCOD8151656 Si02
#       5
#     8   8   8   8   8
#     4  11  22  38  63  92 121 162 210 249 301 373
#     4  11  23  44  66  85 114 160 213 265 305 354
#     4  12  22  39  60  92 131 161 194 254 310 370
#     4  11  24  39  61  92 124 163 208 250 306 372
#     4  11  21  38  61  93 128 166 199 240 304 379
#
# _framework density 21.759843
#
# number of rings (size 3 to 8) (size 9 to 14) (size 15 to 20)
#    0.000    0.800    0.000   10.800    0.000    0.000 
#    0.000    5.000    0.000    0.000    0.000    0.000 
#    0.000    0.000    0.000    0.000    0.000    0.000 
#
# Total GULP energy -247984.254573 kJ/mol
# GULP energy per Si atom -12399.212729 kJ/mol
# Density = 2.171032 g / cm^3
# Si number density = 21.759843 Si / 1000 Ang^3
#
#
#
# Elastic Constant Matrix: (Units=GPa)
#
#
# Indices 1 2 3 4 5 6 
#
# 1 84.6190 45.0764 18.7250 0.0000 -4.3012 0.0000
# 2 45.0764 132.3659 17.0405 0.0000 12.8096 0.0000
# 3 18.7250 17.0405 87.1577 0.0000 5.2556 0.0000
# 4 0.0000 0.0000 0.0000 43.6486 0.0000 10.5216
# 5 -4.3012 12.8096 5.2556 0.0000 29.4739 0.0000
# 6 0.0000 0.0000 0.0000 10.5216 0.0000 28.5219
#
#
#
# Elastic Compliance Matrix: (Units=1/GPa)
#
#
# Indices 1 2 3 4 5 6 
#
# 1 0.015557 -0.005459 -0.002583 0.000000 0.005103 0.000000
# 2 -0.005459 0.009962 -0.000471 0.000000 -0.005042 0.000000
# 3 -0.002583 -0.000471 0.012263 0.000000 -0.002359 0.000000
# 4 0.000000 0.000000 0.000000 0.025146 0.000000 -0.009276
# 5 0.005103 -0.005042 -0.002359 0.000000 0.037285 0.000000
# 6 0.000000 0.000000 0.000000 -0.009276 0.000000 0.038483
#
#
# Mechanical properties :
#
#
# Convention : Reuss Voigt Hill
#
# Bulk Modulus (GPa) = 48.17765 51.75848 49.96806
# Shear Modulus (GPa) = 30.74275 35.21560 32.97917
#
# Velocity S-wave (km/s) = 3.76283 4.02727 3.89729
# Velocity P-wave (km/s) = 6.40837 6.74263 6.57762
#
# Compressibility (1/GPa) = 0.02075651
#
# Stress axis : x y z
#
# Youngs Moduli (GPa) = 64.28127 100.37658 81.54878
#
# Poissons Ratio (x) = 0.54797 0.21061
# Poissons Ratio (y) = 0.35092 0.03840
# Poissons Ratio (z) = 0.16601 0.04727
#
# Static dielectric constant tensor:
#      x y z
#    x 3.809640 0.000000 0.169650 
#    y 0.000000 4.373940 0.000000 
#    z 0.169650 0.000000 3.828950 
# 
# 
# High freq. dielectric constant tensor:
#      x y z
#    x 1.834590 0.000000 0.005410 
#    y 0.000000 1.864810 0.000000 
#    z 0.005410 0.000000 1.863350 
# 
# From -- ./inp_files/59895.got.cif
#   From: 2010.06.25/outbox.cif.g09.slc.cpg/sg15_30_cif.got.tgz:59895.got - 2010.06.28 07:06:18.
