data_PCOD8151305
_publ_section_title
;
Structure prediction by ZEFSAII (Michael W. Deem and Ramdas Pophale) SiO2 
 PCOD8151305
Probable space group: C 2/C
;
_chemical_formula_sum "Si O2"
_cell_formula_units_Z 40
_cell_length_a 19.086396
_cell_length_b 15.939180
_cell_length_c 9.673085
_cell_angle_alpha 90.000000
_cell_angle_beta 38.809678
_cell_angle_gamma 90.000000
_cell_volume 1844.332268
_symmetry_space_group_name_H-M "C 2/C"
_symmetry_group_IT_number 15
_symmetry_cell_setting 'monoclinic'
loop_
_space_group_symop_operation_xyz
x,y,z
-x,y,1/2-z
-x,-y,-z
x,-y,1/2+z
1/2+x,1/2+y,z
1/2-x,1/2+y,1/2-z
1/2-x,1/2-y,-z
1/2+x,1/2-y,1/2+z
loop_
_atom_site_type_symbol
_atom_site_label
_atom_site_fract_x
_atom_site_fract_y
_atom_site_fract_z
Si Si1 0.419914 0.116187 0.496434
Si Si2 0.267574 0.340330 0.414804
Si Si3 0.755134 0.496421 0.860481
Si Si4 0.506013 0.707259 0.576486
Si Si5 0.884711 0.949034 0.681919
O O1 0.500000 0.082710 0.250000
O O2 0.621252 0.959381 0.339573
O O3 0.478165 0.194299 0.489987
O O4 0.304205 0.151525 0.612593
O O5 0.250000 0.250000 0.500000
O O6 0.229466 0.406733 0.590211
O O7 0.399074 0.341165 0.175912
O O8 0.332454 0.549654 0.414567
O O9 0.704700 0.491722 0.783807
O O10 0.500000 0.704739 0.750000
O O11 0.607065 0.648906 0.370926
O O12 0.000000 0.000000 0.500000
#
# Coordination Sequence:
#
# PCOD8151305 Si02
#       5
#     8   8   8   8   8
#     4  11  24  42  64  96 133 173 221 271 334 398
#     4  12  21  41  66  92 125 175 224 257 323 410
#     4  12  24  39  65  98 130 169 220 278 321 398
#     4  11  20  38  66  91 126 174 216 262 334 392
#     4  12  21  39  66  96 130 168 223 275 332 382
#
# _framework density 21.688065000000002
#
# number of rings (size 3 to 8) (size 9 to 14) (size 15 to 20)
#    0.000    0.400   10.000    0.600    0.000    1.600 
#    0.000    0.000    0.000    0.000    0.000    0.000 
#    0.000    0.000    0.000    0.000    0.000    0.000 
#
# Total GULP energy -247874.353211 kJ/mol
# GULP energy per Si atom -12393.717661 kJ/mol
# Density = 2.163870 g / cm^3
# Si number density = 21.688065 Si / 1000 Ang^3
#
#
#
# Elastic Constant Matrix: (Units=GPa)
#
#
# Indices 1 2 3 4 5 6 
#
# 1 56.7095 -5.3913 6.1194 0.0000 -6.5729 0.0000
# 2 -5.3913 147.5510 67.8636 0.0000 1.6410 0.0000
# 3 6.1194 67.8636 135.9134 0.0000 -1.9961 0.0000
# 4 0.0000 0.0000 0.0000 55.6775 0.0000 -8.8416
# 5 -6.5729 1.6410 -1.9961 0.0000 25.3663 0.0000
# 6 0.0000 0.0000 0.0000 -8.8416 0.0000 16.9088
#
#
#
# Elastic Compliance Matrix: (Units=1/GPa)
#
#
# Indices 1 2 3 4 5 6 
#
# 1 0.018436 0.001264 -0.001394 0.000000 0.004586 0.000000
# 2 0.001264 0.008906 -0.004512 0.000000 -0.000604 0.000000
# 3 -0.001394 -0.004512 0.009684 0.000000 0.000693 0.000000
# 4 0.000000 0.000000 0.000000 0.019587 0.000000 0.010242
# 5 0.004586 -0.000604 0.000693 0.000000 0.040704 0.000000
# 6 0.000000 0.000000 0.000000 0.010242 0.000000 0.064496
#
#
# Mechanical properties :
#
#
# Convention : Reuss Voigt Hill
#
# Bulk Modulus (GPa) = 36.04897 53.03969 44.54433
# Shear Modulus (GPa) = 27.72474 37.69601 32.71037
#
# Velocity S-wave (km/s) = 3.57927 4.17357 3.88779
# Velocity P-wave (km/s) = 5.80855 6.90896 6.38251
#
# Compressibility (1/GPa) = 0.02774004
#
# Stress axis : x y z
#
# Youngs Moduli (GPa) = 54.24247 112.28836 103.26637
#
# Poissons Ratio (x) = -0.14189 0.14392
# Poissons Ratio (y) = -0.06854 0.46599
# Poissons Ratio (z) = 0.07559 0.50670
#
# Static dielectric constant tensor:
#      x y z
#    x 3.617380 0.000000 -0.318840 
#    y 0.000000 4.356910 0.000000 
#    z -0.318840 0.000000 4.224460 
# 
# 
# High freq. dielectric constant tensor:
#      x y z
#    x 1.832980 0.000000 -0.023680 
#    y 0.000000 1.870100 0.000000 
#    z -0.023680 0.000000 1.842030 
# 
# From -- ./inp_files/112252.got.cif
#   From: 2010.06.25/outbox.cif.g09.slc.cpg/sg15_57_cif.got.tgz:112252.got - 2010.06.28 07:06:18.
