data_PCOD8151324
_publ_section_title
;
Structure prediction by ZEFSAII (Michael W. Deem and Ramdas Pophale) SiO2 
 PCOD8151324
Probable space group: C 2/C
;
_chemical_formula_sum "Si O2"
_cell_formula_units_Z 60
_cell_length_a 11.581770
_cell_length_b 21.109519
_cell_length_c 23.793020
_cell_angle_alpha 90.000000
_cell_angle_beta 146.967040
_cell_angle_gamma 90.000000
_cell_volume 3170.998774
_symmetry_space_group_name_H-M "C 2/C"
_symmetry_group_IT_number 15
_symmetry_cell_setting 'monoclinic'
loop_
_space_group_symop_operation_xyz
x,y,z
-x,y,1/2-z
-x,-y,-z
x,-y,1/2+z
1/2+x,1/2+y,z
1/2-x,1/2+y,1/2-z
1/2-x,1/2-y,-z
1/2+x,1/2-y,1/2+z
loop_
_atom_site_type_symbol
_atom_site_label
_atom_site_fract_x
_atom_site_fract_y
_atom_site_fract_z
Si Si1 0.621193 0.908338 0.131937
Si Si2 0.500000 0.483616 0.250000
Si Si3 0.181075 0.415333 0.280357
Si Si4 0.283060 0.842558 0.627839
Si Si5 0.220568 0.798615 0.371856
Si Si6 0.738805 0.489530 0.949979
Si Si7 0.652873 0.372630 0.454594
Si Si8 0.081804 0.034037 0.088801
O O1 0.566719 0.899011 0.174932
O O2 0.611738 0.843835 0.091824
O O3 0.856672 0.936836 0.228665
O O4 0.471209 0.960274 0.042049
O O5 0.368869 0.527104 0.153708
O O6 0.408221 0.378950 0.376687
O O7 0.228437 0.490908 0.307621
O O8 0.000000 0.392475 0.250000
O O9 0.500000 0.843086 0.750000
O O10 0.182728 0.772207 0.590855
O O11 0.302502 0.859772 0.569612
O O12 0.142473 0.894397 0.601314
O O13 0.179805 0.816848 0.420322
O O14 0.000000 0.801805 0.250000
O O15 0.742132 0.564906 0.960321
O O16 0.610344 0.456648 0.947107
O O17 0.000000 0.000000 0.000000
#
# Coordination Sequence:
#
# PCOD8151324 Si02
#       8
#     8   4   8   8   8   8   8   8
#     4  12  21  38  62  90 121 160 204 246 305 362
#     4  12  20  40  56  92 124 152 206 252 304 362
#     4  11  21  34  64  89 120 155 198 254 305 360
#     4  11  25  38  61  91 121 160 199 253 305 353
#     4  11  21  42  62  87 121 159 207 247 294 367
#     4  11  23  34  63  90 120 158 196 258 306 358
#     4  11  21  40  61  92 122 154 204 257 299 355
#     4  11  20  39  56  89 126 147 195 249 304 353
#
# _framework density 18.921484
#
# number of rings (size 3 to 8) (size 9 to 14) (size 15 to 20)
#    0.000    0.800    8.667    2.000    1.867    0.000 
#    0.000    0.667    0.000    0.000    0.000    0.000 
#    0.000    0.000    0.000    0.000    0.000    0.000 
#
# Total GULP energy -371899.444874 kJ/mol
# GULP energy per Si atom -12396.648162 kJ/mol
# Density = 1.887842 g / cm^3
# Si number density = 18.921484 Si / 1000 Ang^3
#
#
#
# Elastic Constant Matrix: (Units=GPa)
#
#
# Indices 1 2 3 4 5 6 
#
# 1 96.2451 45.1750 34.6371 -0.0004 -12.5708 0.0007
# 2 45.1750 123.8605 39.3003 -0.0026 2.3295 0.0017
# 3 34.6371 39.3003 98.6735 -0.0116 -21.9006 0.0020
# 4 -0.0004 -0.0026 -0.0116 15.3260 -0.0020 4.9952
# 5 -12.5708 2.3295 -21.9006 -0.0020 35.7245 0.0014
# 6 0.0007 0.0017 0.0020 4.9952 0.0014 24.1976
#
#
#
# Elastic Compliance Matrix: (Units=1/GPa)
#
#
# Indices 1 2 3 4 5 6 
#
# 1 0.013739 -0.004366 -0.002254 -0.000002 0.003737 0.000000
# 2 -0.004366 0.010980 -0.003866 -0.000002 -0.004623 0.000000
# 3 -0.002254 -0.003866 0.014290 0.000012 0.008219 -0.000004
# 4 -0.000002 -0.000002 0.000012 0.069956 0.000012 -0.014441
# 5 0.003737 -0.004623 0.008219 0.000012 0.034647 -0.000005
# 6 0.000000 0.000000 -0.000004 -0.014441 -0.000005 0.044308
#
#
# Mechanical properties :
#
#
# Convention : Reuss Voigt Hill
#
# Bulk Modulus (GPa) = 55.44766 61.88929 58.66848
# Shear Modulus (GPa) = 23.26621 28.36073 25.81347
#
# Velocity S-wave (km/s) = 3.51040 3.87572 3.69757
# Velocity P-wave (km/s) = 6.76744 7.26689 7.02161
#
# Compressibility (1/GPa) = 0.01803503
#
# Stress axis : x y z
#
# Youngs Moduli (GPa) = 72.78662 91.07727 69.97900
#
# Poissons Ratio (x) = 0.39763 0.15776
# Poissons Ratio (y) = 0.31778 0.27057
# Poissons Ratio (z) = 0.16409 0.35215
#
# Static dielectric constant tensor:
#      x y z
#    x 3.521280 0.000000 -0.225670 
#    y 0.000000 3.738950 0.000000 
#    z -0.225670 0.000000 3.487830 
# 
# 
# High freq. dielectric constant tensor:
#      x y z
#    x 1.741700 0.000000 -0.023320 
#    y 0.000000 1.712700 0.000000 
#    z -0.023320 0.000000 1.736850 
# 
# From -- ./inp_files/146714.got.cif
#   From: 2010.06.25/outbox.cif.g09.slc.cpg/sg15_74_cif.got.tgz:146714.got - 2010.06.28 07:06:18.
