data_PCOD8151121
_publ_section_title
;
Structure prediction by ZEFSAII (Michael W. Deem and Ramdas Pophale) SiO2 
 PCOD8151121
Probable space group: C 2/C
;
_chemical_formula_sum "Si O2"
_cell_formula_units_Z 36
_cell_length_a 11.201122
_cell_length_b 15.574406
_cell_length_c 9.922331
_cell_angle_alpha 90.000000
_cell_angle_beta 107.382983
_cell_angle_gamma 90.000000
_cell_volume 1651.904354
_symmetry_space_group_name_H-M "C 2/C"
_symmetry_group_IT_number 15
_symmetry_cell_setting 'monoclinic'
loop_
_space_group_symop_operation_xyz
x,y,z
-x,y,1/2-z
-x,-y,-z
x,-y,1/2+z
1/2+x,1/2+y,z
1/2-x,1/2+y,1/2-z
1/2-x,1/2-y,-z
1/2+x,1/2-y,1/2+z
loop_
_atom_site_type_symbol
_atom_site_label
_atom_site_fract_x
_atom_site_fract_y
_atom_site_fract_z
Si Si1 0.633448 0.850614 0.639611
Si Si2 0.815849 0.361219 0.147121
Si Si3 0.606894 0.690402 0.186409
Si Si4 0.544888 0.330004 0.127374
Si Si5 0.000000 0.489074 0.750000
O O1 0.648393 0.825975 0.487789
O O2 0.770205 0.867873 0.749398
O O3 0.579686 0.765336 0.688310
O O4 0.538636 0.929276 0.635777
O O5 0.865498 0.291874 0.273270
O O6 0.667559 0.377389 0.109933
O O7 0.879671 0.453556 0.180460
O O8 0.500000 0.656194 0.250000
O O9 0.565984 0.674753 0.019089
O O10 0.500000 0.377709 0.250000
#
# Coordination Sequence:
#
# PCOD8151121 Si02
#       5
#     8   8   8   8   4
#     4  11  22  39  65  96 127 166 209 262 311 375
#     4  11  22  40  66  91 130 171 203 258 321 372
#     4  11  19  40  71  90 121 170 214 255 310 371
#     4  11  22  41  66  97 124 161 221 263 302 371
#     4  12  24  42  58  98 132 164 206 258 318 384
#
# _framework density 21.793029000000001
#
# number of rings (size 3 to 8) (size 9 to 14) (size 15 to 20)
#    0.000    0.889    6.667    2.000    0.000    3.556 
#    8.000    2.222    0.000    0.000    0.000    0.000 
#    0.000    0.000    0.000    0.000    0.000    0.000 
#
# Total GULP energy -223156.504320 kJ/mol
# GULP energy per Si atom -12397.583573 kJ/mol
# Density = 2.174343 g / cm^3
# Si number density = 21.793029 Si / 1000 Ang^3
#
#
#
# Elastic Constant Matrix: (Units=GPa)
#
#
# Indices 1 2 3 4 5 6 
#
# 1 92.7629 45.5469 45.6401 0.0000 -3.7158 0.0000
# 2 45.5469 77.7100 10.3948 0.0000 3.2987 0.0000
# 3 45.6401 10.3948 137.5034 0.0000 0.6751 0.0000
# 4 0.0000 0.0000 0.0000 18.4556 0.0000 -2.3325
# 5 -3.7158 3.2987 0.6751 0.0000 44.0539 0.0000
# 6 0.0000 0.0000 0.0000 -2.3325 0.0000 41.0577
#
#
#
# Elastic Compliance Matrix: (Units=1/GPa)
#
#
# Indices 1 2 3 4 5 6 
#
# 1 0.018576 -0.010268 -0.005401 0.000000 0.002418 0.000000
# 2 -0.010268 0.018716 0.002005 0.000000 -0.002298 0.000000
# 3 -0.005401 0.002005 0.008918 0.000000 -0.000742 0.000000
# 4 0.000000 0.000000 0.000000 0.054576 0.000000 0.003100
# 5 0.002418 -0.002298 -0.000742 0.000000 0.023087 0.000000
# 6 0.000000 0.000000 0.000000 0.003100 0.000000 0.024532
#
#
# Mechanical properties :
#
#
# Convention : Reuss Voigt Hill
#
# Bulk Modulus (GPa) = 52.96610 56.79331 54.87971
# Shear Modulus (GPa) = 27.46839 34.47308 30.97074
#
# Velocity S-wave (km/s) = 3.55409 3.98155 3.77388
# Velocity P-wave (km/s) = 6.41865 6.87415 6.65030
#
# Compressibility (1/GPa) = 0.01888000
#
# Stress axis : x y z
#
# Youngs Moduli (GPa) = 53.83242 53.43043 112.13896
#
# Poissons Ratio (x) = 0.54862 0.60571
# Poissons Ratio (y) = 0.55274 -0.22479
# Poissons Ratio (z) = 0.29077 -0.10710
#
# Static dielectric constant tensor:
#      x y z
#    x 4.255010 0.000000 0.060400 
#    y 0.000000 3.505030 0.000000 
#    z 0.060400 0.000000 3.763070 
# 
# 
# High freq. dielectric constant tensor:
#      x y z
#    x 1.878810 0.000000 -0.000300 
#    y 0.000000 1.816680 0.000000 
#    z -0.000300 0.000000 1.851580 
# 
# From -- ./inp_files/28730.got.cif
#   From: 2010.06.25/outbox.cif.g09.slc.cpg/sg15_15_cif.got.tgz:28730.got - 2010.06.28 07:06:18.
