data_PCOD8151998
_publ_section_title
;
Structure prediction by ZEFSAII (Michael W. Deem and Ramdas Pophale) SiO2 
 PCOD8151998
Probable space group: C 2/C
;
_chemical_formula_sum "Si O2"
_cell_formula_units_Z 40
_cell_length_a 13.599898
_cell_length_b 11.138626
_cell_length_c 23.854463
_cell_angle_alpha 90.000000
_cell_angle_beta 32.579337
_cell_angle_gamma 90.000000
_cell_volume 1945.789941
_symmetry_space_group_name_H-M "C 2/C"
_symmetry_group_IT_number 15
_symmetry_cell_setting 'monoclinic'
loop_
_space_group_symop_operation_xyz
x,y,z
-x,y,1/2-z
-x,-y,-z
x,-y,1/2+z
1/2+x,1/2+y,z
1/2-x,1/2+y,1/2-z
1/2-x,1/2-y,-z
1/2+x,1/2-y,1/2+z
loop_
_atom_site_type_symbol
_atom_site_label
_atom_site_fract_x
_atom_site_fract_y
_atom_site_fract_z
Si Si1 0.888387 0.782115 0.884971
Si Si2 0.651802 0.511302 0.285634
Si Si3 0.988912 0.481909 0.317927
Si Si4 0.694045 0.385949 0.032138
Si Si5 0.785457 0.513685 0.099018
O O1 0.978853 0.661640 0.818098
O O2 0.781427 0.852258 0.886381
O O3 0.048022 0.861760 0.835631
O O4 0.750000 0.750000 0.000000
O O5 0.521071 0.409515 0.376718
O O6 0.697914 0.475498 0.199761
O O7 0.833542 0.525161 0.234186
O O8 0.810977 0.531855 0.434439
O O9 0.000000 0.535580 0.250000
O O10 0.719054 0.421287 0.084472
O O11 0.750000 0.250000 0.000000
O O12 0.000000 0.500000 0.000000
#
# Coordination Sequence:
#
# PCOD8151998 Si02
#       5
#     8   8   8   8   8
#     4  11  21  44  71  98 132 173 228 277 329 404
#     4  11  24  44  70  95 132 180 223 273 333 397
#     4  12  26  44  65 100 137 176 223 276 342 394
#     4  11  25  44  63 101 137 169 223 277 334 400
#     4  11  21  44  74  99 126 176 229 272 329 403
#
# _framework density 20.557203000000001
#
# number of rings (size 3 to 8) (size 9 to 14) (size 15 to 20)
#    0.000    0.800    6.000    3.600    2.800    4.000 
#    3.600    0.000    0.000    0.000    0.000    0.000 
#    0.000    0.000    0.000    0.000    0.000    0.000 
#
# Total GULP energy -248009.227097 kJ/mol
# GULP energy per Si atom -12400.461355 kJ/mol
# Density = 2.051041 g / cm^3
# Si number density = 20.557203 Si / 1000 Ang^3
#
#
#
# Elastic Constant Matrix: (Units=GPa)
#
#
# Indices 1 2 3 4 5 6 
#
# 1 113.8801 20.6146 62.0391 0.0001 13.8209 -0.0001
# 2 20.6146 118.2189 42.7031 -0.0003 1.8525 0.0000
# 3 62.0391 42.7031 162.6159 -0.0024 4.6716 -0.0003
# 4 0.0001 -0.0003 -0.0024 36.2430 0.0000 -8.0035
# 5 13.8209 1.8525 4.6716 0.0000 38.0724 0.0001
# 6 -0.0001 0.0000 -0.0003 -8.0035 0.0001 14.1983
#
#
#
# Elastic Compliance Matrix: (Units=1/GPa)
#
#
# Indices 1 2 3 4 5 6 
#
# 1 0.011597 -0.000447 -0.004201 0.000000 -0.003672 0.000000
# 2 -0.000447 0.009363 -0.002288 0.000000 -0.000013 0.000000
# 3 -0.004201 -0.002288 0.008335 0.000001 0.000614 0.000001
# 4 0.000000 0.000000 0.000001 0.031514 0.000000 0.017765
# 5 -0.003672 -0.000013 0.000614 0.000000 0.027524 0.000000
# 6 0.000000 0.000000 0.000001 0.017765 0.000000 0.080445
#
#
# Mechanical properties :
#
#
# Convention : Reuss Voigt Hill
#
# Bulk Modulus (GPa) = 64.83831 71.71428 68.27630
# Shear Modulus (GPa) = 26.62512 35.65995 31.14254
#
# Velocity S-wave (km/s) = 3.60275 4.16945 3.89642
# Velocity P-wave (km/s) = 6.99395 7.62497 7.31626
#
# Compressibility (1/GPa) = 0.01542298
#
# Stress axis : x y z
#
# Youngs Moduli (GPa) = 86.23265 106.79783 119.96938
#
# Poissons Ratio (x) = 0.04774 0.50402
# Poissons Ratio (y) = 0.03855 0.27448
# Poissons Ratio (z) = 0.36229 0.24435
#
# Static dielectric constant tensor:
#      x y z
#    x 26.755480 0.000400 -21.527290 
#    y 0.000400 3.948190 -0.000370 
#    z -21.527290 -0.000370 24.174340 
# 
# 
# High freq. dielectric constant tensor:
#      x y z
#    x 1.798650 0.000000 -0.002190 
#    y 0.000000 1.795570 0.000000 
#    z -0.002190 0.000000 1.835790 
# 
# From -- ./inp_files/142109.got.cif
#   From: 2010.06.25/outbox.cif.g09.slc.cpg/sg15_72_cif.got.tgz:142109.got - 2010.06.28 07:06:18.
