data_PCOD8151531
_publ_section_title
;
Structure prediction by ZEFSAII (Michael W. Deem and Ramdas Pophale) SiO2 
 PCOD8151531
Probable space group: C 2/C
;
_chemical_formula_sum "Si O2"
_cell_formula_units_Z 52
_cell_length_a 17.243307
_cell_length_b 28.417193
_cell_length_c 5.214453
_cell_angle_alpha 90.000000
_cell_angle_beta 79.582595
_cell_angle_gamma 90.000000
_cell_volume 2512.998237
_symmetry_space_group_name_H-M "C 2/C"
_symmetry_group_IT_number 15
_symmetry_cell_setting 'monoclinic'
loop_
_space_group_symop_operation_xyz
x,y,z
-x,y,1/2-z
-x,-y,-z
x,-y,1/2+z
1/2+x,1/2+y,z
1/2-x,1/2+y,1/2-z
1/2-x,1/2-y,-z
1/2+x,1/2-y,1/2+z
loop_
_atom_site_type_symbol
_atom_site_label
_atom_site_fract_x
_atom_site_fract_y
_atom_site_fract_z
Si Si1 0.214187 0.125020 0.865737
Si Si2 0.582004 0.228869 0.351708
Si Si3 0.300472 0.846487 0.823850
Si Si4 0.447382 0.667252 0.535104
Si Si5 0.000000 0.334034 0.250000
Si Si6 0.804290 0.468449 0.269104
Si Si7 0.071078 0.589111 0.054935
O O1 0.238887 0.152055 0.592949
O O2 0.119826 0.127783 0.954301
O O3 0.235623 0.070176 0.823753
O O4 0.255842 0.149598 0.081764
O O5 0.500000 0.224837 0.250000
O O6 0.655574 0.203922 0.167809
O O7 0.598701 0.283218 0.402840
O O8 0.572125 0.198938 0.618663
O O9 0.359998 0.891591 0.798598
O O10 0.500000 0.655110 0.750000
O O11 0.500000 0.668668 0.250000
O O12 0.031903 0.364957 0.460968
O O13 0.796019 0.498721 0.527519
O O14 0.890705 0.443896 0.187654
O O15 0.000000 0.562414 0.250000
#
# Coordination Sequence:
#
# PCOD8151531 Si02
#       7
#     8   8   8   8   4   8   8
#     4  11  25  43  66  91 122 166 204 260 330 374
#     4  11  21  34  59  91 130 178 216 248 289 349
#     4  11  21  38  62  91 131 171 215 247 294 368
#     4  11  25  43  67  95 125 157 205 263 321 381
#     4  12  18  36  58  86 132 178 212 250 282 348
#     4  11  25  43  63  88 123 162 208 261 318 372
#     4  11  23  34  61  90 125 177 215 253 291 349
#
# _framework density 20.692416000000001
#
# number of rings (size 3 to 8) (size 9 to 14) (size 15 to 20)
#    0.000    0.923    3.846    4.615    2.154    1.846 
#    0.000    0.000    0.000    2.769    0.000    0.000 
#    0.000    0.000    0.000    0.000    0.000    0.000 
#
# Total GULP energy -322362.275160 kJ/mol
# GULP energy per Si atom -12398.549045 kJ/mol
# Density = 2.064532 g / cm^3
# Si number density = 20.692416 Si / 1000 Ang^3
#
#
#
# Elastic Constant Matrix: (Units=GPa)
#
#
# Indices 1 2 3 4 5 6 
#
# 1 102.4604 43.0792 46.1208 0.0000 -3.7799 0.0000
# 2 43.0792 80.8897 37.6833 0.0000 -7.0322 0.0000
# 3 46.1208 37.6833 135.4480 0.0000 3.9642 0.0000
# 4 0.0000 0.0000 0.0000 14.9288 0.0000 -5.7915
# 5 -3.7799 -7.0322 3.9642 0.0000 31.0109 0.0000
# 6 0.0000 0.0000 0.0000 -5.7915 0.0000 20.7701
#
#
#
# Elastic Compliance Matrix: (Units=1/GPa)
#
#
# Indices 1 2 3 4 5 6 
#
# 1 0.013574 -0.005746 -0.003045 0.000000 0.000741 0.000000
# 2 -0.005746 0.017081 -0.002899 0.000000 0.003544 0.000000
# 3 -0.003045 -0.002899 0.009291 0.000000 -0.002216 0.000000
# 4 0.000000 0.000000 0.000000 0.075109 0.000000 0.020943
# 5 0.000741 0.003544 -0.002216 0.000000 0.033424 0.000000
# 6 0.000000 0.000000 0.000000 0.020943 0.000000 0.053986
#
#
# Mechanical properties :
#
#
# Convention : Reuss Voigt Hill
#
# Bulk Modulus (GPa) = 60.36608 63.61829 61.99218
# Shear Modulus (GPa) = 21.61055 26.13629 23.87342
#
# Velocity S-wave (km/s) = 3.23518 3.55785 3.40034
# Velocity P-wave (km/s) = 6.57203 6.90574 6.74095
#
# Compressibility (1/GPa) = 0.01656559
#
# Stress axis : x y z
#
# Youngs Moduli (GPa) = 73.67168 58.54307 107.62784
#
# Poissons Ratio (x) = 0.33639 0.32773
# Poissons Ratio (y) = 0.42332 0.31206
# Poissons Ratio (z) = 0.22433 0.16974
#
# Static dielectric constant tensor:
#      x y z
#    x 3.646020 0.000000 -0.083870 
#    y 0.000000 3.771690 0.000000 
#    z -0.083870 0.000000 3.897320 
# 
# 
# High freq. dielectric constant tensor:
#      x y z
#    x 1.789010 0.000000 -0.001140 
#    y 0.000000 1.793130 0.000000 
#    z -0.001140 0.000000 1.829180 
# 
# From -- ./inp_files/11253.got.cif
#   From: 2010.06.25/outbox.cif.g09.slc.cpg/sg15_6_cif.got.tgz:11253.got - 2010.06.28 07:06:18.
