data_PCOD8151440
_publ_section_title
;
Structure prediction by ZEFSAII (Michael W. Deem and Ramdas Pophale) SiO2 
 PCOD8151440
Probable space group: C 2/C
;
_chemical_formula_sum "Si O2"
_cell_formula_units_Z 56
_cell_length_a 8.810221
_cell_length_b 28.372687
_cell_length_c 16.056385
_cell_angle_alpha 90.000000
_cell_angle_beta 41.952279
_cell_angle_gamma 90.000000
_cell_volume 2683.143324
_symmetry_space_group_name_H-M "C 2/C"
_symmetry_group_IT_number 15
_symmetry_cell_setting 'monoclinic'
loop_
_space_group_symop_operation_xyz
x,y,z
-x,y,1/2-z
-x,-y,-z
x,-y,1/2+z
1/2+x,1/2+y,z
1/2-x,1/2+y,1/2-z
1/2-x,1/2-y,-z
1/2+x,1/2-y,1/2+z
loop_
_atom_site_type_symbol
_atom_site_label
_atom_site_fract_x
_atom_site_fract_y
_atom_site_fract_z
Si Si1 0.470156 0.603046 0.998533
Si Si2 0.236477 0.602429 0.342279
Si Si3 0.284075 0.173265 0.281905
Si Si4 0.614941 0.931813 0.066808
Si Si5 0.563098 0.965495 0.631265
Si Si6 0.327155 0.145059 0.748831
Si Si7 0.492633 0.759446 0.354107
O O1 0.678421 0.574757 0.953577
O O2 0.567622 0.639470 0.888130
O O3 0.365454 0.632740 0.115417
O O4 0.287637 0.567149 0.033429
O O5 0.500000 0.598477 0.250000
O O6 0.160316 0.652611 0.333080
O O7 0.127184 0.596048 0.475970
O O8 0.155543 0.561462 0.313421
O O9 0.500000 0.182620 0.250000
O O10 0.153483 0.221345 0.329692
O O11 0.385853 0.907295 0.192910
O O12 0.591769 0.987706 0.064011
O O13 0.500000 0.981087 0.750000
O O14 0.500000 0.158990 0.750000
O O15 0.383508 0.190891 0.668114
O O16 0.500000 0.752275 0.250000
O O17 0.250000 0.750000 0.500000
#
# Coordination Sequence:
#
# PCOD8151440 Si02
#       7
#     8   8   8   8   8   8   8
#     4  11  20  42  65  93 135 175 219 274 331 404
#     4  12  23  40  63  95 129 168 228 280 327 397
#     4  12  23  43  70  97 132 175 225 281 332 406
#     4  11  23  38  65  95 130 173 225 270 335 397
#     4  12  22  41  63  97 131 178 224 272 336 409
#     4   9  21  40  61  94 133 170 215 275 332 400
#     4  11  24  43  73 104 135 178 233 278 344 408
#
# _framework density 20.871043
#
# number of rings (size 3 to 8) (size 9 to 14) (size 15 to 20)
#    0.000    0.857    4.286    5.143    2.000    1.143 
#    0.000    5.000    0.000    0.000    0.000    0.000 
#    0.000    0.000    0.000    0.000    0.000    0.000 
#
# Total GULP energy -346872.066867 kJ/mol
# GULP energy per Si atom -12388.288102 kJ/mol
# Density = 2.082354 g / cm^3
# Si number density = 20.871043 Si / 1000 Ang^3
#
#
#
# Elastic Constant Matrix: (Units=GPa)
#
#
# Indices 1 2 3 4 5 6 
#
# 1 105.2496 43.6825 39.1513 0.0000 -9.0545 0.0000
# 2 43.6825 158.3434 45.9865 0.0000 -13.3448 0.0000
# 3 39.1513 45.9865 105.4652 0.0000 2.0659 0.0000
# 4 0.0000 0.0000 0.0000 114.6752 0.0000 42.9089
# 5 -9.0545 -13.3448 2.0659 0.0000 22.6684 0.0000
# 6 0.0000 0.0000 0.0000 42.9089 0.0000 46.0601
#
#
#
# Elastic Compliance Matrix: (Units=1/GPa)
#
#
# Indices 1 2 3 4 5 6 
#
# 1 0.012015 -0.001898 -0.003712 0.000000 0.004020 0.000000
# 2 -0.001898 0.008032 -0.002881 0.000000 0.004233 0.000000
# 3 -0.003712 -0.002881 0.012200 0.000000 -0.004290 0.000000
# 4 0.000000 0.000000 0.000000 0.013387 0.000000 -0.012471
# 5 0.004020 0.004233 -0.004290 0.000000 0.048603 0.000000
# 6 0.000000 0.000000 0.000000 -0.012471 0.000000 0.033328
#
#
# Mechanical properties :
#
#
# Convention : Reuss Voigt Hill
#
# Bulk Modulus (GPa) = 65.50083 69.63322 67.56702
# Shear Modulus (GPa) = 33.41460 52.69659 43.05559
#
# Velocity S-wave (km/s) = 4.00559 5.03026 4.54688
# Velocity P-wave (km/s) = 7.26944 8.19597 7.74657
#
# Compressibility (1/GPa) = 0.01526698
#
# Stress axis : x y z
#
# Youngs Moduli (GPa) = 83.22592 124.49624 81.96870
#
# Poissons Ratio (x) = 0.23629 0.30424
# Poissons Ratio (y) = 0.15796 0.23613
# Poissons Ratio (z) = 0.30890 0.35864
#
# Static dielectric constant tensor:
#      x y z
#    x 3.671210 0.000000 -0.011900 
#    y 0.000000 3.924160 0.000000 
#    z -0.011900 0.000000 4.168020 
# 
# 
# High freq. dielectric constant tensor:
#      x y z
#    x 1.799660 0.000000 0.002730 
#    y 0.000000 1.828420 0.000000 
#    z 0.002730 0.000000 1.822620 
# 
# From -- ./inp_files/193856.got.cif
#   From: 2010.06.25/outbox.cif.g09.slc.cpg/sg15_97_cif.got.tgz:193856.got - 2010.06.28 07:06:18.
