data_PCOD8151229
_publ_section_title
;
Structure prediction by ZEFSAII (Michael W. Deem and Ramdas Pophale) SiO2 
 PCOD8151229
Probable space group: C 2/C
;
_chemical_formula_sum "Si O2"
_cell_formula_units_Z 64
_cell_length_a 31.498307
_cell_length_b 11.411522
_cell_length_c 18.443404
_cell_angle_alpha 90.000000
_cell_angle_beta 26.731363
_cell_angle_gamma 90.000000
_cell_volume 2981.940624
_symmetry_space_group_name_H-M "C 2/C"
_symmetry_group_IT_number 15
_symmetry_cell_setting 'monoclinic'
loop_
_space_group_symop_operation_xyz
x,y,z
-x,y,1/2-z
-x,-y,-z
x,-y,1/2+z
1/2+x,1/2+y,z
1/2-x,1/2+y,1/2-z
1/2-x,1/2-y,-z
1/2+x,1/2-y,1/2+z
loop_
_atom_site_type_symbol
_atom_site_label
_atom_site_fract_x
_atom_site_fract_y
_atom_site_fract_z
Si Si1 0.918014 0.763721 0.322654
Si Si2 0.270886 0.118691 0.344818
Si Si3 0.702403 0.087568 0.587627
Si Si4 0.067653 0.204387 0.863136
Si Si5 0.823643 0.454554 0.144769
Si Si6 0.527187 0.996092 0.784318
Si Si7 0.196008 0.996422 0.710872
Si Si8 0.645570 0.750885 0.294275
O O1 0.819038 0.798777 0.508700
O O2 0.934799 0.820567 0.218873
O O3 0.000000 0.810488 0.250000
O O4 0.917046 0.623403 0.319290
O O5 0.362643 0.190475 0.225922
O O6 0.264086 0.008869 0.407374
O O7 0.277731 0.067927 0.253182
O O8 0.767979 0.061811 0.418938
O O9 0.700750 0.212890 0.634119
O O10 0.593418 0.078361 0.730388
O O11 0.107364 0.084104 0.837911
O O12 0.967629 0.249888 0.046045
O O13 0.775904 0.440785 0.138249
O O14 0.813492 0.336253 0.206317
O O15 0.935069 0.471292 0.971020
O O16 0.500000 0.059519 0.750000
O O17 0.163785 0.877852 0.799178
#
# Coordination Sequence:
#
# PCOD8151229 Si02
#       8
#     8   8   8   8   8   8   8   8
#     4  11  23  36  65  97 137 162 212 286 336 386
#     4  11  23  41  66 100 127 168 221 277 342 388
#     4  11  21  43  67  92 131 176 217 271 330 404
#     4  12  23  41  69  96 131 172 224 276 329 397
#     4  11  25  41  68  95 133 168 217 281 329 399
#     4  11  20  36  64 100 123 160 216 278 328 377
#     4  12  26  41  68  94 131 180 224 261 336 408
#     4  11  26  45  61  96 136 176 218 270 335 394
#
# _framework density 21.462533000000001
#
# number of rings (size 3 to 8) (size 9 to 14) (size 15 to 20)
#    0.000    0.750    5.000    2.625    5.250    2.000 
#    0.000    0.000    0.000    0.750    0.000    0.000 
#    0.000    0.000    0.000    0.000    0.000    0.000 
#
# Total GULP energy -396581.868328 kJ/mol
# GULP energy per Si atom -12393.183385 kJ/mol
# Density = 2.141368 g / cm^3
# Si number density = 21.462533 Si / 1000 Ang^3
#
#
#
# Elastic Constant Matrix: (Units=GPa)
#
#
# Indices 1 2 3 4 5 6 
#
# 1 88.7026 34.0798 7.9282 0.0000 0.0947 0.0000
# 2 34.0798 77.7456 13.3826 0.0001 -1.0583 0.0000
# 3 7.9282 13.3826 76.2902 0.0000 2.8542 0.0000
# 4 0.0000 0.0001 0.0000 32.9085 0.0000 -5.2853
# 5 0.0947 -1.0583 2.8542 0.0000 34.7937 0.0000
# 6 0.0000 0.0000 0.0000 -5.2853 0.0000 24.3180
#
#
#
# Elastic Compliance Matrix: (Units=1/GPa)
#
#
# Indices 1 2 3 4 5 6 
#
# 1 0.013569 -0.005887 -0.000371 0.000000 -0.000186 0.000000
# 2 -0.005887 0.015829 -0.002190 0.000000 0.000677 0.000000
# 3 -0.000371 -0.002190 0.013575 0.000000 -0.001179 0.000000
# 4 0.000000 0.000000 0.000000 0.031486 0.000000 0.006843
# 5 -0.000186 0.000677 -0.001179 0.000000 0.028859 0.000000
# 6 0.000000 0.000000 0.000000 0.006843 0.000000 0.042609
#
#
# Mechanical properties :
#
#
# Convention : Reuss Voigt Hill
#
# Bulk Modulus (GPa) = 38.34705 39.27996 38.81351
# Shear Modulus (GPa) = 29.15218 30.89388 30.02303
#
# Velocity S-wave (km/s) = 3.68949 3.79810 3.74419
# Velocity P-wave (km/s) = 6.00462 6.12988 6.06758
#
# Compressibility (1/GPa) = 0.02607762
#
# Stress axis : x y z
#
# Youngs Moduli (GPa) = 73.69973 63.17486 73.66658
#
# Poissons Ratio (x) = 0.37188 0.02729
# Poissons Ratio (y) = 0.43384 0.16135
# Poissons Ratio (z) = 0.02731 0.13837
#
# Static dielectric constant tensor:
#      x y z
#    x 3.994480 0.000000 0.020560 
#    y 0.000000 3.840180 0.000000 
#    z 0.020560 0.000000 3.896750 
# 
# 
# High freq. dielectric constant tensor:
#      x y z
#    x 1.851100 0.000000 0.004990 
#    y 0.000000 1.837350 0.000000 
#    z 0.004990 0.000000 1.843550 
# 
# From -- ./inp_files/225149.got.cif
#   From: 2010.06.25/outbox.cif.g09.slc.cpg/sg15_113_cif.got.tgz:225149.got - 2010.06.28 07:06:18.
