data_PCOD8151130
_publ_section_title
;
Structure prediction by ZEFSAII (Michael W. Deem and Ramdas Pophale) SiO2 
 PCOD8151130
Probable space group: C 2/C
;
_chemical_formula_sum "Si O2"
_cell_formula_units_Z 48
_cell_length_a 11.853204
_cell_length_b 11.858931
_cell_length_c 21.467574
_cell_angle_alpha 90.000000
_cell_angle_beta 128.347169
_cell_angle_gamma 90.000000
_cell_volume 2366.614847
_symmetry_space_group_name_H-M "C 2/C"
_symmetry_group_IT_number 15
_symmetry_cell_setting 'monoclinic'
loop_
_space_group_symop_operation_xyz
x,y,z
-x,y,1/2-z
-x,-y,-z
x,-y,1/2+z
1/2+x,1/2+y,z
1/2-x,1/2+y,1/2-z
1/2-x,1/2-y,-z
1/2+x,1/2-y,1/2+z
loop_
_atom_site_type_symbol
_atom_site_label
_atom_site_fract_x
_atom_site_fract_y
_atom_site_fract_z
Si Si1 0.660549 0.262559 0.032650
Si Si2 0.667783 0.354649 0.287967
Si Si3 0.635140 0.407097 0.140279
Si Si4 0.667113 0.984218 0.564952
Si Si5 0.686698 0.372781 0.485536
Si Si6 0.149430 0.150859 0.107395
O O1 0.704026 0.359588 0.098584
O O2 0.689999 0.148660 0.081158
O O3 0.750000 0.250000 0.000000
O O4 0.496473 0.278621 0.953500
O O5 0.500000 0.367755 0.250000
O O6 0.707711 0.363008 0.228524
O O7 0.761571 0.451698 0.352854
O O8 0.723256 0.232070 0.327171
O O9 0.475508 0.360339 0.092102
O O10 0.631364 0.543253 0.145756
O O11 0.735236 0.029056 0.524634
O O12 0.500000 0.000000 0.500000
O O13 0.750000 0.250000 0.500000
O O14 0.697166 0.410001 0.560247
#
# Coordination Sequence:
#
# PCOD8151130 Si02
#       6
#     8   8   8   8   8   8
#     4  11  23  42  70  99 131 173 224 279 345 408
#     4  12  25  44  65  97 134 182 224 280 345 408
#     4  11  24  42  66  97 138 175 217 283 348 401
#     4  12  22  40  66 100 131 170 230 281 328 407
#     4  11  19  41  68  95 124 177 229 269 328 408
#     4  11  23  44  65  95 132 175 231 275 336 416
#
# _framework density 20.282133000000002
#
# number of rings (size 3 to 8) (size 9 to 14) (size 15 to 20)
#    0.000    0.667    5.000    5.000    2.333    0.000 
#    0.000    0.833    0.000    0.000    0.000    0.000 
#    0.000    0.000    0.000    0.000    0.000    0.000 
#
# Total GULP energy -297397.428045 kJ/mol
# GULP energy per Si atom -12391.559502 kJ/mol
# Density = 2.023597 g / cm^3
# Si number density = 20.282133 Si / 1000 Ang^3
#
#
#
# Elastic Constant Matrix: (Units=GPa)
#
#
# Indices 1 2 3 4 5 6 
#
# 1 106.6772 26.5579 56.2594 0.0000 -14.9588 0.0000
# 2 26.5579 139.9139 47.0266 0.0000 3.1342 0.0000
# 3 56.2594 47.0266 131.9206 0.0000 -10.8683 0.0000
# 4 0.0000 0.0000 0.0000 34.2576 0.0000 -3.4923
# 5 -14.9588 3.1342 -10.8683 0.0000 31.6014 0.0000
# 6 0.0000 0.0000 0.0000 -3.4923 0.0000 37.4160
#
#
#
# Elastic Compliance Matrix: (Units=1/GPa)
#
#
# Indices 1 2 3 4 5 6 
#
# 1 0.012728 -0.000928 -0.004727 0.000000 0.004491 0.000000
# 2 -0.000928 0.008295 -0.002743 0.000000 -0.002205 0.000000
# 3 -0.004727 -0.002743 0.010716 0.000000 0.001720 0.000000
# 4 0.000000 0.000000 0.000000 0.029471 0.000000 0.002751
# 5 0.004491 -0.002205 0.001720 0.000000 0.034580 0.000000
# 6 0.000000 0.000000 0.000000 0.002751 0.000000 0.026983
#
#
# Mechanical properties :
#
#
# Convention : Reuss Voigt Hill
#
# Bulk Modulus (GPa) = 66.92280 70.91107 68.91693
# Shear Modulus (GPa) = 34.59027 37.23286 35.91157
#
# Velocity S-wave (km/s) = 4.13420 4.28921 4.21242
# Velocity P-wave (km/s) = 7.47371 7.71803 7.59685
#
# Compressibility (1/GPa) = 0.01494259
#
# Stress axis : x y z
#
# Youngs Moduli (GPa) = 78.56786 120.55957 93.32024
#
# Poissons Ratio (x) = 0.11184 0.44115
# Poissons Ratio (y) = 0.07288 0.25597
# Poissons Ratio (z) = 0.37141 0.33068
#
# Static dielectric constant tensor:
#      x y z
#    x 3.746710 0.000000 -0.147920 
#    y 0.000000 4.220870 0.000000 
#    z -0.147920 0.000000 3.768960 
# 
# 
# High freq. dielectric constant tensor:
#      x y z
#    x 1.794830 0.000000 -0.012040 
#    y 0.000000 1.808560 0.000000 
#    z -0.012040 0.000000 1.785120 
# 
# From -- ./inp_files/269041.got.cif
#   From: 2010.06.25/outbox.cif.g09.slc.cpg/sg15_135_cif.got.tgz:269041.got - 2010.06.28 07:06:18.
