data_PCOD8151507
_publ_section_title
;
Structure prediction by ZEFSAII (Michael W. Deem and Ramdas Pophale) SiO2 
 PCOD8151507
Probable space group: C 2/C
;
_chemical_formula_sum "Si O2"
_cell_formula_units_Z 52
_cell_length_a 16.427848
_cell_length_b 9.164318
_cell_length_c 23.121570
_cell_angle_alpha 90.000000
_cell_angle_beta 138.528002
_cell_angle_gamma 90.000000
_cell_volume 2305.274751
_symmetry_space_group_name_H-M "C 2/C"
_symmetry_group_IT_number 15
_symmetry_cell_setting 'monoclinic'
loop_
_space_group_symop_operation_xyz
x,y,z
-x,y,1/2-z
-x,-y,-z
x,-y,1/2+z
1/2+x,1/2+y,z
1/2-x,1/2+y,1/2-z
1/2-x,1/2-y,-z
1/2+x,1/2-y,1/2+z
loop_
_atom_site_type_symbol
_atom_site_label
_atom_site_fract_x
_atom_site_fract_y
_atom_site_fract_z
Si Si1 0.383277 0.082217 0.463780
Si Si2 0.664416 0.062553 0.812425
Si Si3 0.386672 0.612127 0.229813
Si Si4 0.425197 0.622933 0.929924
Si Si5 0.222411 0.582519 0.975748
Si Si6 0.500000 0.809587 0.750000
Si Si7 0.534581 0.401074 0.372174
O O1 0.247409 0.055542 0.362877
O O2 0.408968 0.252536 0.469204
O O3 0.377063 0.038870 0.527970
O O4 0.500000 0.000000 0.500000
O O5 0.601994 0.212919 0.756378
O O6 0.792318 0.051842 0.847106
O O7 0.667368 0.063999 0.883554
O O8 0.591789 0.913147 0.761783
O O9 0.500000 0.559350 0.250000
O O10 0.423065 0.519560 0.305837
O O11 0.490174 0.684080 0.906521
O O12 0.500000 0.500000 0.000000
O O13 0.250000 0.750000 0.000000
O O14 0.340069 0.482090 0.047030
O O15 0.440998 0.709094 0.668314
#
# Coordination Sequence:
#
# PCOD8151507 Si02
#       7
#     8   8   8   8   8   4   8
#     4  11  25  42  70 107 140 176 240 292 353 425
#     4  11  25  43  71 101 139 186 243 281 352 440
#     4  11  20  46  72  96 136 191 242 276 346 439
#     4  11  24  46  67 102 140 178 232 293 354 410
#     4  12  21  45  77  99 130 200 244 277 345 443
#     4  12  28  42  64 110 144 178 230 296 372 410
#     4  12  25  45  73 101 144 183 231 303 360 413
#
# _framework density 22.556961999999999
#
# number of rings (size 3 to 8) (size 9 to 14) (size 15 to 20)
#    0.000    0.615    7.692    0.000    2.154    5.538 
#    0.000    0.000    0.000    0.000    0.000    0.000 
#    0.000    0.000    0.000    0.000    0.000    0.000 
#
# Total GULP energy -322101.216944 kJ/mol
# GULP energy per Si atom -12388.508344 kJ/mol
# Density = 2.250562 g / cm^3
# Si number density = 22.556962 Si / 1000 Ang^3
#
#
#
# Elastic Constant Matrix: (Units=GPa)
#
#
# Indices 1 2 3 4 5 6 
#
# 1 137.9487 13.5080 10.8093 0.0000 17.8004 0.0000
# 2 13.5080 89.2127 24.5817 0.0000 15.6462 0.0000
# 3 10.8093 24.5817 39.1829 0.0000 15.4451 0.0000
# 4 0.0000 0.0000 0.0000 30.6706 0.0000 8.6548
# 5 17.8004 15.6462 15.4451 0.0000 46.7540 0.0000
# 6 0.0000 0.0000 0.0000 8.6548 0.0000 38.6935
#
#
#
# Elastic Compliance Matrix: (Units=1/GPa)
#
#
# Indices 1 2 3 4 5 6 
#
# 1 0.007683 -0.000500 -0.000827 0.000000 -0.002485 0.000000
# 2 -0.000500 0.013746 -0.007758 0.000000 -0.001847 0.000000
# 3 -0.000827 -0.007758 0.033881 0.000000 -0.008282 0.000000
# 4 0.000000 0.000000 0.000000 0.034801 0.000000 -0.007784
# 5 -0.002485 -0.001847 -0.008282 0.000000 0.025689 0.000000
# 6 0.000000 0.000000 0.000000 -0.007784 0.000000 0.027585
#
#
# Mechanical properties :
#
#
# Convention : Reuss Voigt Hill
#
# Bulk Modulus (GPa) = 26.92365 40.46027 33.69196
# Shear Modulus (GPa) = 28.74640 37.71998 33.23319
#
# Velocity S-wave (km/s) = 3.57373 4.09370 3.84252
# Velocity P-wave (km/s) = 5.38429 6.34984 5.88689
#
# Compressibility (1/GPa) = 0.03714207
#
# Stress axis : x y z
#
# Youngs Moduli (GPa) = 130.15020 72.74620 29.51522
#
# Poissons Ratio (x) = 0.03636 0.02440
# Poissons Ratio (y) = 0.06505 0.22898
# Poissons Ratio (z) = 0.10757 0.56436
#
# Static dielectric constant tensor:
#      x y z
#    x 4.870600 0.000000 0.042430 
#    y 0.000000 4.120630 0.000000 
#    z 0.042430 0.000000 4.236540 
# 
# 
# High freq. dielectric constant tensor:
#      x y z
#    x 1.899570 0.000000 0.009040 
#    y 0.000000 1.892610 0.000000 
#    z 0.009040 0.000000 1.880000 
# 
# From -- ./inp_files/298447.got.cif
#   From: 2010.06.25/outbox.cif.g09.slc.cpg/sg15_150_cif.got.tgz:298447.got - 2010.06.28 07:06:18.
