data_PCOD8151875
_publ_section_title
;
Structure prediction by ZEFSAII (Michael W. Deem and Ramdas Pophale) SiO2 
 PCOD8151875
Probable space group: C 2/C
;
_chemical_formula_sum "Si O2"
_cell_formula_units_Z 44
_cell_length_a 23.360847
_cell_length_b 5.208191
_cell_length_c 17.753570
_cell_angle_alpha 90.000000
_cell_angle_beta 110.601706
_cell_angle_gamma 90.000000
_cell_volume 2021.900575
_symmetry_space_group_name_H-M "C 2/C"
_symmetry_group_IT_number 15
_symmetry_cell_setting 'monoclinic'
loop_
_space_group_symop_operation_xyz
x,y,z
-x,y,1/2-z
-x,-y,-z
x,-y,1/2+z
1/2+x,1/2+y,z
1/2-x,1/2+y,1/2-z
1/2-x,1/2-y,-z
1/2+x,1/2-y,1/2+z
loop_
_atom_site_type_symbol
_atom_site_label
_atom_site_fract_x
_atom_site_fract_y
_atom_site_fract_z
Si Si1 0.711057 0.194218 0.228790
Si Si2 0.444003 0.652478 0.391685
Si Si3 0.890906 0.647449 0.435540
Si Si4 0.071237 0.240899 0.392307
Si Si5 0.500000 0.111071 0.250000
Si Si6 0.891699 0.051892 0.729915
O O1 0.755389 0.433616 0.230258
O O2 0.674621 0.127694 0.135379
O O3 0.668208 0.281395 0.278931
O O4 0.421084 0.417309 0.430160
O O5 0.515389 0.599829 0.408454
O O6 0.402134 0.676651 0.295803
O O7 0.435249 0.916409 0.432408
O O8 0.883317 0.641500 0.523342
O O9 0.040269 0.455746 0.327184
O O10 0.110350 0.049979 0.356745
O O11 0.547542 0.281718 0.225306
#
# Coordination Sequence:
#
# PCOD8151875 Si02
#       6
#     8   8   8   8   4   8
#     4  11  25  48  70  89 128 181 239 277 323 387
#     4  11  21  42  62 101 140 177 208 261 338 413
#     4  11  26  40  68  98 133 176 227 270 325 391
#     4  12  23  38  64 103 141 170 213 272 334 406
#     4  12  22  40  68 100 148 166 210 262 358 402
#     4  11  24  40  69 100 132 183 219 268 338 405
#
# _framework density 21.761704000000002
#
# number of rings (size 3 to 8) (size 9 to 14) (size 15 to 20)
#    0.000    0.727    3.636    5.455    5.091    0.000 
#    0.000    1.818    0.000    0.000    0.000    0.000 
#    0.000    0.000    0.000    0.000    0.000    0.000 
#
# Total GULP energy -272742.913316 kJ/mol
# GULP energy per Si atom -12397.405151 kJ/mol
# Density = 2.171217 g / cm^3
# Si number density = 21.761704 Si / 1000 Ang^3
#
#
#
# Elastic Constant Matrix: (Units=GPa)
#
#
# Indices 1 2 3 4 5 6 
#
# 1 75.8366 19.9319 33.3528 0.0000 -2.4006 -0.0002
# 2 19.9319 90.1140 44.6035 -0.0009 2.7694 0.0000
# 3 33.3528 44.6035 151.3356 0.0002 -10.1534 0.0000
# 4 0.0000 -0.0009 0.0002 33.0766 -0.0002 15.5013
# 5 -2.4006 2.7694 -10.1534 -0.0002 19.2814 -0.0003
# 6 -0.0002 0.0000 0.0000 15.5013 -0.0003 23.2308
#
#
#
# Elastic Compliance Matrix: (Units=1/GPa)
#
#
# Indices 1 2 3 4 5 6 
#
# 1 0.014900 -0.002012 -0.002640 0.000000 0.000754 0.000000
# 2 -0.002012 0.013573 -0.003840 0.000001 -0.004222 0.000000
# 3 -0.002640 -0.003840 0.008642 0.000000 0.004774 0.000000
# 4 0.000000 0.000001 0.000000 0.043989 0.000000 -0.029353
# 5 0.000754 -0.004222 0.004774 0.000000 0.055077 0.000001
# 6 0.000000 0.000000 0.000000 -0.029353 0.000001 0.062633
#
#
# Mechanical properties :
#
#
# Convention : Reuss Voigt Hill
#
# Bulk Modulus (GPa) = 49.67785 57.00695 53.34240
# Shear Modulus (GPa) = 22.47107 29.74430 26.10768
#
# Velocity S-wave (km/s) = 3.21689 3.70106 3.46744
# Velocity P-wave (km/s) = 6.05603 6.67208 6.37151
#
# Compressibility (1/GPa) = 0.02012970
#
# Stress axis : x y z
#
# Youngs Moduli (GPa) = 67.11368 73.67802 115.71681
#
# Poissons Ratio (x) = 0.14824 0.30552
# Poissons Ratio (y) = 0.13503 0.44437
# Poissons Ratio (z) = 0.17720 0.28293
#
# Static dielectric constant tensor:
#      x y z
#    x 3.984910 0.000000 -0.195550 
#    y 0.000000 3.977720 0.000000 
#    z -0.195550 0.000000 4.461930 
# 
# 
# High freq. dielectric constant tensor:
#      x y z
#    x 1.827800 0.000000 -0.008250 
#    y 0.000000 1.867560 0.000000 
#    z -0.008250 0.000000 1.857890 
# 
# From -- ./inp_files/217616.got.cif
#   From: 2010.06.25/outbox.cif.g09.slc.cpg/sg15_109_cif.got.tgz:217616.got - 2010.06.28 07:06:18.
