data_PCOD8151209
_publ_section_title
;
Structure prediction by ZEFSAII (Michael W. Deem and Ramdas Pophale) SiO2 
 PCOD8151209
Probable space group: C 2/C
;
_chemical_formula_sum "Si O2"
_cell_formula_units_Z 48
_cell_length_a 13.791985
_cell_length_b 14.277840
_cell_length_c 18.309341
_cell_angle_alpha 90.000000
_cell_angle_beta 137.642968
_cell_angle_gamma 90.000000
_cell_volume 2429.180303
_symmetry_space_group_name_H-M "C 2/C"
_symmetry_group_IT_number 15
_symmetry_cell_setting 'monoclinic'
loop_
_space_group_symop_operation_xyz
x,y,z
-x,y,1/2-z
-x,-y,-z
x,-y,1/2+z
1/2+x,1/2+y,z
1/2-x,1/2+y,1/2-z
1/2-x,1/2-y,-z
1/2+x,1/2-y,1/2+z
loop_
_atom_site_type_symbol
_atom_site_label
_atom_site_fract_x
_atom_site_fract_y
_atom_site_fract_z
Si Si1 0.249388 0.748296 0.252379
Si Si2 0.691531 0.821309 0.369030
Si Si3 0.287483 0.071778 0.868463
Si Si4 0.962413 0.178847 0.117333
Si Si5 0.462425 0.916712 0.878066
Si Si6 0.000000 0.487290 0.250000
Si Si7 0.500000 0.478857 0.750000
O O1 0.252486 0.760675 0.166872
O O2 0.231099 0.843208 0.287181
O O3 0.404350 0.705096 0.361230
O O4 0.118096 0.677767 0.191931
O O5 0.822485 0.842658 0.494298
O O6 0.566434 0.766057 0.343728
O O7 0.637849 0.922023 0.312462
O O8 0.145923 0.039073 0.832877
O O9 0.352547 0.989601 0.854291
O O10 0.406673 0.105063 0.993638
O O11 0.004601 0.084130 0.180964
O O12 0.527686 0.954134 0.838623
#
# Coordination Sequence:
#
# PCOD8151209 Si02
#       7
#     8   8   8   8   8   4   4
#     4  12  21  41  62  96 124 170 214 262 318 378
#     4  11  20  35  62  93 123 159 217 277 322 367
#     4  11  24  43  68  95 131 173 211 263 328 381
#     4  11  20  35  62  93 123 159 217 277 322 367
#     4  11  24  43  68  95 131 173 211 263 328 381
#     4  12  21  41  62  96 124 170 214 262 318 378
#     4  12  21  41  62  96 124 170 214 262 318 378
#
# _framework density 19.759751999999999
#
# number of rings (size 3 to 8) (size 9 to 14) (size 15 to 20)
#    0.000    0.667    6.667    2.000    0.000    6.000 
#    0.000   10.000    0.000    0.000    0.000    0.000 
#    0.000    0.000    0.000    0.000    0.000    0.000 
#
# Total GULP energy -297611.046883 kJ/mol
# GULP energy per Si atom -12400.460287 kJ/mol
# Density = 1.971478 g / cm^3
# Si number density = 19.759752 Si / 1000 Ang^3
#
#
#
# Elastic Constant Matrix: (Units=GPa)
#
#
# Indices 1 2 3 4 5 6 
#
# 1 59.1754 22.6591 16.9425 0.0000 7.8129 0.0000
# 2 22.6591 99.4397 40.0428 0.0000 9.5305 0.0000
# 3 16.9425 40.0428 98.2002 0.0001 8.9154 0.0000
# 4 0.0000 0.0000 0.0001 29.0333 0.0001 1.6532
# 5 7.8129 9.5305 8.9154 0.0001 32.8459 0.0000
# 6 0.0000 0.0000 0.0000 1.6532 0.0000 35.8451
#
#
#
# Elastic Compliance Matrix: (Units=1/GPa)
#
#
# Indices 1 2 3 4 5 6 
#
# 1 0.019074 -0.003394 -0.001624 0.000000 -0.003111 0.000000
# 2 -0.003394 0.012795 -0.004478 0.000000 -0.001690 0.000000
# 3 -0.001624 -0.004478 0.012443 0.000000 -0.001692 0.000000
# 4 0.000000 0.000000 0.000000 0.034534 0.000000 -0.001593
# 5 -0.003111 -0.001690 -0.001692 0.000000 0.032135 0.000000
# 6 0.000000 0.000000 0.000000 -0.001593 0.000000 0.027971
#
#
# Mechanical properties :
#
#
# Convention : Reuss Voigt Hill
#
# Bulk Modulus (GPa) = 39.49624 46.23379 42.86502
# Shear Modulus (GPa) = 30.05053 31.35623 30.70338
#
# Velocity S-wave (km/s) = 3.90397 3.98788 3.94615
# Velocity P-wave (km/s) = 6.35239 6.68229 6.51943
#
# Compressibility (1/GPa) = 0.02531887
#
# Stress axis : x y z
#
# Youngs Moduli (GPa) = 52.42609 78.15493 80.36463
#
# Poissons Ratio (x) = 0.26527 0.13055
# Poissons Ratio (y) = 0.17794 0.35991
# Poissons Ratio (z) = 0.08516 0.35001
#
# Static dielectric constant tensor:
#      x y z
#    x 3.433710 0.000000 0.064220 
#    y 0.000000 3.491480 0.000000 
#    z 0.064220 0.000000 3.732080 
# 
# 
# High freq. dielectric constant tensor:
#      x y z
#    x 1.753350 0.000000 0.003870 
#    y 0.000000 1.762780 0.000000 
#    z 0.003870 0.000000 1.789030 
# 
# From -- ./inp_files/243947.got.cif
#   From: 2010.06.25/outbox.cif.g09.slc.cpg/sg15_122_cif.got.tgz:243947.got - 2010.06.28 07:06:18.
