data_PCOD8151641
_publ_section_title
;
Structure prediction by ZEFSAII (Michael W. Deem and Ramdas Pophale) SiO2 
 PCOD8151641
Probable space group: C 2/C
;
_chemical_formula_sum "Si O2"
_cell_formula_units_Z 60
_cell_length_a 18.766322
_cell_length_b 18.124161
_cell_length_c 8.375484
_cell_angle_alpha 90.000000
_cell_angle_beta 85.153851
_cell_angle_gamma 90.000000
_cell_volume 2838.518074
_symmetry_space_group_name_H-M "C 2/C"
_symmetry_group_IT_number 15
_symmetry_cell_setting 'monoclinic'
loop_
_space_group_symop_operation_xyz
x,y,z
-x,y,1/2-z
-x,-y,-z
x,-y,1/2+z
1/2+x,1/2+y,z
1/2-x,1/2+y,1/2-z
1/2-x,1/2-y,-z
1/2+x,1/2-y,1/2+z
loop_
_atom_site_type_symbol
_atom_site_label
_atom_site_fract_x
_atom_site_fract_y
_atom_site_fract_z
Si Si1 0.422709 0.057381 0.232353
Si Si2 0.222747 0.807608 0.631916
Si Si3 0.274537 0.566933 0.597022
Si Si4 0.111780 0.211015 0.420406
Si Si5 0.000000 0.715424 0.750000
Si Si6 0.679717 0.836684 0.603557
Si Si7 0.691365 0.589434 0.560005
Si Si8 0.108859 0.407910 0.124034
O O1 0.500000 0.092392 0.250000
O O2 0.370839 0.091882 0.375936
O O3 0.426109 0.969914 0.257739
O O4 0.398469 0.073982 0.059330
O O5 0.250000 0.750000 0.500000
O O6 0.194028 0.880851 0.547093
O O7 0.158852 0.777620 0.752193
O O8 0.292303 0.824421 0.723310
O O9 0.320638 0.574784 0.750813
O O10 0.283684 0.482955 0.539662
O O11 0.193289 0.592845 0.648575
O O12 0.135458 0.266733 0.554205
O O13 0.121236 0.127731 0.491178
O O14 0.030388 0.230930 0.385018
O O15 0.067292 0.667378 0.674543
O O16 0.744989 0.850818 0.470371
#
# Coordination Sequence:
#
# PCOD8151641 Si02
#       8
#     8   8   8   8   4   8   8   8
#     4  12  24  36  56  86 133 175 216 254 305 390
#     4  11  21  39  61  91 126 163 213 268 324 380
#     4  12  22  39  69  99 127 162 212 278 332 380
#     4  11  25  41  62  88 126 175 218 269 322 385
#     4  12  26  44  64  88 132 180 222 260 328 396
#     4  11  21  38  57  89 127 169 214 264 320 372
#     4  11  22  39  64  95 126 164 213 275 329 379
#     4  12  24  39  59  93 128 176 212 263 317 385
#
# _framework density 21.137791
#
# number of rings (size 3 to 8) (size 9 to 14) (size 15 to 20)
#    0.000    0.533    3.333    8.400    1.867    0.000 
#    0.000    0.000    0.000    3.200    0.000    0.000 
#    0.000    0.000    0.000    0.000    0.000    0.000 
#
# Total GULP energy -371967.821759 kJ/mol
# GULP energy per Si atom -12398.927392 kJ/mol
# Density = 2.108968 g / cm^3
# Si number density = 21.137791 Si / 1000 Ang^3
#
#
#
# Elastic Constant Matrix: (Units=GPa)
#
#
# Indices 1 2 3 4 5 6 
#
# 1 73.7316 47.5693 23.9094 0.0000 15.1409 0.0000
# 2 47.5693 100.9914 42.9283 0.0000 24.0143 0.0000
# 3 23.9094 42.9283 118.8005 0.0000 17.0904 0.0000
# 4 0.0000 0.0000 0.0000 39.4708 0.0000 3.1783
# 5 15.1409 24.0143 17.0904 0.0000 20.1115 0.0000
# 6 0.0000 0.0000 0.0000 3.1783 0.0000 36.0543
#
#
#
# Elastic Compliance Matrix: (Units=1/GPa)
#
#
# Indices 1 2 3 4 5 6 
#
# 1 0.019892 -0.007993 -0.000380 0.000000 -0.005108 0.000000
# 2 -0.007993 0.018037 -0.003049 0.000000 -0.012929 0.000000
# 3 -0.000380 -0.003049 0.010289 0.000000 -0.004816 0.000000
# 4 0.000000 0.000000 0.000000 0.025516 0.000000 -0.002249
# 5 -0.005108 -0.012929 -0.004816 0.000000 0.073099 0.000000
# 6 0.000000 0.000000 0.000000 -0.002249 0.000000 0.027934
#
#
# Mechanical properties :
#
#
# Convention : Reuss Voigt Hill
#
# Bulk Modulus (GPa) = 39.41267 58.03750 48.72509
# Shear Modulus (GPa) = 24.26360 31.06841 27.66601
#
# Velocity S-wave (km/s) = 3.39171 3.83796 3.62172
# Velocity P-wave (km/s) = 5.83304 6.86704 6.37105
#
# Compressibility (1/GPa) = 0.02537255
#
# Stress axis : x y z
#
# Youngs Moduli (GPa) = 50.27147 55.44088 97.19493
#
# Poissons Ratio (x) = 0.44316 0.03695
# Poissons Ratio (y) = 0.40184 0.29636
# Poissons Ratio (z) = 0.01911 0.16905
#
# Static dielectric constant tensor:
#      x y z
#    x 3.838230 0.000000 0.267500 
#    y 0.000000 4.084920 0.000000 
#    z 0.267500 0.000000 4.015030 
# 
# 
# High freq. dielectric constant tensor:
#      x y z
#    x 1.793540 0.000000 0.016040 
#    y 0.000000 1.832800 0.000000 
#    z 0.016040 0.000000 1.841800 
# 
# From -- ./inp_files/49110.got.cif
#   From: 2010.06.25/outbox.cif.g09.slc.cpg/sg15_25_cif.got.tgz:49110.got - 2010.06.28 07:06:18.
