data_PCOD8151291
_publ_section_title
;
Structure prediction by ZEFSAII (Michael W. Deem and Ramdas Pophale) SiO2 
 PCOD8151291
Probable space group: C 2/C
;
_chemical_formula_sum "Si O2"
_cell_formula_units_Z 56
_cell_length_a 13.527588
_cell_length_b 18.723308
_cell_length_c 24.733456
_cell_angle_alpha 90.000000
_cell_angle_beta 154.785735
_cell_angle_gamma 90.000000
_cell_volume 2668.713766
_symmetry_space_group_name_H-M "C 2/C"
_symmetry_group_IT_number 15
_symmetry_cell_setting 'monoclinic'
loop_
_space_group_symop_operation_xyz
x,y,z
-x,y,1/2-z
-x,-y,-z
x,-y,1/2+z
1/2+x,1/2+y,z
1/2-x,1/2+y,1/2-z
1/2-x,1/2-y,-z
1/2+x,1/2-y,1/2+z
loop_
_atom_site_type_symbol
_atom_site_label
_atom_site_fract_x
_atom_site_fract_y
_atom_site_fract_z
Si Si1 0.139320 0.699192 0.899171
Si Si2 0.053783 0.092455 0.912474
Si Si3 0.118643 0.660471 0.507826
Si Si4 0.311517 0.061480 0.858076
Si Si5 0.145397 0.911187 0.774872
Si Si6 0.641014 0.701800 0.607442
Si Si7 0.254364 0.055871 0.495447
O O1 0.298415 0.702543 0.925340
O O2 0.872979 0.722824 0.756393
O O3 0.250000 0.750000 0.000000
O O4 0.134548 0.615101 0.910903
O O5 0.826344 0.078436 0.764558
O O6 0.965066 0.126152 0.924955
O O7 0.208083 0.021275 0.000591
O O8 0.205867 0.149348 0.954406
O O9 0.213799 0.623771 0.609976
O O10 0.871310 0.629620 0.368619
O O11 0.074406 0.744121 0.493006
O O12 0.212903 0.988215 0.833807
O O13 0.579451 0.047700 0.974558
O O14 0.000000 0.869990 0.750000
O O15 0.994540 0.915497 0.646383
#
# Coordination Sequence:
#
# PCOD8151291 Si02
#       7
#     8   8   8   8   8   8   8
#     4  11  24  46  66  96 128 170 220 275 320 388
#     4  11  24  41  63  95 129 174 217 263 332 386
#     4  12  22  38  61  94 137 170 210 271 325 391
#     4  11  20  38  61  97 128 175 210 272 328 382
#     4  11  21  32  59  97 126 164 219 265 325 381
#     4  11  26  41  67  94 129 174 220 259 330 393
#     4  11  21  39  67  87 130 170 216 275 321 374
#
# _framework density 20.983891
#
# number of rings (size 3 to 8) (size 9 to 14) (size 15 to 20)
#    0.000    0.857    4.286    4.714    2.000    0.571 
#    0.000    0.000    0.000    0.000    0.000    0.000 
#    0.000    0.000    0.000    0.000    0.000    0.000 
#
# Total GULP energy -347113.641479 kJ/mol
# GULP energy per Si atom -12396.915767 kJ/mol
# Density = 2.093613 g / cm^3
# Si number density = 20.983891 Si / 1000 Ang^3
#
#
#
# Elastic Constant Matrix: (Units=GPa)
#
#
# Indices 1 2 3 4 5 6 
#
# 1 104.6601 39.4718 24.8456 -0.0192 3.0946 -0.0009
# 2 39.4718 84.8199 16.0006 -0.0052 -2.1671 -0.0068
# 3 24.8456 16.0006 63.2970 0.0221 2.8666 0.0033
# 4 -0.0192 -0.0052 0.0221 32.8490 -0.0037 -1.4455
# 5 3.0946 -2.1671 2.8666 -0.0037 27.8824 0.0005
# 6 -0.0009 -0.0068 0.0033 -1.4455 0.0005 31.9744
#
#
#
# Elastic Compliance Matrix: (Units=1/GPa)
#
#
# Indices 1 2 3 4 5 6 
#
# 1 0.012360 -0.005129 -0.003491 0.000009 -0.001412 0.000000
# 2 -0.005129 0.014555 -0.001751 0.000001 0.001881 0.000003
# 3 -0.003491 -0.001751 0.017682 -0.000014 -0.001567 -0.000003
# 4 0.000009 0.000001 -0.000014 0.030503 0.000005 0.001379
# 5 -0.001412 0.001881 -0.001567 0.000005 0.036329 0.000000
# 6 0.000000 0.000003 -0.000003 0.001379 0.000000 0.031337
#
#
# Mechanical properties :
#
#
# Convention : Reuss Voigt Hill
#
# Bulk Modulus (GPa) = 41.92081 45.93479 43.92780
# Shear Modulus (GPa) = 29.16125 30.03842 29.59984
#
# Velocity S-wave (km/s) = 3.73191 3.78762 3.75987
# Velocity P-wave (km/s) = 6.21213 6.40828 6.31097
#
# Compressibility (1/GPa) = 0.02385450
#
# Stress axis : x y z
#
# Youngs Moduli (GPa) = 80.90843 68.70490 56.55331
#
# Poissons Ratio (x) = 0.35240 0.19742
# Poissons Ratio (y) = 0.41500 0.09903
# Poissons Ratio (z) = 0.28245 0.12031
#
# Static dielectric constant tensor:
#      x y z
#    x 3.593440 0.000010 0.190740 
#    y 0.000010 3.987930 -0.000060 
#    z 0.190740 -0.000060 3.970130 
# 
# 
# High freq. dielectric constant tensor:
#      x y z
#    x 1.805560 0.000000 0.020330 
#    y 0.000000 1.820810 0.000000 
#    z 0.020330 0.000000 1.828940 
# 
# From -- ./inp_files/270965.got.cif
#   From: 2010.06.25/outbox.cif.g09.slc.cpg/sg15_136_cif.got.tgz:270965.got - 2010.06.28 07:06:18.
