data_PCOD8151661
_publ_section_title
;
Structure prediction by ZEFSAII (Michael W. Deem and Ramdas Pophale) SiO2 
 PCOD8151661
Probable space group: C 2/C
;
_chemical_formula_sum "Si O2"
_cell_formula_units_Z 56
_cell_length_a 11.147469
_cell_length_b 17.087280
_cell_length_c 18.555825
_cell_angle_alpha 90.000000
_cell_angle_beta 130.000049
_cell_angle_gamma 90.000000
_cell_volume 2707.591439
_symmetry_space_group_name_H-M "C 2/C"
_symmetry_group_IT_number 15
_symmetry_cell_setting 'monoclinic'
loop_
_space_group_symop_operation_xyz
x,y,z
-x,y,1/2-z
-x,-y,-z
x,-y,1/2+z
1/2+x,1/2+y,z
1/2-x,1/2+y,1/2-z
1/2-x,1/2-y,-z
1/2+x,1/2-y,1/2+z
loop_
_atom_site_type_symbol
_atom_site_label
_atom_site_fract_x
_atom_site_fract_y
_atom_site_fract_z
Si Si1 0.631134 0.853838 0.001862
Si Si2 0.194217 0.835210 0.169216
Si Si3 0.307076 0.699561 0.297498
Si Si4 0.845376 0.237776 0.109269
Si Si5 0.681308 0.421965 0.302316
Si Si6 0.627157 0.675653 0.014304
Si Si7 0.288184 0.905918 0.856511
O O1 0.711028 0.862465 0.110706
O O2 0.753191 0.876819 0.986145
O O3 0.594767 0.763278 0.973849
O O4 0.475999 0.906122 0.936494
O O5 0.176492 0.762696 0.220113
O O6 0.320501 0.808514 0.157452
O O7 0.227394 0.909113 0.235388
O O8 0.043508 0.861058 0.064043
O O9 0.472330 0.735657 0.336961
O O10 0.305814 0.677873 0.380032
O O11 0.267236 0.617371 0.244689
O O12 0.788425 0.154658 0.117414
O O13 0.750000 0.250000 0.000000
O O14 0.500000 0.404468 0.250000
O O15 0.723875 0.508115 0.346750
#
# Coordination Sequence:
#
# PCOD8151661 Si02
#       7
#     8   8   8   8   8   8   8
#     4  11  22  39  64  94 128 160 210 266 318 387
#     4  11  21  38  62  95 124 161 215 264 319 382
#     4  11  21  40  66  90 125 165 209 270 320 379
#     4  11  21  40  67  92 122 164 221 271 316 375
#     4  12  24  41  63  91 130 175 212 263 327 397
#     4  11  21  38  65  98 123 157 212 269 318 373
#     4  11  24  42  61  92 129 171 213 260 329 388
#
# _framework density 20.682590000000001
#
# number of rings (size 3 to 8) (size 9 to 14) (size 15 to 20)
#    0.000    0.857    7.143    3.000    0.000    0.571 
#    0.000    2.143    3.143    0.000    0.000    0.000 
#    0.000    0.000    0.000    0.000    0.000    0.000 
#
# Total GULP energy -346994.552759 kJ/mol
# GULP energy per Si atom -12392.662599 kJ/mol
# Density = 2.063552 g / cm^3
# Si number density = 20.682590 Si / 1000 Ang^3
#
#
#
# Elastic Constant Matrix: (Units=GPa)
#
#
# Indices 1 2 3 4 5 6 
#
# 1 57.2838 7.6931 19.8645 0.0000 -3.3431 0.0000
# 2 7.6931 57.6128 5.9773 0.0000 -1.5159 0.0000
# 3 19.8645 5.9773 135.9828 0.0000 -8.3302 0.0000
# 4 0.0000 0.0000 0.0000 25.1917 0.0000 2.1079
# 5 -3.3431 -1.5159 -8.3302 0.0000 42.5916 0.0000
# 6 0.0000 0.0000 0.0000 2.1079 0.0000 22.2872
#
#
#
# Elastic Compliance Matrix: (Units=1/GPa)
#
#
# Indices 1 2 3 4 5 6 
#
# 1 0.018700 -0.002206 -0.002581 0.000000 0.000885 0.000000
# 2 -0.002206 0.017707 -0.000433 0.000000 0.000372 0.000000
# 3 -0.002581 -0.000433 0.007830 0.000000 0.001314 0.000000
# 4 0.000000 0.000000 0.000000 0.040012 0.000000 -0.003784
# 5 0.000885 0.000372 0.001314 0.000000 0.023818 0.000000
# 6 0.000000 0.000000 0.000000 -0.003784 0.000000 0.045227
#
#
# Mechanical properties :
#
#
# Convention : Reuss Voigt Hill
#
# Bulk Modulus (GPa) = 29.58836 35.32769 32.45802
# Shear Modulus (GPa) = 28.57158 32.50375 30.53766
#
# Velocity S-wave (km/s) = 3.72079 3.96858 3.84668
# Velocity P-wave (km/s) = 5.72678 6.17393 5.95456
#
# Compressibility (1/GPa) = 0.03379708
#
# Stress axis : x y z
#
# Youngs Moduli (GPa) = 53.47691 56.47627 127.70831
#
# Poissons Ratio (x) = 0.12459 0.32955
# Poissons Ratio (y) = 0.11797 0.05533
# Poissons Ratio (z) = 0.13800 0.02447
#
# Static dielectric constant tensor:
#      x y z
#    x 3.775970 0.000000 -0.012810 
#    y 0.000000 3.424600 0.000000 
#    z -0.012810 0.000000 3.889750 
# 
# 
# High freq. dielectric constant tensor:
#      x y z
#    x 1.801150 0.000000 0.003460 
#    y 0.000000 1.770250 0.000000 
#    z 0.003460 0.000000 1.839650 
# 
# From -- ./inp_files/199593.got.cif
#   From: 2010.06.25/outbox.cif.g09.slc.cpg/sg15_100_cif.got.tgz:199593.got - 2010.06.28 07:06:18.
