data_PCOD8151216
_publ_section_title
;
Structure prediction by ZEFSAII (Michael W. Deem and Ramdas Pophale) SiO2 
 PCOD8151216
Probable space group: C 2/C
;
_chemical_formula_sum "Si O2"
_cell_formula_units_Z 48
_cell_length_a 19.681229
_cell_length_b 9.481426
_cell_length_c 13.497800
_cell_angle_alpha 90.000000
_cell_angle_beta 68.977598
_cell_angle_gamma 90.000000
_cell_volume 2351.123168
_symmetry_space_group_name_H-M "C 2/C"
_symmetry_group_IT_number 15
_symmetry_cell_setting 'monoclinic'
loop_
_space_group_symop_operation_xyz
x,y,z
-x,y,1/2-z
-x,-y,-z
x,-y,1/2+z
1/2+x,1/2+y,z
1/2-x,1/2+y,1/2-z
1/2-x,1/2-y,-z
1/2+x,1/2-y,1/2+z
loop_
_atom_site_type_symbol
_atom_site_label
_atom_site_fract_x
_atom_site_fract_y
_atom_site_fract_z
Si Si1 0.367558 0.190943 0.078625
Si Si2 0.211835 0.906392 0.700258
Si Si3 0.078959 0.606677 0.253826
Si Si4 0.815426 0.825936 0.408601
Si Si5 0.335404 0.865385 0.376927
Si Si6 0.324470 0.510867 0.574673
O O1 0.291832 0.155603 0.172069
O O2 0.427989 0.133755 0.123970
O O3 0.378265 0.358921 0.064911
O O4 0.369497 0.120751 0.969216
O O5 0.165435 0.798567 0.656137
O O6 0.215100 0.064914 0.656730
O O7 0.179126 0.912329 0.827166
O O8 0.131145 0.717433 0.171576
O O9 0.111469 0.450435 0.223105
O O10 0.000000 0.619609 0.250000
O O11 0.750000 0.750000 0.500000
O O12 0.858362 0.915784 0.469533
O O13 0.254254 0.928991 0.419635
#
# Coordination Sequence:
#
# PCOD8151216 Si02
#       6
#     8   8   8   8   8   8
#     4  11  20  39  64  91 130 162 206 264 314 371
#     4  11  20  35  65  99 123 156 209 264 318 365
#     4  12  27  43  62  91 130 171 211 259 317 382
#     4  12  21  39  65  99 126 157 215 262 315 371
#     4  11  22  39  61  94 127 163 206 259 318 374
#     4  11  20  35  66 100 122 158 204 265 317 364
#
# _framework density 20.415773000000002
#
# number of rings (size 3 to 8) (size 9 to 14) (size 15 to 20)
#    0.000    0.667    8.333    1.000    2.333    2.000 
#    0.000    1.667    0.000    0.000    0.000    0.000 
#    0.000    0.000    0.000    0.000    0.000    0.000 
#
# Total GULP energy -297584.983317 kJ/mol
# GULP energy per Si atom -12399.374305 kJ/mol
# Density = 2.036931 g / cm^3
# Si number density = 20.415773 Si / 1000 Ang^3
#
#
#
# Elastic Constant Matrix: (Units=GPa)
#
#
# Indices 1 2 3 4 5 6 
#
# 1 80.3004 28.9383 15.9974 0.0000 23.4269 0.0000
# 2 28.9383 103.2497 19.9714 0.0000 2.9302 0.0000
# 3 15.9974 19.9714 69.9217 0.0000 32.3065 0.0000
# 4 0.0000 0.0000 0.0000 33.8901 0.0000 10.4946
# 5 23.4269 2.9302 32.3065 0.0000 34.7014 0.0000
# 6 0.0000 0.0000 0.0000 10.4946 0.0000 13.6211
#
#
#
# Elastic Compliance Matrix: (Units=1/GPa)
#
#
# Indices 1 2 3 4 5 6 
#
# 1 0.018334 -0.005656 0.005122 0.000000 -0.016669 0.000000
# 2 -0.005656 0.012212 -0.006110 0.000000 0.008476 0.000000
# 3 0.005122 -0.006110 0.028489 0.000000 -0.029465 0.000000
# 4 0.000000 0.000000 0.000000 0.038753 0.000000 -0.029858
# 5 -0.016669 0.008476 -0.029465 0.000000 0.066786 0.000000
# 6 0.000000 0.000000 0.000000 -0.029858 0.000000 0.096420
#
#
# Mechanical properties :
#
#
# Convention : Reuss Voigt Hill
#
# Bulk Modulus (GPa) = 21.85940 42.58733 32.22336
# Shear Modulus (GPa) = 17.26934 29.01350 23.14142
#
# Velocity S-wave (km/s) = 2.91156 3.77388 3.37041
# Velocity P-wave (km/s) = 4.69396 6.31624 5.56454
#
# Compressibility (1/GPa) = 0.04574691
#
# Stress axis : x y z
#
# Youngs Moduli (GPa) = 54.54336 81.88742 35.10153
#
# Poissons Ratio (x) = 0.46318 -0.17981
# Poissons Ratio (y) = 0.30852 0.21447
# Poissons Ratio (z) = -0.27940 0.50033
#
# Static dielectric constant tensor:
#      x y z
#    x 3.306590 0.000000 0.390670 
#    y 0.000000 4.139050 0.000000 
#    z 0.390670 0.000000 3.925000 
# 
# 
# High freq. dielectric constant tensor:
#      x y z
#    x 1.742760 0.000000 0.042820 
#    y 0.000000 1.817760 0.000000 
#    z 0.042820 0.000000 1.805980 
# 
# From -- ./inp_files/166162.got.cif
#   From: 2010.06.25/outbox.cif.g09.slc.cpg/sg15_84_cif.got.tgz:166162.got - 2010.06.28 07:06:18.
