data_PCOD8151272
_publ_section_title
;
Structure prediction by ZEFSAII (Michael W. Deem and Ramdas Pophale) SiO2 
 PCOD8151272
Probable space group: C 2/C
;
_chemical_formula_sum "Si O2"
_cell_formula_units_Z 48
_cell_length_a 11.769004
_cell_length_b 14.324574
_cell_length_c 26.759861
_cell_angle_alpha 90.000000
_cell_angle_beta 31.375625
_cell_angle_gamma 90.000000
_cell_volume 2348.811702
_symmetry_space_group_name_H-M "C 2/C"
_symmetry_group_IT_number 15
_symmetry_cell_setting 'monoclinic'
loop_
_space_group_symop_operation_xyz
x,y,z
-x,y,1/2-z
-x,-y,-z
x,-y,1/2+z
1/2+x,1/2+y,z
1/2-x,1/2+y,1/2-z
1/2-x,1/2-y,-z
1/2+x,1/2-y,1/2+z
loop_
_atom_site_type_symbol
_atom_site_label
_atom_site_fract_x
_atom_site_fract_y
_atom_site_fract_z
Si Si1 0.372311 0.431585 0.746748
Si Si2 0.139852 0.163621 0.514715
Si Si3 0.307687 0.772162 0.284396
Si Si4 0.803867 0.578802 0.355959
Si Si5 0.993158 0.429041 0.149064
Si Si6 0.108104 0.038021 0.058735
O O1 0.500000 0.447539 0.750000
O O2 0.246187 0.332249 0.789039
O O3 0.191741 0.510926 0.808925
O O4 0.554743 0.434805 0.635043
O O5 0.250000 0.250000 0.500000
O O6 0.223177 0.154847 0.426469
O O7 0.882070 0.179910 0.612653
O O8 0.191983 0.068862 0.524963
O O9 0.500000 0.756912 0.250000
O O10 0.377621 0.835073 0.211203
O O11 0.602956 0.549231 0.396900
O O12 0.000000 0.624418 0.250000
O O13 0.898721 0.485056 0.345548
O O14 0.186442 0.400756 0.037898
#
# Coordination Sequence:
#
# PCOD8151272 Si02
#       6
#     8   8   8   8   8   8
#     4  11  25  42  62  89 132 175 209 256 318 384
#     4  11  22  37  63  97 129 163 202 261 323 373
#     4  11  21  39  65  92 122 165 215 255 312 376
#     4  11  20  37  67  98 125 160 210 269 316 368
#     4  11  21  40  66  93 125 165 209 268 319 373
#     4  11  22  40  65  92 127 165 213 263 322 369
#
# _framework density 20.435866000000001
#
# number of rings (size 3 to 8) (size 9 to 14) (size 15 to 20)
#    0.000    1.000    3.333    6.500    0.000    1.333 
#    0.000    2.500    0.000    0.000    0.000    0.000 
#    0.000    0.000    0.000    0.000    0.000    0.000 
#
# Total GULP energy -297637.598496 kJ/mol
# GULP energy per Si atom -12401.566604 kJ/mol
# Density = 2.038935 g / cm^3
# Si number density = 20.435866 Si / 1000 Ang^3
#
#
#
# Elastic Constant Matrix: (Units=GPa)
#
#
# Indices 1 2 3 4 5 6 
#
# 1 105.8922 34.8522 37.4385 -0.0015 13.4743 -0.0003
# 2 34.8522 86.3607 17.1535 0.0122 6.8155 -0.0169
# 3 37.4385 17.1535 159.1627 0.0594 22.0352 -0.0625
# 4 -0.0015 0.0122 0.0594 16.0038 -0.0067 9.7701
# 5 13.4743 6.8155 22.0352 -0.0067 37.6200 -0.0023
# 6 -0.0003 -0.0169 -0.0625 9.7701 -0.0023 13.1901
#
#
#
# Elastic Compliance Matrix: (Units=1/GPa)
#
#
# Indices 1 2 3 4 5 6 
#
# 1 0.011827 -0.004192 -0.002012 0.000037 -0.002298 -0.000042
# 2 -0.004192 0.013399 -0.000359 -0.000034 -0.000716 0.000041
# 3 -0.002012 -0.000359 0.007276 -0.000089 -0.003476 0.000099
# 4 0.000037 -0.000034 -0.000089 0.114066 0.000061 -0.084491
# 5 -0.002298 -0.000716 -0.003476 0.000061 0.029571 -0.000057
# 6 -0.000042 0.000041 0.000099 -0.084491 -0.000057 0.138399
#
#
# Mechanical properties :
#
#
# Convention : Reuss Voigt Hill
#
# Bulk Modulus (GPa) = 51.60958 58.92266 55.26612
# Shear Modulus (GPa) = 14.96458 30.82754 22.89606
#
# Velocity S-wave (km/s) = 2.70898 3.88816 3.35085
# Velocity P-wave (km/s) = 5.92402 7.00375 6.48639
#
# Compressibility (1/GPa) = 0.01937625
#
# Stress axis : x y z
#
# Youngs Moduli (GPa) = 84.55184 74.63321 137.43494
#
# Poissons Ratio (x) = 0.31286 0.27653
# Poissons Ratio (y) = 0.35444 0.04932
# Poissons Ratio (z) = 0.17012 0.02678
#
# Static dielectric constant tensor:
#      x y z
#    x 3.730340 -0.000090 0.116620 
#    y -0.000090 3.800450 -0.000020 
#    z 0.116620 -0.000020 4.368000 
# 
# 
# High freq. dielectric constant tensor:
#      x y z
#    x 1.784560 0.000000 -0.004340 
#    y 0.000000 1.786480 0.000000 
#    z -0.004340 0.000000 1.826970 
# 
# From -- ./inp_files/239026.got.cif
#   From: 2010.06.25/outbox.cif.g09.slc.cpg/sg15_120_cif.got.tgz:239026.got - 2010.06.28 07:06:18.
