data_PCOD8151729
_publ_section_title
;
Structure prediction by ZEFSAII (Michael W. Deem and Ramdas Pophale) SiO2 
 PCOD8151729
Probable space group: C 2/C
;
_chemical_formula_sum "Si O2"
_cell_formula_units_Z 48
_cell_length_a 12.767704
_cell_length_b 14.235902
_cell_length_c 12.955689
_cell_angle_alpha 90.000000
_cell_angle_beta 73.045337
_cell_angle_gamma 90.000000
_cell_volume 2252.472723
_symmetry_space_group_name_H-M "C 2/C"
_symmetry_group_IT_number 15
_symmetry_cell_setting 'monoclinic'
loop_
_space_group_symop_operation_xyz
x,y,z
-x,y,1/2-z
-x,-y,-z
x,-y,1/2+z
1/2+x,1/2+y,z
1/2-x,1/2+y,1/2-z
1/2-x,1/2-y,-z
1/2+x,1/2-y,1/2+z
loop_
_atom_site_type_symbol
_atom_site_label
_atom_site_fract_x
_atom_site_fract_y
_atom_site_fract_z
Si Si1 0.286532 0.448115 0.750425
Si Si2 0.899850 0.404755 0.845439
Si Si3 0.671010 0.069644 0.491546
Si Si4 0.705639 0.645901 0.854555
Si Si5 0.901657 0.764902 0.706208
Si Si6 0.992469 0.723309 0.036785
O O1 0.202059 0.391868 0.701345
O O2 0.239649 0.469537 0.876284
O O3 0.321406 0.546539 0.690659
O O4 0.386280 0.375505 0.734462
O O5 0.000000 0.444744 0.750000
O O6 0.877599 0.480164 0.939159
O O7 0.929048 0.305059 0.890045
O O8 0.747342 0.131769 0.544113
O O9 0.571661 0.131403 0.480014
O O10 0.792969 0.704719 0.762444
O O11 0.590629 0.698332 0.897996
O O12 0.931810 0.758573 0.577545
O O13 0.000000 0.726665 0.750000
#
# Coordination Sequence:
#
# PCOD8151729 Si02
#       6
#     8   8   8   8   8   8
#     4  11  25  43  63  95 134 166 214 270 321 383
#     4  11  23  37  64  97 131 166 210 272 324 373
#     4  11  21  39  66  95 126 166 217 269 311 373
#     4  11  24  43  67  98 130 169 217 268 316 384
#     4  12  24  42  70  97 125 174 220 262 319 384
#     4  12  23  40  67  95 130 169 216 264 322 381
#
# _framework density 21.309913999999999
#
# number of rings (size 3 to 8) (size 9 to 14) (size 15 to 20)
#    0.000    0.667    5.000    3.000    4.667    1.333 
#    0.000    5.833    0.000    0.000    0.000    0.000 
#    0.000    0.000    0.000    0.000    0.000    0.000 
#
# Total GULP energy -297692.831599 kJ/mol
# GULP energy per Si atom -12403.867983 kJ/mol
# Density = 2.126141 g / cm^3
# Si number density = 21.309914 Si / 1000 Ang^3
#
#
#
# Elastic Constant Matrix: (Units=GPa)
#
#
# Indices 1 2 3 4 5 6 
#
# 1 55.4641 41.4373 43.6926 0.0000 0.0966 0.0000
# 2 41.4373 95.5088 48.6113 0.0000 -2.7825 0.0000
# 3 43.6926 48.6113 168.5162 0.0000 -12.4558 0.0000
# 4 0.0000 0.0000 0.0000 -4.5474 0.0000 12.0593
# 5 0.0966 -2.7825 -12.4558 0.0000 16.4874 0.0000
# 6 0.0000 0.0000 0.0000 12.0593 0.0000 29.5270
#
#
#
# Elastic Compliance Matrix: (Units=1/GPa)
#
#
# Indices 1 2 3 4 5 6 
#
# 1 0.029995 -0.010555 -0.005165 0.000000 -0.005859 0.000000
# 2 -0.010555 0.015993 -0.001772 0.000000 0.001423 0.000000
# 3 -0.005165 -0.001772 0.008224 0.000000 0.005944 0.000000
# 4 0.000000 0.000000 0.000000 -0.105567 0.000000 0.043115
# 5 -0.005859 0.001423 0.005944 0.000000 0.065417 0.000000
# 6 0.000000 0.000000 0.000000 0.043115 0.000000 0.016258
#
#
# Mechanical properties :
#
#
# Convention : Reuss Voigt Hill
#
# Bulk Modulus (GPa) = 52.00919 65.21903 58.61411
# Shear Modulus (GPa) = 69.72258 20.67660 45.19959
#
# Velocity S-wave (km/s) = 5.72620 3.11831 4.61049
# Velocity P-wave (km/s) = 8.25701 6.60580 7.47713
#
# Compressibility (1/GPa) = 0.01922737
#
# Stress axis : x y z
#
# Youngs Moduli (GPa) = 33.33926 62.52817 121.59899
#
# Poissons Ratio (x) = 0.66000 0.62809
# Poissons Ratio (y) = 0.35190 0.21541
# Poissons Ratio (z) = 0.17220 0.11077
#
# Static dielectric constant tensor:
#      x y z
#    x 3.839490 0.000000 0.098540 
#    y 0.000000 3.780610 0.000000 
#    z 0.098540 0.000000 4.140970 
# 
# 
# High freq. dielectric constant tensor:
#      x y z
#    x 1.825450 0.000000 0.002790 
#    y 0.000000 1.833730 0.000000 
#    z 0.002790 0.000000 1.858390 
# 
# From -- ./inp_files/151826.got.cif
#   From: 2010.06.25/outbox.cif.g09.slc.cpg/sg15_76_cif.got.tgz:151826.got - 2010.06.28 07:06:18.
