data_PCOD8151112
_publ_section_title
;
Structure prediction by ZEFSAII (Michael W. Deem and Ramdas Pophale) SiO2 
 PCOD8151112
Probable space group: C 2/C
;
_chemical_formula_sum "Si O2"
_cell_formula_units_Z 48
_cell_length_a 14.972422
_cell_length_b 13.170219
_cell_length_c 24.560945
_cell_angle_alpha 90.000000
_cell_angle_beta 153.026099
_cell_angle_gamma 90.000000
_cell_volume 2196.789364
_symmetry_space_group_name_H-M "C 2/C"
_symmetry_group_IT_number 15
_symmetry_cell_setting 'monoclinic'
loop_
_space_group_symop_operation_xyz
x,y,z
-x,y,1/2-z
-x,-y,-z
x,-y,1/2+z
1/2+x,1/2+y,z
1/2-x,1/2+y,1/2-z
1/2-x,1/2-y,-z
1/2+x,1/2-y,1/2+z
loop_
_atom_site_type_symbol
_atom_site_label
_atom_site_fract_x
_atom_site_fract_y
_atom_site_fract_z
Si Si1 0.791969 0.663634 0.923328
Si Si2 0.163993 0.747120 0.156615
Si Si3 0.937946 0.895501 0.304151
Si Si4 0.277844 0.886885 0.646616
Si Si5 0.059514 0.112515 0.138560
Si Si6 0.734071 0.893367 0.383491
O O1 0.737000 0.615030 0.835442
O O2 0.650086 0.616998 0.891505
O O3 0.784350 0.786760 0.919371
O O4 0.020806 0.650174 0.064178
O O5 0.086688 0.804642 0.167509
O O6 0.379552 0.698053 0.284032
O O7 0.167577 0.826390 0.109489
O O8 0.928661 0.003544 0.327201
O O9 0.500000 0.904159 0.750000
O O10 0.228731 0.878554 0.683933
O O11 0.179767 0.992241 0.573786
O O12 0.838426 0.140800 0.996977
O O13 0.500000 0.881711 0.250000
#
# Coordination Sequence:
#
# PCOD8151112 Si02
#       6
#     8   8   8   8   8   8
#     4  11  22  41  67 102 134 171 224 285 331 388
#     4  12  22  41  69  94 134 182 222 273 337 404
#     4  11  23  41  65 102 139 171 228 281 330 393
#     4  11  19  39  70  98 132 169 223 275 329 388
#     4  12  24  42  66  99 137 179 221 279 342 394
#     4  11  25  42  66  96 134 177 226 280 326 408
#
# _framework density 21.850069999999999
#
# number of rings (size 3 to 8) (size 9 to 14) (size 15 to 20)
#    0.000    0.667    6.667    2.000    0.000    4.000 
#    3.000    0.000    0.000    0.000    0.000    0.000 
#    0.000    0.000    0.000    0.000    0.000    0.000 
#
# Total GULP energy -297335.650224 kJ/mol
# GULP energy per Si atom -12388.985426 kJ/mol
# Density = 2.180034 g / cm^3
# Si number density = 21.850070 Si / 1000 Ang^3
#
#
#
# Elastic Constant Matrix: (Units=GPa)
#
#
# Indices 1 2 3 4 5 6 
#
# 1 69.0175 26.7386 26.3665 0.0081 -4.2027 -0.0119
# 2 26.7386 71.0916 39.7399 -0.0215 -8.6570 0.0345
# 3 26.3665 39.7399 146.9762 -0.0866 -16.0039 0.1354
# 4 0.0081 -0.0215 -0.0866 -600.1379 0.0094 852.2534
# 5 -4.2027 -8.6570 -16.0039 0.0094 26.6122 -0.0124
# 6 -0.0119 0.0345 0.1354 852.2534 -0.0124-1165.3355
#
#
#
# Elastic Compliance Matrix: (Units=1/GPa)
#
#
# Indices 1 2 3 4 5 6 
#
# 1 0.017267 -0.005615 -0.001585 0.000002 -0.000053 0.000001
# 2 -0.005615 0.018606 -0.003704 -0.000001 0.002939 -0.000001
# 3 -0.001585 -0.003704 0.008487 -0.000004 0.003649 -0.000002
# 4 0.000002 -0.000001 -0.000004 0.043202 -0.000003 0.031596
# 5 -0.000053 0.002939 0.003649 -0.000003 0.040719 -0.000002
# 6 0.000001 -0.000001 -0.000002 0.031596 -0.000002 0.022249
#
#
# Mechanical properties :
#
#
# Convention : Reuss Voigt Hill
#
# Bulk Modulus (GPa) = 44.33996 52.53060 48.43528
# Shear Modulus (GPa) = 27.80034 -334.82289 -153.51128
#
# Velocity S-wave (km/s) = 3.57083 -12.39230 -8.39102
# Velocity P-wave (km/s) = 6.11048 13.44118 8.46544
#
# Compressibility (1/GPa) = 0.02255302
#
# Stress axis : x y z
#
# Youngs Moduli (GPa) = 57.91522 53.74539 117.82890
#
# Poissons Ratio (x) = 0.30176 0.18678
# Poissons Ratio (y) = 0.32517 0.43639
# Poissons Ratio (z) = 0.09181 0.19905
#
# Static dielectric constant tensor:
#      x y z
#    x 3.895190 0.000000 0.162880 
#    y 0.000000 4.113910 0.000000 
#    z 0.162880 0.000000 4.865670 
# 
# 
# High freq. dielectric constant tensor:
#      x y z
#    x 1.845200 0.000000 -0.004700 
#    y 0.000000 1.856060 0.000000 
#    z -0.004700 0.000000 1.877540 
# 
# From -- ./inp_files/274380.got.cif
#   From: 2010.06.25/outbox.cif.g09.slc.cpg/sg15_138_cif.got.tgz:274380.got - 2010.06.28 07:06:18.
