data_PCOD8151301
_publ_section_title
;
Structure prediction by ZEFSAII (Michael W. Deem and Ramdas Pophale) SiO2 
 PCOD8151301
Probable space group: C 2/C
;
_chemical_formula_sum "Si O2"
_cell_formula_units_Z 32
_cell_length_a 13.090487
_cell_length_b 8.052639
_cell_length_c 20.207912
_cell_angle_alpha 90.000000
_cell_angle_beta 140.908365
_cell_angle_gamma 90.000000
_cell_volume 1343.209069
_symmetry_space_group_name_H-M "C 2/C"
_symmetry_group_IT_number 15
_symmetry_cell_setting 'monoclinic'
loop_
_space_group_symop_operation_xyz
x,y,z
-x,y,1/2-z
-x,-y,-z
x,-y,1/2+z
1/2+x,1/2+y,z
1/2-x,1/2+y,1/2-z
1/2-x,1/2-y,-z
1/2+x,1/2-y,1/2+z
loop_
_atom_site_type_symbol
_atom_site_label
_atom_site_fract_x
_atom_site_fract_y
_atom_site_fract_z
Si Si1 0.492953 0.800906 0.627084
Si Si2 0.306078 0.297080 0.703078
Si Si3 0.220121 0.043909 0.918337
Si Si4 0.125248 0.362994 0.390559
O O1 0.675043 0.773214 0.694267
O O2 0.370175 0.826725 0.502415
O O3 0.444247 0.637053 0.643452
O O4 0.476227 0.963911 0.664450
O O5 0.288841 0.480596 0.661343
O O6 0.280425 0.160061 0.631697
O O7 0.486760 0.282445 0.824975
O O8 0.253660 0.880724 0.983977
#
# Coordination Sequence:
#
# PCOD8151301 Si02
#       4
#     8   8   8   8
#     4   9  21  41  62  87 121 160 205 249 296 359
#     4  11  20  38  65  88 122 163 190 256 314 333
#     4   9  20  43  62  89 123 154 210 249 287 374
#     4   9  22  38  57  98 121 147 216 245 284 379
#
# _framework density 23.823543999999998
#
# number of rings (size 3 to 8) (size 9 to 14) (size 15 to 20)
#    1.500    1.000    0.000    1.500    0.000    5.000 
#    0.000   15.000    0.000    0.000    0.000    0.000 
#    0.000    0.000    0.000    0.000    0.000    0.000 
#
# Total GULP energy -198280.626931 kJ/mol
# GULP energy per Si atom -12392.539183 kJ/mol
# Density = 2.376932 g / cm^3
# Si number density = 23.823544 Si / 1000 Ang^3
#
#
#
# Elastic Constant Matrix: (Units=GPa)
#
#
# Indices 1 2 3 4 5 6 
#
# 1 88.8606 30.5582 27.5443 0.0000 25.7409 0.0000
# 2 30.5582 86.0628 19.1375 0.0000 5.9952 0.0000
# 3 27.5443 19.1375 100.3621 0.0000 -0.9471 0.0000
# 4 0.0000 0.0000 0.0000 30.6695 0.0000 4.1941
# 5 25.7409 5.9952 -0.9471 0.0000 30.9560 0.0000
# 6 0.0000 0.0000 0.0000 4.1941 0.0000 36.4025
#
#
#
# Elastic Compliance Matrix: (Units=1/GPa)
#
#
# Indices 1 2 3 4 5 6 
#
# 1 0.018358 -0.004549 -0.004308 0.000000 -0.014516 0.000000
# 2 -0.004549 0.013445 -0.001305 0.000000 0.001139 0.000000
# 3 -0.004308 -0.001305 0.011434 0.000000 0.004185 0.000000
# 4 0.000000 0.000000 0.000000 0.033128 0.000000 -0.003817
# 5 -0.014516 0.001139 0.004185 0.000000 0.044282 0.000000
# 6 0.000000 0.000000 0.000000 -0.003817 0.000000 0.027910
#
#
# Mechanical properties :
#
#
# Convention : Reuss Voigt Hill
#
# Bulk Modulus (GPa) = 43.64001 47.75172 45.69586
# Shear Modulus (GPa) = 28.32530 32.80862 30.56696
#
# Velocity S-wave (km/s) = 3.45187 3.71502 3.58586
# Velocity P-wave (km/s) = 5.85193 6.20398 6.03052
#
# Compressibility (1/GPa) = 0.02291475
#
# Stress axis : x y z
#
# Youngs Moduli (GPa) = 54.47084 74.37443 87.45477
#
# Poissons Ratio (x) = 0.33835 0.37675
# Poissons Ratio (y) = 0.24781 0.11409
# Poissons Ratio (z) = 0.23466 0.09702
#
# Static dielectric constant tensor:
#      x y z
#    x 3.732080 0.000000 0.096860 
#    y 0.000000 4.519050 0.000000 
#    z 0.096860 0.000000 4.182080 
# 
# 
# High freq. dielectric constant tensor:
#      x y z
#    x 1.902370 0.000000 0.002180 
#    y 0.000000 1.961990 0.000000 
#    z 0.002180 0.000000 1.955220 
# 
# From -- ./inp_files/201970.got.cif
#   From: 2010.06.25/outbox.cif.g09.slc.cpg/sg15_101_cif.got.tgz:201970.got - 2010.06.28 07:06:18.
