data_PCOD8151062
_publ_section_title
;
Structure prediction by ZEFSAII (Michael W. Deem and Ramdas Pophale) SiO2 
 PCOD8151062
Probable space group: C 2/C
;
_chemical_formula_sum "Si O2"
_cell_formula_units_Z 32
_cell_length_a 9.281309
_cell_length_b 11.864068
_cell_length_c 18.081893
_cell_angle_alpha 90.000000
_cell_angle_beta 41.729594
_cell_angle_gamma 90.000000
_cell_volume 1325.288565
_symmetry_space_group_name_H-M "C 2/C"
_symmetry_group_IT_number 15
_symmetry_cell_setting 'monoclinic'
loop_
_space_group_symop_operation_xyz
x,y,z
-x,y,1/2-z
-x,-y,-z
x,-y,1/2+z
1/2+x,1/2+y,z
1/2-x,1/2+y,1/2-z
1/2-x,1/2-y,-z
1/2+x,1/2-y,1/2+z
loop_
_atom_site_type_symbol
_atom_site_label
_atom_site_fract_x
_atom_site_fract_y
_atom_site_fract_z
Si Si1 0.902991 0.335129 0.576283
Si Si2 0.219734 0.367994 0.072341
Si Si3 0.761062 0.141609 0.721078
Si Si4 0.319548 0.469487 0.406349
O O1 0.834540 0.257606 0.530232
O O2 0.837773 0.271397 0.676844
O O3 0.763572 0.450400 0.627899
O O4 0.157161 0.363660 0.478555
O O5 0.238921 0.416457 0.148768
O O6 0.964432 0.359287 0.148635
O O7 0.333632 0.457470 0.976017
O O8 0.941758 0.079266 0.701672
#
# Coordination Sequence:
#
# PCOD8151062 Si02
#       4
#     8   8   8   8
#     4   9  21  35  53  81 106 139 183 226 263 313
#     4   9  20  36  54  82 113 140 179 227 266 314
#     4   9  20  36  54  82 113 140 179 227 266 314
#     4  11  19  36  62  76 105 153 180 212 276 327
#
# _framework density 24.145686999999999
#
# number of rings (size 3 to 8) (size 9 to 14) (size 15 to 20)
#    1.500    1.000    0.000    2.250    0.000    4.000 
#    0.000    3.750    0.000    0.000    0.000    0.000 
#    0.000    0.000    0.000    0.000    0.000    0.000 
#
# Total GULP energy -198287.687673 kJ/mol
# GULP energy per Si atom -12392.980480 kJ/mol
# Density = 2.409073 g / cm^3
# Si number density = 24.145687 Si / 1000 Ang^3
#
#
#
# Elastic Constant Matrix: (Units=GPa)
#
#
# Indices 1 2 3 4 5 6 
#
# 1 55.5257 39.0732 30.2088 0.0001 -32.4239 0.0000
# 2 39.0732 91.5482 36.0543 0.0001 -21.9989 0.0001
# 3 30.2088 36.0543 82.1848 -0.0011 -38.3287 -0.0001
# 4 0.0001 0.0001 -0.0011 32.9938 0.0000 -13.2634
# 5 -32.4239 -21.9989 -38.3287 0.0000 43.4334 0.0001
# 6 0.0000 0.0001 -0.0001 -13.2634 0.0001 42.4739
#
#
#
# Elastic Compliance Matrix: (Units=1/GPa)
#
#
# Indices 1 2 3 4 5 6 
#
# 1 0.040442 -0.011969 0.002784 0.000000 0.026585 0.000000
# 2 -0.011969 0.016933 -0.005432 0.000000 -0.005152 0.000000
# 3 0.002784 -0.005432 0.022455 0.000001 0.019143 0.000000
# 4 0.000000 0.000000 0.000001 0.034660 0.000001 0.010823
# 5 0.026585 -0.005152 0.019143 0.000001 0.057154 0.000000
# 6 0.000000 0.000000 0.000000 0.010823 0.000000 0.026924
#
#
# Mechanical properties :
#
#
# Convention : Reuss Voigt Hill
#
# Bulk Modulus (GPa) = 19.76408 48.88126 34.32267
# Shear Modulus (GPa) = 20.43611 32.04172 26.23892
#
# Velocity S-wave (km/s) = 2.91239 3.64678 3.30008
# Velocity P-wave (km/s) = 4.41730 6.16605 5.36343
#
# Compressibility (1/GPa) = 0.05059685
#
# Stress axis : x y z
#
# Youngs Moduli (GPa) = 24.72700 59.05735 44.53336
#
# Poissons Ratio (x) = 0.70684 -0.12399
# Poissons Ratio (y) = 0.29595 0.24189
# Poissons Ratio (z) = -0.06884 0.32078
#
# Static dielectric constant tensor:
#      x y z
#    x 4.111960 0.000000 -0.205630 
#    y 0.000000 4.127680 0.000000 
#    z -0.205630 0.000000 4.001370 
# 
# 
# High freq. dielectric constant tensor:
#      x y z
#    x 1.958230 0.000000 -0.007820 
#    y 0.000000 1.944180 0.000000 
#    z -0.007820 0.000000 1.950420 
# 
# From -- ./inp_files/117811.got.cif
#   From: 2010.06.25/outbox.cif.g09.slc.cpg/sg15_59_cif.got.tgz:117811.got - 2010.06.28 07:06:18.
