data_PCOD8151418
_publ_section_title
;
Structure prediction by ZEFSAII (Michael W. Deem and Ramdas Pophale) SiO2 
 PCOD8151418
Probable space group: C 2/C
;
_chemical_formula_sum "Si O2"
_cell_formula_units_Z 44
_cell_length_a 12.393966
_cell_length_b 22.970510
_cell_length_c 10.190989
_cell_angle_alpha 90.000000
_cell_angle_beta 129.168063
_cell_angle_gamma 90.000000
_cell_volume 2249.392210
_symmetry_space_group_name_H-M "C 2/C"
_symmetry_group_IT_number 15
_symmetry_cell_setting 'monoclinic'
loop_
_space_group_symop_operation_xyz
x,y,z
-x,y,1/2-z
-x,-y,-z
x,-y,1/2+z
1/2+x,1/2+y,z
1/2-x,1/2+y,1/2-z
1/2-x,1/2-y,-z
1/2+x,1/2-y,1/2+z
loop_
_atom_site_type_symbol
_atom_site_label
_atom_site_fract_x
_atom_site_fract_y
_atom_site_fract_z
Si Si1 0.591637 0.018018 0.445182
Si Si2 0.161306 0.602746 0.903920
Si Si3 0.225320 0.712353 0.107827
Si Si4 0.244567 0.625429 0.680924
Si Si5 0.000000 0.180357 0.750000
Si Si6 0.424387 0.758323 0.470007
O O1 0.500000 0.037927 0.250000
O O2 0.693952 0.069845 0.560712
O O3 0.500000 0.000000 0.500000
O O4 0.683523 0.962585 0.472402
O O5 0.248429 0.612663 0.838822
O O6 0.000000 0.615933 0.750000
O O7 0.212596 0.644935 0.058810
O O8 0.357888 0.720826 0.302105
O O9 0.250000 0.750000 0.000000
O O10 0.089007 0.735297 0.076400
O O11 0.401827 0.639258 0.761476
O O12 0.142827 0.678468 0.569052
O O13 0.902807 0.221533 0.585762
#
# Coordination Sequence:
#
# PCOD8151418 Si02
#       6
#     8   8   8   8   4   8
#     4  11  22  40  70 102 127 169 232 280 332 387
#     4  11  20  41  67  99 129 165 228 278 331 396
#     4  12  21  38  69  99 132 174 217 279 343 400
#     4  12  24  43  66  93 138 174 218 285 327 401
#     4  12  28  44  58 100 138 182 220 272 344 408
#     4  12  24  41  65  96 138 175 220 270 339 406
#
# _framework density 19.560839000000001
#
# number of rings (size 3 to 8) (size 9 to 14) (size 15 to 20)
#    0.000    0.364    9.091    1.091    1.273    1.455 
#    0.000    0.909    4.000    0.000    0.000    0.000 
#    0.000    0.000    0.000    0.000    0.000    0.000 
#
# Total GULP energy -272906.011623 kJ/mol
# GULP energy per Si atom -12404.818710 kJ/mol
# Density = 1.951632 g / cm^3
# Si number density = 19.560839 Si / 1000 Ang^3
#
#
#
# Elastic Constant Matrix: (Units=GPa)
#
#
# Indices 1 2 3 4 5 6 
#
# 1 112.9339 34.4429 19.6293 0.0000 -18.1020 0.0000
# 2 34.4429 147.2231 53.7972 0.0000 -5.3473 0.0000
# 3 19.6293 53.7972 118.5821 0.0000 -18.5742 0.0000
# 4 0.0000 0.0000 0.0000 45.9306 0.0000 -9.1375
# 5 -18.1020 -5.3473 -18.5742 0.0000 25.3971 0.0000
# 6 0.0000 0.0000 0.0000 -9.1375 0.0000 24.9991
#
#
#
# Elastic Compliance Matrix: (Units=1/GPa)
#
#
# Indices 1 2 3 4 5 6 
#
# 1 0.010704 -0.002413 0.000495 0.000000 0.007484 0.000000
# 2 -0.002413 0.008714 -0.003993 0.000000 -0.002806 0.000000
# 3 0.000495 -0.003993 0.011391 0.000000 0.007843 0.000000
# 4 0.000000 0.000000 0.000000 0.023479 0.000000 0.008582
# 5 0.007484 -0.002806 0.007843 0.000000 0.049854 0.000000
# 6 0.000000 0.000000 0.000000 0.008582 0.000000 0.043138
#
#
# Mechanical properties :
#
#
# Convention : Reuss Voigt Hill
#
# Bulk Modulus (GPa) = 52.66910 66.05309 59.36110
# Shear Modulus (GPa) = 30.22363 37.32334 33.77348
#
# Velocity S-wave (km/s) = 3.93505 4.37288 4.15973
# Velocity P-wave (km/s) = 6.90148 7.70308 7.31327
#
# Compressibility (1/GPa) = 0.01898646
#
# Stress axis : x y z
#
# Youngs Moduli (GPa) = 93.42085 114.75282 87.78667
#
# Poissons Ratio (x) = 0.27694 -0.04347
# Poissons Ratio (y) = 0.22546 0.35057
# Poissons Ratio (z) = -0.04626 0.45826
#
# Static dielectric constant tensor:
#      x y z
#    x 3.647770 0.000000 -0.330770 
#    y 0.000000 3.880950 0.000000 
#    z -0.330770 0.000000 3.652000 
# 
# 
# High freq. dielectric constant tensor:
#      x y z
#    x 1.762140 0.000000 -0.020540 
#    y 0.000000 1.770160 0.000000 
#    z -0.020540 0.000000 1.761680 
# 
# From -- ./inp_files/32445.got.cif
#   From: 2010.06.25/outbox.cif.g09.slc.cpg/sg15_17_cif.got.tgz:32445.got - 2010.06.28 07:06:18.
