data_PCOD8151312
_publ_section_title
;
Structure prediction by ZEFSAII (Michael W. Deem and Ramdas Pophale) SiO2 
 PCOD8151312
Probable space group: C 2/C
;
_chemical_formula_sum "Si O2"
_cell_formula_units_Z 32
_cell_length_a 19.906706
_cell_length_b 7.958648
_cell_length_c 12.952892
_cell_angle_alpha 90.000000
_cell_angle_beta 39.949615
_cell_angle_gamma 90.000000
_cell_volume 1317.702559
_symmetry_space_group_name_H-M "C 2/C"
_symmetry_group_IT_number 15
_symmetry_cell_setting 'monoclinic'
loop_
_space_group_symop_operation_xyz
x,y,z
-x,y,1/2-z
-x,-y,-z
x,-y,1/2+z
1/2+x,1/2+y,z
1/2-x,1/2+y,1/2-z
1/2-x,1/2-y,-z
1/2+x,1/2-y,1/2+z
loop_
_atom_site_type_symbol
_atom_site_label
_atom_site_fract_x
_atom_site_fract_y
_atom_site_fract_z
Si Si1 0.650685 0.460809 0.052156
Si Si2 0.439393 0.203309 0.480358
Si Si3 0.883990 0.542334 0.743885
Si Si4 0.479712 0.385919 0.631040
O O1 0.634596 0.272770 0.023480
O O2 0.592577 0.466759 0.232160
O O3 0.597378 0.594716 0.036078
O O4 0.771538 0.502920 0.923728
O O5 0.541789 0.113584 0.314174
O O6 0.474313 0.367583 0.510967
O O7 0.378293 0.068026 0.624868
O O8 0.931294 0.712902 0.735545
#
# Coordination Sequence:
#
# PCOD8151312 Si02
#       4
#     8   8   8   8
#     4  11  20  38  68  88 124 172 197 258 330 349
#     4   9  21  38  62  92 129 153 220 252 304 382
#     4   9  21  39  62  94 125 160 212 259 309 370
#     4   9  21  39  58  96 125 156 215 259 298 385
#
# _framework density 24.284692
#
# number of rings (size 3 to 8) (size 9 to 14) (size 15 to 20)
#    1.500    1.000    0.000    1.500    3.500    0.000 
#    0.000   10.000    0.000    0.000    0.000    0.000 
#    0.000    0.000    0.000    0.000    0.000    0.000 
#
# Total GULP energy -198271.011726 kJ/mol
# GULP energy per Si atom -12391.938233 kJ/mol
# Density = 2.422942 g / cm^3
# Si number density = 24.284692 Si / 1000 Ang^3
#
#
#
# Elastic Constant Matrix: (Units=GPa)
#
#
# Indices 1 2 3 4 5 6 
#
# 1 46.6411 18.8268 31.7980 -0.0005 5.2708 0.0007
# 2 18.8268 88.9491 14.3703 -0.0023 -5.8399 0.0029
# 3 31.7980 14.3703 104.0870 -0.0015 -8.7501 0.0020
# 4 -0.0005 -0.0023 -0.0015 35.3068 0.0008 -5.6946
# 5 5.2708 -5.8399 -8.7501 0.0008 42.8845 -0.0010
# 6 0.0007 0.0029 0.0020 -5.6946 -0.0010 33.3104
#
#
#
# Elastic Compliance Matrix: (Units=1/GPa)
#
#
# Indices 1 2 3 4 5 6 
#
# 1 0.030564 -0.005412 -0.009124 0.000000 -0.006355 0.000000
# 2 -0.005412 0.012525 0.000126 0.000001 0.002396 -0.000001
# 3 -0.009124 0.000126 0.012691 0.000000 0.003728 0.000000
# 4 0.000000 0.000001 0.000000 0.029126 0.000000 0.004979
# 5 -0.006355 0.002396 0.003728 0.000000 0.025187 0.000000
# 6 0.000000 -0.000001 0.000000 0.004979 0.000000 0.030872
#
#
# Mechanical properties :
#
#
# Convention : Reuss Voigt Hill
#
# Bulk Modulus (GPa) = 37.09465 41.07417 39.08441
# Shear Modulus (GPa) = 27.96869 33.94578 30.95724
#
# Velocity S-wave (km/s) = 3.39735 3.74281 3.57426
# Velocity P-wave (km/s) = 5.54052 5.96896 5.75873
#
# Compressibility (1/GPa) = 0.02695806
#
# Stress axis : x y z
#
# Youngs Moduli (GPa) = 32.71866 79.84059 78.79763
#
# Poissons Ratio (x) = 0.43212 0.71895
# Poissons Ratio (y) = 0.17708 -0.00990
# Poissons Ratio (z) = 0.29853 -0.01003
#
# Static dielectric constant tensor:
#      x y z
#    x 3.855530 0.000000 0.178120 
#    y 0.000000 4.416070 0.000000 
#    z 0.178120 0.000000 4.097310 
# 
# 
# High freq. dielectric constant tensor:
#      x y z
#    x 1.934650 0.000000 0.021640 
#    y 0.000000 1.983150 0.000000 
#    z 0.021640 0.000000 1.962000 
# 
# From -- ./inp_files/165555.got.cif
#   From: 2010.06.25/outbox.cif.g09.slc.cpg/sg15_83_cif.got.tgz:165555.got - 2010.06.28 07:06:18.
