data_PCOD8151860
_publ_section_title
;
Structure prediction by ZEFSAII (Michael W. Deem and Ramdas Pophale) SiO2 
 PCOD8151860
Probable space group: C 2/C
;
_chemical_formula_sum "Si O2"
_cell_formula_units_Z 36
_cell_length_a 20.295088
_cell_length_b 15.053758
_cell_length_c 9.825915
_cell_angle_alpha 90.000000
_cell_angle_beta 35.177619
_cell_angle_gamma 90.000000
_cell_volume 1729.484226
_symmetry_space_group_name_H-M "C 2/C"
_symmetry_group_IT_number 15
_symmetry_cell_setting 'monoclinic'
loop_
_space_group_symop_operation_xyz
x,y,z
-x,y,1/2-z
-x,-y,-z
x,-y,1/2+z
1/2+x,1/2+y,z
1/2-x,1/2+y,1/2-z
1/2-x,1/2-y,-z
1/2+x,1/2-y,1/2+z
loop_
_atom_site_type_symbol
_atom_site_label
_atom_site_fract_x
_atom_site_fract_y
_atom_site_fract_z
Si Si1 0.500000 0.084443 0.250000
Si Si2 0.185888 0.014224 0.192173
Si Si3 0.365172 0.196551 0.284012
Si Si4 0.333977 0.019193 0.200295
Si Si5 0.987064 0.867647 0.108870
O O1 0.394926 0.142794 0.371556
O O2 0.453467 0.024865 0.453080
O O3 0.234555 0.000781 0.259891
O O4 0.099354 0.097391 0.341388
O O5 0.122102 0.926012 0.248886
O O6 0.291980 0.028756 0.910176
O O7 0.250000 0.250000 0.500000
O O8 0.353274 0.125713 0.181990
O O9 0.466719 0.267746 0.087895
O O10 0.000000 0.870187 0.250000
#
# Coordination Sequence:
#
# PCOD8151860 Si02
#       5
#     4   8   8   8   8
#     4  12  26  44  72  96 138 186 226 280 344 410
#     4  11  23  41  72  99 139 173 229 278 346 402
#     4  12  23  43  70 101 138 179 231 278 343 405
#     4  12  24  45  67 101 135 184 224 277 344 407
#     4  11  21  41  71 105 130 180 227 283 336 407
#
# _framework density 20.815455
#
# number of rings (size 3 to 8) (size 9 to 14) (size 15 to 20)
#    0.000    0.444    7.778    0.667    0.000    0.000 
#    0.000    5.556    0.000    0.000    0.000    0.000 
#    0.000    0.000    0.000    0.000    0.000    0.000 
#
# Total GULP energy -223211.469119 kJ/mol
# GULP energy per Si atom -12400.637173 kJ/mol
# Density = 2.076808 g / cm^3
# Si number density = 20.815455 Si / 1000 Ang^3
#
#
#
# Elastic Constant Matrix: (Units=GPa)
#
#
# Indices 1 2 3 4 5 6 
#
# 1 107.1420 49.5449 11.8134 0.0000 8.2040 0.0000
# 2 49.5449 154.3647 66.4762 0.0000 -2.8317 0.0000
# 3 11.8134 66.4762 125.8896 0.0000 -1.1292 0.0000
# 4 0.0000 0.0000 0.0000 25.3012 0.0000 2.0366
# 5 8.2040 -2.8317 -1.1292 0.0000 26.7365 0.0000
# 6 0.0000 0.0000 0.0000 2.0366 0.0000 40.1880
#
#
#
# Elastic Compliance Matrix: (Units=1/GPa)
#
#
# Indices 1 2 3 4 5 6 
#
# 1 0.011469 -0.004238 0.001127 0.000000 -0.003921 0.000000
# 2 -0.004238 0.009964 -0.004845 0.000000 0.002151 0.000000
# 3 0.001127 -0.004845 0.010392 0.000000 -0.000420 0.000000
# 4 0.000000 0.000000 0.000000 0.039686 0.000000 -0.002011
# 5 -0.003921 0.002151 -0.000420 0.000000 0.038815 0.000000
# 6 0.000000 0.000000 0.000000 -0.002011 0.000000 0.024985
#
#
# Mechanical properties :
#
#
# Convention : Reuss Voigt Hill
#
# Bulk Modulus (GPa) = 62.84128 71.45170 67.14649
# Shear Modulus (GPa) = 31.94310 35.74928 33.84619
#
# Velocity S-wave (km/s) = 3.92163 4.14870 4.03676
# Velocity P-wave (km/s) = 7.12466 7.57296 7.35223
#
# Compressibility (1/GPa) = 0.01591311
#
# Stress axis : x y z
#
# Youngs Moduli (GPa) = 87.18965 100.35893 96.22610
#
# Poissons Ratio (x) = 0.42535 -0.10841
# Poissons Ratio (y) = 0.36953 0.46618
# Poissons Ratio (z) = -0.09823 0.48620
#
# Static dielectric constant tensor:
#      x y z
#    x 4.027640 0.000000 -0.152470 
#    y 0.000000 4.075060 0.000000 
#    z -0.152470 0.000000 3.688260 
# 
# 
# High freq. dielectric constant tensor:
#      x y z
#    x 1.842490 0.000000 -0.017910 
#    y 0.000000 1.814000 0.000000 
#    z -0.017910 0.000000 1.795400 
# 
# From -- ./inp_files/55572.got.cif
#   From: 2010.06.25/outbox.cif.g09.slc.cpg/sg15_28_cif.got.tgz:55572.got - 2010.06.28 07:06:18.
