data_PCOD8151618
_publ_section_title
;
Structure prediction by ZEFSAII (Michael W. Deem and Ramdas Pophale) SiO2 
 PCOD8151618
Probable space group: C 2/C
;
_chemical_formula_sum "Si O2"
_cell_formula_units_Z 48
_cell_length_a 20.189272
_cell_length_b 8.644494
_cell_length_c 18.960335
_cell_angle_alpha 90.000000
_cell_angle_beta 47.855021
_cell_angle_gamma 90.000000
_cell_volume 2453.509285
_symmetry_space_group_name_H-M "C 2/C"
_symmetry_group_IT_number 15
_symmetry_cell_setting 'monoclinic'
loop_
_space_group_symop_operation_xyz
x,y,z
-x,y,1/2-z
-x,-y,-z
x,-y,1/2+z
1/2+x,1/2+y,z
1/2-x,1/2+y,1/2-z
1/2-x,1/2-y,-z
1/2+x,1/2-y,1/2+z
loop_
_atom_site_type_symbol
_atom_site_label
_atom_site_fract_x
_atom_site_fract_y
_atom_site_fract_z
Si Si1 0.266364 0.075477 0.305475
Si Si2 0.831278 0.149459 0.529385
Si Si3 0.847950 0.842706 0.858758
Si Si4 0.550043 0.069355 0.778058
Si Si5 0.248074 0.063965 0.665966
Si Si6 0.429195 0.932374 0.496755
O O1 0.265892 0.257930 0.309456
O O2 0.191522 0.007137 0.411958
O O3 0.365070 0.021710 0.254800
O O4 0.244939 0.028706 0.241282
O O5 0.872741 0.113990 0.422240
O O6 0.741598 0.243745 0.580728
O O7 0.897091 0.253943 0.531812
O O8 0.925025 0.742736 0.766019
O O9 0.831710 0.001099 0.826779
O O10 0.500000 0.980532 0.750000
O O11 0.472495 0.073429 0.890039
O O12 0.343292 0.043554 0.559317
O O13 0.500000 0.000000 0.500000
#
# Coordination Sequence:
#
# PCOD8151618 Si02
#       6
#     8   8   8   8   8   8
#     4  11  23  40  62  89 126 168 212 257 313 379
#     4   9  19  37  60  86 118 162 208 248 306 378
#     4   9  19  37  61  84 115 162 208 248 309 376
#     4  11  21  39  64  89 122 164 206 257 314 370
#     4  11  23  40  61  89 125 167 211 258 313 382
#     4  11  21  37  64  91 124 163 210 261 311 364
#
# _framework density 19.563813
#
# number of rings (size 3 to 8) (size 9 to 14) (size 15 to 20)
#    0.000    1.667    3.333    3.000    2.333    0.667 
#    0.000    3.333    0.000    0.000    0.000    0.000 
#    0.000    0.000    0.000    0.000    0.000    0.000 
#
# Total GULP energy -297444.185690 kJ/mol
# GULP energy per Si atom -12393.507737 kJ/mol
# Density = 1.951929 g / cm^3
# Si number density = 19.563813 Si / 1000 Ang^3
#
#
#
# Elastic Constant Matrix: (Units=GPa)
#
#
# Indices 1 2 3 4 5 6 
#
# 1 71.4641 23.3667 15.6871 0.0000 11.1998 0.0000
# 2 23.3667 127.5885 42.8280 0.0000 9.3749 0.0000
# 3 15.6871 42.8280 129.2795 0.0000 13.6258 0.0000
# 4 0.0000 0.0000 0.0000 29.4354 0.0000 3.5265
# 5 11.1998 9.3749 13.6258 0.0000 27.1450 0.0000
# 6 0.0000 0.0000 0.0000 3.5265 0.0000 26.1798
#
#
#
# Elastic Compliance Matrix: (Units=1/GPa)
#
#
# Indices 1 2 3 4 5 6 
#
# 1 0.015715 -0.002286 -0.000580 0.000000 -0.005403 0.000000
# 2 -0.002286 0.009223 -0.002684 0.000000 -0.000895 0.000000
# 3 -0.000580 -0.002684 0.009051 0.000000 -0.003377 0.000000
# 4 0.000000 0.000000 0.000000 0.034530 0.000000 -0.004651
# 5 -0.005403 -0.000895 -0.003377 0.000000 0.041073 0.000000
# 6 0.000000 0.000000 0.000000 -0.004651 0.000000 0.038824
#
#
# Mechanical properties :
#
#
# Convention : Reuss Voigt Hill
#
# Bulk Modulus (GPa) = 43.69051 54.67731 49.18391
# Shear Modulus (GPa) = 29.91432 32.98205 31.44818
#
# Velocity S-wave (km/s) = 3.91457 4.11039 4.01367
# Velocity P-wave (km/s) = 6.54313 7.10886 6.83186
#
# Compressibility (1/GPa) = 0.02288827
#
# Stress axis : x y z
#
# Youngs Moduli (GPa) = 63.63479 108.42452 110.49087
#
# Poissons Ratio (x) = 0.24789 0.06408
# Poissons Ratio (y) = 0.14549 0.29652
# Poissons Ratio (z) = 0.03691 0.29098
#
# Static dielectric constant tensor:
#      x y z
#    x 3.815480 0.000000 -0.168790 
#    y 0.000000 3.772280 0.000000 
#    z -0.168790 0.000000 3.714020 
# 
# 
# High freq. dielectric constant tensor:
#      x y z
#    x 1.761700 0.000000 0.007320 
#    y 0.000000 1.738160 0.000000 
#    z 0.007320 0.000000 1.778340 
# 
# From -- ./inp_files/180705.got.cif
#   From: 2010.06.25/outbox.cif.g09.slc.cpg/sg15_91_cif.got.tgz:180705.got - 2010.06.28 07:06:18.
