data_PCOD8151835
_publ_section_title
;
Structure prediction by ZEFSAII (Michael W. Deem and Ramdas Pophale) SiO2 
 PCOD8151835
Probable space group: C 2/C
;
_chemical_formula_sum "Si O2"
_cell_formula_units_Z 64
_cell_length_a 19.647646
_cell_length_b 9.104890
_cell_length_c 17.363030
_cell_angle_alpha 90.000000
_cell_angle_beta 93.239325
_cell_angle_gamma 90.000000
_cell_volume 3101.103633
_symmetry_space_group_name_H-M "C 2/C"
_symmetry_group_IT_number 15
_symmetry_cell_setting 'monoclinic'
loop_
_space_group_symop_operation_xyz
x,y,z
-x,y,1/2-z
-x,-y,-z
x,-y,1/2+z
1/2+x,1/2+y,z
1/2-x,1/2+y,1/2-z
1/2-x,1/2-y,-z
1/2+x,1/2-y,1/2+z
loop_
_atom_site_type_symbol
_atom_site_label
_atom_site_fract_x
_atom_site_fract_y
_atom_site_fract_z
Si Si1 0.895515 0.442684 0.081082
Si Si2 0.869999 0.454755 0.412548
Si Si3 0.725641 0.606893 0.959124
Si Si4 0.514808 0.724876 0.064603
Si Si5 0.386750 0.257426 0.152922
Si Si6 0.360309 0.766738 0.823648
Si Si7 0.246964 0.856142 0.070555
Si Si8 0.487248 0.608237 0.893355
O O1 0.956038 0.326395 0.099574
O O2 0.907235 0.597969 0.122392
O O3 0.822918 0.384936 0.107026
O O4 0.894287 0.461059 0.989763
O O5 0.788055 0.439149 0.407955
O O6 0.884416 0.566155 0.342997
O O7 0.912507 0.302692 0.410668
O O8 0.658197 0.641654 0.906859
O O9 0.750000 0.750000 0.000000
O O10 0.710077 0.498101 0.030100
O O11 0.512048 0.566885 0.103172
O O12 0.505137 0.696818 0.973031
O O13 0.348830 0.244988 0.231812
O O14 0.457161 0.344973 0.166651
O O15 0.290731 0.718798 0.860589
O O16 0.414019 0.650834 0.858202
O O17 0.250000 0.750000 0.000000
#
# Coordination Sequence:
#
# PCOD8151835 Si02
#       8
#     8   8   8   8   8   8   8   8
#     4  11  21  41  67  97 126 169 221 259 314 393
#     4  11  21  41  67  97 126 169 221 259 314 393
#     4  11  22  41  68  95 127 168 220 265 308 386
#     4  11  22  38  72  99 120 174 225 267 310 381
#     4  12  26  43  65  96 135 171 209 274 338 379
#     4  12  26  43  65  96 135 171 209 274 338 379
#     4  11  22  41  68  95 127 168 220 265 308 386
#     4  11  24  39  65 100 132 163 221 271 322 384
#
# _framework density 20.637815
#
# number of rings (size 3 to 8) (size 9 to 14) (size 15 to 20)
#    0.000    0.750    7.500    1.500    7.000    1.000 
#    0.000    2.500    0.000    0.000    0.000    0.000 
#    0.000    0.000    0.000    0.000    0.000    0.000 
#
# Total GULP energy -396646.925904 kJ/mol
# GULP energy per Si atom -12395.216434 kJ/mol
# Density = 2.059084 g / cm^3
# Si number density = 20.637815 Si / 1000 Ang^3
#
#
#
# Elastic Constant Matrix: (Units=GPa)
#
#
# Indices 1 2 3 4 5 6 
#
# 1 91.9188 34.9567 2.6509 0.0000 -12.9361 0.0000
# 2 34.9567 121.1648 12.5186 0.0000 -6.0632 0.0000
# 3 2.6509 12.5186 49.2378 0.0000 -16.1899 0.0000
# 4 0.0000 0.0000 0.0000 18.4870 0.0000 -6.9623
# 5 -12.9361 -6.0632 -16.1899 0.0000 23.4896 0.0000
# 6 0.0000 0.0000 0.0000 -6.9623 0.0000 40.8580
#
#
#
# Elastic Compliance Matrix: (Units=1/GPa)
#
#
# Indices 1 2 3 4 5 6 
#
# 1 0.013419 -0.003759 0.003031 0.000000 0.008509 0.000000
# 2 -0.003759 0.009544 -0.002709 0.000000 -0.001473 0.000000
# 3 0.003031 -0.002709 0.027353 0.000000 0.019823 0.000000
# 4 0.000000 0.000000 0.000000 0.057802 0.000000 0.009850
# 5 0.008509 -0.001473 0.019823 0.000000 0.060540 0.000000
# 6 0.000000 0.000000 0.000000 0.009850 0.000000 0.026153
#
#
# Mechanical properties :
#
#
# Convention : Reuss Voigt Hill
#
# Bulk Modulus (GPa) = 23.01883 40.28600 31.65242
# Shear Modulus (GPa) = 23.13057 30.71325 26.92191
#
# Velocity S-wave (km/s) = 3.35145 3.86191 3.61570
# Velocity P-wave (km/s) = 5.11412 6.28081 5.72725
#
# Compressibility (1/GPa) = 0.04344269
#
# Stress axis : x y z
#
# Youngs Moduli (GPa) = 74.52305 104.78053 36.55910
#
# Poissons Ratio (x) = 0.39384 -0.11081
# Poissons Ratio (y) = 0.28011 0.09902
# Poissons Ratio (z) = -0.22588 0.28381
#
# Static dielectric constant tensor:
#      x y z
#    x 3.243840 0.000000 0.270620 
#    y 0.000000 3.722270 0.000000 
#    z 0.270620 0.000000 3.328460 
# 
# 
# High freq. dielectric constant tensor:
#      x y z
#    x 1.817840 0.000000 -0.008990 
#    y 0.000000 1.826240 0.000000 
#    z -0.008990 0.000000 1.771740 
# 
# From -- ./inp_files/213897.got.cif
#   From: 2010.06.25/outbox.cif.g09.slc.cpg/sg15_107_cif.got.tgz:213897.got - 2010.06.28 07:06:18.
