data_PCOD8151893
_publ_section_title
;
Structure prediction by ZEFSAII (Michael W. Deem and Ramdas Pophale) SiO2 
 PCOD8151893
Probable space group: C 2/C
;
_chemical_formula_sum "Si O2"
_cell_formula_units_Z 64
_cell_length_a 17.285782
_cell_length_b 9.628790
_cell_length_c 29.692310
_cell_angle_alpha 90.000000
_cell_angle_beta 38.712931
_cell_angle_gamma 90.000000
_cell_volume 3090.833758
_symmetry_space_group_name_H-M "C 2/C"
_symmetry_group_IT_number 15
_symmetry_cell_setting 'monoclinic'
loop_
_space_group_symop_operation_xyz
x,y,z
-x,y,1/2-z
-x,-y,-z
x,-y,1/2+z
1/2+x,1/2+y,z
1/2-x,1/2+y,1/2-z
1/2-x,1/2-y,-z
1/2+x,1/2-y,1/2+z
loop_
_atom_site_type_symbol
_atom_site_label
_atom_site_fract_x
_atom_site_fract_y
_atom_site_fract_z
Si Si1 0.862390 0.907414 0.322104
Si Si2 0.083141 0.605003 0.172231
Si Si3 0.798465 0.358782 0.187949
Si Si4 0.323077 0.515838 0.521551
Si Si5 0.954388 0.263013 0.966709
Si Si6 0.532126 0.208697 0.529574
Si Si7 0.114725 0.357116 0.814513
Si Si8 0.774072 0.512891 0.531897
O O1 0.855375 0.744423 0.336523
O O2 0.779564 0.932749 0.315944
O O3 0.000000 0.959020 0.250000
O O4 0.815748 0.001599 0.384551
O O5 0.193837 0.503669 0.106937
O O6 0.000000 0.535846 0.250000
O O7 0.998747 0.645671 0.168489
O O8 0.838990 0.484439 0.202225
O O9 0.722885 0.243560 0.249161
O O10 0.914164 0.273625 0.115374
O O11 0.425335 0.399227 0.485261
O O12 0.381887 0.657167 0.512009
O O13 0.301825 0.525179 0.477875
O O14 0.069543 0.292649 0.882046
O O15 0.828608 0.331313 0.004212
O O16 0.986648 0.329548 0.000266
O O17 0.607582 0.083633 0.516766
#
# Coordination Sequence:
#
# PCOD8151893 Si02
#       8
#     8   8   8   8   8   8   8   8
#     4  11  22  40  72  95 122 178 231 264 314 395
#     4  11  21  42  67  93 130 176 217 265 332 391
#     4  12  25  44  66  99 135 173 214 274 337 392
#     4  12  25  40  68 103 131 171 226 272 320 393
#     4  12  23  42  68  97 127 174 232 262 316 398
#     4  12  26  44  65  99 141 175 207 279 345 375
#     4  12  26  41  68  99 132 172 220 276 330 390
#     4  12  22  43  68  94 132 174 223 268 320 393
#
# _framework density 20.706385999999998
#
# number of rings (size 3 to 8) (size 9 to 14) (size 15 to 20)
#    0.000    0.250    7.500    3.000    1.750    1.000 
#    0.000    0.625    0.000    0.000    0.000    0.000 
#    0.000    0.000    0.000    0.000    0.000    0.000 
#
# Total GULP energy -396984.945776 kJ/mol
# GULP energy per Si atom -12405.779555 kJ/mol
# Density = 2.065926 g / cm^3
# Si number density = 20.706386 Si / 1000 Ang^3
#
#
#
# Elastic Constant Matrix: (Units=GPa)
#
#
# Indices 1 2 3 4 5 6 
#
# 1 60.0737 15.4910 9.9074 -0.0005 3.2698 0.0008
# 2 15.4910 54.6021 38.4159 -0.0024 -0.7156 0.0001
# 3 9.9074 38.4159 162.6698 0.0003 -4.3310 0.0010
# 4 -0.0005 -0.0024 0.0003 23.9273 0.0007 -0.7349
# 5 3.2698 -0.7156 -4.3310 0.0007 33.1048 0.0000
# 6 0.0008 0.0001 0.0010 -0.7349 0.0000 20.3325
#
#
#
# Elastic Compliance Matrix: (Units=1/GPa)
#
#
# Indices 1 2 3 4 5 6 
#
# 1 0.018079 -0.005209 0.000079 0.000000 -0.001888 -0.000001
# 2 -0.005209 0.023466 -0.005215 0.000002 0.000339 0.000000
# 3 0.000079 -0.005215 0.007397 -0.000001 0.000847 0.000000
# 4 0.000000 0.000002 -0.000001 0.041840 -0.000001 0.001512
# 5 -0.001888 0.000339 0.000847 -0.000001 0.030512 0.000000
# 6 -0.000001 0.000000 0.000000 0.001512 0.000000 0.049237
#
#
# Mechanical properties :
#
#
# Convention : Reuss Voigt Hill
#
# Bulk Modulus (GPa) = 35.39791 44.99713 40.19752
# Shear Modulus (GPa) = 24.92033 29.70834 27.31434
#
# Velocity S-wave (km/s) = 3.47293 3.79191 3.63592
# Velocity P-wave (km/s) = 5.76315 6.39919 6.08948
#
# Compressibility (1/GPa) = 0.02825026
#
# Stress axis : x y z
#
# Youngs Moduli (GPa) = 55.31183 42.61470 135.19294
#
# Poissons Ratio (x) = 0.22200 -0.01066
# Poissons Ratio (y) = 0.28814 0.70509
# Poissons Ratio (z) = -0.00436 0.22225
#
# Static dielectric constant tensor:
#      x y z
#    x 3.782930 0.000000 0.039270 
#    y 0.000000 3.488830 0.000000 
#    z 0.039270 0.000000 4.055880 
# 
# 
# High freq. dielectric constant tensor:
#      x y z
#    x 1.820280 0.000000 0.000130 
#    y 0.000000 1.790840 0.000000 
#    z 0.000130 0.000000 1.828930 
# 
# From -- ./inp_files/315674.got.cif
#   From: 2010.06.25/outbox.cif.g09.slc.cpg/sg15_158_cif.got.tgz:315674.got - 2010.06.28 07:06:18.
