data_PCOD8151664
_publ_section_title
;
Structure prediction by ZEFSAII (Michael W. Deem and Ramdas Pophale) SiO2 
 PCOD8151664
Probable space group: C 2/C
;
_chemical_formula_sum "Si O2"
_cell_formula_units_Z 48
_cell_length_a 27.465633
_cell_length_b 15.213122
_cell_length_c 9.267787
_cell_angle_alpha 90.000000
_cell_angle_beta 37.054805
_cell_angle_gamma 90.000000
_cell_volume 2333.446002
_symmetry_space_group_name_H-M "C 2/C"
_symmetry_group_IT_number 15
_symmetry_cell_setting 'monoclinic'
loop_
_space_group_symop_operation_xyz
x,y,z
-x,y,1/2-z
-x,-y,-z
x,-y,1/2+z
1/2+x,1/2+y,z
1/2-x,1/2+y,1/2-z
1/2-x,1/2-y,-z
1/2+x,1/2-y,1/2+z
loop_
_atom_site_type_symbol
_atom_site_label
_atom_site_fract_x
_atom_site_fract_y
_atom_site_fract_z
Si Si1 0.146875 0.913438 0.118063
Si Si2 0.586875 0.044803 0.322130
Si Si3 0.936349 0.738062 0.121667
Si Si4 0.102547 0.756012 0.620623
Si Si5 0.592561 0.436389 0.557652
Si Si6 0.328040 0.921604 0.585386
O O1 0.115530 0.813379 0.175249
O O2 0.138780 0.949069 0.298800
O O3 0.091784 0.973113 0.145695
O O4 0.238865 0.926651 0.857820
O O5 0.587629 0.143711 0.254980
O O6 0.606502 0.053238 0.446092
O O7 0.500000 0.000000 0.500000
O O8 0.657921 0.990760 0.076280
O O9 0.922373 0.740283 0.985182
O O10 0.032825 0.750379 0.907729
O O11 0.136022 0.856704 0.545440
O O12 0.164228 0.676191 0.503211
O O13 0.500000 0.406475 0.750000
#
# Coordination Sequence:
#
# PCOD8151664 Si02
#       6
#     8   8   8   8   8   8
#     4  11  23  38  59  90 120 150 193 245 298 337
#     4  11  21  38  63  85 118 157 197 234 287 350
#     4   9  18  35  59  84 112 153 198 234 282 344
#     4   9  17  35  60  83 109 151 203 236 272 343
#     4  11  21  38  63  85 114 157 198 237 286 353
#     4  11  23  37  60  91 120 148 192 250 293 339
#
# _framework density 20.570435
#
# number of rings (size 3 to 8) (size 9 to 14) (size 15 to 20)
#    0.000    1.667    5.000    2.000    0.000    7.333 
#    0.000    3.333    0.000    4.000    0.000    0.000 
#    0.000    0.000    0.000    0.000    0.000    0.000 
#
# Total GULP energy -297386.457047 kJ/mol
# GULP energy per Si atom -12391.102377 kJ/mol
# Density = 2.052362 g / cm^3
# Si number density = 20.570435 Si / 1000 Ang^3
#
#
#
# Elastic Constant Matrix: (Units=GPa)
#
#
# Indices 1 2 3 4 5 6 
#
# 1 24.9073 31.1401 3.2716 0.0000 -4.6594 0.0000
# 2 31.1401 189.1549 53.4478 0.0000 6.9735 0.0000
# 3 3.2716 53.4478 118.9590 0.0000 -11.0462 0.0000
# 4 0.0000 0.0000 0.0000 40.4915 0.0000 2.3509
# 5 -4.6594 6.9735 -11.0462 0.0000 17.6196 0.0000
# 6 0.0000 0.0000 0.0000 2.3509 0.0000 19.8887
#
#
#
# Elastic Compliance Matrix: (Units=1/GPa)
#
#
# Indices 1 2 3 4 5 6 
#
# 1 0.059521 -0.012472 0.006250 0.000000 0.024595 0.000000
# 2 -0.012472 0.009001 -0.004606 0.000000 -0.009748 0.000000
# 3 0.006250 -0.004606 0.011284 0.000000 0.010550 0.000000
# 4 0.000000 0.000000 0.000000 0.024867 0.000000 -0.002939
# 5 0.024595 -0.009748 0.010550 0.000000 0.073731 0.000000
# 6 0.000000 0.000000 0.000000 -0.002939 0.000000 0.050627
#
#
# Mechanical properties :
#
#
# Convention : Reuss Voigt Hill
#
# Bulk Modulus (GPa) = 17.19678 56.52672 36.86175
# Shear Modulus (GPa) = 18.51373 31.94406 25.22890
#
# Velocity S-wave (km/s) = 3.00328 3.94497 3.50589
# Velocity P-wave (km/s) = 4.51712 6.94908 5.86063
#
# Compressibility (1/GPa) = 0.05815043
#
# Stress axis : x y z
#
# Youngs Moduli (GPa) = 16.80072 111.10157 88.62460
#
# Poissons Ratio (x) = 1.38562 -0.55393
# Poissons Ratio (y) = 0.20953 0.40822
# Poissons Ratio (z) = -0.10501 0.51176
#
# Static dielectric constant tensor:
#      x y z
#    x 3.243010 0.000000 0.017740 
#    y 0.000000 4.482720 0.000000 
#    z 0.017740 0.000000 3.719330 
# 
# 
# High freq. dielectric constant tensor:
#      x y z
#    x 1.745130 0.000000 -0.003860 
#    y 0.000000 1.830980 0.000000 
#    z -0.003860 0.000000 1.807930 
# 
# From -- ./inp_files/66422.got.cif
#   From: 2010.06.25/outbox.cif.g09.slc.cpg/sg15_34_cif.got.tgz:66422.got - 2010.06.28 07:06:18.
