data_PCOD8151196
_publ_section_title
;
Structure prediction by ZEFSAII (Michael W. Deem and Ramdas Pophale) SiO2 
 PCOD8151196
Probable space group: C 2/C
;
_chemical_formula_sum "Si O2"
_cell_formula_units_Z 64
_cell_length_a 10.028870
_cell_length_b 30.123658
_cell_length_c 16.420488
_cell_angle_alpha 90.000000
_cell_angle_beta 41.232668
_cell_angle_gamma 90.000000
_cell_volume 3269.709541
_symmetry_space_group_name_H-M "C 2/C"
_symmetry_group_IT_number 15
_symmetry_cell_setting 'monoclinic'
loop_
_space_group_symop_operation_xyz
x,y,z
-x,y,1/2-z
-x,-y,-z
x,-y,1/2+z
1/2+x,1/2+y,z
1/2-x,1/2+y,1/2-z
1/2-x,1/2-y,-z
1/2+x,1/2-y,1/2+z
loop_
_atom_site_type_symbol
_atom_site_label
_atom_site_fract_x
_atom_site_fract_y
_atom_site_fract_z
Si Si1 0.820202 0.284943 0.583885
Si Si2 0.555326 0.279057 0.859558
Si Si3 0.444568 0.520565 0.689284
Si Si4 0.205807 0.571821 0.045454
Si Si5 0.394324 0.118337 0.098615
Si Si6 0.144004 0.930225 0.582542
Si Si7 0.841396 0.873193 0.632976
Si Si8 0.499625 0.018192 0.839050
O O1 0.731444 0.264988 0.711654
O O2 0.637686 0.292539 0.605218
O O3 0.926373 0.331900 0.552248
O O4 0.994097 0.256862 0.456959
O O5 0.624707 0.320405 0.882674
O O6 0.500000 0.541664 0.750000
O O7 0.580180 0.546763 0.562248
O O8 0.476702 0.467610 0.675789
O O9 0.211886 0.528319 0.781673
O O10 0.247346 0.610616 0.091391
O O11 0.112685 0.593403 0.004534
O O12 0.047933 0.534090 0.146135
O O13 0.212594 0.095808 0.131744
O O14 0.323537 0.115850 0.223827
O O15 0.344075 0.954999 0.463666
O O16 0.055328 0.896969 0.555441
O O17 0.500000 0.039425 0.750000
#
# Coordination Sequence:
#
# PCOD8151196 Si02
#       8
#     8   8   8   8   8   8   8   8
#     4   9  18  35  59  86 114 143 183 234 284 341
#     4   9  18  35  59  86 114 144 182 232 288 340
#     4  11  22  37  54  75 111 151 188 234 278 327
#     4  11  23  36  55  80 112 150 187 231 281 329
#     4  11  20  35  58  85 109 142 189 233 273 331
#     4  11  21  34  57  80 104 144 195 232 275 324
#     4  11  20  35  58  85 111 142 185 236 276 330
#     4  11  22  37  52  77 111 149 188 232 281 328
#
# _framework density 19.573604
#
# number of rings (size 3 to 8) (size 9 to 14) (size 15 to 20)
#    0.000    1.500    1.250    6.000    0.000    4.000 
#    0.000    4.375    0.000    0.000    0.000    0.000 
#    0.000    0.000    0.000    0.000    0.000    0.000 
#
# Total GULP energy -396540.402580 kJ/mol
# GULP energy per Si atom -12391.887581 kJ/mol
# Density = 1.952905 g / cm^3
# Si number density = 19.573604 Si / 1000 Ang^3
#
#
#
# Elastic Constant Matrix: (Units=GPa)
#
#
# Indices 1 2 3 4 5 6 
#
# 1 105.7638 25.1891 18.5187 0.0000 -2.8871 0.0000
# 2 25.1891 87.5290 33.7539 0.0000 3.4374 0.0000
# 3 18.5187 33.7539 57.4689 0.0000 2.4382 0.0000
# 4 0.0000 0.0000 0.0000 18.9066 0.0000 -0.0180
# 5 -2.8871 3.4374 2.4382 0.0000 30.1254 0.0000
# 6 0.0000 0.0000 0.0000 -0.0180 0.0000 19.6726
#
#
#
# Elastic Compliance Matrix: (Units=1/GPa)
#
#
# Indices 1 2 3 4 5 6 
#
# 1 0.010394 -0.002239 -0.002094 0.000000 0.001421 0.000000
# 2 -0.002239 0.015282 -0.008199 0.000000 -0.001295 0.000000
# 3 -0.002094 -0.008199 0.022939 0.000000 -0.001122 0.000000
# 4 0.000000 0.000000 0.000000 0.052892 0.000000 0.000048
# 5 0.001421 -0.001295 -0.001122 0.000000 0.033569 0.000000
# 6 0.000000 0.000000 0.000000 0.000048 0.000000 0.050832
#
#
# Mechanical properties :
#
#
# Convention : Reuss Voigt Hill
#
# Bulk Modulus (GPa) = 42.46466 45.07611 43.77038
# Shear Modulus (GPa) = 22.84951 25.29426 24.07189
#
# Velocity S-wave (km/s) = 3.42038 3.59871 3.51067
# Velocity P-wave (km/s) = 6.11069 6.35190 6.23246
#
# Compressibility (1/GPa) = 0.02354899
#
# Stress axis : x y z
#
# Youngs Moduli (GPa) = 96.21073 65.43684 43.59408
#
# Poissons Ratio (x) = 0.14653 0.09130
# Poissons Ratio (y) = 0.21545 0.35744
# Poissons Ratio (z) = 0.20150 0.53653
#
# Static dielectric constant tensor:
#      x y z
#    x 3.541140 0.000000 0.013420 
#    y 0.000000 3.505830 0.000000 
#    z 0.013420 0.000000 3.614320 
# 
# 
# High freq. dielectric constant tensor:
#      x y z
#    x 1.767040 0.000000 0.000280 
#    y 0.000000 1.746990 0.000000 
#    z 0.000280 0.000000 1.755770 
# 
# From -- ./inp_files/139809.got.cif
#   From: 2010.06.25/outbox.cif.g09.slc.cpg/sg15_70_cif.got.tgz:139809.got - 2010.06.28 07:06:18.
