data_PCOD8151639
_publ_section_title
;
Structure prediction by ZEFSAII (Michael W. Deem and Ramdas Pophale) SiO2 
 PCOD8151639
Probable space group: C 2/C
;
_chemical_formula_sum "Si O2"
_cell_formula_units_Z 52
_cell_length_a 16.834896
_cell_length_b 15.842593
_cell_length_c 19.758806
_cell_angle_alpha 90.000000
_cell_angle_beta 28.968004
_cell_angle_gamma 90.000000
_cell_volume 2552.294670
_symmetry_space_group_name_H-M "C 2/C"
_symmetry_group_IT_number 15
_symmetry_cell_setting 'monoclinic'
loop_
_space_group_symop_operation_xyz
x,y,z
-x,y,1/2-z
-x,-y,-z
x,-y,1/2+z
1/2+x,1/2+y,z
1/2-x,1/2+y,1/2-z
1/2-x,1/2-y,-z
1/2+x,1/2-y,1/2+z
loop_
_atom_site_type_symbol
_atom_site_label
_atom_site_fract_x
_atom_site_fract_y
_atom_site_fract_z
Si Si1 0.648409 0.649099 0.406335
Si Si2 0.805835 0.721058 0.070848
Si Si3 0.694950 0.703455 0.787705
Si Si4 0.955288 0.568171 0.589146
Si Si5 0.943039 0.889631 0.936593
Si Si6 0.500000 0.639578 0.250000
Si Si7 0.357948 0.002463 0.301690
O O1 0.499474 0.686286 0.562096
O O2 0.765966 0.725986 0.297303
O O3 0.578035 0.593603 0.394797
O O4 0.755641 0.588671 0.373199
O O5 0.737316 0.762494 0.191080
O O6 0.658550 0.699296 0.130340
O O7 0.925170 0.787961 0.946144
O O8 0.902124 0.636642 0.017031
O O9 0.783343 0.615495 0.702195
O O10 0.947480 0.519300 0.665477
O O11 0.000000 0.500000 0.500000
O O12 0.003266 0.917700 0.816431
O O13 0.767742 0.929142 0.083974
O O14 0.500000 0.013907 0.250000
#
# Coordination Sequence:
#
# PCOD8151639 Si02
#       7
#     8   8   8   8   8   4   8
#     4  11  23  45  70  97 134 181 236 277 342 413
#     4  11  21  38  56  97 136 178 213 272 340 416
#     4  11  21  42  70 100 130 175 231 282 340 408
#     4  12  24  40  69 100 134 174 234 283 336 404
#     4  11  23  37  64  93 136 175 221 271 339 413
#     4  12  22  32  60  92 140 170 216 262 344 408
#     4  12  27  45  65 100 144 181 224 284 348 399
#
# _framework density 20.373822000000001
#
# number of rings (size 3 to 8) (size 9 to 14) (size 15 to 20)
#    0.000    0.615    7.692    2.769    1.077    0.000 
#    0.000    0.769    0.000    0.000    0.000    0.000 
#    0.000    0.000    0.000    0.000    0.000    0.000 
#
# Total GULP energy -322382.837321 kJ/mol
# GULP energy per Si atom -12399.339897 kJ/mol
# Density = 2.032745 g / cm^3
# Si number density = 20.373822 Si / 1000 Ang^3
#
#
#
# Elastic Constant Matrix: (Units=GPa)
#
#
# Indices 1 2 3 4 5 6 
#
# 1 100.3083 55.5256 53.7726 0.0046 -7.3842 0.0009
# 2 55.5256 107.5821 59.4104 0.0113 -3.5229 -0.0006
# 3 53.7726 59.4104 118.1043 0.0044 13.7257 0.0017
# 4 0.0046 0.0113 0.0044 39.9657 0.0021 -5.8054
# 5 -7.3842 -3.5229 13.7257 0.0021 29.9001 -0.0027
# 6 0.0009 -0.0006 0.0017 -5.8054 -0.0027 23.0649
#
#
#
# Elastic Compliance Matrix: (Units=1/GPa)
#
#
# Indices 1 2 3 4 5 6 
#
# 1 0.016178 -0.005138 -0.005467 0.000000 0.005900 0.000000
# 2 -0.005138 0.015171 -0.005655 -0.000003 0.003114 0.000001
# 3 -0.005467 -0.005655 0.014826 0.000001 -0.008822 -0.000002
# 4 0.000000 -0.000003 0.000001 0.025971 -0.000002 0.006537
# 5 0.005900 0.003114 -0.008822 -0.000002 0.039319 0.000005
# 6 0.000000 0.000001 -0.000002 0.006537 0.000005 0.045001
#
#
# Mechanical properties :
#
#
# Convention : Reuss Voigt Hill
#
# Bulk Modulus (GPa) = 73.22230 73.71242 73.46736
# Shear Modulus (GPa) = 25.83472 29.07190 27.45331
#
# Velocity S-wave (km/s) = 3.56481 3.78156 3.67479
# Velocity P-wave (km/s) = 7.27745 7.43811 7.35822
#
# Compressibility (1/GPa) = 0.01365704
#
# Stress axis : x y z
#
# Youngs Moduli (GPa) = 61.81098 65.91308 67.44879
#
# Poissons Ratio (x) = 0.33864 0.36876
# Poissons Ratio (y) = 0.31756 0.38139
# Poissons Ratio (z) = 0.33794 0.37271
#
# Static dielectric constant tensor:
#      x y z
#    x 3.549110 -0.000010 0.045670 
#    y -0.000010 3.703320 0.000020 
#    z 0.045670 0.000020 3.939350 
# 
# 
# High freq. dielectric constant tensor:
#      x y z
#    x 1.767680 0.000000 0.000890 
#    y 0.000000 1.784710 0.000000 
#    z 0.000890 0.000000 1.820100 
# 
# From -- ./inp_files/249094.got.cif
#   From: 2010.06.25/outbox.cif.g09.slc.cpg/sg15_125_cif.got.tgz:249094.got - 2010.06.28 07:06:18.
