data_PCOD8151217
_publ_section_title
;
Structure prediction by ZEFSAII (Michael W. Deem and Ramdas Pophale) SiO2 
 PCOD8151217
Probable space group: C 2/C
;
_chemical_formula_sum "Si O2"
_cell_formula_units_Z 48
_cell_length_a 22.580866
_cell_length_b 10.526170
_cell_length_c 16.239744
_cell_angle_alpha 90.000000
_cell_angle_beta 141.526663
_cell_angle_gamma 90.000000
_cell_volume 2401.516200
_symmetry_space_group_name_H-M "C 2/C"
_symmetry_group_IT_number 15
_symmetry_cell_setting 'monoclinic'
loop_
_space_group_symop_operation_xyz
x,y,z
-x,y,1/2-z
-x,-y,-z
x,-y,1/2+z
1/2+x,1/2+y,z
1/2-x,1/2+y,1/2-z
1/2-x,1/2-y,-z
1/2+x,1/2-y,1/2+z
loop_
_atom_site_type_symbol
_atom_site_label
_atom_site_fract_x
_atom_site_fract_y
_atom_site_fract_z
Si Si1 0.811752 0.365669 0.097144
Si Si2 0.207142 0.117809 0.986451
Si Si3 0.500000 0.055267 0.750000
Si Si4 0.500000 0.660452 0.750000
Si Si5 0.320116 0.128174 0.801105
Si Si6 0.001871 0.352165 0.610089
Si Si7 0.208582 0.354102 0.754503
O O1 0.909586 0.352494 0.153601
O O2 0.830633 0.364950 0.214727
O O3 0.750000 0.250000 0.000000
O O4 0.768300 0.500143 0.019897
O O5 0.098350 0.085234 0.841088
O O6 0.250000 0.250000 0.000000
O O7 0.211773 0.126999 0.089412
O O8 0.501351 0.977087 0.666094
O O9 0.477096 0.738766 0.643687
O O10 0.239345 0.230559 0.736571
O O11 0.288899 0.985481 0.795247
O O12 0.423189 0.150498 0.953090
O O13 0.104328 0.333203 0.679782
#
# Coordination Sequence:
#
# PCOD8151217 Si02
#       7
#     8   8   4   4   8   8   8
#     4  11  27  43  65  98 136 173 211 271 341 394
#     4  11  20  40  64  97 125 171 227 260 324 387
#     4  11  22  41  70  94 124 178 228 266 314 396
#     4  11  20  35  68  98 128 162 218 290 314 376
#     4  11  25  42  65  99 130 170 218 270 330 389
#     4  11  21  39  69  98 121 171 231 269 312 383
#     4  11  23  40  65  95 132 170 215 271 324 387
#
# _framework density 19.987372000000001
#
# number of rings (size 3 to 8) (size 9 to 14) (size 15 to 20)
#    0.000    1.000    6.667    1.500    2.333    0.667 
#    0.000    2.500    0.000    0.000    0.000    0.000 
#    0.000    0.000    0.000    0.000    0.000    0.000 
#
# Total GULP energy -297445.990434 kJ/mol
# GULP energy per Si atom -12393.582935 kJ/mol
# Density = 1.994188 g / cm^3
# Si number density = 19.987372 Si / 1000 Ang^3
#
#
#
# Elastic Constant Matrix: (Units=GPa)
#
#
# Indices 1 2 3 4 5 6 
#
# 1 111.9599 56.6296 48.0938 0.0000 33.2320 0.0000
# 2 56.6296 125.0893 42.7191 0.0000 14.6292 0.0000
# 3 48.0938 42.7191 139.2955 0.0000 21.4148 0.0000
# 4 0.0000 0.0000 0.0000 15.1417 0.0000 10.2982
# 5 33.2320 14.6292 21.4148 0.0000 35.2056 0.0000
# 6 0.0000 0.0000 0.0000 10.2982 0.0000 25.8572
#
#
#
# Elastic Compliance Matrix: (Units=1/GPa)
#
#
# Indices 1 2 3 4 5 6 
#
# 1 0.015856 -0.005098 -0.002135 0.000000 -0.011550 0.000000
# 2 -0.005098 0.010734 -0.001749 0.000000 0.001416 0.000000
# 3 -0.002135 -0.001749 0.008860 0.000000 -0.002647 0.000000
# 4 0.000000 0.000000 0.000000 0.090578 0.000000 -0.036075
# 5 -0.011550 0.001416 -0.002647 0.000000 0.040328 0.000000
# 6 0.000000 0.000000 0.000000 -0.036075 0.000000 0.053042
#
#
# Mechanical properties :
#
#
# Convention : Reuss Voigt Hill
#
# Bulk Modulus (GPa) = 57.19613 74.58109 65.88861
# Shear Modulus (GPa) = 20.55996 30.50105 25.53050
#
# Velocity S-wave (km/s) = 3.21073 3.91066 3.57785
# Velocity P-wave (km/s) = 6.51332 7.60172 7.07847
#
# Compressibility (1/GPa) = 0.01748370
#
# Stress axis : x y z
#
# Youngs Moduli (GPa) = 63.06790 93.16064 112.87163
#
# Poissons Ratio (x) = 0.47495 0.24102
# Poissons Ratio (y) = 0.32153 0.19746
# Poissons Ratio (z) = 0.13467 0.16298
#
# Static dielectric constant tensor:
#      x y z
#    x 3.267410 0.000000 0.014230 
#    y 0.000000 3.809580 0.000000 
#    z 0.014230 0.000000 3.864910 
# 
# 
# High freq. dielectric constant tensor:
#      x y z
#    x 1.778810 0.000000 0.008230 
#    y 0.000000 1.766480 0.000000 
#    z 0.008230 0.000000 1.795200 
# 
# From -- ./inp_files/167944.got.cif
#   From: 2010.06.25/outbox.cif.g09.slc.cpg/sg15_84_cif.got.tgz:167944.got - 2010.06.28 07:06:18.
