data_PCOD8151250
_publ_section_title
;
Structure prediction by ZEFSAII (Michael W. Deem and Ramdas Pophale) SiO2 
 PCOD8151250
Probable space group: C 2/C
;
_chemical_formula_sum "Si O2"
_cell_formula_units_Z 64
_cell_length_a 21.708376
_cell_length_b 20.384682
_cell_length_c 8.105196
_cell_angle_alpha 90.000000
_cell_angle_beta 57.621334
_cell_angle_gamma 90.000000
_cell_volume 3029.064578
_symmetry_space_group_name_H-M "C 2/C"
_symmetry_group_IT_number 15
_symmetry_cell_setting 'monoclinic'
loop_
_space_group_symop_operation_xyz
x,y,z
-x,y,1/2-z
-x,-y,-z
x,-y,1/2+z
1/2+x,1/2+y,z
1/2-x,1/2+y,1/2-z
1/2-x,1/2-y,-z
1/2+x,1/2-y,1/2+z
loop_
_atom_site_type_symbol
_atom_site_label
_atom_site_fract_x
_atom_site_fract_y
_atom_site_fract_z
Si Si1 0.835556 0.256450 0.154943
Si Si2 0.360428 0.249219 0.255968
Si Si3 0.406694 0.406241 0.743247
Si Si4 0.294068 0.609102 0.867075
Si Si5 0.081706 0.042596 0.624721
Si Si6 0.757335 0.870287 0.080277
Si Si7 0.727933 0.856576 0.779987
Si Si8 0.014569 0.221026 0.409209
O O1 0.781010 0.300649 0.338860
O O2 0.804735 0.182542 0.192907
O O3 0.915767 0.257163 0.116446
O O4 0.843151 0.283284 0.957639
O O5 0.311129 0.314250 0.305304
O O6 0.337486 0.195529 0.151695
O O7 0.445417 0.266038 0.124495
O O8 0.424765 0.464349 0.845028
O O9 0.383341 0.438721 0.601635
O O10 0.474836 0.357749 0.619451
O O11 0.343058 0.362131 0.916473
O O12 0.368614 0.570781 0.798411
O O13 0.254221 0.584848 0.752492
O O14 0.238549 0.598716 0.101266
O O15 0.000000 0.072582 0.750000
O O16 0.718640 0.898362 0.965704
O O17 0.000000 0.251106 0.250000
#
# Coordination Sequence:
#
# PCOD8151250 Si02
#       8
#     8   8   8   8   8   8   8   8
#     4  11  21  37  58  84 116 156 198 254 308 371
#     4  11  21  37  58  88 118 155 200 248 311 375
#     4  12  25  41  59  82 118 171 216 263 303 355
#     4  11  21  37  60  83 113 155 203 249 302 353
#     4  12  25  44  57  83 121 163 218 265 305 350
#     4  12  21  37  61  84 112 155 206 249 306 366
#     4  11  20  37  58  85 117 149 203 245 308 369
#     4  12  24  37  56  88 123 164 209 249 314 377
#
# _framework density 21.128636
#
# number of rings (size 3 to 8) (size 9 to 14) (size 15 to 20)
#    0.000    0.500    5.000    6.000    0.000    0.000 
#    0.000    0.000    0.000    0.000    0.000    0.000 
#    0.000    1.000    5.000    1.000    0.000    0.000 
#
# Total GULP energy -396523.681612 kJ/mol
# GULP energy per Si atom -12391.365050 kJ/mol
# Density = 2.108055 g / cm^3
# Si number density = 21.128636 Si / 1000 Ang^3
#
#
#
# Elastic Constant Matrix: (Units=GPa)
#
#
# Indices 1 2 3 4 5 6 
#
# 1 116.3047 33.9752 50.4373 0.0000 16.1724 0.0000
# 2 33.9752 39.6449 36.5626 0.0000 -6.1022 0.0000
# 3 50.4373 36.5626 133.8163 0.0000 19.4938 0.0000
# 4 0.0000 0.0000 0.0000 19.8215 0.0000 6.4113
# 5 16.1724 -6.1022 19.4938 0.0000 41.9289 0.0000
# 6 0.0000 0.0000 0.0000 6.4113 0.0000 26.7265
#
#
#
# Elastic Compliance Matrix: (Units=1/GPa)
#
#
# Indices 1 2 3 4 5 6 
#
# 1 0.013229 -0.011450 -0.000935 0.000000 -0.006334 0.000000
# 2 -0.011450 0.047913 -0.011193 0.000000 0.016593 0.000000
# 3 -0.000935 -0.011193 0.011872 0.000000 -0.006788 0.000000
# 4 0.000000 0.000000 0.000000 0.054694 0.000000 -0.013120
# 5 -0.006334 0.016593 -0.006788 0.000000 0.031864 0.000000
# 6 0.000000 0.000000 0.000000 -0.013120 0.000000 0.040564
#
#
# Mechanical properties :
#
#
# Convention : Reuss Voigt Hill
#
# Bulk Modulus (GPa) = 38.67123 59.07959 48.87541
# Shear Modulus (GPa) = 19.53802 28.94810 24.24306
#
# Velocity S-wave (km/s) = 3.04422 3.70549 3.39101
# Velocity P-wave (km/s) = 5.54065 6.80662 6.20600
#
# Compressibility (1/GPa) = 0.02585902
#
# Stress axis : x y z
#
# Youngs Moduli (GPa) = 75.59067 20.87118 84.22843
#
# Poissons Ratio (x) = 0.23897 0.07876
# Poissons Ratio (y) = 0.86550 0.94276
# Poissons Ratio (z) = 0.07068 0.23361
#
# Static dielectric constant tensor:
#      x y z
#    x 4.036060 0.000000 0.495540 
#    y 0.000000 3.286860 0.000000 
#    z 0.495540 0.000000 4.213870 
# 
# 
# High freq. dielectric constant tensor:
#      x y z
#    x 1.830750 0.000000 0.034330 
#    y 0.000000 1.762530 0.000000 
#    z 0.034330 0.000000 1.844510 
# 
# From -- ./inp_files/57863.got.cif
#   From: 2010.06.25/outbox.cif.g09.slc.cpg/sg15_29_cif.got.tgz:57863.got - 2010.06.28 07:06:18.
