data_PCOD8151630
_publ_section_title
;
Structure prediction by ZEFSAII (Michael W. Deem and Ramdas Pophale) SiO2 
 PCOD8151630
Probable space group: C 2/C
;
_chemical_formula_sum "Si O2"
_cell_formula_units_Z 48
_cell_length_a 26.922136
_cell_length_b 11.621204
_cell_length_c 21.731509
_cell_angle_alpha 90.000000
_cell_angle_beta 162.431943
_cell_angle_gamma 90.000000
_cell_volume 2052.225388
_symmetry_space_group_name_H-M "C 2/C"
_symmetry_group_IT_number 15
_symmetry_cell_setting 'monoclinic'
loop_
_space_group_symop_operation_xyz
x,y,z
-x,y,1/2-z
-x,-y,-z
x,-y,1/2+z
1/2+x,1/2+y,z
1/2-x,1/2+y,1/2-z
1/2-x,1/2-y,-z
1/2+x,1/2-y,1/2+z
loop_
_atom_site_type_symbol
_atom_site_label
_atom_site_fract_x
_atom_site_fract_y
_atom_site_fract_z
Si Si1 0.340606 0.110727 0.942615
Si Si2 0.474951 0.484596 0.791249
Si Si3 0.908387 0.849194 0.453468
Si Si4 0.734679 0.857667 0.656915
Si Si5 0.187136 0.341013 0.473161
Si Si6 0.129387 0.220797 0.801425
O O1 0.251724 0.106500 0.771129
O O2 0.230394 0.177695 0.861916
O O3 0.359379 0.974282 0.975336
O O4 0.521322 0.168317 0.154116
O O5 0.500000 0.444231 0.750000
O O6 0.282989 0.461220 0.577841
O O7 0.499425 0.621439 0.828819
O O8 0.580315 0.414270 0.966944
O O9 0.870211 0.712135 0.416667
O O10 0.067987 0.871018 0.597355
O O11 0.732881 0.782143 0.592240
O O12 0.250000 0.250000 0.500000
O O13 0.000000 0.373409 0.250000
O O14 0.250000 0.250000 0.000000
#
# Coordination Sequence:
#
# PCOD8151630 Si02
#       6
#     8   8   8   8   8   8
#     4  12  26  48  76 103 150 195 248 306 368 444
#     4  11  24  44  69 105 148 186 242 309 360 438
#     4  11  24  45  75 106 148 193 244 303 375 438
#     4  11  24  44  67 105 143 190 240 303 367 433
#     4  11  21  37  67 100 140 179 230 290 366 432
#     4  12  27  50  73 108 144 201 251 303 368 442
#
# _framework density 23.389243
#
# number of rings (size 3 to 8) (size 9 to 14) (size 15 to 20)
#    0.000    0.667    3.333    6.500    4.667    0.000 
#    3.000    1.667    0.000    0.000    0.000    0.000 
#    0.000    0.000    0.000    0.000    0.000    0.000 
#
# Total GULP energy -297335.539390 kJ/mol
# GULP energy per Si atom -12388.980808 kJ/mol
# Density = 2.333601 g / cm^3
# Si number density = 23.389243 Si / 1000 Ang^3
#
#
#
# Elastic Constant Matrix: (Units=GPa)
#
#
# Indices 1 2 3 4 5 6 
#
# 1 79.5843 26.2032 29.4636 -0.0002 -11.7153 0.0002
# 2 26.2032 116.4741 41.2727 0.0004 1.8110 0.0013
# 3 29.4636 41.2727 141.2716 -0.0022 -15.6536 0.0000
# 4 -0.0002 0.0004 -0.0022 10.8304 -0.0019 -8.5287
# 5 -11.7153 1.8110 -15.6536 -0.0019 34.9083 0.0002
# 6 0.0002 0.0013 0.0000 -8.5287 0.0002 21.6929
#
#
#
# Elastic Compliance Matrix: (Units=1/GPa)
#
#
# Indices 1 2 3 4 5 6 
#
# 1 0.014770 -0.002751 -0.001801 0.000001 0.004292 0.000000
# 2 -0.002751 0.010204 -0.002702 -0.000003 -0.002665 -0.000002
# 3 -0.001801 -0.002702 0.008621 0.000004 0.003401 0.000002
# 4 0.000001 -0.000003 0.000004 0.133739 0.000009 0.052580
# 5 0.004292 -0.002665 0.003401 0.000009 0.031750 0.000003
# 6 0.000000 -0.000002 0.000002 0.052580 0.000003 0.066770
#
#
# Mechanical properties :
#
#
# Convention : Reuss Voigt Hill
#
# Bulk Modulus (GPa) = 52.39869 59.02323 55.71096
# Shear Modulus (GPa) = 17.43838 29.51236 23.47537
#
# Velocity S-wave (km/s) = 2.73348 3.55602 3.17153
# Velocity P-wave (km/s) = 5.69334 6.49233 6.10592
#
# Compressibility (1/GPa) = 0.01908445
#
# Stress axis : x y z
#
# Youngs Moduli (GPa) = 67.70606 98.00475 116.00129
#
# Poissons Ratio (x) = 0.26964 0.20892
# Poissons Ratio (y) = 0.18628 0.31348
# Poissons Ratio (z) = 0.12194 0.26485
#
# Static dielectric constant tensor:
#      x y z
#    x 4.397830 -0.000010 -0.128080 
#    y -0.000010 3.376680 -0.000020 
#    z -0.128080 -0.000020 4.364660 
# 
# 
# High freq. dielectric constant tensor:
#      x y z
#    x 1.926090 0.000000 -0.014450 
#    y 0.000000 1.927360 0.000000 
#    z -0.014450 0.000000 1.924900 
# 
# From -- ./inp_files/257647.got.cif
#   From: 2010.06.25/outbox.cif.g09.slc.cpg/sg15_129_cif.got.tgz:257647.got - 2010.06.28 07:06:18.
