data_PCOD8151263
_publ_section_title
;
Structure prediction by ZEFSAII (Michael W. Deem and Ramdas Pophale) SiO2 
 PCOD8151263
Probable space group: C 2/C
;
_chemical_formula_sum "Si O2"
_cell_formula_units_Z 32
_cell_length_a 25.402424
_cell_length_b 7.073854
_cell_length_c 12.553969
_cell_angle_alpha 90.000000
_cell_angle_beta 41.188769
_cell_angle_gamma 90.000000
_cell_volume 1485.579018
_symmetry_space_group_name_H-M "C 2/C"
_symmetry_group_IT_number 15
_symmetry_cell_setting 'monoclinic'
loop_
_space_group_symop_operation_xyz
x,y,z
-x,y,1/2-z
-x,-y,-z
x,-y,1/2+z
1/2+x,1/2+y,z
1/2-x,1/2+y,1/2-z
1/2-x,1/2-y,-z
1/2+x,1/2-y,1/2+z
loop_
_atom_site_type_symbol
_atom_site_label
_atom_site_fract_x
_atom_site_fract_y
_atom_site_fract_z
Si Si1 0.198979 0.003761 0.137543
Si Si2 0.573399 0.212431 0.863702
Si Si3 0.606553 0.194713 0.371793
Si Si4 0.654034 0.772253 0.034214
O O1 0.128516 0.110429 0.312630
O O2 0.197688 0.083293 0.017442
O O3 0.174176 0.782267 0.188110
O O4 0.283829 0.051644 0.061679
O O5 0.580535 0.173287 0.724710
O O6 0.609911 0.031400 0.869029
O O7 0.481891 0.254453 0.033656
O O8 0.623108 0.273607 0.464477
#
# Coordination Sequence:
#
# PCOD8151263 Si02
#       4
#     8   8   8   8
#     4   9  21  38  54  86 116 145 197 235 276 355
#     4   9  21  39  55  88 110 146 200 235 280 361
#     4  11  20  37  64  76 120 156 181 244 296 326
#     4   9  21  38  55  86 118 146 197 237 279 355
#
# _framework density 21.540423000000001
#
# number of rings (size 3 to 8) (size 9 to 14) (size 15 to 20)
#    1.500    1.000    0.000    1.500    3.500    1.000 
#    4.500    0.000    5.500    0.000    0.000    0.000 
#    0.000    0.000    0.000    0.000    0.000    0.000 
#
# Total GULP energy -198215.403380 kJ/mol
# GULP energy per Si atom -12388.462711 kJ/mol
# Density = 2.149140 g / cm^3
# Si number density = 21.540423 Si / 1000 Ang^3
#
#
#
# Elastic Constant Matrix: (Units=GPa)
#
#
# Indices 1 2 3 4 5 6 
#
# 1 59.8250 21.4241 9.9011 -0.0005 7.4648 0.0002
# 2 21.4241 47.0608 -7.5353 -0.0021 0.4208 0.0012
# 3 9.9011 -7.5353 44.1827 -0.0006 1.9882 0.0003
# 4 -0.0005 -0.0021 -0.0006 38.9328 0.0002 -8.7022
# 5 7.4648 0.4208 1.9882 0.0002 35.6109 0.0000
# 6 0.0002 0.0012 0.0003 -8.7022 0.0000 23.0585
#
#
#
# Elastic Compliance Matrix: (Units=1/GPa)
#
#
# Indices 1 2 3 4 5 6 
#
# 1 0.022373 -0.011227 -0.006740 0.000000 -0.004181 0.000000
# 2 -0.011227 0.027487 0.007130 0.000001 0.001631 -0.000001
# 3 -0.006740 0.007130 0.025364 0.000001 -0.000087 0.000000
# 4 0.000000 0.000001 0.000001 0.028052 0.000000 0.010587
# 5 -0.004181 0.001631 -0.000087 0.000000 0.028943 0.000000
# 6 0.000000 -0.000001 0.000000 0.010587 0.000000 0.047363
#
#
# Mechanical properties :
#
#
# Convention : Reuss Voigt Hill
#
# Bulk Modulus (GPa) = 18.67401 22.07203 20.37302
# Shear Modulus (GPa) = 22.81995 28.00569 25.41282
#
# Velocity S-wave (km/s) = 3.25838 3.60966 3.43851
# Velocity P-wave (km/s) = 4.77955 5.25756 5.02424
#
# Compressibility (1/GPa) = 0.05355037
#
# Stress axis : x y z
#
# Youngs Moduli (GPa) = 44.69633 36.38039 39.42633
#
# Poissons Ratio (x) = 0.40845 0.26575
# Poissons Ratio (y) = 0.50181 -0.28113
# Poissons Ratio (z) = 0.30127 -0.25941
#
# Static dielectric constant tensor:
#      x y z
#    x 3.473620 0.000000 -0.243260 
#    y 0.000000 3.617730 0.000000 
#    z -0.243260 0.000000 3.729400 
# 
# 
# High freq. dielectric constant tensor:
#      x y z
#    x 1.820950 0.000000 -0.023920 
#    y 0.000000 1.830920 0.000000 
#    z -0.023920 0.000000 1.836900 
# 
# From -- ./inp_files/109286.got.cif
#   From: 2010.06.25/outbox.cif.g09.slc.cpg/sg15_55_cif.got.tgz:109286.got - 2010.06.28 07:06:18.
