data_PCOD8151536
_publ_section_title
;
Structure prediction by ZEFSAII (Michael W. Deem and Ramdas Pophale) SiO2 
 PCOD8151536
Probable space group: C 2/C
;
_chemical_formula_sum "Si O2"
_cell_formula_units_Z 56
_cell_length_a 16.860088
_cell_length_b 9.619124
_cell_length_c 22.565417
_cell_angle_alpha 90.000000
_cell_angle_beta 130.357543
_cell_angle_gamma 90.000000
_cell_volume 2788.715187
_symmetry_space_group_name_H-M "C 2/C"
_symmetry_group_IT_number 15
_symmetry_cell_setting 'monoclinic'
loop_
_space_group_symop_operation_xyz
x,y,z
-x,y,1/2-z
-x,-y,-z
x,-y,1/2+z
1/2+x,1/2+y,z
1/2-x,1/2+y,1/2-z
1/2-x,1/2-y,-z
1/2+x,1/2-y,1/2+z
loop_
_atom_site_type_symbol
_atom_site_label
_atom_site_fract_x
_atom_site_fract_y
_atom_site_fract_z
Si Si1 0.067618 0.728097 0.158352
Si Si2 0.501008 0.048979 0.819880
Si Si3 0.107442 0.072233 0.891039
Si Si4 0.204003 0.599343 0.988208
Si Si5 0.547530 0.658203 0.209572
Si Si6 0.308211 0.574310 0.697762
Si Si7 0.110301 0.435994 0.568502
O O1 0.157255 0.814635 0.235871
O O2 0.098511 0.700348 0.104931
O O3 0.063180 0.574595 0.182632
O O4 0.952963 0.798801 0.107804
O O5 0.500000 0.023940 0.750000
O O6 0.619849 0.056293 0.899033
O O7 0.442617 0.189442 0.814796
O O8 0.130138 0.111229 0.833267
O O9 0.032488 0.940277 0.863377
O O10 0.213032 0.028050 0.975279
O O11 0.250000 0.750000 0.000000
O O12 0.160622 0.616461 0.032873
O O13 0.500000 0.692481 0.250000
O O14 0.658274 0.581820 0.266397
O O15 0.183866 0.560455 0.630659
O O16 0.000000 0.500000 0.500000
#
# Coordination Sequence:
#
# PCOD8151536 Si02
#       7
#     8   8   8   8   8   8   8
#     4  11  22  41  63  96 130 163 214 268 323 376
#     4  11  21  34  61  96 129 157 217 270 307 371
#     4   9  18  37  66  91 121 166 215 262 316 378
#     4  11  22  42  66  92 124 172 220 255 318 388
#     4   8  15  31  57  90 118 157 204 260 307 362
#     4   9  20  39  66  87 125 174 214 251 321 395
#     4  11  24  44  62  93 136 174 202 265 336 383
#
# _framework density 20.080933000000002
#
# number of rings (size 3 to 8) (size 9 to 14) (size 15 to 20)
#    0.000    2.000    2.857    2.143    2.000    1.714 
#    2.571    0.714    0.000    0.000    0.000    0.000 
#    0.000    0.000    0.000    0.000    0.000    0.000 
#
# Total GULP energy -347011.629458 kJ/mol
# GULP energy per Si atom -12393.272481 kJ/mol
# Density = 2.003523 g / cm^3
# Si number density = 20.080933 Si / 1000 Ang^3
#
#
#
# Elastic Constant Matrix: (Units=GPa)
#
#
# Indices 1 2 3 4 5 6 
#
# 1 96.5879 46.2919 53.3583 0.0000 3.2136 0.0000
# 2 46.2919 124.4156 46.1367 0.0000 3.0555 0.0000
# 3 53.3583 46.1367 144.0051 0.0000 12.1902 0.0000
# 4 0.0000 0.0000 0.0000 29.0125 0.0000 -11.4066
# 5 3.2136 3.0555 12.1902 0.0000 31.7711 0.0000
# 6 0.0000 0.0000 0.0000 -11.4066 0.0000 5.2057
#
#
#
# Elastic Compliance Matrix: (Units=1/GPa)
#
#
# Indices 1 2 3 4 5 6 
#
# 1 0.014492 -0.003855 -0.004177 0.000000 0.000508 0.000000
# 2 -0.003855 0.010149 -0.001833 0.000000 0.000117 0.000000
# 3 -0.004177 -0.001833 0.009332 0.000000 -0.002982 0.000000
# 4 0.000000 0.000000 0.000000 0.248841 0.000000 0.545252
# 5 0.000508 0.000117 -0.002982 0.000000 0.032557 0.000000
# 6 0.000000 0.000000 0.000000 0.545252 0.000000 1.386836
#
#
# Mechanical properties :
#
#
# Convention : Reuss Voigt Hill
#
# Bulk Modulus (GPa) = 70.22010 72.95360 71.58685
# Shear Modulus (GPa) = 2.89572 27.81265 15.35418
#
# Velocity S-wave (km/s) = 1.20215 3.72563 2.76817
# Velocity P-wave (km/s) = 6.08041 7.41052 6.77817
#
# Compressibility (1/GPa) = 0.01424094
#
# Stress axis : x y z
#
# Youngs Moduli (GPa) = 69.00385 98.53291 107.16149
#
# Poissons Ratio (x) = 0.37989 0.44766
# Poissons Ratio (y) = 0.26604 0.19642
# Poissons Ratio (z) = 0.28826 0.18060
#
# Static dielectric constant tensor:
#      x y z
#    x 3.283340 0.000000 -0.149640 
#    y 0.000000 3.809360 0.000000 
#    z -0.149640 0.000000 3.915340 
# 
# 
# High freq. dielectric constant tensor:
#      x y z
#    x 1.767840 0.000000 0.011630 
#    y 0.000000 1.783070 0.000000 
#    z 0.011630 0.000000 1.787870 
# 
# From -- ./inp_files/276641.got.cif
#   From: 2010.06.25/outbox.cif.g09.slc.cpg/sg15_139_cif.got.tgz:276641.got - 2010.06.28 07:06:18.
