data_PCOD8151520
_publ_section_title
;
Structure prediction by ZEFSAII (Michael W. Deem and Ramdas Pophale) SiO2 
 PCOD8151520
Probable space group: C 2/C
;
_chemical_formula_sum "Si O2"
_cell_formula_units_Z 56
_cell_length_a 23.068470
_cell_length_b 11.916590
_cell_length_c 14.368300
_cell_angle_alpha 90.000000
_cell_angle_beta 127.528483
_cell_angle_gamma 90.000000
_cell_volume 3132.399032
_symmetry_space_group_name_H-M "C 2/C"
_symmetry_group_IT_number 15
_symmetry_cell_setting 'monoclinic'
loop_
_space_group_symop_operation_xyz
x,y,z
-x,y,1/2-z
-x,-y,-z
x,-y,1/2+z
1/2+x,1/2+y,z
1/2-x,1/2+y,1/2-z
1/2-x,1/2-y,-z
1/2+x,1/2-y,1/2+z
loop_
_atom_site_type_symbol
_atom_site_label
_atom_site_fract_x
_atom_site_fract_y
_atom_site_fract_z
Si Si1 0.585355 0.676975 0.834971
Si Si2 0.694207 0.955781 0.313666
Si Si3 0.762557 0.257175 0.809587
Si Si4 0.914295 0.564151 0.155217
Si Si5 0.320171 0.012864 0.404922
Si Si6 0.666562 0.584147 0.740345
Si Si7 0.670300 0.593071 0.092645
O O1 0.500000 0.661256 0.750000
O O2 0.606682 0.807450 0.842307
O O3 0.615554 0.604008 0.778941
O O4 0.610545 0.631789 0.959931
O O5 0.717846 0.824974 0.335289
O O6 0.767288 0.027606 0.404377
O O7 0.632260 0.978015 0.328436
O O8 0.659870 0.995737 0.182888
O O9 0.801167 0.356280 0.905918
O O10 0.827612 0.194026 0.818483
O O11 0.704754 0.299368 0.676321
O O12 0.000000 0.540918 0.250000
O O13 0.890549 0.532609 0.027832
O O14 0.247307 0.943378 0.358795
O O15 0.636928 0.484803 0.643300
#
# Coordination Sequence:
#
# PCOD8151520 Si02
#       7
#     8   8   8   8   8   8   8
#     4  11  21  33  51  74 104 137 166 205 255 305
#     4   9  18  33  55  77 100 130 170 217 252 292
#     4   8  16  32  54  76 100 130 168 212 254 286
#     4  11  23  34  49  77 106 136 170 203 251 308
#     4   9  18  33  55  77 100 130 170 217 252 292
#     4   9  18  33  55  79  98 127 172 213 252 297
#     4   9  18  33  55  79  98 127 172 213 252 297
#
# _framework density 17.877670999999999
#
# number of rings (size 3 to 8) (size 9 to 14) (size 15 to 20)
#    0.000    3.143    0.000    4.286    0.000    3.429 
#    0.000    2.857    0.000    8.571    0.000    0.000 
#    0.000    0.000    0.000    0.000    0.000    0.000 
#
# Total GULP energy -347014.518534 kJ/mol
# GULP energy per Si atom -12393.375662 kJ/mol
# Density = 1.783698 g / cm^3
# Si number density = 17.877671 Si / 1000 Ang^3
#
#
#
# Elastic Constant Matrix: (Units=GPa)
#
#
# Indices 1 2 3 4 5 6 
#
# 1 42.6120 11.0800 24.0405 0.0000 -2.8031 0.0000
# 2 11.0800 70.1275 13.5385 0.0000 8.8076 0.0000
# 3 24.0405 13.5385 89.0911 0.0000 4.4975 0.0000
# 4 0.0000 0.0000 0.0000 5.5130 0.0000 44.5834
# 5 -2.8031 8.8076 4.4975 0.0000 16.3591 0.0000
# 6 0.0000 0.0000 0.0000 44.5834 0.0000 -95.9963
#
#
#
# Elastic Compliance Matrix: (Units=1/GPa)
#
#
# Indices 1 2 3 4 5 6 
#
# 1 0.029648 -0.004379 -0.007819 0.000000 0.009587 0.000000
# 2 -0.004379 0.016277 -0.000823 0.000000 -0.009287 0.000000
# 3 -0.007819 -0.000823 0.013695 0.000000 -0.004662 0.000000
# 4 0.000000 0.000000 0.000000 0.038141 0.000000 0.017714
# 5 0.009587 -0.009287 -0.004662 0.000000 0.069053 0.000000
# 6 0.000000 0.000000 0.000000 0.017714 0.000000 -0.002190
#
#
# Mechanical properties :
#
#
# Convention : Reuss Voigt Hill
#
# Bulk Modulus (GPa) = 29.78134 33.23874 31.51004
# Shear Modulus (GPa) = 24.77003 -4.61339 10.07832
#
# Velocity S-wave (km/s) = 3.72631 -1.60815 2.37689
# Velocity P-wave (km/s) = 5.93367 3.89673 5.01961
#
# Compressibility (1/GPa) = 0.03357807
#
# Stress axis : x y z
#
# Youngs Moduli (GPa) = 33.72902 61.43664 73.02087
#
# Poissons Ratio (x) = 0.26903 0.57094
# Poissons Ratio (y) = 0.14770 0.06010
# Poissons Ratio (z) = 0.26372 0.05056
#
# Static dielectric constant tensor:
#      x y z
#    x 3.024560 0.000000 -0.105540 
#    y 0.000000 3.511980 0.000000 
#    z -0.105540 0.000000 3.151980 
# 
# 
# High freq. dielectric constant tensor:
#      x y z
#    x 1.671680 0.000000 -0.014120 
#    y 0.000000 1.703990 0.000000 
#    z -0.014120 0.000000 1.677380 
# 
# From -- ./inp_files/219179.got.cif
#   From: 2010.06.25/outbox.cif.g09.slc.cpg/sg15_110_cif.got.tgz:219179.got - 2010.06.28 07:06:18.
