data_PCOD8151495
_publ_section_title
;
Structure prediction by ZEFSAII (Michael W. Deem and Ramdas Pophale) SiO2 
 PCOD8151495
Probable space group: C 2/C
;
_chemical_formula_sum "Si O2"
_cell_formula_units_Z 52
_cell_length_a 22.385647
_cell_length_b 9.101316
_cell_length_c 18.827762
_cell_angle_alpha 90.000000
_cell_angle_beta 140.730409
_cell_angle_gamma 90.000000
_cell_volume 2428.039370
_symmetry_space_group_name_H-M "C 2/C"
_symmetry_group_IT_number 15
_symmetry_cell_setting 'monoclinic'
loop_
_space_group_symop_operation_xyz
x,y,z
-x,y,1/2-z
-x,-y,-z
x,-y,1/2+z
1/2+x,1/2+y,z
1/2-x,1/2+y,1/2-z
1/2-x,1/2-y,-z
1/2+x,1/2-y,1/2+z
loop_
_atom_site_type_symbol
_atom_site_label
_atom_site_fract_x
_atom_site_fract_y
_atom_site_fract_z
Si Si1 0.166081 0.721095 0.520561
Si Si2 0.651941 0.379023 0.369940
Si Si3 0.000000 0.880468 0.750000
Si Si4 0.045228 0.638114 0.184119
Si Si5 0.861404 0.369856 0.875850
Si Si6 0.486027 0.177896 0.865886
Si Si7 0.679299 0.206600 0.689219
O O1 0.251657 0.603508 0.586705
O O2 0.180146 0.854968 0.478296
O O3 0.171874 0.786008 0.605428
O O4 0.066716 0.648050 0.414239
O O5 0.589195 0.524092 0.307211
O O6 0.593839 0.237375 0.288484
O O7 0.972968 0.782227 0.657399
O O8 0.080999 0.688136 0.139426
O O9 0.065491 0.465117 0.215962
O O10 0.776762 0.257501 0.814778
O O11 0.821771 0.532163 0.824833
O O12 0.929101 0.375528 0.005915
O O13 0.407069 0.260064 0.840870
#
# Coordination Sequence:
#
# PCOD8151495 Si02
#       7
#     8   8   4   8   8   8   8
#     4  11  21  41  73  92 126 171 223 268 312 381
#     4  11  25  42  66 101 128 169 230 263 312 397
#     4  12  28  44  62 100 140 166 214 280 334 370
#     4  11  20  44  71  90 128 179 220 259 320 406
#     4  11  23  43  66 100 128 169 221 271 324 391
#     4  11  26  43  64  97 138 170 211 273 338 385
#     4  11  23  42  70  97 129 172 221 268 327 387
#
# _framework density 21.416457000000001
#
# number of rings (size 3 to 8) (size 9 to 14) (size 15 to 20)
#    0.000    0.923    6.154    0.923    4.308    1.231 
#    2.769    3.846    0.000    0.000    0.000    0.000 
#    0.000    0.000    0.000    0.000    0.000    0.000 
#
# Total GULP energy -322389.541765 kJ/mol
# GULP energy per Si atom -12399.597760 kJ/mol
# Density = 2.136771 g / cm^3
# Si number density = 21.416457 Si / 1000 Ang^3
#
#
#
# Elastic Constant Matrix: (Units=GPa)
#
#
# Indices 1 2 3 4 5 6 
#
# 1 106.6751 32.3434 55.2367 0.0000 6.0225 0.0000
# 2 32.3434 80.0412 44.6317 0.0000 -3.4555 0.0000
# 3 55.2367 44.6317 84.8046 0.0000 16.3555 0.0000
# 4 0.0000 0.0000 0.0000 28.7318 0.0000 -1.0605
# 5 6.0225 -3.4555 16.3555 0.0000 48.1230 0.0000
# 6 0.0000 0.0000 0.0000 -1.0605 0.0000 28.2513
#
#
#
# Elastic Compliance Matrix: (Units=1/GPa)
#
#
# Indices 1 2 3 4 5 6 
#
# 1 0.014257 -0.000543 -0.009255 0.000000 0.001322 0.000000
# 2 -0.000543 0.018777 -0.010489 0.000000 0.004981 0.000000
# 3 -0.009255 -0.010489 0.024894 0.000000 -0.008056 0.000000
# 4 0.000000 0.000000 0.000000 0.034853 0.000000 0.001308
# 5 0.001322 0.004981 -0.008056 0.000000 0.023710 0.000000
# 6 0.000000 0.000000 0.000000 0.001308 0.000000 0.035446
#
#
# Mechanical properties :
#
#
# Convention : Reuss Voigt Hill
#
# Bulk Modulus (GPa) = 57.62696 59.54938 58.58817
# Shear Modulus (GPa) = 25.21502 30.30849 27.76175
#
# Velocity S-wave (km/s) = 3.43500 3.76599 3.60430
# Velocity P-wave (km/s) = 6.53441 6.83930 6.68859
#
# Compressibility (1/GPa) = 0.01735299
#
# Stress axis : x y z
#
# Youngs Moduli (GPa) = 70.14302 53.25730 40.17053
#
# Poissons Ratio (x) = 0.02892 0.37178
# Poissons Ratio (y) = 0.03809 0.42135
# Poissons Ratio (z) = 0.64918 0.55861
#
# Static dielectric constant tensor:
#      x y z
#    x 4.275870 0.000000 -0.009650 
#    y 0.000000 3.532820 0.000000 
#    z -0.009650 0.000000 3.930770 
# 
# 
# High freq. dielectric constant tensor:
#      x y z
#    x 1.865540 0.000000 0.003520 
#    y 0.000000 1.807570 0.000000 
#    z 0.003520 0.000000 1.840050 
# 
# From -- ./inp_files/255088.got.cif
#   From: 2010.06.25/outbox.cif.g09.slc.cpg/sg15_128_cif.got.tgz:255088.got - 2010.06.28 07:06:18.
