data_PCOD8151969
_publ_section_title
;
Structure prediction by ZEFSAII (Michael W. Deem and Ramdas Pophale) SiO2 
 PCOD8151969
Probable space group: C 2/C
;
_chemical_formula_sum "Si O2"
_cell_formula_units_Z 48
_cell_length_a 8.222307
_cell_length_b 29.709277
_cell_length_c 16.102208
_cell_angle_alpha 90.000000
_cell_angle_beta 34.460979
_cell_angle_gamma 90.000000
_cell_volume 2225.709925
_symmetry_space_group_name_H-M "C 2/C"
_symmetry_group_IT_number 15
_symmetry_cell_setting 'monoclinic'
loop_
_space_group_symop_operation_xyz
x,y,z
-x,y,1/2-z
-x,-y,-z
x,-y,1/2+z
1/2+x,1/2+y,z
1/2-x,1/2+y,1/2-z
1/2-x,1/2-y,-z
1/2+x,1/2-y,1/2+z
loop_
_atom_site_type_symbol
_atom_site_label
_atom_site_fract_x
_atom_site_fract_y
_atom_site_fract_z
Si Si1 0.208798 0.506483 0.336248
Si Si2 0.817192 0.341370 0.629286
Si Si3 0.277166 0.165606 0.688632
Si Si4 0.102237 0.584849 0.117954
Si Si5 0.453364 0.242990 0.172662
Si Si6 0.256587 0.576199 0.700852
O O1 0.500000 0.528290 0.250000
O O2 0.284336 0.458357 0.264931
O O3 0.000000 0.500000 0.500000
O O4 0.066438 0.538650 0.328056
O O5 0.500000 0.361755 0.750000
O O6 0.946465 0.327828 0.486047
O O7 0.026726 0.378483 0.580369
O O8 0.784702 0.298147 0.702321
O O9 0.328889 0.125326 0.730460
O O10 0.000000 0.154880 0.750000
O O11 0.233316 0.211593 0.758792
O O12 0.000000 0.603144 0.250000
O O13 0.443989 0.577022 0.975184
O O14 0.500000 0.232377 0.250000
O O15 0.750000 0.250000 0.000000
O O16 0.000000 0.559445 0.750000
#
# Coordination Sequence:
#
# PCOD8151969 Si02
#       6
#     8   8   8   8   8   8
#     4  12  25  45  73  98 132 181 225 277 342 409
#     4  12  26  44  69 104 139 182 233 286 344 412
#     4  11  22  46  71  94 139 187 227 279 349 409
#     4  12  27  46  68 101 141 178 227 285 343 407
#     4  11  21  43  72  98 134 185 232 284 343 406
#     4  12  27  45  70 101 138 181 229 282 346 413
#
# _framework density 21.566151999999999
#
# number of rings (size 3 to 8) (size 9 to 14) (size 15 to 20)
#    0.000    0.333    6.667    3.000    4.667    2.667 
#    0.000    0.000    0.000    0.000    0.000    0.000 
#    0.000    0.000    0.000    0.000    0.000    0.000 
#
# Total GULP energy -297773.908575 kJ/mol
# GULP energy per Si atom -12407.246191 kJ/mol
# Density = 2.151707 g / cm^3
# Si number density = 21.566152 Si / 1000 Ang^3
#
#
#
# Elastic Constant Matrix: (Units=GPa)
#
#
# Indices 1 2 3 4 5 6 
#
# 1 78.6524 18.4720 50.3179 0.0000 -11.3854 0.0000
# 2 18.4720 113.6092 30.9413 0.0000 4.5642 0.0000
# 3 50.3179 30.9413 181.1892 0.0000 1.4328 0.0000
# 4 0.0000 0.0000 0.0000 29.9500 0.0000 0.7277
# 5 -11.3854 4.5642 1.4328 0.0000 45.8603 0.0000
# 6 0.0000 0.0000 0.0000 0.7277 0.0000 29.4456
#
#
#
# Elastic Compliance Matrix: (Units=1/GPa)
#
#
# Indices 1 2 3 4 5 6 
#
# 1 0.016520 -0.001682 -0.004335 0.000000 0.004404 0.000000
# 2 -0.001682 0.009438 -0.001134 0.000000 -0.001321 0.000000
# 3 -0.004335 -0.001134 0.006926 0.000000 -0.001180 0.000000
# 4 0.000000 0.000000 0.000000 0.033409 0.000000 -0.000826
# 5 0.004404 -0.001321 -0.001180 0.000000 0.023067 0.000000
# 6 0.000000 0.000000 0.000000 -0.000826 0.000000 0.033981
#
#
# Mechanical properties :
#
#
# Convention : Reuss Voigt Hill
#
# Bulk Modulus (GPa) = 53.81951 63.65702 58.73826
# Shear Modulus (GPa) = 34.76122 39.29916 37.03019
#
# Velocity S-wave (km/s) = 4.01913 4.27343 4.14823
# Velocity P-wave (km/s) = 6.82258 7.34376 7.08796
#
# Compressibility (1/GPa) = 0.01858062
#
# Stress axis : x y z
#
# Youngs Moduli (GPa) = 60.53127 105.95956 144.38238
#
# Poissons Ratio (x) = 0.17825 0.62596
# Poissons Ratio (y) = 0.10183 0.16373
# Poissons Ratio (z) = 0.26243 0.12016
#
# Static dielectric constant tensor:
#      x y z
#    x 4.091020 0.000000 0.306740 
#    y 0.000000 4.134850 0.000000 
#    z 0.306740 0.000000 4.053670 
# 
# 
# High freq. dielectric constant tensor:
#      x y z
#    x 1.837530 0.000000 0.004640 
#    y 0.000000 1.856240 0.000000 
#    z 0.004640 0.000000 1.862690 
# 
# From -- ./inp_files/194145.got.cif
#   From: 2010.06.25/outbox.cif.g09.slc.cpg/sg15_98_cif.got.tgz:194145.got - 2010.06.28 07:06:18.
