data_PCOD8151416
_publ_section_title
;
Structure prediction by ZEFSAII (Michael W. Deem and Ramdas Pophale) SiO2 
 PCOD8151416
Probable space group: C 2/C
;
_chemical_formula_sum "Si O2"
_cell_formula_units_Z 56
_cell_length_a 12.826584
_cell_length_b 15.833474
_cell_length_c 21.543719
_cell_angle_alpha 90.000000
_cell_angle_beta 35.164917
_cell_angle_gamma 90.000000
_cell_volume 2519.875024
_symmetry_space_group_name_H-M "C 2/C"
_symmetry_group_IT_number 15
_symmetry_cell_setting 'monoclinic'
loop_
_space_group_symop_operation_xyz
x,y,z
-x,y,1/2-z
-x,-y,-z
x,-y,1/2+z
1/2+x,1/2+y,z
1/2-x,1/2+y,1/2-z
1/2-x,1/2-y,-z
1/2+x,1/2-y,1/2+z
loop_
_atom_site_type_symbol
_atom_site_label
_atom_site_fract_x
_atom_site_fract_y
_atom_site_fract_z
Si Si1 0.666280 0.529016 0.339375
Si Si2 0.972165 0.281187 0.561498
Si Si3 0.454965 0.627720 0.342644
Si Si4 0.530773 0.937787 0.611986
Si Si5 0.409800 0.805002 0.232758
Si Si6 0.542061 0.894790 0.051461
Si Si7 0.104569 0.104273 0.499109
O O1 0.599574 0.573545 0.309608
O O2 0.596518 0.582886 0.430906
O O3 0.584461 0.433500 0.381009
O O4 0.884113 0.531359 0.234265
O O5 0.782297 0.233172 0.652471
O O6 0.011881 0.339127 0.481764
O O7 0.986474 0.342556 0.613119
O O8 0.118504 0.206004 0.497886
O O9 0.500000 0.604191 0.250000
O O10 0.471472 0.726439 0.347527
O O11 0.253565 0.609494 0.462977
O O12 0.728204 0.939900 0.547351
O O13 0.513123 0.003067 0.561915
O O14 0.500000 0.848039 0.250000
O O15 0.415752 0.867780 0.171402
#
# Coordination Sequence:
#
# PCOD8151416 Si02
#       7
#     8   8   8   8   8   8   8
#     4  11  23  45  71  97 137 180 227 281 344 399
#     4  12  25  43  68 100 142 179 228 280 346 408
#     4  11  20  41  67 101 132 175 224 291 340 400
#     4  12  25  45  69  96 141 183 232 275 341 415
#     4  11  23  38  68 102 135 170 225 288 341 403
#     4  12  24  42  70 101 133 181 230 284 345 402
#     4  11  26  44  70 100 138 183 227 283 342 413
#
# _framework density 22.223324000000002
#
# number of rings (size 3 to 8) (size 9 to 14) (size 15 to 20)
#    0.000    0.571    5.714    3.429    2.000    1.143 
#    0.000    0.000    0.000    0.000    0.000    0.000 
#    0.000    0.000    0.000    0.000    0.000    0.000 
#
# Total GULP energy -347050.116327 kJ/mol
# GULP energy per Si atom -12394.647012 kJ/mol
# Density = 2.217274 g / cm^3
# Si number density = 22.223324 Si / 1000 Ang^3
#
#
#
# Elastic Constant Matrix: (Units=GPa)
#
#
# Indices 1 2 3 4 5 6 
#
# 1 71.4910 41.4439 13.9473 0.0005 8.7602 0.0019
# 2 41.4439 137.6281 44.4057 0.0013 4.3895 -0.0023
# 3 13.9473 44.4057 86.7054 0.0020 -2.6852 -0.0030
# 4 0.0005 0.0013 0.0020 12.7518 0.0000 10.9738
# 5 8.7602 4.3895 -2.6852 0.0000 30.9632 0.0004
# 6 0.0019 -0.0023 -0.0030 10.9738 0.0004 22.3122
#
#
#
# Elastic Compliance Matrix: (Units=1/GPa)
#
#
# Indices 1 2 3 4 5 6 
#
# 1 0.017488 -0.005007 -0.000381 0.000003 -0.004271 -0.000003
# 2 -0.005007 0.010220 -0.004442 -0.000002 -0.000417 0.000002
# 3 -0.000381 -0.004442 0.013930 -0.000005 0.001945 0.000004
# 4 0.000003 -0.000002 -0.000005 0.135968 0.000000 -0.066873
# 5 -0.004271 -0.000417 0.001945 0.000000 0.033733 0.000000
# 6 -0.000003 0.000002 0.000004 -0.066873 0.000000 0.077709
#
#
# Mechanical properties :
#
#
# Convention : Reuss Voigt Hill
#
# Bulk Modulus (GPa) = 45.49939 55.04649 50.27294
# Shear Modulus (GPa) = 15.82112 26.27396 21.04754
#
# Velocity S-wave (km/s) = 2.67107 3.44214 3.08083
# Velocity P-wave (km/s) = 5.48005 6.37348 5.94358
#
# Compressibility (1/GPa) = 0.02197832
#
# Stress axis : x y z
#
# Youngs Moduli (GPa) = 57.18181 97.84597 71.78935
#
# Poissons Ratio (x) = 0.48992 0.02736
# Poissons Ratio (y) = 0.28631 0.31887
# Poissons Ratio (z) = 0.02179 0.43460
#
# Static dielectric constant tensor:
#      x y z
#    x 3.772200 0.000000 -0.052710 
#    y 0.000000 4.323900 0.000010 
#    z -0.052710 0.000010 3.974930 
# 
# 
# High freq. dielectric constant tensor:
#      x y z
#    x 1.859280 0.000000 -0.001910 
#    y 0.000000 1.890630 0.000000 
#    z -0.001910 0.000000 1.881460 
# 
# From -- ./inp_files/274449.got.cif
#   From: 2010.06.25/outbox.cif.g09.slc.cpg/sg15_138_cif.got.tgz:274449.got - 2010.06.28 07:06:18.
