data_PCOD8151074
_publ_section_title
;
Structure prediction by ZEFSAII (Michael W. Deem and Ramdas Pophale) SiO2 
 PCOD8151074
Probable space group: C 2/C
;
_chemical_formula_sum "Si O2"
_cell_formula_units_Z 40
_cell_length_a 18.986975
_cell_length_b 11.940138
_cell_length_c 8.297041
_cell_angle_alpha 90.000000
_cell_angle_beta 88.719246
_cell_angle_gamma 90.000000
_cell_volume 1880.528195
_symmetry_space_group_name_H-M "C 2/C"
_symmetry_group_IT_number 15
_symmetry_cell_setting 'monoclinic'
loop_
_space_group_symop_operation_xyz
x,y,z
-x,y,1/2-z
-x,-y,-z
x,-y,1/2+z
1/2+x,1/2+y,z
1/2-x,1/2+y,1/2-z
1/2-x,1/2-y,-z
1/2+x,1/2-y,1/2+z
loop_
_atom_site_type_symbol
_atom_site_label
_atom_site_fract_x
_atom_site_fract_y
_atom_site_fract_z
Si Si1 0.919920 0.110156 0.243260
Si Si2 0.819981 0.336042 0.814632
Si Si3 0.702135 0.954207 0.366732
Si Si4 0.698413 0.756836 0.154887
Si Si5 0.362808 0.398054 0.391085
O O1 0.874324 0.189596 0.366321
O O2 0.000000 0.151046 0.250000
O O3 0.915732 0.980883 0.296982
O O4 0.890886 0.124537 0.066587
O O5 0.830292 0.421519 0.662924
O O6 0.737919 0.297475 0.810056
O O7 0.865000 0.221670 0.796817
O O8 0.837118 0.397934 0.980799
O O9 0.685221 0.886212 0.202588
O O10 0.786105 0.957974 0.394639
O O11 0.750000 0.750000 0.000000
#
# Coordination Sequence:
#
# PCOD8151074 Si02
#       5
#     8   8   8   8   8
#     4  12  25  43  65  93 139 178 213 264 328 399
#     4  11  21  37  64  91 132 166 216 285 327 378
#     4  11  19  37  62  90 131 163 214 287 330 370
#     4  11  22  37  63  97 129 169 219 271 329 384
#     4  11  22  41  59  95 134 169 220 264 325 393
#
# _framework density 21.270620999999998
#
# number of rings (size 3 to 8) (size 9 to 14) (size 15 to 20)
#    0.000    0.800    6.000    3.000    5.600    0.000 
#    0.000    0.000    0.000    2.400    0.000    0.000 
#    0.000    0.000    0.000    0.000    0.000    0.000 
#
# Total GULP energy -247917.680738 kJ/mol
# GULP energy per Si atom -12395.884037 kJ/mol
# Density = 2.122221 g / cm^3
# Si number density = 21.270621 Si / 1000 Ang^3
#
#
#
# Elastic Constant Matrix: (Units=GPa)
#
#
# Indices 1 2 3 4 5 6 
#
# 1 106.6528 53.5603 43.7736 0.0000 -8.0425 0.0000
# 2 53.5603 109.0089 25.8603 0.0000 0.1183 0.0000
# 3 43.7736 25.8603 74.4207 0.0000 8.1117 0.0000
# 4 0.0000 0.0000 0.0000 39.5941 0.0000 -2.7815
# 5 -8.0425 0.1183 8.1117 0.0000 19.4183 0.0000
# 6 0.0000 0.0000 0.0000 -2.7815 0.0000 25.3945
#
#
#
# Elastic Compliance Matrix: (Units=1/GPa)
#
#
# Indices 1 2 3 4 5 6 
#
# 1 0.017039 -0.006240 -0.009039 0.000000 0.010871 0.000000
# 2 -0.006240 0.012322 -0.000337 0.000000 -0.002518 0.000000
# 3 -0.009039 -0.000337 0.020199 0.000000 -0.012179 0.000000
# 4 0.000000 0.000000 0.000000 0.025452 0.000000 0.002788
# 5 0.010871 -0.002518 -0.012179 0.000000 0.061103 0.000000
# 6 0.000000 0.000000 0.000000 0.002788 0.000000 0.039684
#
#
# Mechanical properties :
#
#
# Convention : Reuss Voigt Hill
#
# Bulk Modulus (GPa) = 54.56093 59.60785 57.08439
# Shear Modulus (GPa) = 23.45866 28.00727 25.73296
#
# Velocity S-wave (km/s) = 3.32455 3.63259 3.48198
# Velocity P-wave (km/s) = 6.35951 6.75860 6.56209
#
# Compressibility (1/GPa) = 0.01832813
#
# Stress axis : x y z
#
# Youngs Moduli (GPa) = 58.68738 81.15556 49.50837
#
# Poissons Ratio (x) = 0.50637 0.44752
# Poissons Ratio (y) = 0.36618 0.01669
# Poissons Ratio (z) = 0.53049 0.02736
#
# Static dielectric constant tensor:
#      x y z
#    x 3.401610 0.000000 0.247820 
#    y 0.000000 4.300240 0.000000 
#    z 0.247820 0.000000 3.795070 
# 
# 
# High freq. dielectric constant tensor:
#      x y z
#    x 1.765350 0.000000 0.023530 
#    y 0.000000 1.857230 0.000000 
#    z 0.023530 0.000000 1.838880 
# 
# From -- ./inp_files/46051.got.cif
#   From: 2010.06.25/outbox.cif.g09.slc.cpg/sg15_24_cif.got.tgz:46051.got - 2010.06.28 07:06:18.
