data_PCOD8151295
_publ_section_title
;
Structure prediction by ZEFSAII (Michael W. Deem and Ramdas Pophale) SiO2 
 PCOD8151295
Probable space group: C 2/C
;
_chemical_formula_sum "Si O2"
_cell_formula_units_Z 40
_cell_length_a 17.506550
_cell_length_b 12.161956
_cell_length_c 8.684871
_cell_angle_alpha 90.000000
_cell_angle_beta 92.391233
_cell_angle_gamma 90.000000
_cell_volume 1847.519502
_symmetry_space_group_name_H-M "C 2/C"
_symmetry_group_IT_number 15
_symmetry_cell_setting 'monoclinic'
loop_
_space_group_symop_operation_xyz
x,y,z
-x,y,1/2-z
-x,-y,-z
x,-y,1/2+z
1/2+x,1/2+y,z
1/2-x,1/2+y,1/2-z
1/2-x,1/2-y,-z
1/2+x,1/2-y,1/2+z
loop_
_atom_site_type_symbol
_atom_site_label
_atom_site_fract_x
_atom_site_fract_y
_atom_site_fract_z
Si Si1 0.819610 0.590216 0.195241
Si Si2 0.188899 0.211147 0.624398
Si Si3 0.585230 0.470238 0.961663
Si Si4 0.853081 0.873154 0.820131
Si Si5 0.179132 0.631600 0.665711
O O1 0.857734 0.687109 0.300388
O O2 0.731829 0.599308 0.243728
O O3 0.856091 0.472517 0.245118
O O4 0.823405 0.606538 0.014456
O O5 0.250000 0.250000 0.500000
O O6 0.122853 0.133927 0.552311
O O7 0.234808 0.149289 0.765191
O O8 0.588246 0.441665 0.781771
O O9 0.500000 0.500000 0.000000
O O10 0.634413 0.579744 0.006628
O O11 0.870031 0.742491 0.811183
#
# Coordination Sequence:
#
# PCOD8151295 Si02
#       5
#     8   8   8   8   8
#     4  11  21  36  64  94 130 167 217 283 339 385
#     4  11  20  38  62  91 132 170 217 279 332 394
#     4  12  25  40  61  91 130 177 214 266 337 405
#     4  11  23  39  58  91 133 167 221 267 333 397
#     4  11  22  36  63  95 128 168 219 283 333 391
#
# _framework density 21.650652999999998
#
# number of rings (size 3 to 8) (size 9 to 14) (size 15 to 20)
#    0.000    0.800    6.000    5.400    2.800    0.000 
#    0.000    0.000    0.000    1.200    0.000    0.000 
#    0.000    0.000    0.000    0.000    0.000    0.000 
#
# Total GULP energy -247812.383561 kJ/mol
# GULP energy per Si atom -12390.619178 kJ/mol
# Density = 2.160137 g / cm^3
# Si number density = 21.650653 Si / 1000 Ang^3
#
#
#
# Elastic Constant Matrix: (Units=GPa)
#
#
# Indices 1 2 3 4 5 6 
#
# 1 61.6647 27.8522 22.2374 0.0000 -5.1346 0.0000
# 2 27.8522 170.8034 66.6821 0.0000 9.0726 0.0000
# 3 22.2374 66.6821 138.9774 0.0000 -7.0871 0.0000
# 4 0.0000 0.0000 0.0000 48.6034 0.0000 -0.4124
# 5 -5.1346 9.0726 -7.0871 0.0000 21.9353 0.0000
# 6 0.0000 0.0000 0.0000 -0.4124 0.0000 24.6894
#
#
#
# Elastic Compliance Matrix: (Units=1/GPa)
#
#
# Indices 1 2 3 4 5 6 
#
# 1 0.018357 -0.002719 -0.001379 0.000000 0.004976 0.000000
# 2 -0.002719 0.008002 -0.003666 0.000000 -0.005131 0.000000
# 3 -0.001379 -0.003666 0.009390 0.000000 0.004227 0.000000
# 4 0.000000 0.000000 0.000000 0.020578 0.000000 0.000344
# 5 0.004976 -0.005131 0.004227 0.000000 0.050241 0.000000
# 6 0.000000 0.000000 0.000000 0.000344 0.000000 0.040509
#
#
# Mechanical properties :
#
#
# Convention : Reuss Voigt Hill
#
# Bulk Modulus (GPa) = 49.45338 67.22098 58.33718
# Shear Modulus (GPa) = 29.52556 36.02386 32.77471
#
# Velocity S-wave (km/s) = 3.69687 4.08348 3.89498
# Velocity P-wave (km/s) = 6.41199 7.30401 6.87249
#
# Compressibility (1/GPa) = 0.02022106
#
# Stress axis : x y z
#
# Youngs Moduli (GPa) = 54.47656 124.97200 106.49108
#
# Poissons Ratio (x) = 0.33985 0.14681
# Poissons Ratio (y) = 0.14815 0.39038
# Poissons Ratio (z) = 0.07510 0.45812
#
# Static dielectric constant tensor:
#      x y z
#    x 3.261780 0.000000 0.163850 
#    y 0.000000 4.665770 0.000000 
#    z 0.163850 0.000000 4.252090 
# 
# 
# High freq. dielectric constant tensor:
#      x y z
#    x 1.769380 0.000000 0.009300 
#    y 0.000000 1.877100 0.000000 
#    z 0.009300 0.000000 1.876900 
# 
# From -- ./inp_files/46171.got.cif
#   From: 2010.06.25/outbox.cif.g09.slc.cpg/sg15_24_cif.got.tgz:46171.got - 2010.06.28 07:06:18.
