data_PCOD8151506
_publ_section_title
;
Structure prediction by ZEFSAII (Michael W. Deem and Ramdas Pophale) SiO2 
 PCOD8151506
Probable space group: C 2/C
;
_chemical_formula_sum "Si O2"
_cell_formula_units_Z 56
_cell_length_a 14.051334
_cell_length_b 14.071681
_cell_length_c 28.880238
_cell_angle_alpha 90.000000
_cell_angle_beta 151.395602
_cell_angle_gamma 90.000000
_cell_volume 2733.892819
_symmetry_space_group_name_H-M "C 2/C"
_symmetry_group_IT_number 15
_symmetry_cell_setting 'monoclinic'
loop_
_space_group_symop_operation_xyz
x,y,z
-x,y,1/2-z
-x,-y,-z
x,-y,1/2+z
1/2+x,1/2+y,z
1/2-x,1/2+y,1/2-z
1/2-x,1/2-y,-z
1/2+x,1/2-y,1/2+z
loop_
_atom_site_type_symbol
_atom_site_label
_atom_site_fract_x
_atom_site_fract_y
_atom_site_fract_z
Si Si1 0.320290 0.613195 0.137059
Si Si2 0.599493 0.811642 0.841825
Si Si3 0.688286 0.505199 0.547285
Si Si4 0.136964 0.200487 0.687626
Si Si5 0.946053 0.688843 0.026489
Si Si6 0.054651 0.687810 0.826842
Si Si7 0.352883 0.542080 0.572500
O O1 0.500000 0.595233 0.250000
O O2 0.346561 0.710876 0.120374
O O3 0.311511 0.528848 0.096644
O O4 0.107031 0.621571 0.070608
O O5 0.500000 0.800767 0.750000
O O6 0.426895 0.783795 0.804603
O O7 0.661466 0.920028 0.877160
O O8 0.790733 0.741257 0.925767
O O9 0.500000 0.500000 0.500000
O O10 0.793978 0.604819 0.598887
O O11 0.618247 0.507986 0.464272
O O12 0.370612 0.183874 0.783462
O O13 0.052037 0.227816 0.600668
O O14 0.053302 0.099785 0.669416
O O15 0.824731 0.618787 0.008396
O O16 0.000000 0.682463 0.750000
#
# Coordination Sequence:
#
# PCOD8151506 Si02
#       7
#     8   8   8   8   8   8   8
#     4  11  24  42  67  97 134 171 228 279 337 399
#     4  11  24  41  68  98 128 174 229 276 328 411
#     4  12  24  41  63  94 137 178 223 275 338 408
#     4  11  21  43  69  89 131 179 216 267 346 407
#     4  11  20  46  70  90 134 178 214 275 351 404
#     4  11  23  39  64  92 128 177 223 275 331 395
#     4  11  24  39  67  97 127 180 218 276 339 404
#
# _framework density 20.483612000000001
#
# number of rings (size 3 to 8) (size 9 to 14) (size 15 to 20)
#    0.000    0.857    5.714    3.429    0.000    7.429 
#    0.000    0.000    0.000    0.000    0.000    0.000 
#    0.000    0.000    0.000    0.000    0.000    0.000 
#
# Total GULP energy -347200.252521 kJ/mol
# GULP energy per Si atom -12400.009019 kJ/mol
# Density = 2.043699 g / cm^3
# Si number density = 20.483612 Si / 1000 Ang^3
#
#
#
# Elastic Constant Matrix: (Units=GPa)
#
#
# Indices 1 2 3 4 5 6 
#
# 1 101.5105 20.5965 27.7783 -0.0002 16.4884 -0.0001
# 2 20.5965 99.5996 18.6417 0.0002 1.0157 0.0006
# 3 27.7783 18.6417 66.7600 0.0011 2.6211 0.0035
# 4 -0.0002 0.0002 0.0011 25.3989 -0.0002 -0.8635
# 5 16.4884 1.0157 2.6211 -0.0002 43.3601 0.0000
# 6 -0.0001 0.0006 0.0035 -0.8635 0.0000 28.9528
#
#
#
# Elastic Compliance Matrix: (Units=1/GPa)
#
#
# Indices 1 2 3 4 5 6 
#
# 1 0.012084 -0.001631 -0.004404 0.000000 -0.004291 0.000001
# 2 -0.001631 0.010814 -0.002361 0.000000 0.000510 0.000000
# 3 -0.004404 -0.002361 0.017444 -0.000001 0.000676 -0.000002
# 4 0.000000 0.000000 -0.000001 0.039412 0.000000 0.001175
# 5 -0.004291 0.000510 0.000676 0.000000 0.024642 0.000000
# 6 0.000001 0.000000 -0.000002 0.001175 0.000000 0.034574
#
#
# Mechanical properties :
#
#
# Convention : Reuss Voigt Hill
#
# Bulk Modulus (GPa) = 42.46230 44.65591 43.55911
# Shear Modulus (GPa) = 30.55993 32.93259 31.74626
#
# Velocity S-wave (km/s) = 3.86673 4.01403 3.94107
# Velocity P-wave (km/s) = 6.38047 6.58266 6.48235
#
# Compressibility (1/GPa) = 0.02355030
#
# Stress axis : x y z
#
# Youngs Moduli (GPa) = 82.75198 92.47125 57.32488
#
# Poissons Ratio (x) = 0.15081 0.25248
# Poissons Ratio (y) = 0.13496 0.13535
# Poissons Ratio (z) = 0.36447 0.21834
#
# Static dielectric constant tensor:
#      x y z
#    x 3.940630 0.000000 0.174100 
#    y 0.000000 3.951850 -0.000010 
#    z 0.174100 -0.000010 3.601220 
# 
# 
# High freq. dielectric constant tensor:
#      x y z
#    x 1.812840 0.000000 0.014720 
#    y 0.000000 1.811830 0.000000 
#    z 0.014720 0.000000 1.787320 
# 
# From -- ./inp_files/313904.got.cif
#   From: 2010.06.25/outbox.cif.g09.slc.cpg/sg15_157_cif.got.tgz:313904.got - 2010.06.28 07:06:18.
