data_PCOD8151447
_publ_section_title
;
Structure prediction by ZEFSAII (Michael W. Deem and Ramdas Pophale) SiO2 
 PCOD8151447
Probable space group: C 2/C
;
_chemical_formula_sum "Si O2"
_cell_formula_units_Z 64
_cell_length_a 26.856811
_cell_length_b 14.036755
_cell_length_c 11.953506
_cell_angle_alpha 90.000000
_cell_angle_beta 139.076943
_cell_angle_gamma 90.000000
_cell_volume 2951.804274
_symmetry_space_group_name_H-M "C 2/C"
_symmetry_group_IT_number 15
_symmetry_cell_setting 'monoclinic'
loop_
_space_group_symop_operation_xyz
x,y,z
-x,y,1/2-z
-x,-y,-z
x,-y,1/2+z
1/2+x,1/2+y,z
1/2-x,1/2+y,1/2-z
1/2-x,1/2-y,-z
1/2+x,1/2-y,1/2+z
loop_
_atom_site_type_symbol
_atom_site_label
_atom_site_fract_x
_atom_site_fract_y
_atom_site_fract_z
Si Si1 0.142077 0.046093 0.139436
Si Si2 0.083308 0.810941 0.715406
Si Si3 0.910679 0.394322 0.602137
Si Si4 0.806356 0.552770 0.495573
Si Si5 0.414987 0.325540 0.148800
Si Si6 0.326331 0.152809 0.750738
Si Si7 0.675950 0.251492 0.073518
Si Si8 0.587065 0.651509 0.595833
O O1 0.107132 0.096311 0.188015
O O2 0.228999 0.014848 0.308860
O O3 0.094942 0.949188 0.045351
O O4 0.138929 0.112337 0.023530
O O5 0.108613 0.718064 0.691048
O O6 0.993190 0.803721 0.573366
O O7 0.121480 0.814509 0.901589
O O8 0.869535 0.469788 0.613644
O O9 0.894068 0.286039 0.610673
O O10 0.869887 0.412787 0.413859
O O11 0.000000 0.416754 0.750000
O O12 0.788200 0.588041 0.590613
O O13 0.837078 0.640130 0.472538
O O14 0.500000 0.341968 0.250000
O O15 0.404120 0.362131 0.256233
O O16 0.263316 0.221246 0.699083
O O17 0.651953 0.276245 0.159793
#
# Coordination Sequence:
#
# PCOD8151447 Si02
#       8
#     8   8   8   8   8   8   8   8
#     4  12  23  42  67  98 130 176 224 257 331 408
#     4  11  20  42  68  93 132 174 219 266 325 397
#     4  11  24  43  66  97 130 172 226 273 330 397
#     4  11  24  42  72  95 130 181 224 272 326 394
#     4  11  24  45  66  93 139 180 213 267 341 402
#     4  11  21  45  72  89 130 186 218 270 337 399
#     4  11  23  43  67 100 133 168 229 281 324 382
#     4  12  27  38  67 106 136 170 217 285 328 386
#
# _framework density 21.681654999999999
#
# number of rings (size 3 to 8) (size 9 to 14) (size 15 to 20)
#    0.000    0.750    5.000    3.000    1.750    4.500 
#    0.000    4.375    0.000    0.000    0.000    0.000 
#    0.000    0.000    0.000    0.000    0.000    0.000 
#
# Total GULP energy -396907.091832 kJ/mol
# GULP energy per Si atom -12403.346620 kJ/mol
# Density = 2.163231 g / cm^3
# Si number density = 21.681655 Si / 1000 Ang^3
#
#
#
# Elastic Constant Matrix: (Units=GPa)
#
#
# Indices 1 2 3 4 5 6 
#
# 1 104.7519 46.5111 32.7733 0.0000 2.8281 0.0000
# 2 46.5111 94.1179 27.1498 0.0000 9.3950 0.0000
# 3 32.7733 27.1498 108.6630 0.0000 12.5671 0.0000
# 4 0.0000 0.0000 0.0000 19.0581 0.0000 4.7815
# 5 2.8281 9.3950 12.5671 0.0000 33.8135 0.0000
# 6 0.0000 0.0000 0.0000 4.7815 0.0000 28.5672
#
#
#
# Elastic Compliance Matrix: (Units=1/GPa)
#
#
# Indices 1 2 3 4 5 6 
#
# 1 0.012883 -0.005760 -0.002619 0.000000 0.001497 0.000000
# 2 -0.005760 0.014187 -0.001470 0.000000 -0.002913 0.000000
# 3 -0.002619 -0.001470 0.010750 0.000000 -0.003368 0.000000
# 4 0.000000 0.000000 0.000000 0.054771 0.000000 -0.009168
# 5 0.001497 -0.002913 -0.003368 0.000000 0.031510 0.000000
# 6 0.000000 0.000000 0.000000 -0.009168 0.000000 0.036540
#
#
# Mechanical properties :
#
#
# Convention : Reuss Voigt Hill
#
# Bulk Modulus (GPa) = 55.19003 57.82235 56.50619
# Shear Modulus (GPa) = 26.82690 29.69432 28.26061
#
# Velocity S-wave (km/s) = 3.52136 3.70477 3.61423
# Velocity P-wave (km/s) = 6.48408 6.71023 6.59812
#
# Compressibility (1/GPa) = 0.01811921
#
# Stress axis : x y z
#
# Youngs Moduli (GPa) = 77.62072 70.48928 93.02648
#
# Poissons Ratio (x) = 0.40604 0.24368
# Poissons Ratio (y) = 0.44712 0.13677
# Poissons Ratio (z) = 0.20332 0.10364
#
# Static dielectric constant tensor:
#      x y z
#    x 3.940900 0.000000 -0.082360 
#    y 0.000000 3.820730 0.000000 
#    z -0.082360 0.000000 4.040550 
# 
# 
# High freq. dielectric constant tensor:
#      x y z
#    x 1.846740 0.000000 0.002360 
#    y 0.000000 1.847850 0.000000 
#    z 0.002360 0.000000 1.858050 
# 
# From -- ./inp_files/123529.got.cif
#   From: 2010.06.25/outbox.cif.g09.slc.cpg/sg15_62_cif.got.tgz:123529.got - 2010.06.28 07:06:18.
