data_PCOD8151708
_publ_section_title
;
Structure prediction by ZEFSAII (Michael W. Deem and Ramdas Pophale) SiO2 
 PCOD8151708
Probable space group: C 2/C
;
_chemical_formula_sum "Si O2"
_cell_formula_units_Z 56
_cell_length_a 15.306700
_cell_length_b 21.941926
_cell_length_c 12.957771
_cell_angle_alpha 90.000000
_cell_angle_beta 141.593444
_cell_angle_gamma 90.000000
_cell_volume 2703.611250
_symmetry_space_group_name_H-M "C 2/C"
_symmetry_group_IT_number 15
_symmetry_cell_setting 'monoclinic'
loop_
_space_group_symop_operation_xyz
x,y,z
-x,y,1/2-z
-x,-y,-z
x,-y,1/2+z
1/2+x,1/2+y,z
1/2-x,1/2+y,1/2-z
1/2-x,1/2-y,-z
1/2+x,1/2-y,1/2+z
loop_
_atom_site_type_symbol
_atom_site_label
_atom_site_fract_x
_atom_site_fract_y
_atom_site_fract_z
Si Si1 0.770869 0.825265 0.333157
Si Si2 0.389387 0.387763 0.733795
Si Si3 0.636220 0.449621 0.580815
Si Si4 0.528573 0.743986 0.164028
Si Si5 0.154271 0.585127 0.885968
Si Si6 0.834552 0.936868 0.260819
Si Si7 0.655240 0.947226 0.889237
O O1 0.622364 0.789954 0.181211
O O2 0.757956 0.874145 0.412753
O O3 0.810446 0.865866 0.270376
O O4 0.890144 0.775601 0.471939
O O5 0.500000 0.412337 0.750000
O O6 0.425547 0.409247 0.882456
O O7 0.379416 0.315146 0.723748
O O8 0.232995 0.414310 0.569181
O O9 0.495874 0.453831 0.379083
O O10 0.699134 0.514357 0.678907
O O11 0.752750 0.415902 0.617059
O O12 0.500000 0.774865 0.250000
O O13 0.138934 0.516271 0.833332
O O14 0.000000 0.615012 0.750000
O O15 0.731707 0.946037 0.069394
O O16 0.500000 0.916633 0.750000
#
# Coordination Sequence:
#
# PCOD8151708 Si02
#       7
#     8   8   8   8   8   8   8
#     4  12  23  41  58  96 128 172 212 263 318 387
#     4  11  21  39  62  96 131 163 214 259 316 390
#     4  11  22  39  68  93 127 171 211 268 325 377
#     4  11  23  38  61  90 134 166 213 267 319 386
#     4  11  22  35  58  90 136 169 201 255 321 388
#     4  11  23  39  66  93 128 168 216 264 320 390
#     4  11  25  41  59  97 135 167 212 261 326 389
#
# _framework density 20.713035999999999
#
# number of rings (size 3 to 8) (size 9 to 14) (size 15 to 20)
#    0.000    0.857    7.143    1.286    4.000    1.714 
#    0.000    0.000    0.000    0.857    0.000    0.000 
#    0.000    0.000    0.000    0.000    0.000    0.000 
#
# Total GULP energy -346910.129154 kJ/mol
# GULP energy per Si atom -12389.647470 kJ/mol
# Density = 2.066589 g / cm^3
# Si number density = 20.713036 Si / 1000 Ang^3
#
#
#
# Elastic Constant Matrix: (Units=GPa)
#
#
# Indices 1 2 3 4 5 6 
#
# 1 126.7437 32.0635 65.1502 0.0000 12.8094 0.0000
# 2 32.0635 66.7540 15.7422 0.0000 0.3111 0.0000
# 3 65.1502 15.7422 135.8854 0.0000 18.4944 0.0000
# 4 0.0000 0.0000 0.0000 16.4244 0.0000 -0.5534
# 5 12.8094 0.3111 18.4944 0.0000 19.7758 0.0000
# 6 0.0000 0.0000 0.0000 -0.5534 0.0000 19.6041
#
#
#
# Elastic Compliance Matrix: (Units=1/GPa)
#
#
# Indices 1 2 3 4 5 6 
#
# 1 0.011764 -0.004531 -0.004684 0.000000 -0.003168 0.000000
# 2 -0.004531 0.017193 -0.000208 0.000000 0.002859 0.000000
# 3 -0.004684 -0.000208 0.010560 0.000000 -0.006838 0.000000
# 4 0.000000 0.000000 0.000000 0.060943 0.000000 0.001720
# 5 -0.003168 0.002859 -0.006838 0.000000 0.058969 0.000000
# 6 0.000000 0.000000 0.000000 0.001720 0.000000 0.051058
#
#
# Mechanical properties :
#
#
# Convention : Reuss Voigt Hill
#
# Bulk Modulus (GPa) = 48.38178 61.69943 55.04061
# Shear Modulus (GPa) = 21.16632 25.58936 23.37784
#
# Velocity S-wave (km/s) = 3.20016 3.51867 3.36319
# Velocity P-wave (km/s) = 6.08798 6.80885 6.45848
#
# Compressibility (1/GPa) = 0.02066894
#
# Stress axis : x y z
#
# Youngs Moduli (GPa) = 85.00311 58.16436 94.69826
#
# Poissons Ratio (x) = 0.26356 0.44359
# Poissons Ratio (y) = 0.38517 0.01974
# Poissons Ratio (z) = 0.39818 0.01212
#
# Static dielectric constant tensor:
#      x y z
#    x 3.754430 0.000000 0.233950 
#    y 0.000000 3.546870 0.000000 
#    z 0.233950 0.000000 3.776390 
# 
# 
# High freq. dielectric constant tensor:
#      x y z
#    x 1.795110 0.000000 0.023180 
#    y 0.000000 1.787180 0.000000 
#    z 0.023180 0.000000 1.809660 
# 
# From -- ./inp_files/101131.got.cif
#   From: 2010.06.25/outbox.cif.g09.slc.cpg/sg15_51_cif.got.tgz:101131.got - 2010.06.28 07:06:18.
