data_PCOD8151581
_publ_section_title
;
Structure prediction by ZEFSAII (Michael W. Deem and Ramdas Pophale) SiO2 
 PCOD8151581
Probable space group: C 2/C
;
_chemical_formula_sum "Si O2"
_cell_formula_units_Z 28
_cell_length_a 11.943020
_cell_length_b 22.899914
_cell_length_c 4.948724
_cell_angle_alpha 90.000000
_cell_angle_beta 67.174024
_cell_angle_gamma 90.000000
_cell_volume 1247.454978
_symmetry_space_group_name_H-M "C 2/C"
_symmetry_group_IT_number 15
_symmetry_cell_setting 'monoclinic'
loop_
_space_group_symop_operation_xyz
x,y,z
-x,y,1/2-z
-x,-y,-z
x,-y,1/2+z
1/2+x,1/2+y,z
1/2-x,1/2+y,1/2-z
1/2-x,1/2-y,-z
1/2+x,1/2-y,1/2+z
loop_
_atom_site_type_symbol
_atom_site_label
_atom_site_fract_x
_atom_site_fract_y
_atom_site_fract_z
Si Si1 0.421614 0.235765 0.580438
Si Si2 0.131142 0.862570 0.729027
Si Si3 0.000000 0.541957 0.250000
Si Si4 0.721568 0.123932 0.908653
O O1 0.500000 0.205187 0.750000
O O2 0.360394 0.292020 0.779489
O O3 0.324246 0.190718 0.552161
O O4 0.500000 0.257594 0.250000
O O5 0.231669 0.890634 0.435098
O O6 0.000000 0.884320 0.750000
O O7 0.163431 0.883826 0.999354
O O8 0.000000 0.500000 0.500000
O O9 0.883123 0.582517 0.384495
#
# Coordination Sequence:
#
# PCOD8151581 Si02
#       4
#     8   8   4   8
#     4  11  21  36  61  99 142 174 216 254 321 404
#     4  11  23  39  63 100 137 179 210 251 321 415
#     4  12  28  48  72  98 122 166 234 292 336 364
#     4  12  23  42  68  90 136 174 218 277 327 379
#
# _framework density 22.445698
#
# number of rings (size 3 to 8) (size 9 to 14) (size 15 to 20)
#    0.000    0.571    1.429    9.429    2.000    0.000 
#    0.000    0.000    0.000   17.143    0.000    0.000 
#    0.000    0.000    0.000    0.000    0.000    0.000 
#
# Total GULP energy -173577.198520 kJ/mol
# GULP energy per Si atom -12398.371323 kJ/mol
# Density = 2.239461 g / cm^3
# Si number density = 22.445698 Si / 1000 Ang^3
#
#
#
# Elastic Constant Matrix: (Units=GPa)
#
#
# Indices 1 2 3 4 5 6 
#
# 1 125.5175 26.8214 38.2391 0.0000 17.4719 0.0000
# 2 26.8214 56.3418 32.2965 0.0000 -8.5497 0.0000
# 3 38.2391 32.2965 148.4714 0.0000 8.5670 0.0000
# 4 0.0000 0.0000 0.0000 31.7738 0.0000 26.2505
# 5 17.4719 -8.5497 8.5670 0.0000 46.2844 0.0000
# 6 0.0000 0.0000 0.0000 26.2505 0.0000 -90.9425
#
#
#
# Elastic Compliance Matrix: (Units=1/GPa)
#
#
# Indices 1 2 3 4 5 6 
#
# 1 0.009971 -0.004667 -0.001300 0.000000 -0.004385 0.000000
# 2 -0.004667 0.023484 -0.004304 0.000000 0.006897 0.000000
# 3 -0.001300 -0.004304 0.008111 0.000000 -0.001806 0.000000
# 4 0.000000 0.000000 0.000000 0.025412 0.000000 0.007335
# 5 -0.004385 0.006897 -0.001806 0.000000 0.024869 0.000000
# 6 0.000000 0.000000 0.000000 0.007335 0.000000 -0.008879
#
#
# Mechanical properties :
#
#
# Convention : Reuss Voigt Hill
#
# Bulk Modulus (GPa) = 47.56597 58.33831 52.95214
# Shear Modulus (GPa) = 45.24123 12.95472 29.09797
#
# Velocity S-wave (km/s) = 4.49440 2.40502 3.60442
# Velocity P-wave (km/s) = 6.94049 5.81029 6.40038
#
# Compressibility (1/GPa) = 0.02102343
#
# Stress axis : x y z
#
# Youngs Moduli (GPa) = 100.29399 42.58134 123.29570
#
# Poissons Ratio (x) = 0.19872 0.16025
# Poissons Ratio (y) = 0.46807 0.53072
# Poissons Ratio (z) = 0.13036 0.18329
#
# Static dielectric constant tensor:
#      x y z
#    x 4.279280 0.000000 0.123700 
#    y 0.000000 4.702840 0.000000 
#    z 0.123700 0.000000 4.278470 
# 
# 
# High freq. dielectric constant tensor:
#      x y z
#    x 1.897080 0.000000 0.011000 
#    y 0.000000 1.831740 0.000000 
#    z 0.011000 0.000000 1.910030 
# 
# From -- ./inp_files/3425.got.cif
#   From: 2010.06.25/outbox.cif.g09.slc.cpg/sg15_2_cif.got.tgz:3425.got - 2010.06.28 07:06:18.
