data_PCOD8151321
_publ_section_title
;
Structure prediction by ZEFSAII (Michael W. Deem and Ramdas Pophale) SiO2 
 PCOD8151321
Probable space group: C 2/C
;
_chemical_formula_sum "Si O2"
_cell_formula_units_Z 52
_cell_length_a 11.256712
_cell_length_b 16.600183
_cell_length_c 13.574091
_cell_angle_alpha 90.000000
_cell_angle_beta 112.318081
_cell_angle_gamma 90.000000
_cell_volume 2346.492329
_symmetry_space_group_name_H-M "C 2/C"
_symmetry_group_IT_number 15
_symmetry_cell_setting 'monoclinic'
loop_
_space_group_symop_operation_xyz
x,y,z
-x,y,1/2-z
-x,-y,-z
x,-y,1/2+z
1/2+x,1/2+y,z
1/2-x,1/2+y,1/2-z
1/2-x,1/2-y,-z
1/2+x,1/2-y,1/2+z
loop_
_atom_site_type_symbol
_atom_site_label
_atom_site_fract_x
_atom_site_fract_y
_atom_site_fract_z
Si Si1 0.083526 0.101633 0.144324
Si Si2 0.033774 0.283992 0.122263
Si Si3 0.308417 0.430502 0.618455
Si Si4 0.798600 0.343093 0.171149
Si Si5 0.720905 0.018568 0.420734
Si Si6 0.500000 0.886697 0.750000
Si Si7 0.615944 0.202605 0.108367
O O1 0.095741 0.196923 0.166235
O O2 0.150026 0.053039 0.256221
O O3 0.159182 0.074901 0.071026
O O4 0.933473 0.081378 0.088790
O O5 0.136188 0.347486 0.199162
O O6 0.896595 0.294662 0.131628
O O7 0.014040 0.296101 0.998827
O O8 0.229766 0.504319 0.542282
O O9 0.220502 0.351603 0.585207
O O10 0.767031 0.432164 0.127092
O O11 0.665652 0.293812 0.133524
O O12 0.586311 0.058232 0.348520
O O13 0.411768 0.831822 0.791698
#
# Coordination Sequence:
#
# PCOD8151321 Si02
#       7
#     8   8   8   8   8   4   8
#     4  11  22  43  66 103 132 169 222 284 326 391
#     4  11  20  38  71  97 125 177 231 267 322 392
#     4  11  21  41  70  91 132 176 218 266 338 378
#     4  11  21  39  66 104 123 167 236 278 305 401
#     4  12  25  40  65 105 138 169 220 278 337 387
#     4  12  28  46  62  98 148 180 208 274 338 400
#     4  12  23  44  69  94 135 177 224 268 332 390
#
# _framework density 22.160737999999998
#
# number of rings (size 3 to 8) (size 9 to 14) (size 15 to 20)
#    0.000    0.615    6.154    3.692    0.000    1.846 
#    0.000    6.154    0.000    0.000    0.000    0.000 
#    0.000    0.000    0.000    0.000    0.000    0.000 
#
# Total GULP energy -322373.334938 kJ/mol
# GULP energy per Si atom -12398.974421 kJ/mol
# Density = 2.211030 g / cm^3
# Si number density = 22.160738 Si / 1000 Ang^3
#
#
#
# Elastic Constant Matrix: (Units=GPa)
#
#
# Indices 1 2 3 4 5 6 
#
# 1 66.1538 27.5787 9.4541 0.0000 5.4304 0.0000
# 2 27.5787 82.1484 15.8732 0.0000 -3.6246 0.0000
# 3 9.4541 15.8732 123.5385 0.0000 17.6333 0.0000
# 4 0.0000 0.0000 0.0000 35.2623 0.0000 1.7935
# 5 5.4304 -3.6246 17.6333 0.0000 18.5511 0.0000
# 6 0.0000 0.0000 0.0000 1.7935 0.0000 20.2522
#
#
#
# Elastic Compliance Matrix: (Units=1/GPa)
#
#
# Indices 1 2 3 4 5 6 
#
# 1 0.018372 -0.006567 0.000450 0.000000 -0.007088 0.000000
# 2 -0.006567 0.015177 -0.002482 0.000000 0.007247 0.000000
# 3 0.000450 -0.002482 0.009796 0.000000 -0.009928 0.000000
# 4 0.000000 0.000000 0.000000 0.028487 0.000000 -0.002523
# 5 -0.007088 0.007247 -0.009928 0.000000 0.066833 0.000000
# 6 0.000000 0.000000 0.000000 -0.002523 0.000000 0.049601
#
#
# Mechanical properties :
#
#
# Convention : Reuss Voigt Hill
#
# Bulk Modulus (GPa) = 38.24688 41.96143 40.10415
# Shear Modulus (GPa) = 23.34479 29.40878 26.37679
#
# Velocity S-wave (km/s) = 3.24918 3.64684 3.45374
# Velocity P-wave (km/s) = 5.60112 6.05878 5.83444
#
# Compressibility (1/GPa) = 0.02614592
#
# Stress axis : x y z
#
# Youngs Moduli (GPa) = 54.43137 65.88821 102.08030
#
# Poissons Ratio (x) = 0.43271 -0.04590
# Poissons Ratio (y) = 0.35747 0.25335
# Poissons Ratio (z) = -0.02448 0.16353
#
# Static dielectric constant tensor:
#      x y z
#    x 3.744100 0.000000 0.268660 
#    y 0.000000 3.742370 0.000000 
#    z 0.268660 0.000000 4.291200 
# 
# 
# High freq. dielectric constant tensor:
#      x y z
#    x 1.848430 0.000000 0.025690 
#    y 0.000000 1.853080 0.000000 
#    z 0.025690 0.000000 1.889180 
# 
# From -- ./inp_files/144311.got.cif
#   From: 2010.06.25/outbox.cif.g09.slc.cpg/sg15_73_cif.got.tgz:144311.got - 2010.06.28 07:06:18.
