data_PCOD8151212
_publ_section_title
;
Structure prediction by ZEFSAII (Michael W. Deem and Ramdas Pophale) SiO2 
 PCOD8151212
Probable space group: C 2/C
;
_chemical_formula_sum "Si O2"
_cell_formula_units_Z 40
_cell_length_a 20.506408
_cell_length_b 12.148390
_cell_length_c 18.523551
_cell_angle_alpha 90.000000
_cell_angle_beta 155.300083
_cell_angle_gamma 90.000000
_cell_volume 1928.276680
_symmetry_space_group_name_H-M "C 2/C"
_symmetry_group_IT_number 15
_symmetry_cell_setting 'monoclinic'
loop_
_space_group_symop_operation_xyz
x,y,z
-x,y,1/2-z
-x,-y,-z
x,-y,1/2+z
1/2+x,1/2+y,z
1/2-x,1/2+y,1/2-z
1/2-x,1/2-y,-z
1/2+x,1/2-y,1/2+z
loop_
_atom_site_type_symbol
_atom_site_label
_atom_site_fract_x
_atom_site_fract_y
_atom_site_fract_z
Si Si1 0.759607 0.721231 0.158316
Si Si2 0.054543 0.386875 0.886139
Si Si3 0.843894 0.987356 0.887502
Si Si4 0.799549 0.299687 0.242273
Si Si5 0.870978 0.403241 0.950177
O O1 0.640945 0.616089 0.042969
O O2 0.759012 0.782375 0.234395
O O3 0.928705 0.672586 0.310327
O O4 0.706781 0.808450 0.044122
O O5 0.000000 0.396685 0.750000
O O6 0.092874 0.510686 0.950285
O O7 0.803460 0.097869 0.891366
O O8 0.692338 0.967877 0.683500
O O9 0.000000 0.000000 0.000000
O O10 0.761240 0.187289 0.159269
O O11 0.980702 0.328212 0.420412
#
# Coordination Sequence:
#
# PCOD8151212 Si02
#       5
#     8   8   8   8   8
#     4  11  22  38  65  94 126 159 217 261 326 366
#     4  12  25  44  63  89 135 180 212 250 302 397
#     4  11  20  35  63  97 129 156 201 278 334 371
#     4  11  20  37  65  94 127 156 201 291 321 365
#     4  11  23  40  62  96 129 166 215 258 332 372
#
# _framework density 20.743911000000001
#
# number of rings (size 3 to 8) (size 9 to 14) (size 15 to 20)
#    0.000    0.800    4.000    7.200    0.000    0.000 
#    0.000    1.000    0.000    0.000    0.000    0.000 
#    0.000    0.000    0.000    0.000    0.000    0.000 
#
# Total GULP energy -247899.494411 kJ/mol
# GULP energy per Si atom -12394.974721 kJ/mol
# Density = 2.069670 g / cm^3
# Si number density = 20.743911 Si / 1000 Ang^3
#
#
#
# Elastic Constant Matrix: (Units=GPa)
#
#
# Indices 1 2 3 4 5 6 
#
# 1 44.7110 28.5546 27.5293 -0.0005 -8.7752 -0.0001
# 2 28.5546 166.9976 53.7998 -0.0017 -12.1003 -0.0005
# 3 27.5293 53.7998 98.3107 -0.0026 5.0759 -0.0009
# 4 -0.0005 -0.0017 -0.0026 53.9860 -0.0013 4.0719
# 5 -8.7752 -12.1003 5.0759 -0.0013 36.6450 -0.0003
# 6 -0.0001 -0.0005 -0.0009 4.0719 -0.0003 23.2637
#
#
#
# Elastic Compliance Matrix: (Units=1/GPa)
#
#
# Indices 1 2 3 4 5 6 
#
# 1 0.029865 -0.002117 -0.007592 0.000000 0.007504 0.000000
# 2 -0.002117 0.007756 -0.003785 0.000000 0.002578 0.000000
# 3 -0.007592 -0.003785 0.014632 0.000000 -0.005095 0.000000
# 4 0.000000 0.000000 0.000000 0.018771 0.000001 -0.003286
# 5 0.007504 0.002578 -0.005095 0.000001 0.030643 0.000000
# 6 0.000000 0.000000 0.000000 -0.003286 0.000000 0.043561
#
#
# Mechanical properties :
#
#
# Convention : Reuss Voigt Hill
#
# Bulk Modulus (GPa) = 39.57906 58.86520 49.22213
# Shear Modulus (GPa) = 27.67973 36.12130 31.90051
#
# Velocity S-wave (km/s) = 3.65684 4.17741 3.92577
# Velocity P-wave (km/s) = 6.07876 7.19072 6.65799
#
# Compressibility (1/GPa) = 0.02526589
#
# Stress axis : x y z
#
# Youngs Moduli (GPa) = 33.48378 128.92827 68.34341
#
# Poissons Ratio (x) = 0.27295 0.51885
# Poissons Ratio (y) = 0.07089 0.25867
# Poissons Ratio (z) = 0.25420 0.48797
#
# Static dielectric constant tensor:
#      x y z
#    x 3.195650 0.000000 0.233430 
#    y 0.000000 4.567310 0.000000 
#    z 0.233430 0.000000 3.852340 
# 
# 
# High freq. dielectric constant tensor:
#      x y z
#    x 1.745180 0.000000 0.028970 
#    y 0.000000 1.852190 0.000000 
#    z 0.028970 0.000000 1.812240 
# 
# From -- ./inp_files/46183.got.cif
#   From: 2010.06.25/outbox.cif.g09.slc.cpg/sg15_24_cif.got.tgz:46183.got - 2010.06.28 07:06:18.
