data_PCOD8151614
_publ_section_title
;
Structure prediction by ZEFSAII (Michael W. Deem and Ramdas Pophale) SiO2 
 PCOD8151614
Probable space group: C 2/C
;
_chemical_formula_sum "Si O2"
_cell_formula_units_Z 48
_cell_length_a 30.549836
_cell_length_b 14.727094
_cell_length_c 13.276706
_cell_angle_alpha 90.000000
_cell_angle_beta 161.702626
_cell_angle_gamma 90.000000
_cell_volume 1875.319645
_symmetry_space_group_name_H-M "C 2/C"
_symmetry_group_IT_number 15
_symmetry_cell_setting 'monoclinic'
loop_
_space_group_symop_operation_xyz
x,y,z
-x,y,1/2-z
-x,-y,-z
x,-y,1/2+z
1/2+x,1/2+y,z
1/2-x,1/2+y,1/2-z
1/2-x,1/2-y,-z
1/2+x,1/2-y,1/2+z
loop_
_atom_site_type_symbol
_atom_site_label
_atom_site_fract_x
_atom_site_fract_y
_atom_site_fract_z
Si Si1 0.316556 0.103225 0.357729
Si Si2 0.437397 0.089786 0.408106
Si Si3 0.506588 0.563391 0.608838
Si Si4 0.273333 0.207887 0.777548
Si Si5 0.546067 0.766081 0.007236
Si Si6 0.225913 0.040187 0.793944
O O1 0.427046 0.093516 0.507304
O O2 0.324790 0.205755 0.415718
O O3 0.345215 0.030940 0.511164
O O4 0.163205 0.075029 0.987259
O O5 0.529085 0.175927 0.572287
O O6 0.500000 0.000000 0.500000
O O7 0.281975 0.090937 0.017616
O O8 0.500000 0.500000 0.500000
O O9 0.440991 0.660571 0.436485
O O10 0.413391 0.517301 0.491987
O O11 0.194188 0.116024 0.638489
O O12 0.314262 0.203598 0.748383
O O13 0.413797 0.216514 0.148210
#
# Coordination Sequence:
#
# PCOD8151614 Si02
#       6
#     8   8   8   8   8   8
#     4  11  22  39  64  91 123 158 205 253 309 365
#     4  11  24  40  61  89 121 167 207 248 301 374
#     4  11  21  37  63  94 121 156 203 259 310 362
#     4   9  19  35  61  88 117 162 201 248 304 368
#     4   9  19  37  59  87 123 159 203 249 302 369
#     4  11  22  39  64  89 122 158 206 255 304 365
#
# _framework density 25.595637
#
# number of rings (size 3 to 8) (size 9 to 14) (size 15 to 20)
#    0.000    1.667    3.333    1.500    2.333    4.000 
#    0.000    2.500    3.667    0.000    0.000    0.000 
#    0.000    0.000    0.000    0.000    0.000    0.000 
#
# Total GULP energy -297612.633468 kJ/mol
# GULP energy per Si atom -12400.526394 kJ/mol
# Density = 2.553738 g / cm^3
# Si number density = 25.595637 Si / 1000 Ang^3
#
#
#
# Elastic Constant Matrix: (Units=GPa)
#
#
# Indices 1 2 3 4 5 6 
#
# 1 177.3575 72.7460 19.4794 0.0000 36.8503 0.0000
# 2 72.7460 210.4494 18.1932 0.0000 33.6573 0.0000
# 3 19.4794 18.1932 44.7581 0.0000 26.8888 0.0000
# 4 0.0000 0.0000 0.0000 31.8783 0.0000 13.1672
# 5 36.8503 33.6573 26.8888 0.0000 38.3589 0.0000
# 6 0.0000 0.0000 0.0000 13.1672 0.0000 53.5122
#
#
#
# Elastic Compliance Matrix: (Units=1/GPa)
#
#
# Indices 1 2 3 4 5 6 
#
# 1 0.007581 -0.001648 0.001515 0.000000 -0.006899 0.000000
# 2 -0.001648 0.005920 0.000830 0.000000 -0.004193 0.000000
# 3 0.001515 0.000830 0.039140 0.000000 -0.029620 0.000000
# 4 0.000000 0.000000 0.000000 0.034918 0.000000 -0.008592
# 5 -0.006899 -0.004193 -0.029620 0.000000 0.057139 0.000000
# 6 0.000000 0.000000 0.000000 -0.008592 0.000000 0.020801
#
#
# Mechanical properties :
#
#
# Convention : Reuss Voigt Hill
#
# Bulk Modulus (GPa) = 18.50652 72.60024 45.55338
# Shear Modulus (GPa) = 27.45456 46.22631 36.84043
#
# Velocity S-wave (km/s) = 3.27865 4.25434 3.79796
# Velocity P-wave (km/s) = 4.64530 7.24972 6.08840
#
# Compressibility (1/GPa) = 0.05403500
#
# Stress axis : x y z
#
# Youngs Moduli (GPa) = 131.90095 168.90939 25.54930
#
# Poissons Ratio (x) = 0.27841 -0.03871
# Poissons Ratio (y) = 0.21741 -0.02120
# Poissons Ratio (z) = -0.19985 -0.14016
#
# Static dielectric constant tensor:
#      x y z
#    x 5.277850 0.000000 0.064300 
#    y 0.000000 4.889150 0.000000 
#    z 0.064300 0.000000 4.702730 
# 
# 
# High freq. dielectric constant tensor:
#      x y z
#    x 2.032930 0.000000 0.002620 
#    y 0.000000 2.028510 0.000000 
#    z 0.002620 0.000000 2.022510 
# 
# From -- ./inp_files/143675.got.cif
#   From: 2010.06.25/outbox.cif.g09.slc.cpg/sg15_72_cif.got.tgz:143675.got - 2010.06.28 07:06:18.
