data_PCOD8151148
_publ_section_title
;
Structure prediction by ZEFSAII (Michael W. Deem and Ramdas Pophale) SiO2 
 PCOD8151148
Probable space group: C 2/C
;
_chemical_formula_sum "Si O2"
_cell_formula_units_Z 64
_cell_length_a 29.582444
_cell_length_b 14.132853
_cell_length_c 9.830674
_cell_angle_alpha 90.000000
_cell_angle_beta 79.796646
_cell_angle_gamma 90.000000
_cell_volume 4045.051310
_symmetry_space_group_name_H-M "C 2/C"
_symmetry_group_IT_number 15
_symmetry_cell_setting 'monoclinic'
loop_
_space_group_symop_operation_xyz
x,y,z
-x,y,1/2-z
-x,-y,-z
x,-y,1/2+z
1/2+x,1/2+y,z
1/2-x,1/2+y,1/2-z
1/2-x,1/2-y,-z
1/2+x,1/2-y,1/2+z
loop_
_atom_site_type_symbol
_atom_site_label
_atom_site_fract_x
_atom_site_fract_y
_atom_site_fract_z
Si Si1 0.222029 0.215420 0.387327
Si Si2 0.690909 0.996931 0.876859
Si Si3 0.723615 0.300655 0.393206
Si Si4 0.250118 0.484897 0.592728
Si Si5 0.553043 0.911492 0.068206
Si Si6 0.049764 0.592218 0.883903
Si Si7 0.144357 0.684878 0.521473
Si Si8 0.139380 0.320621 0.340036
O O1 0.250000 0.250000 0.500000
O O2 0.250634 0.262877 0.251694
O O3 0.216476 0.101868 0.386260
O O4 0.168852 0.249020 0.416161
O O5 0.707353 0.972418 0.717079
O O6 0.651950 0.074012 0.878946
O O7 0.671116 0.909088 0.968027
O O8 0.733396 0.032674 0.946969
O O9 0.750000 0.250000 0.500000
O O10 0.725037 0.414318 0.401786
O O11 0.669339 0.271029 0.427722
O O12 0.502111 0.870412 0.065806
O O13 0.557864 0.941260 0.223729
O O14 0.590497 0.829684 0.011884
O O15 0.561212 0.004020 0.973960
O O16 0.084255 0.680681 0.896376
O O17 0.151181 0.702043 0.677726
#
# Coordination Sequence:
#
# PCOD8151148 Si02
#       8
#     8   8   8   8   8   8   8   8
#     4  12  22  33  47  72  99 127 167 204 241 281
#     4  12  18  30  47  68  92 129 159 197 229 280
#     4  12  20  35  49  68  93 134 168 193 238 294
#     4  12  22  32  48  66  98 128 168 197 233 280
#     4   9  18  31  48  73  95 126 161 204 243 291
#     4   9  18  31  49  70  99 124 162 202 244 293
#     4  11  20  31  50  70  96 132 167 191 239 296
#     4  11  20  32  47  72  98 131 163 194 244 288
#
# _framework density 15.821802
#
# number of rings (size 3 to 8) (size 9 to 14) (size 15 to 20)
#    0.000    1.000    8.750    0.000    0.000    0.000 
#    2.250    0.000    0.000    0.000    0.000    0.875 
#    0.000    0.000    0.000    0.000    0.000    0.000 
#
# Total GULP energy -396536.815167 kJ/mol
# GULP energy per Si atom -12391.775474 kJ/mol
# Density = 1.578579 g / cm^3
# Si number density = 15.821802 Si / 1000 Ang^3
#
#
#
# Elastic Constant Matrix: (Units=GPa)
#
#
# Indices 1 2 3 4 5 6 
#
# 1 120.4837 47.1943 33.2209 0.0000 -5.1644 0.0000
# 2 47.1943 77.5127 13.7465 0.0000 0.5730 0.0000
# 3 33.2209 13.7465 61.8618 0.0000 4.1169 0.0000
# 4 0.0000 0.0000 0.0000 15.8182 0.0000 1.4222
# 5 -5.1644 0.5730 4.1169 0.0000 21.0549 0.0000
# 6 0.0000 0.0000 0.0000 1.4222 0.0000 24.2248
#
#
#
# Elastic Compliance Matrix: (Units=1/GPa)
#
#
# Indices 1 2 3 4 5 6 
#
# 1 0.012680 -0.006760 -0.005599 0.000000 0.004389 0.000000
# 2 -0.006760 0.017035 -0.000014 0.000000 -0.002119 0.000000
# 3 -0.005599 -0.000014 0.019521 0.000000 -0.005190 0.000000
# 4 0.000000 0.000000 0.000000 0.063554 0.000000 -0.003731
# 5 0.004389 -0.002119 -0.005190 0.000000 0.049644 0.000000
# 6 0.000000 0.000000 0.000000 -0.003731 0.000000 0.041499
#
#
# Mechanical properties :
#
#
# Convention : Reuss Voigt Hill
#
# Bulk Modulus (GPa) = 40.83498 49.79796 45.31647
# Shear Modulus (GPa) = 21.11119 23.26600 22.18860
#
# Velocity S-wave (km/s) = 3.65678 3.83887 3.74893
# Velocity P-wave (km/s) = 6.61020 7.15485 6.88791
#
# Compressibility (1/GPa) = 0.02448881
#
# Stress axis : x y z
#
# Youngs Moduli (GPa) = 78.86658 58.70285 51.22818
#
# Poissons Ratio (x) = 0.39681 0.28684
# Poissons Ratio (y) = 0.53310 0.00074
# Poissons Ratio (z) = 0.44159 0.00084
#
# Static dielectric constant tensor:
#      x y z
#    x -5.642960 0.000000 13.372810 
#    y 0.000000 2.985330 0.000000 
#    z 13.372810 0.000000 -17.015150 
# 
# 
# High freq. dielectric constant tensor:
#      x y z
#    x 1.599540 0.000000 0.004510 
#    y 0.000000 1.576400 0.000000 
#    z 0.004510 0.000000 1.619650 
# 
# From -- ./inp_files/69732.got.cif
#   From: 2010.06.25/outbox.cif.g09.slc.cpg/sg15_35_cif.got.tgz:69732.got - 2010.06.28 07:06:18.
