data_PCOD8151091
_publ_section_title
;
Structure prediction by ZEFSAII (Michael W. Deem and Ramdas Pophale) SiO2 
 PCOD8151091
Probable space group: C 2/C
;
_chemical_formula_sum "Si O2"
_cell_formula_units_Z 60
_cell_length_a 24.977711
_cell_length_b 9.915506
_cell_length_c 22.640274
_cell_angle_alpha 90.000000
_cell_angle_beta 33.504459
_cell_angle_gamma 90.000000
_cell_volume 3095.207389
_symmetry_space_group_name_H-M "C 2/C"
_symmetry_group_IT_number 15
_symmetry_cell_setting 'monoclinic'
loop_
_space_group_symop_operation_xyz
x,y,z
-x,y,1/2-z
-x,-y,-z
x,-y,1/2+z
1/2+x,1/2+y,z
1/2-x,1/2+y,1/2-z
1/2-x,1/2-y,-z
1/2+x,1/2-y,1/2+z
loop_
_atom_site_type_symbol
_atom_site_label
_atom_site_fract_x
_atom_site_fract_y
_atom_site_fract_z
Si Si1 0.500000 0.713891 0.250000
Si Si2 0.292982 0.230236 0.159151
Si Si3 0.295794 0.602653 0.455681
Si Si4 0.680377 0.263550 0.881254
Si Si5 0.975606 0.404964 0.161066
Si Si6 0.311238 0.007431 0.556394
Si Si7 0.263189 0.021156 0.865401
Si Si8 0.001467 0.661025 0.987082
O O1 0.411203 0.615676 0.345913
O O2 0.475556 0.806849 0.216818
O O3 0.223069 0.260397 0.277338
O O4 0.281570 0.084738 0.139242
O O5 0.272682 0.336145 0.126168
O O6 0.399588 0.235191 0.088998
O O7 0.250000 0.750000 0.500000
O O8 0.256846 0.521366 0.435939
O O9 0.267769 0.514278 0.538135
O O10 0.706019 0.410518 0.880566
O O11 0.566471 0.238422 0.975252
O O12 0.714471 0.158012 0.899429
O O13 0.879833 0.499699 0.253333
O O14 0.964429 0.315916 0.112030
O O15 0.075242 0.490568 0.066116
O O16 0.000000 0.500000 0.000000
#
# Coordination Sequence:
#
# PCOD8151091 Si02
#       8
#     4   8   8   8   8   8   8   8
#     4  12  22  40  70  96 120 160 220 270 308 364
#     4  11  21  40  65  93 121 170 214 259 310 384
#     4  12  22  43  65  95 123 162 218 268 307 377
#     4  12  25  39  62  96 133 167 202 273 317 379
#     4  11  19  38  68  92 115 170 216 254 304 390
#     4  11  23  42  68  91 126 171 218 258 319 378
#     4  12  24  40  65  98 130 159 216 268 322 370
#     4  11  21  40  65  88 125 169 215 246 312 389
#
# _framework density 19.384806999999999
#
# number of rings (size 3 to 8) (size 9 to 14) (size 15 to 20)
#    0.000    0.533    8.000    2.400    0.000    1.067 
#    2.400    0.000    0.000    0.000    0.000    0.000 
#    0.000    0.000    0.000    0.000    0.000    0.000 
#
# Total GULP energy -371998.601895 kJ/mol
# GULP energy per Si atom -12399.953397 kJ/mol
# Density = 1.934069 g / cm^3
# Si number density = 19.384807 Si / 1000 Ang^3
#
#
#
# Elastic Constant Matrix: (Units=GPa)
#
#
# Indices 1 2 3 4 5 6 
#
# 1 110.1507 20.2473 22.9161 0.0000 -5.8311 -0.0001
# 2 20.2473 42.2624 19.5394 -0.0021 -5.0601 0.0010
# 3 22.9161 19.5394 77.4979 -0.0005 -15.1962 0.0004
# 4 0.0000 -0.0021 -0.0005 15.7095 0.0004 -4.6323
# 5 -5.8311 -5.0601 -15.1962 0.0004 38.4679 -0.0001
# 6 -0.0001 0.0010 0.0004 -4.6323 -0.0001 35.3425
#
#
#
# Elastic Compliance Matrix: (Units=1/GPa)
#
#
# Indices 1 2 3 4 5 6 
#
# 1 0.010231 -0.003957 -0.001979 -0.000001 0.000249 0.000000
# 2 -0.003957 0.028345 -0.005813 0.000004 0.000832 0.000000
# 3 -0.001979 -0.005813 0.015984 0.000000 0.005250 0.000000
# 4 -0.000001 0.000004 0.000000 0.066215 0.000000 0.008679
# 5 0.000249 0.000832 0.005250 0.000000 0.028217 0.000000
# 6 0.000000 0.000000 0.000000 0.008679 0.000000 0.029432
#
#
# Mechanical properties :
#
#
# Convention : Reuss Voigt Hill
#
# Bulk Modulus (GPa) = 32.19435 39.47962 35.83699
# Shear Modulus (GPa) = 23.55444 29.05119 26.30282
#
# Velocity S-wave (km/s) = 3.48961 3.87545 3.68758
# Velocity P-wave (km/s) = 5.73416 6.35893 6.05461
#
# Compressibility (1/GPa) = 0.03106135
#
# Stress axis : x y z
#
# Youngs Moduli (GPa) = 97.74585 35.28003 62.56345
#
# Poissons Ratio (x) = 0.13959 0.12380
# Poissons Ratio (y) = 0.38675 0.36370
# Poissons Ratio (z) = 0.19342 0.20509
#
# Static dielectric constant tensor:
#      x y z
#    x 3.907040 0.000000 -0.035940 
#    y 0.000000 3.201620 0.000000 
#    z -0.035940 0.000000 3.773620 
# 
# 
# High freq. dielectric constant tensor:
#      x y z
#    x 1.778910 0.000000 0.000780 
#    y 0.000000 1.719930 0.000000 
#    z 0.000780 0.000000 1.764630 
# 
# From -- ./inp_files/283358.got.cif
#   From: 2010.06.25/outbox.cif.g09.slc.cpg/sg15_142_cif.got.tgz:283358.got - 2010.06.28 07:06:18.
