data_PCOD8151965
_publ_section_title
;
Structure prediction by ZEFSAII (Michael W. Deem and Ramdas Pophale) SiO2 
 PCOD8151965
Probable space group: C 2/C
;
_chemical_formula_sum "Si O2"
_cell_formula_units_Z 64
_cell_length_a 23.843354
_cell_length_b 13.202623
_cell_length_c 13.734834
_cell_angle_alpha 90.000000
_cell_angle_beta 138.262118
_cell_angle_gamma 90.000000
_cell_volume 2878.359975
_symmetry_space_group_name_H-M "C 2/C"
_symmetry_group_IT_number 15
_symmetry_cell_setting 'monoclinic'
loop_
_space_group_symop_operation_xyz
x,y,z
-x,y,1/2-z
-x,-y,-z
x,-y,1/2+z
1/2+x,1/2+y,z
1/2-x,1/2+y,1/2-z
1/2-x,1/2-y,-z
1/2+x,1/2-y,1/2+z
loop_
_atom_site_type_symbol
_atom_site_label
_atom_site_fract_x
_atom_site_fract_y
_atom_site_fract_z
Si Si1 0.125105 0.303933 0.787230
Si Si2 0.087707 0.927703 0.910600
Si Si3 0.814016 0.456543 0.480430
Si Si4 0.186055 0.174897 0.696885
Si Si5 0.590230 0.662831 0.898964
Si Si6 0.283457 0.641734 0.076440
Si Si7 0.040540 0.414842 0.984768
Si Si8 0.653743 0.752021 0.178885
O O1 0.159395 0.273309 0.725474
O O2 0.141874 0.199753 0.870982
O O3 0.029371 0.342557 0.653389
O O4 0.174759 0.394326 0.904687
O O5 0.166909 0.913324 0.943888
O O6 0.000000 0.888563 0.750000
O O7 0.085859 0.047252 0.923937
O O8 0.104355 0.872817 0.035985
O O9 0.733663 0.412236 0.318981
O O10 0.792652 0.571513 0.483763
O O11 0.898283 0.457730 0.522122
O O12 0.248089 0.216544 0.694116
O O13 0.500000 0.703576 0.750000
O O14 0.626771 0.725095 0.035291
O O15 0.352631 0.661251 0.252114
O O16 0.250000 0.750000 0.000000
O O17 0.096166 0.348094 0.132643
O O18 0.000000 0.500000 0.000000
#
# Coordination Sequence:
#
# PCOD8151965 Si02
#       8
#     8   8   8   8   8   8   8   8
#     4  12  23  43  75 108 141 184 242 299 368 424
#     4  11  27  45  69 103 142 188 245 287 363 434
#     4  11  25  46  71 108 141 187 249 294 368 435
#     4  11  24  43  70 104 139 186 234 297 360 428
#     4  11  21  43  72 101 138 178 227 303 346 428
#     4  12  27  47  68  98 143 193 237 294 362 437
#     4  11  26  43  72 107 144 185 240 305 368 425
#     4  11  24  45  68  99 142 180 235 290 365 420
#
# _framework density 22.234884000000001
#
# number of rings (size 3 to 8) (size 9 to 14) (size 15 to 20)
#    0.000    0.750    5.000    2.250    7.000    0.000 
#    0.000    3.125    0.000    0.000    0.000    0.000 
#    0.000    0.000    0.000    0.000    0.000    0.000 
#
# Total GULP energy -396555.445436 kJ/mol
# GULP energy per Si atom -12392.357670 kJ/mol
# Density = 2.218428 g / cm^3
# Si number density = 22.234884 Si / 1000 Ang^3
#
#
#
# Elastic Constant Matrix: (Units=GPa)
#
#
# Indices 1 2 3 4 5 6 
#
# 1 92.6224 50.7218 41.6020 0.0000 2.2576 0.0000
# 2 50.7218 108.3322 51.7188 0.0000 -2.9382 0.0000
# 3 41.6020 51.7188 132.1018 0.0000 0.6732 0.0000
# 4 0.0000 0.0000 0.0000 30.4196 0.0000 5.9851
# 5 2.2576 -2.9382 0.6732 0.0000 29.6386 0.0000
# 6 0.0000 0.0000 0.0000 5.9851 0.0000 36.3416
#
#
#
# Elastic Compliance Matrix: (Units=1/GPa)
#
#
# Indices 1 2 3 4 5 6 
#
# 1 0.015223 -0.006013 -0.002431 0.000000 -0.001700 0.000000
# 2 -0.006013 0.013773 -0.003508 0.000000 0.001903 0.000000
# 3 -0.002431 -0.003508 0.009711 0.000000 -0.000383 0.000000
# 4 0.000000 0.000000 0.000000 0.033974 0.000000 -0.005595
# 5 -0.001700 0.001903 -0.000383 0.000000 0.034067 0.000000
# 6 0.000000 0.000000 0.000000 -0.005595 0.000000 0.028438
#
#
# Mechanical properties :
#
#
# Convention : Reuss Voigt Hill
#
# Bulk Modulus (GPa) = 67.55937 69.01573 68.28755
# Shear Modulus (GPa) = 30.48338 31.88089 31.18214
#
# Velocity S-wave (km/s) = 3.70668 3.79069 3.74892
# Velocity P-wave (km/s) = 6.98353 7.08985 7.03689
#
# Compressibility (1/GPa) = 0.01480180
#
# Stress axis : x y z
#
# Youngs Moduli (GPa) = 65.69129 72.60828 102.97585
#
# Poissons Ratio (x) = 0.43658 0.25036
# Poissons Ratio (y) = 0.39499 0.36126
# Poissons Ratio (z) = 0.15971 0.25472
#
# Static dielectric constant tensor:
#      x y z
#    x 3.969780 0.000000 -0.001430 
#    y 0.000000 4.050320 0.000000 
#    z -0.001430 0.000000 4.405120 
# 
# 
# High freq. dielectric constant tensor:
#      x y z
#    x 1.868760 0.000000 -0.002910 
#    y 0.000000 1.875250 0.000000 
#    z -0.002910 0.000000 1.891230 
# 
# From -- ./inp_files/177873.got.cif
#   From: 2010.06.25/outbox.cif.g09.slc.cpg/sg15_89_cif.got.tgz:177873.got - 2010.06.28 07:06:18.
