data_PCOD8151067
_publ_section_title
;
Structure prediction by ZEFSAII (Michael W. Deem and Ramdas Pophale) SiO2 
 PCOD8151067
Probable space group: C 2/C
;
_chemical_formula_sum "Si O2"
_cell_formula_units_Z 64
_cell_length_a 15.682984
_cell_length_b 14.136562
_cell_length_c 24.414204
_cell_angle_alpha 90.000000
_cell_angle_beta 144.158495
_cell_angle_gamma 90.000000
_cell_volume 3169.387849
_symmetry_space_group_name_H-M "C 2/C"
_symmetry_group_IT_number 15
_symmetry_cell_setting 'monoclinic'
loop_
_space_group_symop_operation_xyz
x,y,z
-x,y,1/2-z
-x,-y,-z
x,-y,1/2+z
1/2+x,1/2+y,z
1/2-x,1/2+y,1/2-z
1/2-x,1/2-y,-z
1/2+x,1/2-y,1/2+z
loop_
_atom_site_type_symbol
_atom_site_label
_atom_site_fract_x
_atom_site_fract_y
_atom_site_fract_z
Si Si1 0.586344 0.839709 0.238833
Si Si2 0.881335 0.791523 0.140864
Si Si3 0.231259 0.961244 0.472962
Si Si4 0.009895 0.655837 0.127463
Si Si5 0.859050 0.451480 0.715157
Si Si6 0.656060 0.169870 0.978178
Si Si7 0.864081 0.134919 0.473687
Si Si8 0.376174 0.758555 0.916207
O O1 0.500000 0.825436 0.250000
O O2 0.490402 0.831275 0.134004
O O3 0.716212 0.764224 0.309550
O O4 0.652627 0.942992 0.269642
O O5 0.737703 0.728625 0.074975
O O6 0.000000 0.777517 0.250000
O O7 0.949842 0.757622 0.117982
O O8 0.830872 0.901750 0.111655
O O9 0.391138 0.926079 0.572253
O O10 0.123486 0.931207 0.465940
O O11 0.247311 0.073338 0.471699
O O12 0.140209 0.621765 0.234071
O O13 0.060447 0.662140 0.091430
O O14 0.707099 0.435082 0.606737
O O15 0.000000 0.432989 0.750000
O O16 0.750000 0.250000 0.000000
O O17 0.620786 0.196789 0.022047
O O18 0.022581 0.165485 0.534485
#
# Coordination Sequence:
#
# PCOD8151067 Si02
#       8
#     8   8   8   8   8   8   8   8
#     4  11  24  48  69  87 124 183 231 266 323 399
#     4  11  19  36  65 102 142 173 202 263 344 404
#     4  11  21  43  69  94 135 174 215 265 344 411
#     4  11  19  39  64 102 134 167 215 271 331 391
#     4  11  19  37  72  96 128 179 217 256 325 402
#     4  12  27  50  69  87 127 186 227 271 337 406
#     4  11  20  38  68 106 133 165 219 280 326 382
#     4  12  27  41  67 100 136 169 225 285 328 393
#
# _framework density 20.193175
#
# number of rings (size 3 to 8) (size 9 to 14) (size 15 to 20)
#    0.000    0.750    8.750    1.500    1.750    1.000 
#    2.250    0.000    0.000    0.000    0.000    0.000 
#    0.000    0.000    0.000    0.000    0.000    0.000 
#
# Total GULP energy -396622.806519 kJ/mol
# GULP energy per Si atom -12394.462704 kJ/mol
# Density = 2.014721 g / cm^3
# Si number density = 20.193175 Si / 1000 Ang^3
#
#
#
# Elastic Constant Matrix: (Units=GPa)
#
#
# Indices 1 2 3 4 5 6 
#
# 1 98.4449 50.9566 34.8560 0.0000 -23.3016 0.0000
# 2 50.9566 122.5838 36.5161 0.0000 -4.5965 0.0000
# 3 34.8560 36.5161 80.8699 -0.0001 -14.9066 0.0000
# 4 0.0000 0.0000 -0.0001 34.2080 0.0000 -3.9617
# 5 -23.3016 -4.5965 -14.9066 0.0000 30.7782 0.0000
# 6 0.0000 0.0000 0.0000 -3.9617 0.0000 22.6578
#
#
#
# Elastic Compliance Matrix: (Units=1/GPa)
#
#
# Indices 1 2 3 4 5 6 
#
# 1 0.016479 -0.005679 -0.002630 0.000000 0.010354 0.000000
# 2 -0.005679 0.011397 -0.003489 0.000000 -0.004287 0.000000
# 3 -0.002630 -0.003489 0.016044 0.000000 0.005258 0.000000
# 4 0.000000 0.000000 0.000000 0.029837 0.000000 0.005217
# 5 0.010354 -0.004287 0.005258 0.000000 0.042236 0.000000
# 6 0.000000 0.000000 0.000000 0.005217 0.000000 0.045047
#
#
# Mechanical properties :
#
#
# Convention : Reuss Voigt Hill
#
# Bulk Modulus (GPa) = 49.20064 60.72843 54.96453
# Shear Modulus (GPa) = 26.12198 29.50013 27.81105
#
# Velocity S-wave (km/s) = 3.60057 3.82631 3.71516
# Velocity P-wave (km/s) = 6.45782 7.04698 6.75882
#
# Compressibility (1/GPa) = 0.02032494
#
# Stress axis : x y z
#
# Youngs Moduli (GPa) = 60.68211 87.74487 62.32989
#
# Poissons Ratio (x) = 0.49826 0.16394
# Poissons Ratio (y) = 0.34458 0.21745
# Poissons Ratio (z) = 0.15960 0.30612
#
# Static dielectric constant tensor:
#      x y z
#    x 4.110300 0.000000 0.271090 
#    y 0.000000 3.642990 0.000000 
#    z 0.271090 0.000000 3.921000 
# 
# 
# High freq. dielectric constant tensor:
#      x y z
#    x 1.768100 0.000000 -0.012070 
#    y 0.000000 1.782990 0.000000 
#    z -0.012070 0.000000 1.799480 
# 
# From -- ./inp_files/274343.got.cif
#   From: 2010.06.25/outbox.cif.g09.slc.cpg/sg15_138_cif.got.tgz:274343.got - 2010.06.28 07:06:18.
