data_PCOD8151943
_publ_section_title
;
Structure prediction by ZEFSAII (Michael W. Deem and Ramdas Pophale) SiO2 
 PCOD8151943
Probable space group: C 2/C
;
_chemical_formula_sum "Si O2"
_cell_formula_units_Z 40
_cell_length_a 10.784280
_cell_length_b 29.248422
_cell_length_c 8.485848
_cell_angle_alpha 90.000000
_cell_angle_beta 44.697588
_cell_angle_gamma 90.000000
_cell_volume 1882.649448
_symmetry_space_group_name_H-M "C 2/C"
_symmetry_group_IT_number 15
_symmetry_cell_setting 'monoclinic'
loop_
_space_group_symop_operation_xyz
x,y,z
-x,y,1/2-z
-x,-y,-z
x,-y,1/2+z
1/2+x,1/2+y,z
1/2-x,1/2+y,1/2-z
1/2-x,1/2-y,-z
1/2+x,1/2-y,1/2+z
loop_
_atom_site_type_symbol
_atom_site_label
_atom_site_fract_x
_atom_site_fract_y
_atom_site_fract_z
Si Si1 0.306878 0.945063 0.371946
Si Si2 0.126048 0.982362 0.254167
Si Si3 0.121442 0.700145 0.439822
Si Si4 0.021919 0.794154 0.046811
Si Si5 0.782853 0.657662 0.833766
O O1 0.500000 0.958749 0.250000
O O2 0.280488 0.955345 0.206887
O O3 0.269863 0.891543 0.428403
O O4 0.187068 0.974307 0.596767
O O5 0.000000 0.951805 0.250000
O O6 0.000000 0.000000 0.500000
O O7 0.031104 0.749256 0.501761
O O8 0.206575 0.695539 0.536871
O O9 0.962144 0.662772 0.566574
O O10 0.275353 0.692191 0.172064
O O11 0.891206 0.834916 0.113509
O O12 0.000000 0.784187 0.250000
#
# Coordination Sequence:
#
# PCOD8151943 Si02
#       5
#     8   8   8   8   8
#     4  11  21  43  67  98 129 171 220 268 331 398
#     4   9  21  39  68  95 129 166 207 270 335 397
#     4  11  23  41  64  92 130 177 226 266 329 387
#     4  12  25  40  68  93 133 180 221 279 335 386
#     4  11  25  41  66 100 129 175 229 271 319 400
#
# _framework density 21.246652999999998
#
# number of rings (size 3 to 8) (size 9 to 14) (size 15 to 20)
#    0.000    1.200    4.000    2.400    2.800    5.600 
#    0.000    2.000    8.800    0.000    0.000    0.000 
#    0.000    0.000    0.000    0.000    0.000    0.000 
#
# Total GULP energy -247817.897178 kJ/mol
# GULP energy per Si atom -12390.894859 kJ/mol
# Density = 2.119829 g / cm^3
# Si number density = 21.246653 Si / 1000 Ang^3
#
#
#
# Elastic Constant Matrix: (Units=GPa)
#
#
# Indices 1 2 3 4 5 6 
#
# 1 149.1027 43.1015 43.6476 0.0000 5.9063 0.0000
# 2 43.1015 79.3069 42.6408 0.0000 3.9447 0.0000
# 3 43.6476 42.6408 132.1876 0.0000 -6.1257 0.0000
# 4 0.0000 0.0000 0.0000 19.8015 0.0000 -1.7064
# 5 5.9063 3.9447 -6.1257 0.0000 39.3546 0.0000
# 6 0.0000 0.0000 0.0000 -1.7064 0.0000 17.4403
#
#
#
# Elastic Compliance Matrix: (Units=1/GPa)
#
#
# Indices 1 2 3 4 5 6 
#
# 1 0.008257 -0.003553 -0.001633 0.000000 -0.001137 0.000000
# 2 -0.003553 0.016996 -0.004395 0.000000 -0.001854 0.000000
# 3 -0.001633 -0.004395 0.009623 0.000000 0.002184 0.000000
# 4 0.000000 0.000000 0.000000 0.050931 0.000000 0.004983
# 5 -0.001137 -0.001854 0.002184 0.000000 0.026106 0.000000
# 6 0.000000 0.000000 0.000000 0.004983 0.000000 0.057826
#
#
# Mechanical properties :
#
#
# Convention : Reuss Voigt Hill
#
# Bulk Modulus (GPa) = 63.63946 68.81968 66.22957
# Shear Modulus (GPa) = 25.75480 30.73310 28.24395
#
# Velocity S-wave (km/s) = 3.48542 3.80740 3.64996
# Velocity P-wave (km/s) = 6.79818 7.19650 7.00017
#
# Compressibility (1/GPa) = 0.01571352
#
# Stress axis : x y z
#
# Youngs Moduli (GPa) = 121.11064 58.83896 103.91562
#
# Poissons Ratio (x) = 0.20905 0.16970
# Poissons Ratio (y) = 0.43029 0.45673
# Poissons Ratio (z) = 0.19778 0.25861
#
# Static dielectric constant tensor:
#      x y z
#    x 5.080480 0.000000 -0.071240 
#    y 0.000000 3.611970 0.000000 
#    z -0.071240 0.000000 3.965010 
# 
# 
# High freq. dielectric constant tensor:
#      x y z
#    x 1.857990 0.000000 -0.012510 
#    y 0.000000 1.802010 0.000000 
#    z -0.012510 0.000000 1.831710 
# 
# From -- ./inp_files/34986.got.cif
#   From: 2010.06.25/outbox.cif.g09.slc.cpg/sg15_18_cif.got.tgz:34986.got - 2010.06.28 07:06:18.
