data_PCOD8151436
_publ_section_title
;
Structure prediction by ZEFSAII (Michael W. Deem and Ramdas Pophale) SiO2 
 PCOD8151436
Probable space group: C 2/C
;
_chemical_formula_sum "Si O2"
_cell_formula_units_Z 40
_cell_length_a 10.770815
_cell_length_b 9.146951
_cell_length_c 19.953487
_cell_angle_alpha 90.000000
_cell_angle_beta 59.744725
_cell_angle_gamma 90.000000
_cell_volume 1698.053821
_symmetry_space_group_name_H-M "C 2/C"
_symmetry_group_IT_number 15
_symmetry_cell_setting 'monoclinic'
loop_
_space_group_symop_operation_xyz
x,y,z
-x,y,1/2-z
-x,-y,-z
x,-y,1/2+z
1/2+x,1/2+y,z
1/2-x,1/2+y,1/2-z
1/2-x,1/2-y,-z
1/2+x,1/2-y,1/2+z
loop_
_atom_site_type_symbol
_atom_site_label
_atom_site_fract_x
_atom_site_fract_y
_atom_site_fract_z
Si Si1 0.562879 0.662211 0.994325
Si Si2 0.410764 0.571220 0.376199
Si Si3 0.752975 0.918325 0.697531
Si Si4 0.732269 0.217410 0.926885
Si Si5 0.728415 0.231439 0.682548
O O1 0.651155 0.714831 0.906923
O O2 0.500000 0.500000 0.000000
O O3 0.653185 0.649084 0.039227
O O4 0.439117 0.785350 0.039451
O O5 0.578109 0.539252 0.343383
O O6 0.315267 0.429693 0.384904
O O7 0.401687 0.678554 0.315104
O O8 0.708451 0.843400 0.639233
O O9 0.704456 0.817157 0.772397
O O10 0.670715 0.073670 0.722792
O O11 0.750000 0.250000 0.000000
#
# Coordination Sequence:
#
# PCOD8151436 Si02
#       5
#     8   8   8   8   8
#     4  11  21  43  70 102 135 171 230 285 327 408
#     4  11  23  43  69  96 134 177 223 277 341 402
#     4  11  25  44  64  98 139 172 228 284 333 410
#     4  11  20  41  73  96 131 180 221 275 341 399
#     4  12  23  44  69  95 140 182 219 286 349 391
#
# _framework density 23.556380999999998
#
# number of rings (size 3 to 8) (size 9 to 14) (size 15 to 20)
#    0.000    0.800    6.000    2.400    0.000    0.800 
#    0.000   19.000    0.000    0.000    0.000    0.000 
#    0.000    0.000    0.000    0.000    0.000    0.000 
#
# Total GULP energy -247846.276081 kJ/mol
# GULP energy per Si atom -12392.313804 kJ/mol
# Density = 2.350277 g / cm^3
# Si number density = 23.556381 Si / 1000 Ang^3
#
#
#
# Elastic Constant Matrix: (Units=GPa)
#
#
# Indices 1 2 3 4 5 6 
#
# 1 67.7052 57.4135 17.4296 0.0000 21.8117 0.0000
# 2 57.4135 174.5213 66.3249 0.0000 27.6279 0.0000
# 3 17.4296 66.3249 125.5000 0.0000 35.2162 0.0000
# 4 0.0000 0.0000 0.0000 47.3615 0.0000 11.5193
# 5 21.8117 27.6279 35.2162 0.0000 50.8243 0.0000
# 6 0.0000 0.0000 0.0000 11.5193 0.0000 34.2862
#
#
#
# Elastic Compliance Matrix: (Units=1/GPa)
#
#
# Indices 1 2 3 4 5 6 
#
# 1 0.022777 -0.007368 0.002917 0.000000 -0.007791 0.000000
# 2 -0.007368 0.009657 -0.004338 0.000000 0.000918 0.000000
# 3 0.002917 -0.004338 0.011849 0.000000 -0.007104 0.000000
# 4 0.000000 0.000000 0.000000 0.022993 0.000000 -0.007725
# 5 -0.007791 0.000918 -0.007104 0.000000 0.027442 0.000000
# 6 0.000000 0.000000 0.000000 -0.007725 0.000000 0.031762
#
#
# Mechanical properties :
#
#
# Convention : Reuss Voigt Hill
#
# Bulk Modulus (GPa) = 37.44721 72.22916 54.83819
# Shear Modulus (GPa) = 32.68810 41.59831 37.14320
#
# Velocity S-wave (km/s) = 3.72916 4.20682 3.97518
# Velocity P-wave (km/s) = 5.87142 7.37057 6.66329
#
# Compressibility (1/GPa) = 0.02670426
#
# Stress axis : x y z
#
# Youngs Moduli (GPa) = 43.90362 103.54936 84.39512
#
# Poissons Ratio (x) = 0.76299 -0.24617
# Poissons Ratio (y) = 0.32350 0.36611
# Poissons Ratio (z) = -0.12806 0.44921
#
# Static dielectric constant tensor:
#      x y z
#    x 4.295800 0.000000 0.352120 
#    y 0.000000 4.485190 0.000000 
#    z 0.352120 0.000000 4.660470 
# 
# 
# High freq. dielectric constant tensor:
#      x y z
#    x 1.912700 0.000000 0.022030 
#    y 0.000000 1.929970 0.000000 
#    z 0.022030 0.000000 1.958530 
# 
# From -- ./inp_files/235705.got.cif
#   From: 2010.06.25/outbox.cif.g09.slc.cpg/sg15_118_cif.got.tgz:235705.got - 2010.06.28 07:06:18.
