data_PCOD8151761
_publ_section_title
;
Structure prediction by ZEFSAII (Michael W. Deem and Ramdas Pophale) SiO2 
 PCOD8151761
Probable space group: C 2/C
;
_chemical_formula_sum "Si O2"
_cell_formula_units_Z 64
_cell_length_a 19.665266
_cell_length_b 16.489186
_cell_length_c 20.876570
_cell_angle_alpha 90.000000
_cell_angle_beta 29.032981
_cell_angle_gamma 90.000000
_cell_volume 3285.338388
_symmetry_space_group_name_H-M "C 2/C"
_symmetry_group_IT_number 15
_symmetry_cell_setting 'monoclinic'
loop_
_space_group_symop_operation_xyz
x,y,z
-x,y,1/2-z
-x,-y,-z
x,-y,1/2+z
1/2+x,1/2+y,z
1/2-x,1/2+y,1/2-z
1/2-x,1/2-y,-z
1/2+x,1/2-y,1/2+z
loop_
_atom_site_type_symbol
_atom_site_label
_atom_site_fract_x
_atom_site_fract_y
_atom_site_fract_z
Si Si1 0.454082 0.153619 0.552209
Si Si2 0.349605 0.334328 0.378796
Si Si3 0.744963 0.179622 0.100963
Si Si4 0.762190 0.071877 0.684952
Si Si5 0.755326 0.434439 0.698634
Si Si6 0.554992 0.662528 0.441140
Si Si7 0.584073 0.984513 0.742204
Si Si8 0.156894 0.444413 0.469847
O O1 0.346457 0.137705 0.698660
O O2 0.592355 0.100549 0.440511
O O3 0.500474 0.246558 0.520080
O O4 0.378021 0.130306 0.548836
O O5 0.500000 0.375857 0.250000
O O6 0.342683 0.264053 0.328729
O O7 0.338493 0.304908 0.460990
O O8 0.236725 0.405232 0.463462
O O9 0.636734 0.105953 0.184122
O O10 0.841485 0.162723 0.083091
O O11 0.920830 0.104262 0.558330
O O12 0.751263 0.988231 0.732438
O O13 0.712684 0.046087 0.653661
O O14 0.639451 0.364771 0.806990
O O15 0.735633 0.492259 0.653033
O O16 0.500000 0.018262 0.750000
O O17 0.482824 0.986064 0.887942
#
# Coordination Sequence:
#
# PCOD8151761 Si02
#       8
#     8   8   8   8   8   8   8   8
#     4  11  21  40  62  88 121 168 199 248 313 377
#     4  11  25  37  55  88 132 175 202 242 296 374
#     4  11  24  37  56  88 130 165 205 243 294 377
#     4  11  23  38  62  91 121 158 211 260 306 364
#     4  11  22  39  61  86 125 159 206 263 307 360
#     4  12  24  37  63  95 125 159 205 266 315 356
#     4  12  22  40  64  84 119 165 211 248 307 375
#     4  11  21  40  60  86 122 169 206 245 302 371
#
# _framework density 19.48049
#
# number of rings (size 3 to 8) (size 9 to 14) (size 15 to 20)
#    0.000    0.750    6.250    2.250    5.250    1.000 
#    0.000    0.000    0.000    0.750    0.000    0.000 
#    0.000    0.000    0.000    0.000    0.000    0.000 
#
# Total GULP energy -396551.815127 kJ/mol
# GULP energy per Si atom -12392.244223 kJ/mol
# Density = 1.943615 g / cm^3
# Si number density = 19.480490 Si / 1000 Ang^3
#
#
#
# Elastic Constant Matrix: (Units=GPa)
#
#
# Indices 1 2 3 4 5 6 
#
# 1 67.4956 25.1591 20.4902 -0.0080 -0.1970 0.0008
# 2 25.1591 68.8106 22.1496 -0.0046 3.3507 0.0032
# 3 20.4902 22.1496 101.8466 -0.0115 -1.3247 0.0073
# 4 -0.0080 -0.0046 -0.0115 34.9696 0.0040 0.5214
# 5 -0.1970 3.3507 -1.3247 0.0040 25.5094 -0.0023
# 6 0.0008 0.0032 0.0073 0.5214 -0.0023 21.2623
#
#
#
# Elastic Compliance Matrix: (Units=1/GPa)
#
#
# Indices 1 2 3 4 5 6 
#
# 1 0.017659 -0.005757 -0.002291 0.000002 0.000774 0.000001
# 2 -0.005757 0.017631 -0.002709 0.000000 -0.002501 -0.000002
# 3 -0.002291 -0.002709 0.010880 0.000003 0.000903 -0.000003
# 4 0.000002 0.000000 0.000003 0.028607 -0.000004 -0.000701
# 5 0.000774 -0.002501 0.000903 -0.000004 0.039583 0.000004
# 6 0.000001 -0.000002 -0.000003 -0.000701 0.000004 0.047049
#
#
# Mechanical properties :
#
#
# Convention : Reuss Voigt Hill
#
# Bulk Modulus (GPa) = 40.55478 41.52787 41.04132
# Shear Modulus (GPa) = 26.15861 27.70519 26.93190
#
# Velocity S-wave (km/s) = 3.66841 3.77530 3.72224
# Velocity P-wave (km/s) = 6.22947 6.35357 6.29183
#
# Compressibility (1/GPa) = 0.02465800
#
# Stress axis : x y z
#
# Youngs Moduli (GPa) = 56.62696 56.71727 91.90845
#
# Poissons Ratio (x) = 0.32653 0.21054
# Poissons Ratio (y) = 0.32601 0.24896
# Poissons Ratio (z) = 0.12972 0.15363
#
# Static dielectric constant tensor:
#      x y z
#    x 3.414560 0.000000 0.037870 
#    y 0.000000 3.581940 0.000020 
#    z 0.037870 0.000020 3.610970 
# 
# 
# High freq. dielectric constant tensor:
#      x y z
#    x 1.735330 0.000000 -0.002270 
#    y 0.000000 1.748700 0.000000 
#    z -0.002270 0.000000 1.767580 
# 
# From -- ./inp_files/249635.got.cif
#   From: 2010.06.25/outbox.cif.g09.slc.cpg/sg15_125_cif.got.tgz:249635.got - 2010.06.28 07:06:18.
