data_PCOD8151119
_publ_section_title
;
Structure prediction by ZEFSAII (Michael W. Deem and Ramdas Pophale) SiO2 
 PCOD8151119
Probable space group: C 2/C
;
_chemical_formula_sum "Si O2"
_cell_formula_units_Z 44
_cell_length_a 13.190421
_cell_length_b 13.724265
_cell_length_c 15.818939
_cell_angle_alpha 90.000000
_cell_angle_beta 51.758118
_cell_angle_gamma 90.000000
_cell_volume 2249.150756
_symmetry_space_group_name_H-M "C 2/C"
_symmetry_group_IT_number 15
_symmetry_cell_setting 'monoclinic'
loop_
_space_group_symop_operation_xyz
x,y,z
-x,y,1/2-z
-x,-y,-z
x,-y,1/2+z
1/2+x,1/2+y,z
1/2-x,1/2+y,1/2-z
1/2-x,1/2-y,-z
1/2+x,1/2-y,1/2+z
loop_
_atom_site_type_symbol
_atom_site_label
_atom_site_fract_x
_atom_site_fract_y
_atom_site_fract_z
Si Si1 0.394631 0.178469 0.740071
Si Si2 0.266163 0.361008 0.464710
Si Si3 0.000000 0.183448 0.750000
Si Si4 0.967495 0.611523 0.525870
Si Si5 0.651999 0.970345 0.680221
Si Si6 0.663394 0.192622 0.295717
O O1 0.500000 0.223872 0.750000
O O2 0.478230 0.143078 0.617115
O O3 0.290244 0.258607 0.769020
O O4 0.323114 0.084990 0.818754
O O5 0.250000 0.250000 0.500000
O O6 0.414030 0.381305 0.358835
O O7 0.178693 0.376086 0.428069
O O8 0.228381 0.436278 0.557559
O O9 0.100329 0.247915 0.751479
O O10 0.000000 0.500000 0.500000
O O11 0.061529 0.679975 0.423297
O O12 0.500000 0.947877 0.750000
O O13 0.704448 0.911640 0.734903
#
# Coordination Sequence:
#
# PCOD8151119 Si02
#       6
#     8   8   4   8   8   8
#     4  11  25  41  62  93 132 172 213 257 322 387
#     4  12  20  36  67  98 123 155 216 278 323 364
#     4  12  22  36  66 106 118 160 208 286 332 350
#     4  12  21  38  69  92 120 172 218 262 307 389
#     4  11  19  40  67  98 120 164 220 267 305 382
#     4  12  21  38  67  97 127 159 219 267 322 371
#
# _framework density 19.562939
#
# number of rings (size 3 to 8) (size 9 to 14) (size 15 to 20)
#    0.000    0.364   10.000    1.091    0.000    0.727 
#    0.000    0.909   12.000    0.000    0.000    0.000 
#    0.000    0.000    0.000    0.000    0.000    0.000 
#
# Total GULP energy -272826.310331 kJ/mol
# GULP energy per Si atom -12401.195924 kJ/mol
# Density = 1.951841 g / cm^3
# Si number density = 19.562939 Si / 1000 Ang^3
#
#
#
# Elastic Constant Matrix: (Units=GPa)
#
#
# Indices 1 2 3 4 5 6 
#
# 1 127.3175 45.8302 23.7692 0.0000 2.8341 0.0000
# 2 45.8302 71.5005 12.8343 0.0000 -7.4359 0.0000
# 3 23.7692 12.8343 126.3769 0.0000 -7.3878 0.0000
# 4 0.0000 0.0000 0.0000 24.7263 0.0000 5.1980
# 5 2.8341 -7.4359 -7.3878 0.0000 34.9246 0.0000
# 6 0.0000 0.0000 0.0000 5.1980 0.0000 29.6634
#
#
#
# Elastic Compliance Matrix: (Units=1/GPa)
#
#
# Indices 1 2 3 4 5 6 
#
# 1 0.010646 -0.006835 -0.001462 0.000000 -0.002628 0.000000
# 2 -0.006835 0.018902 -0.000371 0.000000 0.004501 0.000000
# 3 -0.001462 -0.000371 0.008331 0.000000 0.001802 0.000000
# 4 0.000000 0.000000 0.000000 0.041990 0.000000 -0.007358
# 5 -0.002628 0.004501 0.001802 0.000000 0.030186 0.000000
# 6 0.000000 0.000000 0.000000 -0.007358 0.000000 0.035001
#
#
# Mechanical properties :
#
#
# Convention : Reuss Voigt Hill
#
# Bulk Modulus (GPa) = 48.67819 54.45138 51.56478
# Shear Modulus (GPa) = 29.54420 34.04693 31.79557
#
# Velocity S-wave (km/s) = 3.89036 4.17631 4.03587
# Velocity P-wave (km/s) = 6.71690 7.15191 6.93782
#
# Compressibility (1/GPa) = 0.02054308
#
# Stress axis : x y z
#
# Youngs Moduli (GPa) = 93.93070 52.90568 120.03647
#
# Poissons Ratio (x) = 0.36160 0.17548
# Poissons Ratio (y) = 0.64201 0.04453
# Poissons Ratio (z) = 0.13731 0.01963
#
# Static dielectric constant tensor:
#      x y z
#    x 3.563150 0.000000 0.126480 
#    y 0.000000 3.465790 0.000000 
#    z 0.126480 0.000000 4.224380 
# 
# 
# High freq. dielectric constant tensor:
#      x y z
#    x 1.752560 0.000000 0.013880 
#    y 0.000000 1.743070 0.000000 
#    z 0.013880 0.000000 1.778010 
# 
# From -- ./inp_files/86108.got.cif
#   From: 2010.06.25/outbox.cif.g09.slc.cpg/sg15_44_cif.got.tgz:86108.got - 2010.06.28 07:06:18.
