data_PCOD8151245
_publ_section_title
;
Structure prediction by ZEFSAII (Michael W. Deem and Ramdas Pophale) SiO2 
 PCOD8151245
Probable space group: C 2/C
;
_chemical_formula_sum "Si O2"
_cell_formula_units_Z 32
_cell_length_a 26.237688
_cell_length_b 10.908404
_cell_length_c 13.351285
_cell_angle_alpha 90.000000
_cell_angle_beta 22.584187
_cell_angle_gamma 90.000000
_cell_volume 1467.529649
_symmetry_space_group_name_H-M "C 2/C"
_symmetry_group_IT_number 15
_symmetry_cell_setting 'monoclinic'
loop_
_space_group_symop_operation_xyz
x,y,z
-x,y,1/2-z
-x,-y,-z
x,-y,1/2+z
1/2+x,1/2+y,z
1/2-x,1/2+y,1/2-z
1/2-x,1/2-y,-z
1/2+x,1/2-y,1/2+z
loop_
_atom_site_type_symbol
_atom_site_label
_atom_site_fract_x
_atom_site_fract_y
_atom_site_fract_z
Si Si1 0.750661 0.810633 0.135775
Si Si2 0.325722 0.430529 0.810206
Si Si3 0.968034 0.241097 0.628805
Si Si4 0.223783 0.193594 0.683111
O O1 0.777352 0.673095 0.045377
O O2 0.590189 0.834392 0.425557
O O3 0.809976 0.819244 0.139472
O O4 0.824199 0.912249 0.934070
O O5 0.472841 0.398026 0.497153
O O6 0.271599 0.561167 0.877635
O O7 0.886203 0.275231 0.675596
O O8 0.868432 0.243841 0.904479
#
# Coordination Sequence:
#
# PCOD8151245 Si02
#       4
#     8   8   8   8
#     4   9  21  41  54  88 128 151 207 259 289 378
#     4   9  21  41  57  86 128 154 206 255 296 369
#     4   9  21  38  56  93 120 148 214 249 279 390
#     4  11  20  36  68  86 120 172 191 250 328 336
#
# _framework density 21.805353
#
# number of rings (size 3 to 8) (size 9 to 14) (size 15 to 20)
#    1.500    1.000    0.000    1.500    0.000    6.000 
#    0.000    2.500    0.000    0.000    0.000    0.000 
#    0.000    0.000    0.000    0.000    0.000    0.000 
#
# Total GULP energy -198210.375768 kJ/mol
# GULP energy per Si atom -12388.148485 kJ/mol
# Density = 2.175572 g / cm^3
# Si number density = 21.805353 Si / 1000 Ang^3
#
#
#
# Elastic Constant Matrix: (Units=GPa)
#
#
# Indices 1 2 3 4 5 6 
#
# 1 108.4949 13.2508 7.0314 0.0000 34.8497 0.0000
# 2 13.2508 40.6206 14.1433 0.0000 8.3823 0.0000
# 3 7.0314 14.1433 63.6338 0.0000 9.9107 0.0000
# 4 0.0000 0.0000 0.0000 22.9913 0.0000 4.7404
# 5 34.8497 8.3823 9.9107 0.0000 45.9110 0.0000
# 6 0.0000 0.0000 0.0000 4.7404 0.0000 20.1016
#
#
#
# Elastic Compliance Matrix: (Units=1/GPa)
#
#
# Indices 1 2 3 4 5 6 
#
# 1 0.012391 -0.002364 0.000573 0.000000 -0.009098 0.000000
# 2 -0.002364 0.027761 -0.005587 0.000000 -0.002068 0.000000
# 3 0.000573 -0.005587 0.017387 0.000000 -0.003168 0.000000
# 4 0.000000 0.000000 0.000000 0.045718 0.000000 -0.010781
# 5 -0.009098 -0.002068 -0.003168 0.000000 0.029749 0.000000
# 6 0.000000 0.000000 0.000000 -0.010781 0.000000 0.052290
#
#
# Mechanical properties :
#
#
# Convention : Reuss Voigt Hill
#
# Bulk Modulus (GPa) = 23.37374 31.28892 27.33133
# Shear Modulus (GPa) = 23.33051 29.68905 26.50978
#
# Velocity S-wave (km/s) = 3.27455 3.69392 3.49054
# Velocity P-wave (km/s) = 5.00394 5.70734 5.36718
#
# Compressibility (1/GPa) = 0.04278306
#
# Stress axis : x y z
#
# Youngs Moduli (GPa) = 80.70444 36.02145 57.51491
#
# Poissons Ratio (x) = 0.08516 -0.03297
# Poissons Ratio (y) = 0.19081 0.32133
# Poissons Ratio (z) = -0.04626 0.20125
#
# Static dielectric constant tensor:
#      x y z
#    x 3.788050 0.000000 -0.024410 
#    y 0.000000 3.455860 0.000000 
#    z -0.024410 0.000000 3.922070 
# 
# 
# High freq. dielectric constant tensor:
#      x y z
#    x 1.850350 0.000000 0.002590 
#    y 0.000000 1.820140 0.000000 
#    z 0.002590 0.000000 1.856980 
# 
# From -- ./inp_files/83814.got.cif
#   From: 2010.06.25/outbox.cif.g09.slc.cpg/sg15_42_cif.got.tgz:83814.got - 2010.06.28 07:06:18.
