data_PCOD8151510
_publ_section_title
;
Structure prediction by ZEFSAII (Michael W. Deem and Ramdas Pophale) SiO2 
 PCOD8151510
Probable space group: C 2/C
;
_chemical_formula_sum "Si O2"
_cell_formula_units_Z 40
_cell_length_a 22.944750
_cell_length_b 7.819186
_cell_length_c 14.739901
_cell_angle_alpha 90.000000
_cell_angle_beta 137.242087
_cell_angle_gamma 90.000000
_cell_volume 1795.339673
_symmetry_space_group_name_H-M "C 2/C"
_symmetry_group_IT_number 15
_symmetry_cell_setting 'monoclinic'
loop_
_space_group_symop_operation_xyz
x,y,z
-x,y,1/2-z
-x,-y,-z
x,-y,1/2+z
1/2+x,1/2+y,z
1/2-x,1/2+y,1/2-z
1/2-x,1/2-y,-z
1/2+x,1/2-y,1/2+z
loop_
_atom_site_type_symbol
_atom_site_label
_atom_site_fract_x
_atom_site_fract_y
_atom_site_fract_z
Si Si1 0.528584 0.806906 0.382654
Si Si2 0.915390 0.938736 0.097837
Si Si3 0.646564 0.122159 0.565329
Si Si4 0.757530 0.001387 0.539653
Si Si5 0.159859 0.675534 0.780615
O O1 0.500000 0.860562 0.250000
O O2 0.581959 0.628999 0.442455
O O3 0.441710 0.784424 0.341265
O O4 0.587361 0.954541 0.490716
O O5 0.838776 0.919791 0.082309
O O6 0.000000 0.898174 0.250000
O O7 0.907196 0.797757 0.009266
O O8 0.689175 0.119768 0.713538
O O9 0.720846 0.128403 0.574029
O O10 0.783054 0.834212 0.624571
O O11 0.681566 0.970194 0.379348
#
# Coordination Sequence:
#
# PCOD8151510 Si02
#       5
#     8   8   8   8   8
#     4  11  20  47  71  98 146 180 220 294 346 400
#     4  11  24  46  72 100 139 186 229 286 349 407
#     4  12  26  42  75 105 131 188 239 272 344 430
#     4  11  23  47  67  99 149 177 222 298 347 397
#     4  11  24  44  72 103 138 186 228 282 353 406
#
# _framework density 22.279906
#
# number of rings (size 3 to 8) (size 9 to 14) (size 15 to 20)
#    0.000    0.800    6.000    3.000    2.800    0.800 
#    0.000    0.000    0.000    0.000    0.000    0.000 
#    0.000    0.000    0.000    0.000    0.000    0.000 
#
# Total GULP energy -248015.946272 kJ/mol
# GULP energy per Si atom -12400.797314 kJ/mol
# Density = 2.222920 g / cm^3
# Si number density = 22.279906 Si / 1000 Ang^3
#
#
#
# Elastic Constant Matrix: (Units=GPa)
#
#
# Indices 1 2 3 4 5 6 
#
# 1 128.9977 42.4099 58.5410 0.0000 -4.3343 0.0000
# 2 42.4099 111.1728 63.6354 0.0000 -12.5520 0.0000
# 3 58.5410 63.6354 108.0552 0.0000 -17.1173 0.0000
# 4 0.0000 0.0000 0.0000 2.6058 0.0000 -3.3946
# 5 -4.3343 -12.5520 -17.1173 0.0000 47.4193 0.0000
# 6 0.0000 0.0000 0.0000 -3.3946 0.0000 20.2880
#
#
#
# Elastic Compliance Matrix: (Units=1/GPa)
#
#
# Indices 1 2 3 4 5 6 
#
# 1 0.010436 -0.001164 -0.005161 0.000000 -0.001217 0.000000
# 2 -0.001164 0.013724 -0.007311 0.000000 0.000887 0.000000
# 3 -0.005161 -0.007311 0.016944 0.000000 0.003709 0.000000
# 4 0.000000 0.000000 0.000000 0.490724 0.000000 0.082108
# 5 -0.001217 0.000887 0.003709 0.000000 0.022551 0.000000
# 6 0.000000 0.000000 0.000000 0.082108 0.000000 0.063028
#
#
# Mechanical properties :
#
#
# Convention : Reuss Voigt Hill
#
# Bulk Modulus (GPa) = 72.30037 75.26648 73.78343
# Shear Modulus (GPa) = 7.70071 26.30523 17.00297
#
# Velocity S-wave (km/s) = 1.86114 3.43982 2.76552
# Velocity P-wave (km/s) = 6.09425 7.04500 6.58680
#
# Compressibility (1/GPa) = 0.01383119
#
# Stress axis : x y z
#
# Youngs Moduli (GPa) = 95.82062 72.86391 59.01841
#
# Poissons Ratio (x) = 0.08484 0.30460
# Poissons Ratio (y) = 0.11157 0.43149
# Poissons Ratio (z) = 0.49454 0.53271
#
# Static dielectric constant tensor:
#      x y z
#    x 4.161630 0.000000 0.103830 
#    y 0.000000 4.025510 0.000000 
#    z 0.103830 0.000000 3.961090 
# 
# 
# High freq. dielectric constant tensor:
#      x y z
#    x 1.883560 0.000000 0.005090 
#    y 0.000000 1.876920 0.000000 
#    z 0.005090 0.000000 1.872270 
# 
# From -- ./inp_files/172140.got.cif
#   From: 2010.06.25/outbox.cif.g09.slc.cpg/sg15_87_cif.got.tgz:172140.got - 2010.06.28 07:06:18.
