data_PCOD8151092
_publ_section_title
;
Structure prediction by ZEFSAII (Michael W. Deem and Ramdas Pophale) SiO2 
 PCOD8151092
Probable space group: C 2/C
;
_chemical_formula_sum "Si O2"
_cell_formula_units_Z 40
_cell_length_a 18.492450
_cell_length_b 17.453116
_cell_length_c 5.374889
_cell_angle_alpha 90.000000
_cell_angle_beta 80.611049
_cell_angle_gamma 90.000000
_cell_volume 1711.510789
_symmetry_space_group_name_H-M "C 2/C"
_symmetry_group_IT_number 15
_symmetry_cell_setting 'monoclinic'
loop_
_space_group_symop_operation_xyz
x,y,z
-x,y,1/2-z
-x,-y,-z
x,-y,1/2+z
1/2+x,1/2+y,z
1/2-x,1/2+y,1/2-z
1/2-x,1/2-y,-z
1/2+x,1/2-y,1/2+z
loop_
_atom_site_type_symbol
_atom_site_label
_atom_site_fract_x
_atom_site_fract_y
_atom_site_fract_z
Si Si1 0.456500 0.159292 0.027863
Si Si2 0.306076 0.282590 0.662791
Si Si3 0.803295 0.633929 0.975505
Si Si4 0.819197 0.045465 0.634404
Si Si5 0.576867 0.326204 0.280697
O O1 0.500000 0.130957 0.250000
O O2 0.440138 0.249500 0.055948
O O3 0.500000 0.141489 0.750000
O O4 0.380108 0.110046 0.060244
O O5 0.250000 0.250000 0.500000
O O6 0.322342 0.216659 0.851834
O O7 0.382413 0.305665 0.498613
O O8 0.265076 0.357434 0.794865
O O9 0.767610 0.571015 0.809333
O O10 0.872552 0.119430 0.578381
O O11 0.837022 0.991766 0.390483
O O12 0.500000 0.366639 0.250000
#
# Coordination Sequence:
#
# PCOD8151092 Si02
#       5
#     8   8   8   8   8
#     4  11  24  39  68 107 132 161 203 275 371 407
#     4  11  19  38  69 100 123 171 214 277 355 385
#     4  11  22  40  67  93 136 166 223 287 324 397
#     4  12  28  44  64  91 127 192 239 258 304 380
#     4  11  23  42  66  99 141 168 213 276 335 399
#
# _framework density 23.371164
#
# number of rings (size 3 to 8) (size 9 to 14) (size 15 to 20)
#    0.000    0.800    4.000    4.800    0.000    4.000 
#    0.000    0.000    0.000    3.600    0.000    0.000 
#    0.000    0.000    0.000    0.000    0.000    0.000 
#
# Total GULP energy -247914.534687 kJ/mol
# GULP energy per Si atom -12395.726734 kJ/mol
# Density = 2.331797 g / cm^3
# Si number density = 23.371164 Si / 1000 Ang^3
#
#
#
# Elastic Constant Matrix: (Units=GPa)
#
#
# Indices 1 2 3 4 5 6 
#
# 1 199.9373 15.2918 48.3743 0.0000 8.0805 0.0000
# 2 15.2918 13.9348 0.9499 0.0000 -2.2138 0.0000
# 3 48.3743 0.9499 127.5742 0.0000 -7.0124 0.0000
# 4 0.0000 0.0000 0.0000 23.8695 0.0000 5.9472
# 5 8.0805 -2.2138 -7.0124 0.0000 46.4213 0.0000
# 6 0.0000 0.0000 0.0000 5.9472 0.0000 29.9274
#
#
#
# Elastic Compliance Matrix: (Units=1/GPa)
#
#
# Indices 1 2 3 4 5 6 
#
# 1 0.006178 -0.006898 -0.002388 0.000000 -0.001765 0.000000
# 2 -0.006898 0.080027 0.002315 0.000000 0.005367 0.000000
# 3 -0.002388 0.002315 0.008829 0.000000 0.001860 0.000000
# 4 0.000000 0.000000 0.000000 0.044077 0.000000 -0.008759
# 5 -0.001765 0.005367 0.001860 0.000000 0.022386 0.000000
# 6 0.000000 0.000000 0.000000 -0.008759 0.000000 0.035155
#
#
# Mechanical properties :
#
#
# Convention : Reuss Voigt Hill
#
# Bulk Modulus (GPa) = 12.33176 52.29761 32.31469
# Shear Modulus (GPa) = 21.04155 38.49902 29.77028
#
# Velocity S-wave (km/s) = 3.00379 4.06308 3.57291
# Velocity P-wave (km/s) = 4.16152 6.66611 5.55677
#
# Compressibility (1/GPa) = 0.08109141
#
# Stress axis : x y z
#
# Youngs Moduli (GPa) = 161.85617 12.49582 113.26034
#
# Poissons Ratio (x) = 0.08619 0.27051
# Poissons Ratio (y) = 1.11642 -0.26215
# Poissons Ratio (z) = 0.38658 -0.02892
#
# Static dielectric constant tensor:
#      x y z
#    x 4.635520 0.000000 -0.227500 
#    y 0.000000 4.477370 0.000000 
#    z -0.227500 0.000000 3.701140 
# 
# 
# High freq. dielectric constant tensor:
#      x y z
#    x 1.947660 0.000000 0.015120 
#    y 0.000000 1.881920 0.000000 
#    z 0.015120 0.000000 1.928210 
# 
# From -- ./inp_files/9810.got.cif
#   From: 2010.06.25/outbox.cif.g09.slc.cpg/sg15_5_cif.got.tgz:9810.got - 2010.06.28 07:06:18.
