data_PCOD8151776
_publ_section_title
;
Structure prediction by ZEFSAII (Michael W. Deem and Ramdas Pophale) SiO2 
 PCOD8151776
Probable space group: C 2/C
;
_chemical_formula_sum "Si O2"
_cell_formula_units_Z 44
_cell_length_a 7.984312
_cell_length_b 12.699907
_cell_length_c 20.542973
_cell_angle_alpha 90.000000
_cell_angle_beta 74.626288
_cell_angle_gamma 90.000000
_cell_volume 2008.520109
_symmetry_space_group_name_H-M "C 2/C"
_symmetry_group_IT_number 15
_symmetry_cell_setting 'monoclinic'
loop_
_space_group_symop_operation_xyz
x,y,z
-x,y,1/2-z
-x,-y,-z
x,-y,1/2+z
1/2+x,1/2+y,z
1/2-x,1/2+y,1/2-z
1/2-x,1/2-y,-z
1/2+x,1/2-y,1/2+z
loop_
_atom_site_type_symbol
_atom_site_label
_atom_site_fract_x
_atom_site_fract_y
_atom_site_fract_z
Si Si1 0.489822 0.255606 0.652886
Si Si2 0.665948 0.728041 0.940296
Si Si3 0.367166 0.048092 0.708776
Si Si4 0.500000 0.439317 0.750000
Si Si5 0.349405 0.334431 0.532094
Si Si6 0.516708 0.055485 0.066989
O O1 0.678666 0.197103 0.624852
O O2 0.371349 0.176361 0.707942
O O3 0.517712 0.366953 0.684844
O O4 0.400968 0.278318 0.593618
O O5 0.574658 0.831905 0.921521
O O6 0.750000 0.750000 0.000000
O O7 0.520962 0.637180 0.970167
O O8 0.500000 0.003312 0.750000
O O9 0.431335 0.015117 0.631003
O O10 0.170419 0.011535 0.741419
O O11 0.250000 0.250000 0.500000
O O12 0.224696 0.433586 0.558409
O O13 0.500000 0.000000 0.000000
#
# Coordination Sequence:
#
# PCOD8151776 Si02
#       6
#     8   8   8   4   8   8
#     4  11  22  47  68  96 142 180 231 296 350 423
#     4   9  18  37  65  93 133 174 215 282 349 407
#     4  12  26  47  71 106 139 190 243 290 364 429
#     4  12  26  50  70 100 144 188 244 292 354 430
#     4   9  19  37  67 101 131 180 223 283 363 416
#     4  11  21  40  65 101 140 173 236 292 339 431
#
# _framework density 21.906675
#
# number of rings (size 3 to 8) (size 9 to 14) (size 15 to 20)
#    0.000    1.455    2.727    4.364    0.000    0.000 
#   14.727    4.545    0.000    0.000    0.000    0.000 
#    0.000    0.000    0.000    0.000    0.000    0.000 
#
# Total GULP energy -272599.136576 kJ/mol
# GULP energy per Si atom -12390.869844 kJ/mol
# Density = 2.185681 g / cm^3
# Si number density = 21.906675 Si / 1000 Ang^3
#
#
#
# Elastic Constant Matrix: (Units=GPa)
#
#
# Indices 1 2 3 4 5 6 
#
# 1 157.8567 37.9224 58.4337 0.0000 -21.1988 0.0000
# 2 37.9224 54.0089 14.5675 0.0000 -16.3563 0.0000
# 3 58.4337 14.5675 101.4146 0.0000 -9.3116 0.0000
# 4 0.0000 0.0000 0.0000 29.3927 0.0000 -2.8366
# 5 -21.1988 -16.3563 -9.3116 0.0000 49.3990 0.0000
# 6 0.0000 0.0000 0.0000 -2.8366 0.0000 37.5604
#
#
#
# Elastic Compliance Matrix: (Units=1/GPa)
#
#
# Indices 1 2 3 4 5 6 
#
# 1 0.009417 -0.004907 -0.004579 0.000000 0.001553 0.000000
# 2 -0.004907 0.023712 -0.000052 0.000000 0.005736 0.000000
# 3 -0.004579 -0.000052 0.012541 0.000000 0.000382 0.000000
# 4 0.000000 0.000000 0.000000 0.034272 0.000000 0.002588
# 5 0.001553 0.005736 0.000382 0.000000 0.022881 0.000000
# 6 0.000000 0.000000 0.000000 0.002588 0.000000 0.026819
#
#
# Mechanical properties :
#
#
# Convention : Reuss Voigt Hill
#
# Bulk Modulus (GPa) = 37.60092 59.45860 48.52976
# Shear Modulus (GPa) = 31.72944 36.76088 34.24516
#
# Velocity S-wave (km/s) = 3.80990 4.10087 3.95806
# Velocity P-wave (km/s) = 6.04609 7.04439 6.56425
#
# Compressibility (1/GPa) = 0.02659509
#
# Stress axis : x y z
#
# Youngs Moduli (GPa) = 106.18995 42.17291 79.73749
#
# Poissons Ratio (x) = 0.20694 0.36508
# Poissons Ratio (y) = 0.52106 0.00416
# Poissons Ratio (z) = 0.48619 0.00220
#
# Static dielectric constant tensor:
#      x y z
#    x 4.969990 0.000000 1.360270 
#    y 0.000000 3.988820 0.000000 
#    z 1.360270 0.000000 21.684880 
# 
# 
# High freq. dielectric constant tensor:
#      x y z
#    x 1.880940 0.000000 -0.005410 
#    y 0.000000 1.837770 0.000000 
#    z -0.005410 0.000000 1.868940 
# 
# From -- ./inp_files/263431.got.cif
#   From: 2010.06.25/outbox.cif.g09.slc.cpg/sg15_132_cif.got.tgz:263431.got - 2010.06.28 07:06:18.
