data_PCOD8151709
_publ_section_title
;
Structure prediction by ZEFSAII (Michael W. Deem and Ramdas Pophale) SiO2 
 PCOD8151709
Probable space group: C 2/C
;
_chemical_formula_sum "Si O2"
_cell_formula_units_Z 28
_cell_length_a 15.928656
_cell_length_b 7.189759
_cell_length_c 19.696776
_cell_angle_alpha 90.000000
_cell_angle_beta 28.491103
_cell_angle_gamma 90.000000
_cell_volume 1076.037199
_symmetry_space_group_name_H-M "C 2/C"
_symmetry_group_IT_number 15
_symmetry_cell_setting 'monoclinic'
loop_
_space_group_symop_operation_xyz
x,y,z
-x,y,1/2-z
-x,-y,-z
x,-y,1/2+z
1/2+x,1/2+y,z
1/2-x,1/2+y,1/2-z
1/2-x,1/2-y,-z
1/2+x,1/2-y,1/2+z
loop_
_atom_site_type_symbol
_atom_site_label
_atom_site_fract_x
_atom_site_fract_y
_atom_site_fract_z
Si Si1 0.888220 0.599583 0.636774
Si Si2 0.649761 0.020621 0.189978
Si Si3 0.507446 0.505578 0.385122
Si Si4 0.000000 0.834847 0.750000
O O1 0.904374 0.473169 0.692958
O O2 0.683335 0.618948 0.759950
O O3 0.958565 0.805272 0.598222
O O4 0.000000 0.500000 0.500000
O O5 0.500000 0.122979 0.250000
O O6 0.661315 0.801149 0.158054
O O7 0.845988 0.102291 0.037551
O O8 0.445271 0.536999 0.351933
#
# Coordination Sequence:
#
# PCOD8151709 Si02
#       4
#     8   8   8   4
#     4  11  23  36  60  92 122 157 200 245 300 354
#     4   9  20  35  61  86 120 153 201 242 293 342
#     4  11  21  39  63  92 121 154 197 251 300 356
#     4   8  18  32  62  88 110 148 204 240 290 346
#
# _framework density 26.021405000000001
#
# number of rings (size 3 to 8) (size 9 to 14) (size 15 to 20)
#    0.857    1.143    0.000    5.143    4.000    0.000 
#    0.000    0.000    3.143    3.429    0.000    0.000 
#    0.000    0.000    0.000    0.000    0.000    0.000 
#
# Total GULP energy -173551.044682 kJ/mol
# GULP energy per Si atom -12396.503192 kJ/mol
# Density = 2.596218 g / cm^3
# Si number density = 26.021405 Si / 1000 Ang^3
#
#
#
# Elastic Constant Matrix: (Units=GPa)
#
#
# Indices 1 2 3 4 5 6 
#
# 1 153.2658 4.4680 73.7338 0.0025 19.0427 -0.0003
# 2 4.4680 38.3407 20.8729 0.0050 1.9496 -0.0007
# 3 73.7338 20.8729 222.8554 0.0086 -8.3066 -0.0014
# 4 0.0025 0.0050 0.0086 26.1237 -0.0005 -7.7285
# 5 19.0427 1.9496 -8.3066 -0.0005 47.7365 -0.0003
# 6 -0.0003 -0.0007 -0.0014 -7.7285 -0.0003 14.8940
#
#
#
# Elastic Compliance Matrix: (Units=1/GPa)
#
#
# Indices 1 2 3 4 5 6 
#
# 1 0.008440 0.000860 -0.003019 0.000000 -0.003927 0.000000
# 2 0.000860 0.027690 -0.002952 -0.000005 -0.001988 -0.000002
# 3 -0.003019 -0.002952 0.005850 -0.000001 0.002343 0.000000
# 4 0.000000 -0.000005 -0.000001 0.045222 0.000001 0.023466
# 5 -0.003927 -0.001988 0.002343 0.000001 0.023004 0.000001
# 6 0.000000 -0.000002 0.000000 0.023466 0.000001 0.079318
#
#
# Mechanical properties :
#
#
# Convention : Reuss Voigt Hill
#
# Bulk Modulus (GPa) = 31.48913 68.06790 49.77852
# Shear Modulus (GPa) = 23.77195 38.77664 31.27430
#
# Velocity S-wave (km/s) = 3.02578 3.86448 3.47056
# Velocity P-wave (km/s) = 4.93302 6.79172 5.93558
#
# Compressibility (1/GPa) = 0.03175699
#
# Stress axis : x y z
#
# Youngs Moduli (GPa) = 118.48198 36.11418 170.93889
#
# Poissons Ratio (x) = -0.03106 0.51614
# Poissons Ratio (y) = -0.10189 0.50462
# Poissons Ratio (z) = 0.35775 0.10661
#
# Static dielectric constant tensor:
#      x y z
#    x 5.005750 0.000000 -0.049390 
#    y 0.000000 4.158000 0.000000 
#    z -0.049390 0.000000 4.532690 
# 
# 
# High freq. dielectric constant tensor:
#      x y z
#    x 2.063100 0.000000 0.004800 
#    y 0.000000 2.001250 0.000000 
#    z 0.004800 0.000000 2.038000 
# 
# From -- ./inp_files/36339.got.cif
#   From: 2010.06.25/outbox.cif.g09.slc.cpg/sg15_19_cif.got.tgz:36339.got - 2010.06.28 07:06:18.
