data_PCOD8151287
_publ_section_title
;
Structure prediction by ZEFSAII (Michael W. Deem and Ramdas Pophale) SiO2 
 PCOD8151287
Probable space group: C 2/C
;
_chemical_formula_sum "Si O2"
_cell_formula_units_Z 56
_cell_length_a 23.901045
_cell_length_b 13.375456
_cell_length_c 23.387859
_cell_angle_alpha 90.000000
_cell_angle_beta 21.784044
_cell_angle_gamma 90.000000
_cell_volume 2774.710868
_symmetry_space_group_name_H-M "C 2/C"
_symmetry_group_IT_number 15
_symmetry_cell_setting 'monoclinic'
loop_
_space_group_symop_operation_xyz
x,y,z
-x,y,1/2-z
-x,-y,-z
x,-y,1/2+z
1/2+x,1/2+y,z
1/2-x,1/2+y,1/2-z
1/2-x,1/2-y,-z
1/2+x,1/2-y,1/2+z
loop_
_atom_site_type_symbol
_atom_site_label
_atom_site_fract_x
_atom_site_fract_y
_atom_site_fract_z
Si Si1 0.702347 0.540009 0.642878
Si Si2 0.889015 0.671711 0.659577
Si Si3 0.896175 0.124861 0.970480
Si Si4 0.431187 0.168978 0.491584
Si Si5 0.230777 0.361046 0.851044
Si Si6 0.679207 0.142622 0.078773
Si Si7 0.230995 0.547824 0.229174
O O1 0.530587 0.575791 0.807471
O O2 0.797453 0.595030 0.601748
O O3 0.707870 0.421863 0.652210
O O4 0.771117 0.561549 0.515504
O O5 0.895636 0.712499 0.588235
O O6 0.807911 0.752689 0.776315
O O7 0.796228 0.569654 0.748896
O O8 0.053680 0.652487 0.527862
O O9 0.938064 0.241412 0.939455
O O10 0.743031 0.108813 0.079612
O O11 0.872618 0.072477 0.054127
O O12 0.587745 0.110322 0.343087
O O13 0.270163 0.423077 0.756579
O O14 0.500000 0.149271 0.250000
O O15 0.750000 0.250000 0.000000
#
# Coordination Sequence:
#
# PCOD8151287 Si02
#       7
#     8   8   8   8   8   8   8
#     4  12  24  41  62  96 133 165 217 265 330 382
#     4  11  23  39  61  92 133 176 221 257 328 380
#     4  12  25  37  66  96 133 171 215 262 326 395
#     4  11  20  38  59  93 137 176 208 264 317 390
#     4  11  24  40  65  93 134 173 216 278 314 395
#     4  12  26  43  66  95 130 169 214 269 332 390
#     4  11  22  40  60  96 135 178 213 261 330 379
#
# _framework density 20.182283000000002
#
# number of rings (size 3 to 8) (size 9 to 14) (size 15 to 20)
#    0.000    0.571    5.714    3.857    4.000    0.571 
#    0.000    0.000    0.000    0.857    0.000    0.000 
#    0.000    0.000    0.000    0.000    0.000    0.000 
#
# Total GULP energy -347348.844047 kJ/mol
# GULP energy per Si atom -12405.315859 kJ/mol
# Density = 2.013635 g / cm^3
# Si number density = 20.182283 Si / 1000 Ang^3
#
#
#
# Elastic Constant Matrix: (Units=GPa)
#
#
# Indices 1 2 3 4 5 6 
#
# 1 76.2221 32.9905 17.8060 -0.0111 2.5737 0.0040
# 2 32.9905 124.5330 29.4215 -0.0280 15.6211 0.0134
# 3 17.8060 29.4215 85.6129 -0.0493 10.4717 0.0208
# 4 -0.0111 -0.0280 -0.0493 24.9515 0.0235 5.2967
# 5 2.5737 15.6211 10.4717 0.0235 25.4192 -0.0092
# 6 0.0040 0.0134 0.0208 5.2967 -0.0092 27.1843
#
#
#
# Elastic Compliance Matrix: (Units=1/GPa)
#
#
# Indices 1 2 3 4 5 6 
#
# 1 0.015163 -0.003730 -0.002069 -0.000004 0.001609 0.000002
# 2 -0.003730 0.010140 -0.002099 0.000012 -0.004989 -0.000007
# 3 -0.002069 -0.002099 0.013320 0.000030 -0.003988 -0.000016
# 4 -0.000004 0.000012 0.000030 0.041807 -0.000061 -0.008146
# 5 0.001609 -0.004989 -0.003988 -0.000061 0.043886 0.000032
# 6 0.000002 -0.000007 -0.000016 -0.008146 0.000032 0.038373
#
#
# Mechanical properties :
#
#
# Convention : Reuss Voigt Hill
#
# Bulk Modulus (GPa) = 43.80582 49.64489 46.72535
# Shear Modulus (GPa) = 26.86833 29.25434 28.06133
#
# Velocity S-wave (km/s) = 3.65263 3.81137 3.73284
# Velocity P-wave (km/s) = 6.28818 6.63478 6.46380
#
# Compressibility (1/GPa) = 0.02282802
#
# Stress axis : x y z
#
# Youngs Moduli (GPa) = 65.95053 98.62175 75.07659
#
# Poissons Ratio (x) = 0.36786 0.15530
# Poissons Ratio (y) = 0.24600 0.15755
# Poissons Ratio (z) = 0.13643 0.20697
#
# Static dielectric constant tensor:
#      x y z
#    x 3.685610 0.000000 -0.047710 
#    y 0.000000 3.680570 0.000030 
#    z -0.047710 0.000030 3.676500 
# 
# 
# High freq. dielectric constant tensor:
#      x y z
#    x 1.772200 0.000000 -0.004940 
#    y 0.000000 1.779140 0.000000 
#    z -0.004940 0.000000 1.796140 
# 
# From -- ./inp_files/282076.got.cif
#   From: 2010.06.25/outbox.cif.g09.slc.cpg/sg15_142_cif.got.tgz:282076.got - 2010.06.28 07:06:18.
