data_PCOD8151593
_publ_section_title
;
Structure prediction by ZEFSAII (Michael W. Deem and Ramdas Pophale) SiO2 
 PCOD8151593
Probable space group: C 2/C
;
_chemical_formula_sum "Si O2"
_cell_formula_units_Z 32
_cell_length_a 30.868367
_cell_length_b 8.004098
_cell_length_c 18.617912
_cell_angle_alpha 90.000000
_cell_angle_beta 15.256376
_cell_angle_gamma 90.000000
_cell_volume 1210.435205
_symmetry_space_group_name_H-M "C 2/C"
_symmetry_group_IT_number 15
_symmetry_cell_setting 'monoclinic'
loop_
_space_group_symop_operation_xyz
x,y,z
-x,y,1/2-z
-x,-y,-z
x,-y,1/2+z
1/2+x,1/2+y,z
1/2-x,1/2+y,1/2-z
1/2-x,1/2-y,-z
1/2+x,1/2-y,1/2+z
loop_
_atom_site_type_symbol
_atom_site_label
_atom_site_fract_x
_atom_site_fract_y
_atom_site_fract_z
Si Si1 0.045691 0.825619 0.098021
Si Si2 0.609817 0.632747 0.909977
Si Si3 0.045328 0.450896 0.096885
Si Si4 0.704835 0.554959 0.605469
O O1 0.130592 0.639227 0.965476
O O2 0.000000 0.892144 0.250000
O O3 0.837139 0.963373 0.629067
O O4 0.870384 0.813094 0.333589
O O5 0.645338 0.805906 0.895419
O O6 0.415931 0.607631 0.203061
O O7 0.709812 0.638840 0.676159
O O8 0.885833 0.482484 0.301782
O O9 0.000000 0.389075 0.250000
#
# Coordination Sequence:
#
# PCOD8151593 Si02
#       4
#     8   8   8   8
#     4   9  19  36  59  84 115 149 195 238 288 348
#     4   9  20  39  57  82 120 149 194 244 292 344
#     4  11  21  37  59  88 115 155 199 232 298 357
#     4   9  20  40  57  86 120 148 198 241 288 360
#
# _framework density 26.436772000000001
#
# number of rings (size 3 to 8) (size 9 to 14) (size 15 to 20)
#    1.500    1.000    0.000    2.250    0.000    1.000 
#    9.000    0.000    0.000    0.000    0.000    0.000 
#    0.000    0.000    0.000    0.000    0.000    0.000 
#
# Total GULP energy -198409.777476 kJ/mol
# GULP energy per Si atom -12400.611092 kJ/mol
# Density = 2.637660 g / cm^3
# Si number density = 26.436772 Si / 1000 Ang^3
#
#
#
# Elastic Constant Matrix: (Units=GPa)
#
#
# Indices 1 2 3 4 5 6 
#
# 1 187.4431 90.9677 52.3255 0.0000 7.1451 0.0000
# 2 90.9677 172.6864 70.3246 0.0000 6.1001 0.0000
# 3 52.3255 70.3246 68.3048 0.0000 -2.2514 0.0000
# 4 0.0000 0.0000 0.0000 50.1087 0.0000 6.9423
# 5 7.1451 6.1001 -2.2514 0.0000 60.7455 0.0000
# 6 0.0000 0.0000 0.0000 6.9423 0.0000 44.8438
#
#
#
# Elastic Compliance Matrix: (Units=1/GPa)
#
#
# Indices 1 2 3 4 5 6 
#
# 1 0.007514 -0.002719 -0.002981 0.000000 -0.000721 0.000000
# 2 -0.002719 0.011073 -0.009355 0.000000 -0.001139 0.000000
# 3 -0.002981 -0.009355 0.026631 0.000000 0.002277 0.000000
# 4 0.000000 0.000000 0.000000 0.020394 0.000000 -0.003157
# 5 -0.000721 -0.001139 0.002277 0.000000 0.016746 0.000000
# 6 0.000000 0.000000 0.000000 -0.003157 0.000000 0.022788
#
#
# Mechanical properties :
#
#
# Convention : Reuss Voigt Hill
#
# Bulk Modulus (GPa) = 66.18974 95.07442 80.63208
# Shear Modulus (GPa) = 35.63998 45.46067 40.55033
#
# Velocity S-wave (km/s) = 3.67566 4.15130 3.92070
# Velocity P-wave (km/s) = 6.56546 7.68237 7.14577
#
# Compressibility (1/GPa) = 0.01510808
#
# Stress axis : x y z
#
# Youngs Moduli (GPa) = 133.08458 90.30804 37.55074
#
# Poissons Ratio (x) = 0.24554 0.11192
# Poissons Ratio (y) = 0.36185 0.35130
# Poissons Ratio (z) = 0.39668 0.84486
#
# Static dielectric constant tensor:
#      x y z
#    x 4.835860 0.000000 -0.564940 
#    y 0.000000 4.575470 0.000000 
#    z -0.564940 0.000000 4.767420 
# 
# 
# High freq. dielectric constant tensor:
#      x y z
#    x 2.080060 0.000000 -0.060080 
#    y 0.000000 2.072960 0.000000 
#    z -0.060080 0.000000 2.105750 
# 
# From -- ./inp_files/172229.got.cif
#   From: 2010.06.25/outbox.cif.g09.slc.cpg/sg15_87_cif.got.tgz:172229.got - 2010.06.28 07:06:18.
