data_PCOD8151426
_publ_section_title
;
Structure prediction by ZEFSAII (Michael W. Deem and Ramdas Pophale) SiO2 
 PCOD8151426
Probable space group: C 2/C
;
_chemical_formula_sum "Si O2"
_cell_formula_units_Z 60
_cell_length_a 26.560558
_cell_length_b 19.327613
_cell_length_c 11.687139
_cell_angle_alpha 90.000000
_cell_angle_beta 152.479942
_cell_angle_gamma 90.000000
_cell_volume 2772.178306
_symmetry_space_group_name_H-M "C 2/C"
_symmetry_group_IT_number 15
_symmetry_cell_setting 'monoclinic'
loop_
_space_group_symop_operation_xyz
x,y,z
-x,y,1/2-z
-x,-y,-z
x,-y,1/2+z
1/2+x,1/2+y,z
1/2-x,1/2+y,1/2-z
1/2-x,1/2-y,-z
1/2+x,1/2-y,1/2+z
loop_
_atom_site_type_symbol
_atom_site_label
_atom_site_fract_x
_atom_site_fract_y
_atom_site_fract_z
Si Si1 0.500000 0.018099 0.750000
Si Si2 0.873367 0.899217 0.507998
Si Si3 0.395095 0.875943 0.871279
Si Si4 0.404310 0.199469 0.788424
Si Si5 0.599405 0.692319 0.031586
Si Si6 0.283761 0.600455 0.073855
Si Si7 0.180744 0.743512 0.120371
Si Si8 0.693936 0.965456 0.996389
O O1 0.418327 0.065754 0.512537
O O2 0.579516 0.969584 0.834796
O O3 0.852492 0.912581 0.599470
O O4 0.843676 0.823214 0.400308
O O5 0.797818 0.952634 0.286320
O O6 0.000000 0.916714 0.750000
O O7 0.348521 0.805638 0.832120
O O8 0.311112 0.904740 0.608044
O O9 0.505528 0.859914 0.025463
O O10 0.440613 0.261741 0.942575
O O11 0.290125 0.168034 0.601722
O O12 0.395522 0.224744 0.640335
O O13 0.640498 0.619179 0.164830
O O14 0.691863 0.733069 0.148071
O O15 0.500000 0.674841 0.750000
O O16 0.208963 0.536666 0.958173
#
# Coordination Sequence:
#
# PCOD8151426 Si02
#       8
#     4   8   8   8   8   8   8   8
#     4  12  22  46  72 104 144 186 224 294 370 416
#     4  12  27  46  71  95 137 199 236 288 348 424
#     4  12  24  41  74 106 140 178 230 302 352 415
#     4  11  20  41  70 101 131 183 223 288 367 406
#     4  11  24  40  71 107 133 181 234 303 346 412
#     4  11  23  47  69  94 145 190 232 273 364 429
#     4  11  22  45  68  97 141 181 234 279 363 419
#     4  12  29  42  70 111 140 189 240 288 341 428
#
# _framework density 21.643630000000002
#
# number of rings (size 3 to 8) (size 9 to 14) (size 15 to 20)
#    0.000    0.533    5.333    3.600    3.733    2.667 
#    0.000    0.000    0.000    0.000    0.000    0.000 
#    0.000    0.000    0.000    0.000    0.000    0.000 
#
# Total GULP energy -372144.800980 kJ/mol
# GULP energy per Si atom -12404.826699 kJ/mol
# Density = 2.159437 g / cm^3
# Si number density = 21.643630 Si / 1000 Ang^3
#
#
#
# Elastic Constant Matrix: (Units=GPa)
#
#
# Indices 1 2 3 4 5 6 
#
# 1 116.5913 34.6789 37.4228 0.0000 6.8351 0.0000
# 2 34.6789 78.8215 25.0763 0.0000 -1.0809 0.0000
# 3 37.4228 25.0763 111.7815 0.0000 -3.6337 0.0000
# 4 0.0000 0.0000 0.0000 34.8789 0.0000 -2.8326
# 5 6.8351 -1.0809 -3.6337 0.0000 18.3181 0.0000
# 6 0.0000 0.0000 0.0000 -2.8326 0.0000 34.2803
#
#
#
# Elastic Compliance Matrix: (Units=1/GPa)
#
#
# Indices 1 2 3 4 5 6 
#
# 1 0.010992 -0.003965 -0.002950 0.000000 -0.004921 0.000000
# 2 -0.003965 0.015093 -0.001994 0.000000 0.001974 0.000000
# 3 -0.002950 -0.001994 0.010481 0.000000 0.003062 0.000000
# 4 0.000000 0.000000 0.000000 0.028864 0.000000 0.002385
# 5 -0.004921 0.001974 0.003062 0.000000 0.057151 0.000000
# 6 0.000000 0.000000 0.000000 0.002385 0.000000 0.029368
#
#
# Mechanical properties :
#
#
# Convention : Reuss Voigt Hill
#
# Bulk Modulus (GPa) = 53.34398 55.72784 54.53591
# Shear Modulus (GPa) = 28.40642 31.49653 29.95148
#
# Velocity S-wave (km/s) = 3.62672 3.81889 3.72405
# Velocity P-wave (km/s) = 6.49904 6.72674 6.61387
#
# Compressibility (1/GPa) = 0.01874626
#
# Stress axis : x y z
#
# Youngs Moduli (GPa) = 90.97743 66.25661 95.41354
#
# Poissons Ratio (x) = 0.26270 0.28151
# Poissons Ratio (y) = 0.36071 0.19028
# Poissons Ratio (z) = 0.26842 0.13213
#
# Static dielectric constant tensor:
#      x y z
#    x 3.900060 0.000000 -0.011040 
#    y 0.000000 3.809270 0.000000 
#    z -0.011040 0.000000 3.797310 
# 
# 
# High freq. dielectric constant tensor:
#      x y z
#    x 1.856330 0.000000 0.001090 
#    y 0.000000 1.846640 0.000000 
#    z 0.001090 0.000000 1.843810 
# 
# From -- ./inp_files/124014.got.cif
#   From: 2010.06.25/outbox.cif.g09.slc.cpg/sg15_63_cif.got.tgz:124014.got - 2010.06.28 07:06:18.
