data_PCOD8151214
_publ_section_title
;
Structure prediction by ZEFSAII (Michael W. Deem and Ramdas Pophale) SiO2 
 PCOD8151214
Probable space group: C 2/C
;
_chemical_formula_sum "Si O2"
_cell_formula_units_Z 64
_cell_length_a 19.227471
_cell_length_b 11.831391
_cell_length_c 31.345151
_cell_angle_alpha 90.000000
_cell_angle_beta 154.510891
_cell_angle_gamma 90.000000
_cell_volume 3068.594990
_symmetry_space_group_name_H-M "C 2/C"
_symmetry_group_IT_number 15
_symmetry_cell_setting 'monoclinic'
loop_
_space_group_symop_operation_xyz
x,y,z
-x,y,1/2-z
-x,-y,-z
x,-y,1/2+z
1/2+x,1/2+y,z
1/2-x,1/2+y,1/2-z
1/2-x,1/2-y,-z
1/2+x,1/2-y,1/2+z
loop_
_atom_site_type_symbol
_atom_site_label
_atom_site_fract_x
_atom_site_fract_y
_atom_site_fract_z
Si Si1 0.515678 0.610396 0.382291
Si Si2 0.381115 0.219298 0.434752
Si Si3 0.179533 0.964737 0.111022
Si Si4 0.317992 0.975330 0.098601
Si Si5 0.382508 0.272935 0.646269
Si Si6 0.851816 0.724303 0.858291
Si Si7 0.180155 0.463881 0.669761
Si Si8 0.903468 0.392943 0.789060
O O1 0.644700 0.533057 0.479003
O O2 0.600880 0.653576 0.386636
O O3 0.446316 0.712406 0.372433
O O4 0.368635 0.533332 0.285484
O O5 0.308037 0.330659 0.371409
O O6 0.296201 0.205920 0.434166
O O7 0.566590 0.246510 0.550069
O O8 0.356085 0.108422 0.392693
O O9 0.292707 0.001000 0.134295
O O10 0.249685 0.028013 0.190948
O O11 0.000000 0.000000 0.000000
O O12 0.411685 0.856216 0.147238
O O13 0.429176 0.076441 0.141583
O O14 0.500000 0.308085 0.750000
O O15 0.871952 0.591719 0.863794
O O16 0.663713 0.765711 0.757027
O O17 0.070696 0.408650 0.646256
#
# Coordination Sequence:
#
# PCOD8151214 Si02
#       8
#     8   8   8   8   8   8   8   8
#     4  11  22  40  62  96 128 166 218 275 321 387
#     4  11  22  40  65  95 124 173 220 267 327 388
#     4  11  20  41  69  95 124 164 215 277 326 374
#     4  11  22  38  65  97 121 159 217 279 324 369
#     4  11  20  35  64  92 127 158 214 278 328 372
#     4  11  23  43  62  94 131 174 214 263 333 397
#     4  11  25  40  64  92 136 175 213 261 330 405
#     4  11  24  39  66  96 128 165 215 272 328 382
#
# _framework density 20.856449999999999
#
# number of rings (size 3 to 8) (size 9 to 14) (size 15 to 20)
#    0.000    1.000    5.000    4.125    5.250    0.000 
#    0.000    0.625    5.500    0.000    0.000    0.000 
#    0.000    0.000    0.000    0.000    0.000    0.000 
#
# Total GULP energy -396672.554467 kJ/mol
# GULP energy per Si atom -12396.017327 kJ/mol
# Density = 2.080898 g / cm^3
# Si number density = 20.856450 Si / 1000 Ang^3
#
#
#
# Elastic Constant Matrix: (Units=GPa)
#
#
# Indices 1 2 3 4 5 6 
#
# 1 73.2234 32.9928 14.8410 0.0001 2.0048 0.0000
# 2 32.9928 78.7830 18.6016 0.0005 0.9873 0.0000
# 3 14.8410 18.6016 66.6058 0.0036 -2.1683 0.0002
# 4 0.0001 0.0005 0.0036 29.5894 0.0000 3.6702
# 5 2.0048 0.9873 -2.1683 0.0000 32.5563 0.0000
# 6 0.0000 0.0000 0.0002 3.6702 0.0000 23.0687
#
#
#
# Elastic Compliance Matrix: (Units=1/GPa)
#
#
# Indices 1 2 3 4 5 6 
#
# 1 0.017094 -0.006680 -0.001975 0.000000 -0.000982 0.000000
# 2 -0.006680 0.016214 -0.003049 0.000000 -0.000283 0.000000
# 3 -0.001975 -0.003049 0.016348 -0.000002 0.001303 0.000000
# 4 0.000000 0.000000 -0.000002 0.034476 0.000000 -0.005485
# 5 -0.000982 -0.000283 0.001303 0.000000 0.030872 0.000000
# 6 0.000000 0.000000 0.000000 -0.005485 0.000000 0.044221
#
#
# Mechanical properties :
#
#
# Convention : Reuss Voigt Hill
#
# Bulk Modulus (GPa) = 38.09921 39.05367 38.57644
# Shear Modulus (GPa) = 26.12568 27.18800 26.65684
#
# Velocity S-wave (km/s) = 3.54311 3.61443 3.57895
# Velocity P-wave (km/s) = 5.91990 6.01535 5.96781
#
# Compressibility (1/GPa) = 0.02624726
#
# Stress axis : x y z
#
# Youngs Moduli (GPa) = 58.50055 61.67522 61.17039
#
# Poissons Ratio (x) = 0.41198 0.12083
# Poissons Ratio (y) = 0.39078 0.18651
# Poissons Ratio (z) = 0.11555 0.18805
#
# Static dielectric constant tensor:
#      x y z
#    x 3.803250 0.000000 -0.045960 
#    y 0.000000 3.612730 0.000000 
#    z -0.045960 0.000000 3.944090 
# 
# 
# High freq. dielectric constant tensor:
#      x y z
#    x 1.813850 0.000000 -0.008590 
#    y 0.000000 1.791180 0.000000 
#    z -0.008590 0.000000 1.828010 
# 
# From -- ./inp_files/316212.got.cif
#   From: 2010.06.25/outbox.cif.g09.slc.cpg/sg15_159_cif.got.tgz:316212.got - 2010.06.28 07:06:18.
