data_PCOD8151154
_publ_section_title
;
Structure prediction by ZEFSAII (Michael W. Deem and Ramdas Pophale) SiO2 
 PCOD8151154
Probable space group: C 2/C
;
_chemical_formula_sum "Si O2"
_cell_formula_units_Z 56
_cell_length_a 13.316777
_cell_length_b 20.466913
_cell_length_c 11.066019
_cell_angle_alpha 90.000000
_cell_angle_beta 98.338195
_cell_angle_gamma 90.000000
_cell_volume 2984.198210
_symmetry_space_group_name_H-M "C 2/C"
_symmetry_group_IT_number 15
_symmetry_cell_setting 'monoclinic'
loop_
_space_group_symop_operation_xyz
x,y,z
-x,y,1/2-z
-x,-y,-z
x,-y,1/2+z
1/2+x,1/2+y,z
1/2-x,1/2+y,1/2-z
1/2-x,1/2-y,-z
1/2+x,1/2-y,1/2+z
loop_
_atom_site_type_symbol
_atom_site_label
_atom_site_fract_x
_atom_site_fract_y
_atom_site_fract_z
Si Si1 0.248948 0.162441 0.920814
Si Si2 0.585615 0.570301 0.865410
Si Si3 0.431966 0.234941 0.848767
Si Si4 0.547967 0.332022 0.022883
Si Si5 0.395558 0.423731 0.663239
Si Si6 0.227843 0.155869 0.199398
Si Si7 0.614498 0.748898 0.745148
O O1 0.195526 0.099706 0.847351
O O2 0.361083 0.176089 0.887036
O O3 0.174145 0.224223 0.877475
O O4 0.254098 0.147293 0.063550
O O5 0.500000 0.576513 0.750000
O O6 0.543386 0.615646 0.967295
O O7 0.605076 0.494707 0.900500
O O8 0.500000 0.207693 0.750000
O O9 0.364779 0.295013 0.789837
O O10 0.503697 0.263500 0.966441
O O11 0.615610 0.311104 0.149990
O O12 0.620929 0.368848 0.942061
O O13 0.500000 0.411498 0.750000
O O14 0.303695 0.413197 0.743925
O O15 0.326307 0.185940 0.285805
O O16 0.500000 0.768969 0.750000
#
# Coordination Sequence:
#
# PCOD8151154 Si02
#       7
#     8   8   8   8   8   8   8
#     4  11  20  36  57  77 109 150 183 219 274 334
#     4  11  21  34  54  82 113 148 185 219 266 333
#     4  11  20  34  56  83 112 143 181 225 278 333
#     4  12  18  35  53  81 118 139 173 230 287 322
#     4  11  22  35  53  81 114 151 181 220 272 329
#     4  11  20  36  56  77 111 148 185 216 273 338
#     4  11  20  32  53  83 109 138 182 230 276 323
#
# _framework density 18.765509999999999
#
# number of rings (size 3 to 8) (size 9 to 14) (size 15 to 20)
#    0.000    0.857    7.143    3.000    0.000    1.714 
#    0.000    0.000    0.000    0.857    0.000    3.000 
#    0.000    0.000    0.000    0.000    0.000    0.000 
#
# Total GULP energy -346966.243215 kJ/mol
# GULP energy per Si atom -12391.651543 kJ/mol
# Density = 1.872280 g / cm^3
# Si number density = 18.765510 Si / 1000 Ang^3
#
#
#
# Elastic Constant Matrix: (Units=GPa)
#
#
# Indices 1 2 3 4 5 6 
#
# 1 96.4498 46.2738 41.9150 0.0000 -17.0576 0.0000
# 2 46.2738 88.0495 40.5722 0.0000 -4.6649 0.0000
# 3 41.9150 40.5722 65.9375 0.0000 -16.9274 0.0000
# 4 0.0000 0.0000 0.0000 14.6977 0.0000 -3.6907
# 5 -17.0576 -4.6649 -16.9274 0.0000 26.7974 0.0000
# 6 0.0000 0.0000 0.0000 -3.6907 0.0000 23.8597
#
#
#
# Elastic Compliance Matrix: (Units=1/GPa)
#
#
# Indices 1 2 3 4 5 6 
#
# 1 0.016635 -0.005966 -0.005313 0.000000 0.006194 0.000000
# 2 -0.005966 0.018370 -0.009149 0.000000 -0.006379 0.000000
# 3 -0.005313 -0.009149 0.027327 0.000000 0.012287 0.000000
# 4 0.000000 0.000000 0.000000 0.070787 0.000000 0.010950
# 5 0.006194 -0.006379 0.012287 0.000000 0.047911 0.000000
# 6 0.000000 0.000000 0.000000 0.010950 0.000000 0.043605
#
#
# Mechanical properties :
#
#
# Convention : Reuss Voigt Hill
#
# Bulk Modulus (GPa) = 46.56272 56.43987 51.50130
# Shear Modulus (GPa) = 18.33854 21.18270 19.76062
#
# Velocity S-wave (km/s) = 3.12949 3.36342 3.24856
# Velocity P-wave (km/s) = 6.15833 6.72496 6.44788
#
# Compressibility (1/GPa) = 0.02147641
#
# Stress axis : x y z
#
# Youngs Moduli (GPa) = 60.11489 54.43627 36.59373
#
# Poissons Ratio (x) = 0.32475 0.19444
# Poissons Ratio (y) = 0.35863 0.33478
# Poissons Ratio (z) = 0.31942 0.49801
#
# Static dielectric constant tensor:
#      x y z
#    x 3.488460 0.000000 -0.017700 
#    y 0.000000 3.462620 0.000000 
#    z -0.017700 0.000000 3.447030 
# 
# 
# High freq. dielectric constant tensor:
#      x y z
#    x 1.707930 0.000000 -0.005740 
#    y 0.000000 1.696810 0.000000 
#    z -0.005740 0.000000 1.730710 
# 
# From -- ./inp_files/88888.got.cif
#   From: 2010.06.25/outbox.cif.g09.slc.cpg/sg15_45_cif.got.tgz:88888.got - 2010.06.28 07:06:18.
