data_PCOD8151192
_publ_section_title
;
Structure prediction by ZEFSAII (Michael W. Deem and Ramdas Pophale) SiO2 
 PCOD8151192
Probable space group: C 2/C
;
_chemical_formula_sum "Si O2"
_cell_formula_units_Z 36
_cell_length_a 24.001853
_cell_length_b 8.046113
_cell_length_c 16.546712
_cell_angle_alpha 90.000000
_cell_angle_beta 142.442740
_cell_angle_gamma 90.000000
_cell_volume 1947.846729
_symmetry_space_group_name_H-M "C 2/C"
_symmetry_group_IT_number 15
_symmetry_cell_setting 'monoclinic'
loop_
_space_group_symop_operation_xyz
x,y,z
-x,y,1/2-z
-x,-y,-z
x,-y,1/2+z
1/2+x,1/2+y,z
1/2-x,1/2+y,1/2-z
1/2-x,1/2-y,-z
1/2+x,1/2-y,1/2+z
loop_
_atom_site_type_symbol
_atom_site_label
_atom_site_fract_x
_atom_site_fract_y
_atom_site_fract_z
Si Si1 0.142929 0.339658 0.956113
Si Si2 0.024427 0.159292 0.135354
Si Si3 0.000000 0.402375 0.250000
Si Si4 0.975549 0.191477 0.543775
Si Si5 0.847188 0.892595 0.177950
O O1 0.090739 0.484411 0.846667
O O2 0.088229 0.306263 0.975087
O O3 0.148610 0.173346 0.908921
O O4 0.245527 0.392252 0.097142
O O5 0.985556 0.292437 0.153139
O O6 0.117859 0.083521 0.281008
O O7 0.044430 0.243709 0.071538
O O8 0.953828 0.005053 0.036921
O O9 0.083464 0.220411 0.688223
#
# Coordination Sequence:
#
# PCOD8151192 Si02
#       5
#     8   8   4   8   8
#     4  11  20  34  60  78 111 138 185 210 273 309
#     4   9  20  36  58  74 113 138 180 214 277 300
#     4  12  20  34  56  86 104 142 170 236 260 316
#     4   9  18  41  55  75 106 154 167 222 260 326
#     4   9  19  39  55  79 103 151 176 213 258 339
#
# _framework density 18.481946000000001
#
# number of rings (size 3 to 8) (size 9 to 14) (size 15 to 20)
#    1.333    0.889    2.222    1.333    0.000    1.778 
#    4.000    2.222    0.000    0.000    0.000    0.000 
#    0.000    0.000    0.000    0.000    0.000    0.000 
#
# Total GULP energy -223033.478363 kJ/mol
# GULP energy per Si atom -12390.748798 kJ/mol
# Density = 1.843988 g / cm^3
# Si number density = 18.481946 Si / 1000 Ang^3
#
#
#
# Elastic Constant Matrix: (Units=GPa)
#
#
# Indices 1 2 3 4 5 6 
#
# 1 95.2234 32.9455 55.2406 0.0000 1.6310 0.0000
# 2 32.9455 44.3758 24.8998 0.0000 -2.2479 0.0000
# 3 55.2406 24.8998 72.5494 0.0000 7.1133 0.0000
# 4 0.0000 0.0000 0.0000 22.7313 0.0000 -3.8981
# 5 1.6310 -2.2479 7.1133 0.0000 43.1969 0.0000
# 6 0.0000 0.0000 0.0000 -3.8981 0.0000 22.6155
#
#
#
# Elastic Compliance Matrix: (Units=1/GPa)
#
#
# Indices 1 2 3 4 5 6 
#
# 1 0.021003 -0.008070 -0.013319 0.000000 0.000980 0.000000
# 2 -0.008070 0.031420 -0.004908 0.000000 0.002748 0.000000
# 3 -0.013319 -0.004908 0.026005 0.000000 -0.004035 0.000000
# 4 0.000000 0.000000 0.000000 0.045332 0.000000 0.007814
# 5 0.000980 0.002748 -0.004035 0.000000 0.023920 0.000000
# 6 0.000000 0.000000 0.000000 0.007814 0.000000 0.045564
#
#
# Mechanical properties :
#
#
# Convention : Reuss Voigt Hill
#
# Bulk Modulus (GPa) = 38.70917 48.70225 43.70571
# Shear Modulus (GPa) = 19.65023 24.31291 21.98157
#
# Velocity S-wave (km/s) = 3.26423 3.63091 3.45244
# Velocity P-wave (km/s) = 5.93268 6.63223 6.29219
#
# Compressibility (1/GPa) = 0.02583367
#
# Stress axis : x y z
#
# Youngs Moduli (GPa) = 47.61135 31.82729 38.45426
#
# Poissons Ratio (x) = 0.25686 0.51216
# Poissons Ratio (y) = 0.38424 0.18874
# Poissons Ratio (z) = 0.63412 0.15621
#
# Static dielectric constant tensor:
#      x y z
#    x 3.155080 0.000000 -0.009060 
#    y 0.000000 3.211030 0.000000 
#    z -0.009060 0.000000 3.349910 
# 
# 
# High freq. dielectric constant tensor:
#      x y z
#    x 1.701620 0.000000 -0.010360 
#    y 0.000000 1.698340 0.000000 
#    z -0.010360 0.000000 1.709430 
# 
# From -- ./inp_files/159043.got.cif
#   From: 2010.06.25/outbox.cif.g09.slc.cpg/sg15_80_cif.got.tgz:159043.got - 2010.06.28 07:06:18.
