data_PCOD8151089
_publ_section_title
;
Structure prediction by ZEFSAII (Michael W. Deem and Ramdas Pophale) SiO2 
 PCOD8151089
Probable space group: C 2/C
;
_chemical_formula_sum "Si O2"
_cell_formula_units_Z 44
_cell_length_a 16.831655
_cell_length_b 17.321131
_cell_length_c 10.328502
_cell_angle_alpha 90.000000
_cell_angle_beta 138.674422
_cell_angle_gamma 90.000000
_cell_volume 1988.410397
_symmetry_space_group_name_H-M "C 2/C"
_symmetry_group_IT_number 15
_symmetry_cell_setting 'monoclinic'
loop_
_space_group_symop_operation_xyz
x,y,z
-x,y,1/2-z
-x,-y,-z
x,-y,1/2+z
1/2+x,1/2+y,z
1/2-x,1/2+y,1/2-z
1/2-x,1/2-y,-z
1/2+x,1/2-y,1/2+z
loop_
_atom_site_type_symbol
_atom_site_label
_atom_site_fract_x
_atom_site_fract_y
_atom_site_fract_z
Si Si1 0.277873 0.614470 0.228336
Si Si2 0.624828 0.967143 0.097781
Si Si3 0.500000 0.868648 0.750000
Si Si4 0.886721 0.353053 0.196151
Si Si5 0.491971 0.307871 0.890172
Si Si6 0.164568 0.274156 0.780035
O O1 0.230438 0.527778 0.193765
O O2 0.421401 0.623371 0.379479
O O3 0.245886 0.661984 0.314424
O O4 0.219832 0.658287 0.035202
O O5 0.667740 0.910429 0.263553
O O6 0.604342 0.922195 0.938054
O O7 0.500000 0.000000 0.000000
O O8 0.546425 0.815297 0.691000
O O9 0.921325 0.273501 0.307664
O O10 0.000000 0.386720 0.250000
O O11 0.500000 0.333350 0.750000
O O12 0.618535 0.292806 0.122929
O O13 0.250000 0.250000 0.000000
#
# Coordination Sequence:
#
# PCOD8151089 Si02
#       6
#     8   8   4   8   8   8
#     4  12  24  39  66 102 134 180 224 285 348 398
#     4  12  21  36  62  99 136 171 224 279 341 405
#     4  12  22  40  62 100 140 166 224 290 340 406
#     4  11  19  38  66  97 134 172 228 283 335 406
#     4  11  23  44  68 100 137 178 234 281 343 416
#     4  12  25  40  67 103 137 178 219 285 354 407
#
# _framework density 22.128226999999999
#
# number of rings (size 3 to 8) (size 9 to 14) (size 15 to 20)
#    0.000    0.364    9.091    2.727    0.000    0.000 
#    0.000    0.000    0.000    4.364    0.000    0.000 
#    0.000    0.000    0.000    0.000    0.000    0.000 
#
# Total GULP energy -272637.280685 kJ/mol
# GULP energy per Si atom -12392.603667 kJ/mol
# Density = 2.207786 g / cm^3
# Si number density = 22.128227 Si / 1000 Ang^3
#
#
#
# Elastic Constant Matrix: (Units=GPa)
#
#
# Indices 1 2 3 4 5 6 
#
# 1 117.5933 48.7830 25.3175 0.0000 -7.7966 0.0000
# 2 48.7830 78.9440 30.5255 0.0000 -1.5555 0.0000
# 3 25.3175 30.5255 110.5144 0.0000 -23.4152 0.0000
# 4 0.0000 0.0000 0.0000 69.5901 0.0000 -37.6197
# 5 -7.7966 -1.5555 -23.4152 0.0000 37.9494 0.0000
# 6 0.0000 0.0000 0.0000 -37.6197 0.0000 76.2539
#
#
#
# Elastic Compliance Matrix: (Units=1/GPa)
#
#
# Indices 1 2 3 4 5 6 
#
# 1 0.011607 -0.007012 -0.000320 0.000000 0.001900 0.000000
# 2 -0.007012 0.018566 -0.004217 0.000000 -0.003282 0.000000
# 3 -0.000320 -0.004217 0.011776 0.000000 0.007027 0.000000
# 4 0.000000 0.000000 0.000000 0.019596 0.000000 0.009668
# 5 0.001900 -0.003282 0.007027 0.000000 0.030943 0.000000
# 6 0.000000 0.000000 0.000000 0.009668 0.000000 0.017884
#
#
# Mechanical properties :
#
#
# Convention : Reuss Voigt Hill
#
# Bulk Modulus (GPa) = 53.04568 57.36711 55.20639
# Shear Modulus (GPa) = 35.77750 50.25370 43.01560
#
# Velocity S-wave (km/s) = 4.02534 4.77069 4.41378
# Velocity P-wave (km/s) = 6.75489 7.50514 7.13988
#
# Compressibility (1/GPa) = 0.01885168
#
# Stress axis : x y z
#
# Youngs Moduli (GPa) = 86.15141 53.86184 84.92158
#
# Poissons Ratio (x) = 0.37766 0.02716
# Poissons Ratio (y) = 0.60406 0.35813
# Poissons Ratio (z) = 0.02756 0.22714
#
# Static dielectric constant tensor:
#      x y z
#    x 4.200080 0.000000 -0.139070 
#    y 0.000000 3.913580 0.000000 
#    z -0.139070 0.000000 4.006530 
# 
# 
# High freq. dielectric constant tensor:
#      x y z
#    x 1.874330 0.000000 -0.028840 
#    y 0.000000 1.845660 0.000000 
#    z -0.028840 0.000000 1.864890 
# 
# From -- ./inp_files/106785.got.cif
#   From: 2010.06.25/outbox.cif.g09.slc.cpg/sg15_54_cif.got.tgz:106785.got - 2010.06.28 07:06:18.
