data_PCOD8151030
_publ_section_title
;
Structure prediction by ZEFSAII (Michael W. Deem and Ramdas Pophale) SiO2 
 PCOD8151030
Probable space group: C 2/C
;
_chemical_formula_sum "Si O2"
_cell_formula_units_Z 64
_cell_length_a 19.243208
_cell_length_b 23.061047
_cell_length_c 8.749491
_cell_angle_alpha 90.000000
_cell_angle_beta 58.764825
_cell_angle_gamma 90.000000
_cell_volume 3319.929032
_symmetry_space_group_name_H-M "C 2/C"
_symmetry_group_IT_number 15
_symmetry_cell_setting 'monoclinic'
loop_
_space_group_symop_operation_xyz
x,y,z
-x,y,1/2-z
-x,-y,-z
x,-y,1/2+z
1/2+x,1/2+y,z
1/2-x,1/2+y,1/2-z
1/2-x,1/2-y,-z
1/2+x,1/2-y,1/2+z
loop_
_atom_site_type_symbol
_atom_site_label
_atom_site_fract_x
_atom_site_fract_y
_atom_site_fract_z
Si Si1 0.471947 0.222698 0.944692
Si Si2 0.189870 0.320726 0.442149
Si Si3 0.650711 0.067780 0.808229
Si Si4 0.188834 0.544784 0.413269
Si Si5 0.706936 0.757233 0.887300
Si Si6 0.728884 0.360391 0.847778
Si Si7 0.575607 0.282651 0.059330
Si Si8 0.021542 0.596272 0.549077
O O1 0.500000 0.202183 0.750000
O O2 0.467745 0.160840 0.039034
O O3 0.387918 0.256897 0.014018
O O4 0.538097 0.266462 0.938450
O O5 0.164616 0.365634 0.339816
O O6 0.256984 0.280315 0.290103
O O7 0.227093 0.356527 0.539254
O O8 0.119133 0.275582 0.577086
O O9 0.686168 0.058156 0.596823
O O10 0.553217 0.060083 0.938828
O O11 0.696265 0.024094 0.872555
O O12 0.264405 0.575580 0.236408
O O13 0.105904 0.563707 0.422648
O O14 0.720113 0.824174 0.833453
O O15 0.750000 0.750000 0.000000
O O16 0.636169 0.337204 0.969053
O O17 0.500000 0.301395 0.250000
O O18 0.000000 0.600402 0.750000
#
# Coordination Sequence:
#
# PCOD8151030 Si02
#       8
#     8   8   8   8   8   8   8   8
#     4  11  19  33  54  81 112 151 192 229 283 341
#     4  11  22  36  54  81 114 149 194 240 293 349
#     4  11  22  38  56  84 112 157 199 239 286 344
#     4  11  22  38  57  79 116 154 200 243 286 344
#     4  11  21  35  56  82 114 153 192 239 292 350
#     4  11  22  37  55  80 114 153 196 244 295 343
#     4  11  22  36  55  84 115 151 192 242 297 349
#     4   9  19  33  52  78 114 152 193 229 278 336
#
# _framework density 19.277519999999999
#
# number of rings (size 3 to 8) (size 9 to 14) (size 15 to 20)
#    0.000    1.250    2.500    6.375    1.750    0.000 
#    0.000    1.875    0.000    0.000    0.000    8.750 
#    0.000    0.000    0.000    0.250    0.000    0.000 
#
# Total GULP energy -396528.223676 kJ/mol
# GULP energy per Si atom -12391.506990 kJ/mol
# Density = 1.923364 g / cm^3
# Si number density = 19.277520 Si / 1000 Ang^3
#
#
#
# Elastic Constant Matrix: (Units=GPa)
#
#
# Indices 1 2 3 4 5 6 
#
# 1 84.8565 22.5352 23.9777 0.0000 -7.6751 0.0000
# 2 22.5352 69.4075 16.9359 0.0000 -10.6650 0.0000
# 3 23.9777 16.9359 66.0964 0.0000 -5.1746 0.0000
# 4 0.0000 0.0000 0.0000 26.5219 0.0000 3.5835
# 5 -7.6751 -10.6650 -5.1746 0.0000 33.6079 0.0000
# 6 0.0000 0.0000 0.0000 3.5835 0.0000 28.5992
#
#
#
# Elastic Compliance Matrix: (Units=1/GPa)
#
#
# Indices 1 2 3 4 5 6 
#
# 1 0.013955 -0.003299 -0.004099 0.000000 0.001509 0.000000
# 2 -0.003299 0.016795 -0.002782 0.000000 0.004148 0.000000
# 3 -0.004099 -0.002782 0.017397 0.000000 0.000860 0.000000
# 4 0.000000 0.000000 0.000000 0.038354 0.000000 -0.004806
# 5 0.001509 0.004148 0.000860 0.000000 0.031548 0.000000
# 6 0.000000 0.000000 0.000000 -0.004806 0.000000 0.035568
#
#
# Mechanical properties :
#
#
# Convention : Reuss Voigt Hill
#
# Bulk Modulus (GPa) = 35.98813 38.58423 37.28618
# Shear Modulus (GPa) = 27.28668 28.20658 27.74663
#
# Velocity S-wave (km/s) = 3.76635 3.82931 3.79796
# Velocity P-wave (km/s) = 6.13374 6.29365 6.21421
#
# Compressibility (1/GPa) = 0.02778694
#
# Stress axis : x y z
#
# Youngs Moduli (GPa) = 71.65645 59.54179 57.48258
#
# Poissons Ratio (x) = 0.19643 0.23563
# Poissons Ratio (y) = 0.23639 0.15991
# Poissons Ratio (z) = 0.29373 0.16564
#
# Static dielectric constant tensor:
#      x y z
#    x 3.598430 0.000000 0.018830 
#    y 0.000000 3.421650 0.000000 
#    z 0.018830 0.000000 3.443890 
# 
# 
# High freq. dielectric constant tensor:
#      x y z
#    x 1.739190 0.000000 0.007730 
#    y 0.000000 1.730290 0.000000 
#    z 0.007730 0.000000 1.750050 
# 
# From -- ./inp_files/57852.got.cif
#   From: 2010.06.25/outbox.cif.g09.slc.cpg/sg15_29_cif.got.tgz:57852.got - 2010.06.28 07:06:18.
