data_PCOD8151374
_publ_section_title
;
Structure prediction by ZEFSAII (Michael W. Deem and Ramdas Pophale) SiO2 
 PCOD8151374
Probable space group: C 2/C
;
_chemical_formula_sum "Si O2"
_cell_formula_units_Z 48
_cell_length_a 9.136491
_cell_length_b 13.544944
_cell_length_c 28.946832
_cell_angle_alpha 90.000000
_cell_angle_beta 138.713472
_cell_angle_gamma 90.000000
_cell_volume 2363.667885
_symmetry_space_group_name_H-M "C 2/C"
_symmetry_group_IT_number 15
_symmetry_cell_setting 'monoclinic'
loop_
_space_group_symop_operation_xyz
x,y,z
-x,y,1/2-z
-x,-y,-z
x,-y,1/2+z
1/2+x,1/2+y,z
1/2-x,1/2+y,1/2-z
1/2-x,1/2-y,-z
1/2+x,1/2-y,1/2+z
loop_
_atom_site_type_symbol
_atom_site_label
_atom_site_fract_x
_atom_site_fract_y
_atom_site_fract_z
Si Si1 0.292783 0.496269 0.283337
Si Si2 0.539908 0.302725 0.207663
Si Si3 0.777184 0.301617 0.078587
Si Si4 0.805408 0.502377 0.638822
Si Si5 0.472812 0.312510 0.794799
Si Si6 0.396208 0.288707 0.919262
O O1 0.442483 0.420822 0.289681
O O2 0.258507 0.451828 0.326478
O O3 0.425812 0.598273 0.318611
O O4 0.065365 0.524485 0.202794
O O5 0.500000 0.263681 0.250000
O O6 0.773896 0.265264 0.244777
O O7 0.337046 0.265972 0.127804
O O8 0.773739 0.418825 0.089701
O O9 0.807709 0.243262 0.134155
O O10 0.984031 0.265588 0.095725
O O11 0.547033 0.272270 0.000186
O O12 0.652240 0.405643 0.596185
O O13 0.500000 0.355252 0.750000
#
# Coordination Sequence:
#
# PCOD8151374 Si02
#       6
#     8   8   8   8   8   8
#     4  11  22  36  66  95 124 163 220 272 321 388
#     4  12  21  40  64  94 123 169 218 266 323 392
#     4  11  23  40  65  98 130 170 219 274 329 393
#     4  11  20  40  65  95 124 170 217 266 330 394
#     4  12  23  40  63  95 130 165 217 275 324 386
#     4  11  23  41  67  92 132 172 220 267 332 396
#
# _framework density 20.307421000000001
#
# number of rings (size 3 to 8) (size 9 to 14) (size 15 to 20)
#    0.000    0.667    6.667    2.000    0.000    0.000 
#    0.000    4.167    0.000    0.000    0.000    0.000 
#    0.000    0.000    0.000    0.000    0.000    0.000 
#
# Total GULP energy -297524.744926 kJ/mol
# GULP energy per Si atom -12396.864372 kJ/mol
# Density = 2.026120 g / cm^3
# Si number density = 20.307421 Si / 1000 Ang^3
#
#
#
# Elastic Constant Matrix: (Units=GPa)
#
#
# Indices 1 2 3 4 5 6 
#
# 1 57.6725 34.0575 39.3480 0.0000 -8.1119 0.0000
# 2 34.0575 119.9722 44.0516 0.0000 0.6292 0.0000
# 3 39.3480 44.0516 142.4582 0.0000 3.6656 0.0000
# 4 0.0000 0.0000 0.0000 32.2859 0.0000 0.4396
# 5 -8.1119 0.6292 3.6656 0.0000 20.8384 0.0000
# 6 0.0000 0.0000 0.0000 0.4396 0.0000 41.3759
#
#
#
# Elastic Compliance Matrix: (Units=1/GPa)
#
#
# Indices 1 2 3 4 5 6 
#
# 1 0.026058 -0.005310 -0.005847 0.000000 0.011333 0.000000
# 2 -0.005310 0.010486 -0.001722 0.000000 -0.002081 0.000000
# 3 -0.005847 -0.001722 0.009266 0.000000 -0.003854 0.000000
# 4 0.000000 0.000000 0.000000 0.030978 0.000000 -0.000329
# 5 0.011333 -0.002081 -0.003854 0.000000 0.053141 0.000000
# 6 0.000000 0.000000 0.000000 -0.000329 0.000000 0.024172
#
#
# Mechanical properties :
#
#
# Convention : Reuss Voigt Hill
#
# Bulk Modulus (GPa) = 49.87066 61.66857 55.76962
# Shear Modulus (GPa) = 26.80333 32.40974 29.60653
#
# Velocity S-wave (km/s) = 3.63695 3.99928 3.82241
# Velocity P-wave (km/s) = 6.49983 7.19438 6.85590
#
# Compressibility (1/GPa) = 0.02005187
#
# Stress axis : x y z
#
# Youngs Moduli (GPa) = 38.37559 95.36574 107.91676
#
# Poissons Ratio (x) = 0.50638 0.63101
# Poissons Ratio (y) = 0.20377 0.18587
# Poissons Ratio (z) = 0.22439 0.16425
#
# Static dielectric constant tensor:
#      x y z
#    x 3.484290 0.000000 0.008980 
#    y 0.000000 3.628060 0.000000 
#    z 0.008980 0.000000 3.692880 
# 
# 
# High freq. dielectric constant tensor:
#      x y z
#    x 1.777130 0.000000 -0.001450 
#    y 0.000000 1.800960 0.000000 
#    z -0.001450 0.000000 1.790620 
# 
# From -- ./inp_files/289001.got.cif
#   From: 2010.06.25/outbox.cif.g09.slc.cpg/sg15_145_cif.got.tgz:289001.got - 2010.06.28 07:06:18.
