data_PCOD8151316
_publ_section_title
;
Structure prediction by ZEFSAII (Michael W. Deem and Ramdas Pophale) SiO2 
 PCOD8151316
Probable space group: C 2/C
;
_chemical_formula_sum "Si O2"
_cell_formula_units_Z 48
_cell_length_a 11.017645
_cell_length_b 9.536140
_cell_length_c 22.014231
_cell_angle_alpha 90.000000
_cell_angle_beta 78.801349
_cell_angle_gamma 90.000000
_cell_volume 2268.903844
_symmetry_space_group_name_H-M "C 2/C"
_symmetry_group_IT_number 15
_symmetry_cell_setting 'monoclinic'
loop_
_space_group_symop_operation_xyz
x,y,z
-x,y,1/2-z
-x,-y,-z
x,-y,1/2+z
1/2+x,1/2+y,z
1/2-x,1/2+y,1/2-z
1/2-x,1/2-y,-z
1/2+x,1/2-y,1/2+z
loop_
_atom_site_type_symbol
_atom_site_label
_atom_site_fract_x
_atom_site_fract_y
_atom_site_fract_z
Si Si1 0.099976 0.403609 0.409079
Si Si2 0.394057 0.749134 0.497666
Si Si3 0.292105 0.605644 0.107696
Si Si4 0.014577 0.407243 0.679305
Si Si5 0.822359 0.032485 0.966682
Si Si6 0.540771 0.346900 0.383574
O O1 0.161562 0.259953 0.379228
O O2 0.070083 0.489836 0.352091
O O3 0.190193 0.494318 0.445761
O O4 0.972945 0.368995 0.457363
O O5 0.250000 0.750000 0.500000
O O6 0.421731 0.594982 0.466765
O O7 0.411156 0.754820 0.567820
O O8 0.377707 0.486668 0.131345
O O9 0.155906 0.577658 0.145572
O O10 0.294069 0.601661 0.034297
O O11 0.961507 0.248039 0.676836
O O12 0.000000 0.452963 0.750000
O O13 0.896387 0.132513 0.914244
#
# Coordination Sequence:
#
# PCOD8151316 Si02
#       6
#     8   8   8   8   8   8
#     4  12  22  40  67  94 132 166 207 267 322 381
#     4  11  21  35  63 105 132 160 201 258 338 401
#     4  11  22  43  69  96 132 163 204 269 333 389
#     4  12  29  45  60  90 129 179 230 261 303 376
#     4  11  20  38  69 105 130 158 202 268 347 396
#     4  11  21  42  67  95 133 164 206 271 328 390
#
# _framework density 21.15559
#
# number of rings (size 3 to 8) (size 9 to 14) (size 15 to 20)
#    0.000    0.667    5.000    5.500    0.000    3.333 
#    0.000    0.833    0.000    0.000    0.000    0.000 
#    0.000    0.000    0.000    0.000    0.000    0.000 
#
# Total GULP energy -297473.537138 kJ/mol
# GULP energy per Si atom -12394.730714 kJ/mol
# Density = 2.110744 g / cm^3
# Si number density = 21.155590 Si / 1000 Ang^3
#
#
#
# Elastic Constant Matrix: (Units=GPa)
#
#
# Indices 1 2 3 4 5 6 
#
# 1 112.9741 19.1196 36.0206 0.0000 6.9597 0.0000
# 2 19.1196 57.7429 34.5219 0.0000 1.8900 0.0000
# 3 36.0206 34.5219 88.9414 0.0000 10.9129 0.0000
# 4 0.0000 0.0000 0.0000 21.1291 0.0000 1.6308
# 5 6.9597 1.8900 10.9129 0.0000 18.4176 0.0000
# 6 0.0000 0.0000 0.0000 1.6308 0.0000 41.6274
#
#
#
# Elastic Compliance Matrix: (Units=1/GPa)
#
#
# Indices 1 2 3 4 5 6 
#
# 1 0.010275 -0.001281 -0.003455 0.000000 -0.001704 0.000000
# 2 -0.001281 0.022876 -0.008769 0.000000 0.003332 0.000000
# 3 -0.003455 -0.008769 0.017013 0.000000 -0.007875 0.000000
# 4 0.000000 0.000000 0.000000 0.047472 0.000000 -0.001860
# 5 -0.001704 0.003332 -0.007875 0.000000 0.059264 0.000000
# 6 0.000000 0.000000 0.000000 -0.001860 0.000000 0.024096
#
#
# Mechanical properties :
#
#
# Convention : Reuss Voigt Hill
#
# Bulk Modulus (GPa) = 43.19060 48.77583 45.98322
# Shear Modulus (GPa) = 23.17793 27.56790 25.37292
#
# Velocity S-wave (km/s) = 3.31357 3.61377 3.46692
# Velocity P-wave (km/s) = 5.92450 6.36539 6.14890
#
# Compressibility (1/GPa) = 0.02315319
#
# Stress axis : x y z
#
# Youngs Moduli (GPa) = 97.32418 43.71413 58.78003
#
# Poissons Ratio (x) = 0.05599 0.20309
# Poissons Ratio (y) = 0.12465 0.51546
# Poissons Ratio (z) = 0.33626 0.38334
#
# Static dielectric constant tensor:
#      x y z
#    x 4.055720 0.000000 0.078290 
#    y 0.000000 3.124280 0.000000 
#    z 0.078290 0.000000 3.286770 
# 
# 
# High freq. dielectric constant tensor:
#      x y z
#    x 1.858040 0.000000 0.004360 
#    y 0.000000 1.851970 0.000000 
#    z 0.004360 0.000000 1.775620 
# 
# From -- ./inp_files/195992.got.cif
#   From: 2010.06.25/outbox.cif.g09.slc.cpg/sg15_98_cif.got.tgz:195992.got - 2010.06.28 07:06:18.
