data_PCOD8151128
_publ_section_title
;
Structure prediction by ZEFSAII (Michael W. Deem and Ramdas Pophale) SiO2 
 PCOD8151128
Probable space group: C 2/C
;
_chemical_formula_sum "Si O2"
_cell_formula_units_Z 64
_cell_length_a 18.958759
_cell_length_b 17.272984
_cell_length_c 21.397241
_cell_angle_alpha 90.000000
_cell_angle_beta 154.386345
_cell_angle_gamma 90.000000
_cell_volume 3029.151251
_symmetry_space_group_name_H-M "C 2/C"
_symmetry_group_IT_number 15
_symmetry_cell_setting 'monoclinic'
loop_
_space_group_symop_operation_xyz
x,y,z
-x,y,1/2-z
-x,-y,-z
x,-y,1/2+z
1/2+x,1/2+y,z
1/2-x,1/2+y,1/2-z
1/2-x,1/2-y,-z
1/2+x,1/2-y,1/2+z
loop_
_atom_site_type_symbol
_atom_site_label
_atom_site_fract_x
_atom_site_fract_y
_atom_site_fract_z
Si Si1 0.513646 0.466836 0.333372
Si Si2 0.270362 0.579438 0.203807
Si Si3 0.136757 0.295266 0.315697
Si Si4 0.940776 0.837612 0.373694
Si Si5 0.321343 0.285841 0.841191
Si Si6 0.813717 0.970535 0.344116
Si Si7 0.676982 0.964170 0.369149
Si Si8 0.938928 0.315008 0.034507
O O1 0.500000 0.448793 0.250000
O O2 0.415229 0.542638 0.278187
O O3 0.457996 0.390069 0.325931
O O4 0.702341 0.484955 0.493547
O O5 0.325411 0.657528 0.284300
O O6 0.216771 0.518138 0.213540
O O7 0.121531 0.600791 0.038358
O O8 0.000000 0.255090 0.250000
O O9 0.203210 0.372606 0.402982
O O10 0.279013 0.234789 0.421226
O O11 0.054084 0.324910 0.185815
O O12 0.853241 0.755916 0.287672
O O13 0.824617 0.880733 0.332036
O O14 0.121453 0.827218 0.548679
O O15 0.463101 0.223308 0.943665
O O16 0.709805 0.982152 0.322859
O O17 0.000000 0.000000 0.500000
O O18 0.500000 0.991550 0.250000
#
# Coordination Sequence:
#
# PCOD8151128 Si02
#       8
#     8   8   8   8   8   8   8   8
#     4  11  25  47  67  95 136 185 227 269 346 416
#     4  11  22  36  70  96 124 178 221 277 334 399
#     4  11  25  38  57  89 137 179 217 257 331 407
#     4  11  23  42  71  98 134 179 224 283 342 405
#     4  12  20  40  66 100 131 161 227 285 337 393
#     4  11  19  41  67  94 133 177 224 268 344 412
#     4  11  23  42  65  95 129 174 224 281 329 401
#     4  12  22  38  58  95 130 170 220 273 326 391
#
# _framework density 21.128031
#
# number of rings (size 3 to 8) (size 9 to 14) (size 15 to 20)
#    0.000    0.750    6.250    2.625    3.500    0.500 
#    2.250    2.500    0.000    0.750    0.000    0.000 
#    0.000    0.000    0.000    0.000    0.000    0.000 
#
# Total GULP energy -396754.164126 kJ/mol
# GULP energy per Si atom -12398.567629 kJ/mol
# Density = 2.107994 g / cm^3
# Si number density = 21.128031 Si / 1000 Ang^3
#
#
#
# Elastic Constant Matrix: (Units=GPa)
#
#
# Indices 1 2 3 4 5 6 
#
# 1 123.2326 25.7258 41.5031 0.0065 -5.2517 -0.0013
# 2 25.7258 76.9328 31.2750 0.0350 -6.3410 0.0082
# 3 41.5031 31.2750 63.1166 0.0202 -4.3561 0.0021
# 4 0.0065 0.0350 0.0202 33.5925 0.0001 -6.6485
# 5 -5.2517 -6.3410 -4.3561 0.0001 28.0234 -0.0019
# 6 -0.0013 0.0082 0.0021 -6.6485 -0.0019 24.2689
#
#
#
# Elastic Compliance Matrix: (Units=1/GPa)
#
#
# Indices 1 2 3 4 5 6 
#
# 1 0.010487 -0.000828 -0.006432 0.000003 0.000778 0.000002
# 2 -0.000828 0.016511 -0.007470 -0.000014 0.002420 -0.000009
# 3 -0.006432 -0.007470 0.023830 -0.000006 0.000809 -0.000001
# 4 0.000003 -0.000014 -0.000006 0.031475 -0.000003 0.008623
# 5 0.000778 0.002420 0.000809 -0.000003 0.036504 0.000001
# 6 0.000002 -0.000009 -0.000001 0.008623 0.000001 0.043567
#
#
# Mechanical properties :
#
#
# Convention : Reuss Voigt Hill
#
# Bulk Modulus (GPa) = 46.79712 51.14332 48.97022
# Shear Modulus (GPa) = 25.13097 28.16215 26.64656
#
# Velocity S-wave (km/s) = 3.45260 3.65489 3.55518
# Velocity P-wave (km/s) = 6.17181 6.48613 6.33092
#
# Compressibility (1/GPa) = 0.02136884
#
# Stress axis : x y z
#
# Youngs Moduli (GPa) = 95.35714 60.56398 41.96317
#
# Poissons Ratio (x) = 0.05014 0.26990
# Poissons Ratio (y) = 0.07895 0.31347
# Poissons Ratio (z) = 0.61332 0.45243
#
# Static dielectric constant tensor:
#      x y z
#    x 3.804310 0.000000 -0.120140 
#    y 0.000000 3.885520 -0.000070 
#    z -0.120140 -0.000070 3.955600 
# 
# 
# High freq. dielectric constant tensor:
#      x y z
#    x 1.816000 0.000000 -0.009260 
#    y 0.000000 1.821080 -0.000010 
#    z -0.009260 -0.000010 1.830090 
# 
# From -- ./inp_files/280511.got.cif
#   From: 2010.06.25/outbox.cif.g09.slc.cpg/sg15_141_cif.got.tgz:280511.got - 2010.06.28 07:06:18.
