data_PCOD8151158
_publ_section_title
;
Structure prediction by ZEFSAII (Michael W. Deem and Ramdas Pophale) SiO2 
 PCOD8151158
Probable space group: C 2/C
;
_chemical_formula_sum "Si O2"
_cell_formula_units_Z 56
_cell_length_a 21.805407
_cell_length_b 18.299912
_cell_length_c 16.790775
_cell_angle_alpha 90.000000
_cell_angle_beta 153.686631
_cell_angle_gamma 90.000000
_cell_volume 2970.040894
_symmetry_space_group_name_H-M "C 2/C"
_symmetry_group_IT_number 15
_symmetry_cell_setting 'monoclinic'
loop_
_space_group_symop_operation_xyz
x,y,z
-x,y,1/2-z
-x,-y,-z
x,-y,1/2+z
1/2+x,1/2+y,z
1/2-x,1/2+y,1/2-z
1/2-x,1/2-y,-z
1/2+x,1/2-y,1/2+z
loop_
_atom_site_type_symbol
_atom_site_label
_atom_site_fract_x
_atom_site_fract_y
_atom_site_fract_z
Si Si1 0.302312 0.521324 0.666820
Si Si2 0.208943 0.258059 0.190982
Si Si3 0.834169 0.098620 0.871369
Si Si4 0.141198 0.880094 0.695036
Si Si5 0.241609 0.870369 0.501260
Si Si6 0.391751 0.543273 0.511461
Si Si7 0.406299 0.250935 0.272783
O O1 0.307971 0.563516 0.755524
O O2 0.268967 0.435458 0.644076
O O3 0.198361 0.564152 0.485752
O O4 0.447144 0.526785 0.786920
O O5 0.224423 0.335604 0.254682
O O6 0.217416 0.197222 0.270842
O O7 0.333534 0.249818 0.273774
O O8 0.069393 0.251265 0.977358
O O9 0.989835 0.130821 0.057096
O O10 0.813146 0.035771 0.913998
O O11 0.124300 0.916229 0.590107
O O12 0.169177 0.904602 0.493206
O O13 0.367972 0.819931 0.675946
O O14 0.130809 0.823422 0.320465
#
# Coordination Sequence:
#
# PCOD8151158 Si02
#       7
#     8   8   8   8   8   8   8
#     4   9  17  30  49  77 101 139 176 222 250 307
#     4  12  19  38  51  79 112 144 171 222 258 325
#     4   9  18  33  49  76 100 141 182 218 251 308
#     4   9  17  31  52  73 103 138 181 215 257 302
#     4  11  20  33  48  82 108 138 170 219 262 323
#     4   9  17  29  53  72 107 136 178 216 259 305
#     4  11  25  30  54  80 117 141 170 208 282 322
#
# _framework density 18.854959000000001
#
# number of rings (size 3 to 8) (size 9 to 14) (size 15 to 20)
#    0.000    2.000    4.286    3.000    2.000    1.714 
#    0.000    0.714    0.000    0.857    0.000    0.000 
#    0.000    0.000    0.000    0.000    0.000    0.000 
#
# Total GULP energy -346932.874542 kJ/mol
# GULP energy per Si atom -12390.459805 kJ/mol
# Density = 1.881204 g / cm^3
# Si number density = 18.854959 Si / 1000 Ang^3
#
#
#
# Elastic Constant Matrix: (Units=GPa)
#
#
# Indices 1 2 3 4 5 6 
#
# 1 45.3154 31.6419 8.1585 0.0000 -1.4406 0.0000
# 2 31.6419 148.8337 38.2639 0.0000 -7.6558 0.0000
# 3 8.1585 38.2639 28.5010 0.0000 -3.0761 0.0000
# 4 0.0000 0.0000 0.0000 25.9445 0.0000 -7.3538
# 5 -1.4406 -7.6558 -3.0761 0.0000 12.8395 0.0000
# 6 0.0000 0.0000 0.0000 -7.3538 0.0000 43.2623
#
#
#
# Elastic Compliance Matrix: (Units=1/GPa)
#
#
# Indices 1 2 3 4 5 6 
#
# 1 0.025917 -0.005516 -0.000056 0.000000 -0.000395 0.000000
# 2 -0.005516 0.011540 -0.013590 0.000000 0.003006 0.000000
# 3 -0.000056 -0.013590 0.053865 0.000000 0.004795 0.000000
# 4 0.000000 0.000000 0.000000 0.040495 0.000000 0.006883
# 5 -0.000395 0.003006 0.004795 0.000000 0.080782 0.000000
# 6 0.000000 0.000000 0.000000 0.006883 0.000000 0.024285
#
#
# Mechanical properties :
#
#
# Convention : Reuss Voigt Hill
#
# Bulk Modulus (GPa) = 18.86854 42.08653 30.47753
# Shear Modulus (GPa) = 17.07233 26.04832 21.56033
#
# Velocity S-wave (km/s) = 3.01234 3.72090 3.38521
# Velocity P-wave (km/s) = 4.70403 6.38982 5.61060
#
# Compressibility (1/GPa) = 0.05299827
#
# Stress axis : x y z
#
# Youngs Moduli (GPa) = 38.58541 86.65567 18.56503
#
# Poissons Ratio (x) = 0.47796 0.00104
# Poissons Ratio (y) = 0.21282 0.25229
# Poissons Ratio (z) = 0.00217 1.17761
#
# Static dielectric constant tensor:
#      x y z
#    x 3.416250 0.000000 -0.187260 
#    y 0.000000 4.342420 0.000000 
#    z -0.187260 0.000000 3.202560 
# 
# 
# High freq. dielectric constant tensor:
#      x y z
#    x 1.707620 0.000000 -0.004130 
#    y 0.000000 1.750480 0.000000 
#    z -0.004130 0.000000 1.681560 
# 
# From -- ./inp_files/216071.got.cif
#   From: 2010.06.25/outbox.cif.g09.slc.cpg/sg15_109_cif.got.tgz:216071.got - 2010.06.28 07:06:18.
