data_PCOD8151031
_publ_section_title
;
Structure prediction by ZEFSAII (Michael W. Deem and Ramdas Pophale) SiO2 
 PCOD8151031
Probable space group: C 2/C
;
_chemical_formula_sum "Si O2"
_cell_formula_units_Z 64
_cell_length_a 31.946677
_cell_length_b 18.516381
_cell_length_c 12.877787
_cell_angle_alpha 90.000000
_cell_angle_beta 27.025748
_cell_angle_gamma 90.000000
_cell_volume 3461.406658
_symmetry_space_group_name_H-M "C 2/C"
_symmetry_group_IT_number 15
_symmetry_cell_setting 'monoclinic'
loop_
_space_group_symop_operation_xyz
x,y,z
-x,y,1/2-z
-x,-y,-z
x,-y,1/2+z
1/2+x,1/2+y,z
1/2-x,1/2+y,1/2-z
1/2-x,1/2-y,-z
1/2+x,1/2-y,1/2+z
loop_
_atom_site_type_symbol
_atom_site_label
_atom_site_fract_x
_atom_site_fract_y
_atom_site_fract_z
Si Si1 0.741347 0.603082 0.186015
Si Si2 0.917553 0.918096 0.002825
Si Si3 0.632559 0.454832 0.738832
Si Si4 0.909859 0.804486 0.383282
Si Si5 0.157937 0.713126 0.658364
Si Si6 0.505241 0.328269 0.965442
Si Si7 0.241574 0.044452 0.790594
Si Si8 0.897227 0.654237 0.505920
O O1 0.697280 0.591430 0.170793
O O2 0.666491 0.634774 0.430969
O O3 0.777377 0.528756 0.156159
O O4 0.822378 0.660388 0.983200
O O5 0.826043 0.910191 0.135493
O O6 0.900350 0.972460 0.134786
O O7 0.000000 0.949516 0.750000
O O8 0.947761 0.840526 0.985412
O O9 0.543792 0.407005 0.909529
O O10 0.688891 0.475784 0.511889
O O11 0.869528 0.727884 0.508718
O O12 0.000000 0.825335 0.250000
O O13 0.935198 0.799294 0.206708
O O14 0.250000 0.750000 0.500000
O O15 0.089702 0.773477 0.763010
O O16 0.108371 0.667728 0.858485
O O17 0.330581 0.091442 0.616524
O O18 0.000000 0.629999 0.250000
#
# Coordination Sequence:
#
# PCOD8151031 Si02
#       8
#     8   8   8   8   8   8   8   8
#     4  11  22  33  60  93 118 155 200 253 300 343
#     4  11  25  34  54  92 133 168 184 234 316 380
#     4  11  20  35  57  86 128 159 197 234 297 377
#     4  11  19  33  60  93 118 146 198 257 301 348
#     4  12  19  36  63  91 115 149 208 259 291 341
#     4  12  21  35  57  90 123 154 197 243 297 365
#     4  11  24  40  58  87 129 162 196 247 308 363
#     4  11  21  41  65  89 111 161 211 255 294 345
#
# _framework density 18.489591999999998
#
# number of rings (size 3 to 8) (size 9 to 14) (size 15 to 20)
#    0.000    0.750    8.750    1.125    3.500    0.000 
#    0.000    1.250    0.000    5.250    0.000    0.000 
#    0.000    0.000    0.000    0.000    0.000    0.000 
#
# Total GULP energy -396835.319446 kJ/mol
# GULP energy per Si atom -12401.103733 kJ/mol
# Density = 1.844751 g / cm^3
# Si number density = 18.489592 Si / 1000 Ang^3
#
#
#
# Elastic Constant Matrix: (Units=GPa)
#
#
# Indices 1 2 3 4 5 6 
#
# 1 77.1475 44.3645 44.2950 0.0000 0.3019 0.0000
# 2 44.3645 83.2637 48.1543 0.0000 -9.8597 0.0000
# 3 44.2950 48.1543 106.7155 0.0000 8.2091 0.0000
# 4 0.0000 0.0000 0.0000 26.3975 0.0000 0.5083
# 5 0.3019 -9.8597 8.2091 0.0000 23.4360 0.0000
# 6 0.0000 0.0000 0.0000 0.5083 0.0000 28.2112
#
#
#
# Elastic Compliance Matrix: (Units=1/GPa)
#
#
# Indices 1 2 3 4 5 6 
#
# 1 0.020473 -0.008627 -0.004425 0.000000 -0.002343 0.000000
# 2 -0.008627 0.022338 -0.007431 0.000000 0.012112 0.000000
# 3 -0.004425 -0.007431 0.015206 0.000000 -0.008396 0.000000
# 4 0.000000 0.000000 0.000000 0.037896 0.000000 -0.000683
# 5 -0.002343 0.012112 -0.008396 0.000000 0.050736 0.000000
# 6 0.000000 0.000000 0.000000 -0.000683 0.000000 0.035459
#
#
# Mechanical properties :
#
#
# Convention : Reuss Voigt Hill
#
# Bulk Modulus (GPa) = 58.64229 60.08381 59.36305
# Shear Modulus (GPa) = 21.85724 24.29647 23.07686
#
# Velocity S-wave (km/s) = 3.44195 3.62893 3.53668
# Velocity P-wave (km/s) = 6.89792 7.07993 6.98952
#
# Compressibility (1/GPa) = 0.01705254
#
# Stress axis : x y z
#
# Youngs Moduli (GPa) = 48.84527 44.76613 65.76233
#
# Poissons Ratio (x) = 0.38619 0.29098
# Poissons Ratio (y) = 0.42138 0.48867
# Poissons Ratio (z) = 0.21613 0.33265
#
# Static dielectric constant tensor:
#      x y z
#    x 3.349040 0.000000 0.183720 
#    y 0.000000 3.357210 0.000000 
#    z 0.183720 0.000000 3.498330 
# 
# 
# High freq. dielectric constant tensor:
#      x y z
#    x 1.695940 0.000000 0.019850 
#    y 0.000000 1.709050 0.000000 
#    z 0.019850 0.000000 1.724160 
# 
# From -- ./inp_files/127294.got.cif
#   From: 2010.06.25/outbox.cif.g09.slc.cpg/sg15_64_cif.got.tgz:127294.got - 2010.06.28 07:06:18.
