data_PCOD8151338
_publ_section_title
;
Structure prediction by ZEFSAII (Michael W. Deem and Ramdas Pophale) SiO2 
 PCOD8151338
Probable space group: C 2/C
;
_chemical_formula_sum "Si O2"
_cell_formula_units_Z 64
_cell_length_a 19.116605
_cell_length_b 13.110905
_cell_length_c 13.689998
_cell_angle_alpha 90.000000
_cell_angle_beta 106.417362
_cell_angle_gamma 90.000000
_cell_volume 3291.310374
_symmetry_space_group_name_H-M "C 2/C"
_symmetry_group_IT_number 15
_symmetry_cell_setting 'monoclinic'
loop_
_space_group_symop_operation_xyz
x,y,z
-x,y,1/2-z
-x,-y,-z
x,-y,1/2+z
1/2+x,1/2+y,z
1/2-x,1/2+y,1/2-z
1/2-x,1/2-y,-z
1/2+x,1/2-y,1/2+z
loop_
_atom_site_type_symbol
_atom_site_label
_atom_site_fract_x
_atom_site_fract_y
_atom_site_fract_z
Si Si1 0.221875 0.639862 0.518385
Si Si2 0.027326 0.199835 0.152515
Si Si3 0.226276 0.299465 0.658374
Si Si4 0.706563 0.050830 0.311428
Si Si5 0.345160 0.152609 0.799970
Si Si6 0.876113 0.984703 0.835644
Si Si7 0.604608 0.340465 0.025727
Si Si8 0.324810 0.533067 0.108461
O O1 0.250000 0.750000 0.500000
O O2 0.183084 0.582823 0.411587
O O3 0.167989 0.643184 0.589297
O O4 0.292899 0.577290 0.575389
O O5 0.074039 0.303005 0.182404
O O6 0.075155 0.112802 0.116969
O O7 0.000000 0.168498 0.250000
O O8 0.961915 0.220409 0.049870
O O9 0.187006 0.354476 0.733647
O O10 0.287541 0.225877 0.725286
O O11 0.167895 0.240399 0.570341
O O12 0.261561 0.384282 0.602823
O O13 0.793092 0.025821 0.342001
O O14 0.659170 0.955301 0.256592
O O15 0.877874 0.983088 0.719899
O O16 0.912241 0.092179 0.884096
O O17 0.627592 0.430543 0.962329
#
# Coordination Sequence:
#
# PCOD8151338 Si02
#       8
#     8   8   8   8   8   8   8   8
#     4  12  21  35  65 100 129 164 203 272 334 367
#     4  12  25  43  61  92 130 172 210 260 321 387
#     4  11  20  39  63  93 125 164 215 263 308 378
#     4  11  22  38  65  99 127 158 219 273 318 369
#     4  12  22  42  66  93 133 165 215 269 316 382
#     4  11  20  40  61  96 128 156 207 268 322 375
#     4  12  23  38  65  92 130 168 210 260 327 380
#     4  11  21  37  65  98 125 163 216 263 318 379
#
# _framework density 19.445143000000002
#
# number of rings (size 3 to 8) (size 9 to 14) (size 15 to 20)
#    0.000    0.500   10.000    0.750    0.000    1.000 
#    0.000    0.625    0.000    0.000    0.000    0.000 
#    0.000    0.000    0.000    0.000    0.000    0.000 
#
# Total GULP energy -396754.705386 kJ/mol
# GULP energy per Si atom -12398.584543 kJ/mol
# Density = 1.940088 g / cm^3
# Si number density = 19.445143 Si / 1000 Ang^3
#
#
#
# Elastic Constant Matrix: (Units=GPa)
#
#
# Indices 1 2 3 4 5 6 
#
# 1 70.6756 31.1470 38.6806 0.0000 13.9287 0.0000
# 2 31.1470 98.1700 57.3285 0.0000 7.1676 0.0000
# 3 38.6806 57.3285 92.2554 0.0000 13.3191 0.0000
# 4 0.0000 0.0000 0.0000 40.0724 0.0000 3.3400
# 5 13.9287 7.1676 13.3191 0.0000 27.1217 0.0000
# 6 0.0000 0.0000 0.0000 3.3400 0.0000 28.3632
#
#
#
# Elastic Compliance Matrix: (Units=1/GPa)
#
#
# Indices 1 2 3 4 5 6 
#
# 1 0.019685 -0.002355 -0.005834 0.000000 -0.006622 0.000000
# 2 -0.002355 0.016283 -0.009347 0.000000 0.001497 0.000000
# 3 -0.005834 -0.009347 0.019701 0.000000 -0.004209 0.000000
# 4 0.000000 0.000000 0.000000 0.025202 0.000000 -0.002968
# 5 -0.006622 0.001497 -0.004209 0.000000 0.041943 0.000000
# 6 0.000000 0.000000 0.000000 -0.002968 0.000000 0.035606
#
#
# Mechanical properties :
#
#
# Convention : Reuss Voigt Hill
#
# Bulk Modulus (GPa) = 48.55019 57.26812 52.90916
# Shear Modulus (GPa) = 24.95527 28.04112 26.49820
#
# Velocity S-wave (km/s) = 3.58630 3.80157 3.69550
# Velocity P-wave (km/s) = 6.49390 6.98458 6.74370
#
# Compressibility (1/GPa) = 0.02059724
#
# Stress axis : x y z
#
# Youngs Moduli (GPa) = 50.79982 61.41496 50.75805
#
# Poissons Ratio (x) = 0.14465 0.29612
# Poissons Ratio (y) = 0.11965 0.47442
# Poissons Ratio (z) = 0.29636 0.57403
#
# Static dielectric constant tensor:
#      x y z
#    x 3.348020 0.000000 -0.029360 
#    y 0.000000 3.770390 0.000000 
#    z -0.029360 0.000000 3.918510 
# 
# 
# High freq. dielectric constant tensor:
#      x y z
#    x 1.716220 0.000000 -0.007070 
#    y 0.000000 1.764200 0.000000 
#    z -0.007070 0.000000 1.777280 
# 
# From -- ./inp_files/167652.got.cif
#   From: 2010.06.25/outbox.cif.g09.slc.cpg/sg15_84_cif.got.tgz:167652.got - 2010.06.28 07:06:18.
