data_PCOD8151163
_publ_section_title
;
Structure prediction by ZEFSAII (Michael W. Deem and Ramdas Pophale) SiO2 
 PCOD8151163
Probable space group: C 2/C
;
_chemical_formula_sum "Si O2"
_cell_formula_units_Z 56
_cell_length_a 21.566777
_cell_length_b 19.844978
_cell_length_c 17.055985
_cell_angle_alpha 90.000000
_cell_angle_beta 154.672876
_cell_angle_gamma 90.000000
_cell_volume 3122.763183
_symmetry_space_group_name_H-M "C 2/C"
_symmetry_group_IT_number 15
_symmetry_cell_setting 'monoclinic'
loop_
_space_group_symop_operation_xyz
x,y,z
-x,y,1/2-z
-x,-y,-z
x,-y,1/2+z
1/2+x,1/2+y,z
1/2-x,1/2+y,1/2-z
1/2-x,1/2-y,-z
1/2+x,1/2-y,1/2+z
loop_
_atom_site_type_symbol
_atom_site_label
_atom_site_fract_x
_atom_site_fract_y
_atom_site_fract_z
Si Si1 0.162293 0.576537 0.711267
Si Si2 0.155004 0.510190 0.465921
Si Si3 0.343389 0.066436 0.378258
Si Si4 0.853550 0.753498 0.045728
Si Si5 0.770910 0.134308 0.684781
Si Si6 0.593888 0.386322 0.491038
Si Si7 0.145274 0.017134 0.447219
O O1 0.155798 0.501954 0.669520
O O2 0.247807 0.626696 0.751459
O O3 0.999622 0.602574 0.544345
O O4 0.255375 0.572910 0.897410
O O5 0.182755 0.449557 0.559676
O O6 0.164917 0.581238 0.521514
O O7 0.273232 0.512962 0.533877
O O8 0.000000 0.501119 0.250000
O O9 0.215833 0.114204 0.199049
O O10 0.874543 0.828229 0.035840
O O11 0.000000 0.724184 0.250000
O O12 0.750000 0.750000 0.000000
O O13 0.787180 0.708146 0.901320
O O14 0.938378 0.124018 0.853910
O O15 0.596823 0.456784 0.449161
O O16 0.000000 0.053457 0.250000
#
# Coordination Sequence:
#
# PCOD8151163 Si02
#       7
#     8   8   8   8   8   8   8
#     4   9  20  34  51  76 105 142 178 210 266 322
#     4  11  20  34  54  80 109 140 176 218 268 315
#     4   9  20  34  51  75 107 140 176 216 262 321
#     4  12  24  39  55  78 108 142 184 221 258 307
#     4  11  23  36  53  76 108 147 178 217 265 314
#     4  11  23  37  51  77 111 143 180 218 262 315
#     4  11  20  33  55  80 111 140 174 222 265 311
#
# _framework density 17.932836999999999
#
# number of rings (size 3 to 8) (size 9 to 14) (size 15 to 20)
#    0.000    1.429    4.286    1.714    6.000    1.714 
#    0.000    0.000    0.000    0.000    0.000    2.000 
#    0.000    0.000    0.000    0.000    0.000    0.000 
#
# Total GULP energy -347139.589274 kJ/mol
# GULP energy per Si atom -12397.842474 kJ/mol
# Density = 1.789202 g / cm^3
# Si number density = 17.932837 Si / 1000 Ang^3
#
#
#
# Elastic Constant Matrix: (Units=GPa)
#
#
# Indices 1 2 3 4 5 6 
#
# 1 64.6759 23.2474 40.2221 0.0000 1.9640 0.0000
# 2 23.2474 40.9429 26.9674 0.0000 -0.3860 0.0000
# 3 40.2221 26.9674 152.1823 0.0000 4.9513 0.0000
# 4 0.0000 0.0000 0.0000 27.0167 0.0000 -11.1357
# 5 1.9640 -0.3860 4.9513 0.0000 32.3502 0.0000
# 6 0.0000 0.0000 0.0000 -11.1357 0.0000 41.7602
#
#
#
# Elastic Compliance Matrix: (Units=1/GPa)
#
#
# Indices 1 2 3 4 5 6 
#
# 1 0.021361 -0.009550 -0.003927 0.000000 -0.000810 0.000000
# 2 -0.009550 0.031959 -0.003186 0.000000 0.001449 0.000000
# 3 -0.003927 -0.003186 0.008208 0.000000 -0.001056 0.000000
# 4 0.000000 0.000000 0.000000 0.041585 0.000000 0.011089
# 5 -0.000810 0.001449 -0.001056 0.000000 0.031140 0.000000
# 6 0.000000 0.000000 0.000000 0.011089 0.000000 0.026903
#
#
# Mechanical properties :
#
#
# Convention : Reuss Voigt Hill
#
# Bulk Modulus (GPa) = 35.45915 48.74164 42.10040
# Shear Modulus (GPa) = 24.52380 31.38303 27.95342
#
# Velocity S-wave (km/s) = 3.70203 4.18788 3.95243
# Velocity P-wave (km/s) = 6.17168 7.11502 6.66007
#
# Compressibility (1/GPa) = 0.02820147
#
# Stress axis : x y z
#
# Youngs Moduli (GPa) = 46.81368 31.29000 121.83205
#
# Poissons Ratio (x) = 0.29882 0.47846
# Poissons Ratio (y) = 0.44707 0.38820
# Poissons Ratio (z) = 0.18385 0.09970
#
# Static dielectric constant tensor:
#      x y z
#    x 4.481410 0.000000 0.553910 
#    y 0.000000 3.702300 0.000000 
#    z 0.553910 0.000000 3.858500 
# 
# 
# High freq. dielectric constant tensor:
#      x y z
#    x 1.703370 0.000000 0.007320 
#    y 0.000000 1.636170 0.000000 
#    z 0.007320 0.000000 1.716640 
# 
# From -- ./inp_files/49709.got.cif
#   From: 2010.06.25/outbox.cif.g09.slc.cpg/sg15_25_cif.got.tgz:49709.got - 2010.06.28 07:06:18.
