data_PCOD8151370
_publ_section_title
;
Structure prediction by ZEFSAII (Michael W. Deem and Ramdas Pophale) SiO2 
 PCOD8151370
Probable space group: C 2/C
;
_chemical_formula_sum "Si O2"
_cell_formula_units_Z 56
_cell_length_a 11.729492
_cell_length_b 31.386578
_cell_length_c 14.221957
_cell_angle_alpha 90.000000
_cell_angle_beta 30.100474
_cell_angle_gamma 90.000000
_cell_volume 2625.844272
_symmetry_space_group_name_H-M "C 2/C"
_symmetry_group_IT_number 15
_symmetry_cell_setting 'monoclinic'
loop_
_space_group_symop_operation_xyz
x,y,z
-x,y,1/2-z
-x,-y,-z
x,-y,1/2+z
1/2+x,1/2+y,z
1/2-x,1/2+y,1/2-z
1/2-x,1/2-y,-z
1/2+x,1/2-y,1/2+z
loop_
_atom_site_type_symbol
_atom_site_label
_atom_site_fract_x
_atom_site_fract_y
_atom_site_fract_z
Si Si1 0.445759 0.362813 0.985447
Si Si2 0.523027 0.528741 0.625929
Si Si3 0.671345 0.711306 0.207957
Si Si4 0.908645 0.302851 0.209337
Si Si5 0.029691 0.450983 0.462630
Si Si6 0.340484 0.086062 0.286887
Si Si7 0.733277 0.058122 0.533365
O O1 0.255892 0.343320 0.190453
O O2 0.336294 0.397224 0.993328
O O3 0.544895 0.322334 0.861601
O O4 0.641811 0.381431 0.908751
O O5 0.500000 0.544327 0.750000
O O6 0.295699 0.548884 0.738569
O O7 0.737990 0.545059 0.413908
O O8 0.566597 0.477321 0.595490
O O9 0.500000 0.725567 0.250000
O O10 0.716359 0.757534 0.223853
O O11 0.896490 0.690098 0.006496
O O12 0.000000 0.306977 0.250000
O O13 0.000000 0.500000 0.500000
O O14 0.983877 0.426118 0.592193
O O15 0.844245 0.434964 0.519581
O O16 0.500000 0.108996 0.250000
O O17 0.500000 0.044441 0.750000
#
# Coordination Sequence:
#
# PCOD8151370 Si02
#       7
#     8   8   8   8   8   8   8
#     4  12  27  40  67 101 138 169 220 285 342 397
#     4  12  24  46  66  86 129 188 234 274 334 404
#     4  11  21  38  67  95 138 173 211 255 337 423
#     4  11  20  40  64  97 134 176 207 259 337 424
#     4  12  24  42  68  93 127 179 230 278 338 395
#     4  12  27  46  66  93 132 181 234 286 334 398
#     4  12  27  43  65 102 139 172 228 294 341 395
#
# _framework density 21.326474000000001
#
# number of rings (size 3 to 8) (size 9 to 14) (size 15 to 20)
#    0.000    0.286    5.714    4.286    2.000    2.857 
#    0.000    0.000    0.000    0.857    0.000    0.000 
#    0.000    0.000    0.000    0.000    0.000    0.000 
#
# Total GULP energy -346991.165166 kJ/mol
# GULP energy per Si atom -12392.541613 kJ/mol
# Density = 2.127793 g / cm^3
# Si number density = 21.326474 Si / 1000 Ang^3
#
#
#
# Elastic Constant Matrix: (Units=GPa)
#
#
# Indices 1 2 3 4 5 6 
#
# 1 96.4460 47.7315 25.2887 0.0000 -23.6401 0.0000
# 2 47.7315 102.8660 26.1268 0.0000 -25.6194 0.0000
# 3 25.2887 26.1268 116.1972 -0.0001 -16.2660 0.0000
# 4 0.0000 0.0000 -0.0001 42.6848 0.0000 -6.6773
# 5 -23.6401 -25.6194 -16.2660 0.0000 30.7786 0.0000
# 6 0.0000 0.0000 0.0000 -6.6773 0.0000 20.8779
#
#
#
# Elastic Compliance Matrix: (Units=1/GPa)
#
#
# Indices 1 2 3 4 5 6 
#
# 1 0.014715 -0.004881 -0.001179 0.000000 0.006616 0.000000
# 2 -0.004881 0.014108 -0.001070 0.000000 0.007429 0.000000
# 3 -0.001179 -0.001070 0.009559 0.000000 0.003256 0.000000
# 4 0.000000 0.000000 0.000000 0.024661 0.000000 0.007887
# 5 0.006616 0.007429 0.003256 0.000000 0.045477 0.000000
# 6 0.000000 0.000000 0.000000 0.007887 0.000000 0.050420
#
#
# Mechanical properties :
#
#
# Convention : Reuss Voigt Hill
#
# Bulk Modulus (GPa) = 41.45437 57.08924 49.27181
# Shear Modulus (GPa) = 27.58773 33.29239 30.44006
#
# Velocity S-wave (km/s) = 3.60055 3.95534 3.78211
# Velocity P-wave (km/s) = 6.06346 6.90557 6.49817
#
# Compressibility (1/GPa) = 0.02412291
#
# Stress axis : x y z
#
# Youngs Moduli (GPa) = 67.95872 70.88113 104.61388
#
# Poissons Ratio (x) = 0.34594 0.12332
# Poissons Ratio (y) = 0.33168 0.11194
# Poissons Ratio (z) = 0.08011 0.07584
#
# Static dielectric constant tensor:
#      x y z
#    x 0.000000 0.000000 0.000000 
#    y 0.000000 0.000000 0.000000 
#    z 0.000000 0.000000 0.000000 
# 
# 
# High freq. dielectric constant tensor:
#      x y z
#    x 1.801850 0.000000 -0.003210 
#    y 0.000000 1.828880 0.000000 
#    z -0.003210 0.000000 1.867740 
# 
# From -- ./inp_files/149256.got.cif
#   From: 2010.06.25/outbox.cif.g09.slc.cpg/sg15_75_cif.got.tgz:149256.got - 2010.06.28 07:06:18.
