data_PCOD8151375
_publ_section_title
;
Structure prediction by ZEFSAII (Michael W. Deem and Ramdas Pophale) SiO2 
 PCOD8151375
Probable space group: C 2/C
;
_chemical_formula_sum "Si O2"
_cell_formula_units_Z 64
_cell_length_a 9.135815
_cell_length_b 18.177560
_cell_length_c 24.748082
_cell_angle_alpha 90.000000
_cell_angle_beta 134.647457
_cell_angle_gamma 90.000000
_cell_volume 2923.918655
_symmetry_space_group_name_H-M "C 2/C"
_symmetry_group_IT_number 15
_symmetry_cell_setting 'monoclinic'
loop_
_space_group_symop_operation_xyz
x,y,z
-x,y,1/2-z
-x,-y,-z
x,-y,1/2+z
1/2+x,1/2+y,z
1/2-x,1/2+y,1/2-z
1/2-x,1/2-y,-z
1/2+x,1/2-y,1/2+z
loop_
_atom_site_type_symbol
_atom_site_label
_atom_site_fract_x
_atom_site_fract_y
_atom_site_fract_z
Si Si1 0.555648 0.379350 0.825323
Si Si2 0.489527 0.138106 0.429305
Si Si3 0.126734 0.277146 0.066031
Si Si4 0.378760 0.614835 0.464833
Si Si5 0.418519 0.271722 0.331850
Si Si6 0.021762 0.277035 0.158172
Si Si7 0.729880 0.051979 0.316640
Si Si8 0.275428 0.605719 0.868259
O O1 0.500000 0.361734 0.750000
O O2 0.788090 0.414240 0.886976
O O3 0.588061 0.301803 0.864857
O O4 0.378195 0.431870 0.803968
O O5 0.581079 0.159995 0.510943
O O6 0.669920 0.096488 0.443707
O O7 0.406997 0.206438 0.372371
O O8 0.060566 0.200876 0.020729
O O9 0.366150 0.270868 0.143230
O O10 0.014696 0.295956 0.092947
O O11 0.351356 0.588146 0.397217
O O12 0.576347 0.577579 0.544584
O O13 0.246664 0.264641 0.241473
O O14 0.409064 0.348722 0.360589
O O15 0.914725 0.344232 0.161558
O O16 0.500000 0.087018 0.250000
O O17 0.692813 0.965825 0.316231
#
# Coordination Sequence:
#
# PCOD8151375 Si02
#       8
#     8   8   8   8   8   8   8   8
#     4  12  23  42  68 100 128 171 229 285 331 394
#     4  11  21  40  67  96 134 168 221 285 339 383
#     4  11  22  37  65 105 135 168 222 288 339 388
#     4  11  22  43  69  95 135 181 223 275 337 408
#     4  11  20  40  65  97 131 180 215 278 340 396
#     4  12  23  37  69 101 136 168 234 281 330 400
#     4  12  28  44  67  97 138 178 225 276 342 418
#     4  12  24  46  66  96 135 182 223 271 345 405
#
# _framework density 21.888432999999999
#
# number of rings (size 3 to 8) (size 9 to 14) (size 15 to 20)
#    0.000    0.500    6.250    3.375    3.500    1.000 
#    0.000    4.375    0.000    0.000    0.000    0.000 
#    0.000    0.000    0.000    0.000    0.000    0.000 
#
# Total GULP energy -396775.622136 kJ/mol
# GULP energy per Si atom -12399.238192 kJ/mol
# Density = 2.183861 g / cm^3
# Si number density = 21.888433 Si / 1000 Ang^3
#
#
#
# Elastic Constant Matrix: (Units=GPa)
#
#
# Indices 1 2 3 4 5 6 
#
# 1 113.0110 29.3415 19.0182 0.0000 -4.2319 0.0000
# 2 29.3415 41.5729 -2.5081 0.0000 5.5809 0.0000
# 3 19.0182 -2.5081 87.3335 0.0000 2.1827 0.0000
# 4 0.0000 0.0000 0.0000 21.9215 0.0000 1.5923
# 5 -4.2319 5.5809 2.1827 0.0000 42.5544 0.0000
# 6 0.0000 0.0000 0.0000 1.5923 0.0000 25.4580
#
#
#
# Elastic Compliance Matrix: (Units=1/GPa)
#
#
# Indices 1 2 3 4 5 6 
#
# 1 0.011696 -0.008757 -0.002860 0.000000 0.002458 0.000000
# 2 -0.008757 0.031096 0.002927 0.000000 -0.005099 0.000000
# 3 -0.002860 0.002927 0.012190 0.000000 -0.001294 0.000000
# 4 0.000000 0.000000 0.000000 0.045826 0.000000 -0.002866
# 5 0.002458 -0.005099 -0.001294 0.000000 0.024479 0.000000
# 6 0.000000 0.000000 0.000000 -0.002866 0.000000 0.039460
#
#
# Mechanical properties :
#
#
# Convention : Reuss Voigt Hill
#
# Bulk Modulus (GPa) = 26.59425 37.06896 31.83160
# Shear Modulus (GPa) = 25.68600 31.05781 28.37191
#
# Velocity S-wave (km/s) = 3.42935 3.77093 3.60419
# Velocity P-wave (km/s) = 5.27796 5.99434 5.64752
#
# Compressibility (1/GPa) = 0.03760212
#
# Stress axis : x y z
#
# Youngs Moduli (GPa) = 85.50152 32.15846 82.03758
#
# Poissons Ratio (x) = 0.28162 0.23461
# Poissons Ratio (y) = 0.74875 -0.24016
# Poissons Ratio (z) = 0.24452 -0.09414
#
# Static dielectric constant tensor:
#      x y z
#    x 4.167360 0.000000 0.174720 
#    y 0.000000 3.589210 0.000000 
#    z 0.174720 0.000000 4.002990 
# 
# 
# High freq. dielectric constant tensor:
#      x y z
#    x 1.870630 0.000000 0.008450 
#    y 0.000000 1.814840 0.000000 
#    z 0.008450 0.000000 1.880990 
# 
# From -- ./inp_files/266132.got.cif
#   From: 2010.06.25/outbox.cif.g09.slc.cpg/sg15_134_cif.got.tgz:266132.got - 2010.06.28 07:06:18.
