data_PCOD8151211
_publ_section_title
;
Structure prediction by ZEFSAII (Michael W. Deem and Ramdas Pophale) SiO2 
 PCOD8151211
Probable space group: C 2/C
;
_chemical_formula_sum "Si O2"
_cell_formula_units_Z 64
_cell_length_a 29.351421
_cell_length_b 13.112559
_cell_length_c 21.409334
_cell_angle_alpha 90.000000
_cell_angle_beta 21.596261
_cell_angle_gamma 90.000000
_cell_volume 3032.794198
_symmetry_space_group_name_H-M "C 2/C"
_symmetry_group_IT_number 15
_symmetry_cell_setting 'monoclinic'
loop_
_space_group_symop_operation_xyz
x,y,z
-x,y,1/2-z
-x,-y,-z
x,-y,1/2+z
1/2+x,1/2+y,z
1/2-x,1/2+y,1/2-z
1/2-x,1/2-y,-z
1/2+x,1/2-y,1/2+z
loop_
_atom_site_type_symbol
_atom_site_label
_atom_site_fract_x
_atom_site_fract_y
_atom_site_fract_z
Si Si1 0.689538 0.366875 0.738449
Si Si2 0.193388 0.040714 0.652472
Si Si3 0.243216 0.342024 0.216181
Si Si4 0.504201 0.373248 0.176224
Si Si5 0.586550 0.143764 0.193988
Si Si6 0.258858 0.564273 0.188536
Si Si7 0.534720 0.131600 0.396461
Si Si8 0.911021 0.834560 0.112627
O O1 0.739279 0.425621 0.612096
O O2 0.727282 0.246810 0.684552
O O3 0.740731 0.411955 0.738350
O O4 0.541195 0.379010 0.923750
O O5 0.061772 0.046437 0.785614
O O6 0.278375 0.111687 0.501059
O O7 0.175505 0.080845 0.745815
O O8 0.305617 0.447855 0.114266
O O9 0.328879 0.290370 0.160503
O O10 0.110373 0.382662 0.408851
O O11 0.500000 0.423335 0.250000
O O12 0.435059 0.264214 0.269981
O O13 0.645358 0.361005 0.970544
O O14 0.500000 0.098181 0.250000
O O15 0.564917 0.090727 0.288443
O O16 0.119330 0.574231 0.339522
O O17 0.564289 0.251562 0.364912
#
# Coordination Sequence:
#
# PCOD8151211 Si02
#       8
#     8   8   8   8   8   8   8   8
#     4  11  23  38  60  96 124 169 214 258 316 379
#     4  12  21  37  59  88 133 169 203 257 321 380
#     4  11  23  40  60  93 126 167 211 260 316 379
#     4  11  23  37  62  93 126 159 210 258 321 380
#     4  11  24  37  58  91 130 164 205 253 319 384
#     4  12  22  39  64  91 129 166 209 262 319 373
#     4  11  23  38  59  91 129 161 211 255 323 374
#     4  11  20  35  63  90 128 163 207 262 313 374
#
# _framework density 21.102653
#
# number of rings (size 3 to 8) (size 9 to 14) (size 15 to 20)
#    0.000    0.750    5.000    4.125    3.500    0.000 
#    0.000    0.000    0.000    3.750    0.000    0.000 
#    0.000    0.000    0.000    0.000    0.000    0.000 
#
# Total GULP energy -396548.074098 kJ/mol
# GULP energy per Si atom -12392.127316 kJ/mol
# Density = 2.105462 g / cm^3
# Si number density = 21.102653 Si / 1000 Ang^3
#
#
#
# Elastic Constant Matrix: (Units=GPa)
#
#
# Indices 1 2 3 4 5 6 
#
# 1 110.4977 19.0986 32.9152 -0.0001 -10.6302 0.0001
# 2 19.0986 96.1301 21.1752 0.0000 5.5752 0.0000
# 3 32.9152 21.1752 70.5690 -0.0001 -6.2221 0.0001
# 4 -0.0001 0.0000 -0.0001 23.0201 0.0001 -0.0212
# 5 -10.6302 5.5752 -6.2221 0.0001 29.8166 -0.0001
# 6 0.0001 0.0000 0.0001 -0.0212 -0.0001 26.9156
#
#
#
# Elastic Compliance Matrix: (Units=1/GPa)
#
#
# Indices 1 2 3 4 5 6 
#
# 1 0.010907 -0.001388 -0.004386 0.000000 0.003233 0.000000
# 2 -0.001388 0.011555 -0.003111 0.000000 -0.003305 0.000000
# 3 -0.004386 -0.003111 0.017383 0.000000 0.002646 0.000000
# 4 0.000000 0.000000 0.000000 0.043440 0.000000 0.000034
# 5 0.003233 -0.003305 0.002646 0.000000 0.035861 0.000000
# 6 0.000000 0.000000 0.000000 0.000034 0.000000 0.037153
#
#
# Mechanical properties :
#
#
# Convention : Reuss Voigt Hill
#
# Bulk Modulus (GPa) = 45.30008 47.06384 46.18196
# Shear Modulus (GPa) = 27.55890 29.55098 28.55494
#
# Velocity S-wave (km/s) = 3.61771 3.74618 3.68250
# Velocity P-wave (km/s) = 6.24208 6.40801 6.32559
#
# Compressibility (1/GPa) = 0.02207502
#
# Stress axis : x y z
#
# Youngs Moduli (GPa) = 91.68053 86.53960 57.52744
#
# Poissons Ratio (x) = 0.12016 0.25231
# Poissons Ratio (y) = 0.12729 0.17898
# Poissons Ratio (z) = 0.40210 0.26924
#
# Static dielectric constant tensor:
#      x y z
#    x 3.948220 0.000000 -0.201830 
#    y 0.000000 3.782540 0.000000 
#    z -0.201830 0.000000 3.610790 
# 
# 
# High freq. dielectric constant tensor:
#      x y z
#    x 1.837970 0.000000 -0.027990 
#    y 0.000000 1.812630 0.000000 
#    z -0.027990 0.000000 1.801360 
# 
# From -- ./inp_files/123546.got.cif
#   From: 2010.06.25/outbox.cif.g09.slc.cpg/sg15_62_cif.got.tgz:123546.got - 2010.06.28 07:06:18.
