data_PCOD8151257
_publ_section_title
;
Structure prediction by ZEFSAII (Michael W. Deem and Ramdas Pophale) SiO2 
 PCOD8151257
Probable space group: C 2/C
;
_chemical_formula_sum "Si O2"
_cell_formula_units_Z 64
_cell_length_a 8.814098
_cell_length_b 19.610345
_cell_length_c 18.423758
_cell_angle_alpha 90.000000
_cell_angle_beta 96.267191
_cell_angle_gamma 90.000000
_cell_volume 3165.468803
_symmetry_space_group_name_H-M "C 2/C"
_symmetry_group_IT_number 15
_symmetry_cell_setting 'monoclinic'
loop_
_space_group_symop_operation_xyz
x,y,z
-x,y,1/2-z
-x,-y,-z
x,-y,1/2+z
1/2+x,1/2+y,z
1/2-x,1/2+y,1/2-z
1/2-x,1/2-y,-z
1/2+x,1/2-y,1/2+z
loop_
_atom_site_type_symbol
_atom_site_label
_atom_site_fract_x
_atom_site_fract_y
_atom_site_fract_z
Si Si1 0.178621 0.311251 0.766173
Si Si2 0.119155 0.887868 0.610301
Si Si3 0.878697 0.111667 0.551156
Si Si4 0.300507 0.418194 0.672487
Si Si5 0.847582 0.159319 0.700351
Si Si6 0.820991 0.460187 0.246785
Si Si7 0.667899 0.989129 0.533554
Si Si8 0.820626 0.961806 0.405480
O O1 0.262907 0.338959 0.842443
O O2 0.254911 0.343611 0.698807
O O3 0.205281 0.230288 0.767134
O O4 0.000000 0.329380 0.750000
O O5 0.084436 0.856697 0.527135
O O6 0.969388 0.907013 0.649578
O O7 0.206330 0.957466 0.599750
O O8 0.873611 0.169337 0.614312
O O9 0.003715 0.057351 0.584769
O O10 0.728278 0.066035 0.544432
O O11 0.282700 0.473039 0.737994
O O12 0.179531 0.446732 0.608339
O O13 0.715236 0.102019 0.700491
O O14 0.000000 0.133865 0.750000
O O15 0.768251 0.429565 0.166625
O O16 0.000000 0.478405 0.250000
O O17 0.750919 0.940403 0.479111
O O18 0.500000 0.000000 0.500000
#
# Coordination Sequence:
#
# PCOD8151257 Si02
#       8
#     8   8   8   8   8   8   8   8
#     4  11  27  42  62  93 128 171 218 273 318 377
#     4  11  22  39  65  92 128 165 214 257 316 396
#     4  11  21  40  66  93 124 170 211 255 326 390
#     4  12  22  40  65  99 126 169 211 263 329 382
#     4  11  24  45  66  88 129 175 219 263 320 389
#     4  12  24  37  65  99 128 164 213 268 320 377
#     4  11  22  34  61 101 135 159 200 274 324 377
#     4  11  20  37  60  97 130 159 205 256 315 385
#
# _framework density 20.218174000000001
#
# number of rings (size 3 to 8) (size 9 to 14) (size 15 to 20)
#    0.000    0.750    6.250    2.250    3.500    1.500 
#    0.000    0.000    0.000    3.750    0.000    0.000 
#    0.000    0.000    0.000    0.000    0.000    0.000 
#
# Total GULP energy -396561.335949 kJ/mol
# GULP energy per Si atom -12392.541748 kJ/mol
# Density = 2.017216 g / cm^3
# Si number density = 20.218174 Si / 1000 Ang^3
#
#
#
# Elastic Constant Matrix: (Units=GPa)
#
#
# Indices 1 2 3 4 5 6 
#
# 1 106.8511 34.6726 35.0191 0.0000 10.8281 0.0000
# 2 34.6726 81.6611 23.2714 0.0000 -12.7551 0.0000
# 3 35.0191 23.2714 122.5962 0.0000 -2.1652 0.0000
# 4 0.0000 0.0000 0.0000 25.2900 0.0000 -2.1163
# 5 10.8281 -12.7551 -2.1652 0.0000 33.8118 0.0000
# 6 0.0000 0.0000 0.0000 -2.1163 0.0000 23.3204
#
#
#
# Elastic Compliance Matrix: (Units=1/GPa)
#
#
# Indices 1 2 3 4 5 6 
#
# 1 0.012706 -0.005627 -0.002674 0.000000 -0.006363 0.000000
# 2 -0.005627 0.016241 -0.001337 0.000000 0.007843 0.000000
# 3 -0.002674 -0.001337 0.009191 0.000000 0.000940 0.000000
# 4 0.000000 0.000000 0.000000 0.039844 0.000000 0.003616
# 5 -0.006363 0.007843 0.000940 0.000000 0.034632 0.000000
# 6 0.000000 0.000000 0.000000 0.003616 0.000000 0.043209
#
#
# Mechanical properties :
#
#
# Convention : Reuss Voigt Hill
#
# Bulk Modulus (GPa) = 53.01463 55.22607 54.12035
# Shear Modulus (GPa) = 27.56572 31.02747 29.29660
#
# Velocity S-wave (km/s) = 3.69645 3.92169 3.81073
# Velocity P-wave (km/s) = 6.67057 6.91958 6.79621
#
# Compressibility (1/GPa) = 0.01886272
#
# Stress axis : x y z
#
# Youngs Moduli (GPa) = 78.70501 61.57325 108.80211
#
# Poissons Ratio (x) = 0.34645 0.29090
# Poissons Ratio (y) = 0.44284 0.14548
# Poissons Ratio (z) = 0.21043 0.08233
#
# Static dielectric constant tensor:
#      x y z
#    x 3.429810 0.000000 0.036530 
#    y 0.000000 3.292710 0.000000 
#    z 0.036530 0.000000 4.293400 
# 
# 
# High freq. dielectric constant tensor:
#      x y z
#    x 1.786870 0.000000 0.003150 
#    y 0.000000 1.746870 0.000000 
#    z 0.003150 0.000000 1.819120 
# 
# From -- ./inp_files/192154.got.cif
#   From: 2010.06.25/outbox.cif.g09.slc.cpg/sg15_97_cif.got.tgz:192154.got - 2010.06.28 07:06:18.
