data_PCOD8151048
_publ_section_title
;
Structure prediction by ZEFSAII (Michael W. Deem and Ramdas Pophale) SiO2 
 PCOD8151048
Probable space group: C 2/C
;
_chemical_formula_sum "Si O2"
_cell_formula_units_Z 28
_cell_length_a 12.817119
_cell_length_b 20.895029
_cell_length_c 5.006454
_cell_angle_alpha 90.000000
_cell_angle_beta 74.179787
_cell_angle_gamma 90.000000
_cell_volume 1290.011896
_symmetry_space_group_name_H-M "C 2/C"
_symmetry_group_IT_number 15
_symmetry_cell_setting 'monoclinic'
loop_
_space_group_symop_operation_xyz
x,y,z
-x,y,1/2-z
-x,-y,-z
x,-y,1/2+z
1/2+x,1/2+y,z
1/2-x,1/2+y,1/2-z
1/2-x,1/2-y,-z
1/2+x,1/2-y,1/2+z
loop_
_atom_site_type_symbol
_atom_site_label
_atom_site_fract_x
_atom_site_fract_y
_atom_site_fract_z
Si Si1 0.930349 0.652172 0.567013
Si Si2 0.303788 0.357849 0.375110
Si Si3 0.381830 0.707797 0.319953
Si Si4 0.500000 0.545222 0.750000
O O1 0.818052 0.614616 0.586424
O O2 0.896483 0.719722 0.719379
O O3 0.000000 0.615767 0.750000
O O4 0.000000 0.661155 0.250000
O O5 0.304469 0.328847 0.669634
O O6 0.391155 0.413560 0.294941
O O7 0.328917 0.299835 0.149358
O O8 0.500000 0.673852 0.250000
O O9 0.500000 0.500000 0.500000
#
# Coordination Sequence:
#
# PCOD8151048 Si02
#       4
#     8   8   8   4
#     4  11  23  37  58  94 131 166 203 234 297 390
#     4  12  22  40  63  85 127 165 201 262 308 353
#     4  11  19  35  58  94 125 163 201 239 305 381
#     4  12  26  44  66  92 114 156 220 272 314 344
#
# _framework density 21.705228000000002
#
# number of rings (size 3 to 8) (size 9 to 14) (size 15 to 20)
#    0.000    0.571    2.857    8.571    0.000    0.000 
#    0.000    0.000    0.000    5.143    0.000    0.000 
#    0.000    0.000    0.000    0.000    0.000    0.000 
#
# Total GULP energy -173533.840117 kJ/mol
# GULP energy per Si atom -12395.274294 kJ/mol
# Density = 2.165583 g / cm^3
# Si number density = 21.705228 Si / 1000 Ang^3
#
#
#
# Elastic Constant Matrix: (Units=GPa)
#
#
# Indices 1 2 3 4 5 6 
#
# 1 231.6563 37.7389 53.3877 0.0000 -4.1698 0.0000
# 2 37.7389 55.4849 35.4620 0.0000 -4.5805 0.0000
# 3 53.3877 35.4620 104.2270 0.0000 12.6155 0.0000
# 4 0.0000 0.0000 0.0000 14.6577 0.0000 -4.6738
# 5 -4.1698 -4.5805 12.6155 0.0000 44.0589 0.0000
# 6 0.0000 0.0000 0.0000 -4.6738 0.0000 4.0345
#
#
#
# Elastic Compliance Matrix: (Units=1/GPa)
#
#
# Indices 1 2 3 4 5 6 
#
# 1 0.005144 -0.002148 -0.002005 0.000000 0.000838 0.000000
# 2 -0.002148 0.024953 -0.007955 0.000000 0.004669 0.000000
# 3 -0.002005 -0.007955 0.013934 0.000000 -0.005007 0.000000
# 4 0.000000 0.000000 0.000000 0.108188 0.000000 0.125332
# 5 0.000838 0.004669 -0.005007 0.000000 0.024695 0.000000
# 6 0.000000 0.000000 0.000000 0.125332 0.000000 0.393055
#
#
# Mechanical properties :
#
#
# Convention : Reuss Voigt Hill
#
# Bulk Modulus (GPa) = 50.46671 71.61615 61.04143
# Shear Modulus (GPa) = 8.32236 30.20219 19.26228
#
# Velocity S-wave (km/s) = 1.96025 3.73429 2.98224
# Velocity P-wave (km/s) = 5.33150 7.18747 6.32790
#
# Compressibility (1/GPa) = 0.01981504
#
# Stress axis : x y z
#
# Youngs Moduli (GPa) = 194.40513 40.07454 71.76522
#
# Poissons Ratio (x) = 0.08607 0.14392
# Poissons Ratio (y) = 0.41754 0.57090
# Poissons Ratio (z) = 0.38988 0.31880
#
# Static dielectric constant tensor:
#      x y z
#    x 5.295570 0.000000 0.261430 
#    y 0.000000 3.334710 0.000000 
#    z 0.261430 0.000000 4.087190 
# 
# 
# High freq. dielectric constant tensor:
#      x y z
#    x 1.893710 0.000000 0.008260 
#    y 0.000000 1.777400 0.000000 
#    z 0.008260 0.000000 1.873810 
# 
# From -- ./inp_files/3614.got.cif
#   From: 2010.06.25/outbox.cif.g09.slc.cpg/sg15_2_cif.got.tgz:3614.got - 2010.06.28 07:06:18.
