data_PCOD8151360
_publ_section_title
;
Structure prediction by ZEFSAII (Michael W. Deem and Ramdas Pophale) SiO2 
 PCOD8151360
Probable space group: C 2/C
;
_chemical_formula_sum "Si O2"
_cell_formula_units_Z 60
_cell_length_a 18.083591
_cell_length_b 16.608533
_cell_length_c 10.274433
_cell_angle_alpha 90.000000
_cell_angle_beta 74.843508
_cell_angle_gamma 90.000000
_cell_volume 2978.502828
_symmetry_space_group_name_H-M "C 2/C"
_symmetry_group_IT_number 15
_symmetry_cell_setting 'monoclinic'
loop_
_space_group_symop_operation_xyz
x,y,z
-x,y,1/2-z
-x,-y,-z
x,-y,1/2+z
1/2+x,1/2+y,z
1/2-x,1/2+y,1/2-z
1/2-x,1/2-y,-z
1/2+x,1/2-y,1/2+z
loop_
_atom_site_type_symbol
_atom_site_label
_atom_site_fract_x
_atom_site_fract_y
_atom_site_fract_z
Si Si1 0.820644 0.288870 0.306503
Si Si2 0.192249 0.916784 0.370807
Si Si3 0.036577 0.334987 0.419800
Si Si4 0.871694 0.421117 0.914517
Si Si5 0.287072 0.838393 0.734848
Si Si6 0.500000 0.970204 0.250000
Si Si7 0.892358 0.764365 0.030507
Si Si8 0.759955 0.990263 0.897452
O O1 0.772607 0.369959 0.347571
O O2 0.903498 0.309128 0.215640
O O3 0.776890 0.231332 0.224329
O O4 0.833257 0.244789 0.438008
O O5 0.118704 0.856672 0.415363
O O6 0.192389 0.982259 0.488622
O O7 0.189894 0.959812 0.230907
O O8 0.074383 0.355496 0.540604
O O9 0.997486 0.416238 0.382209
O O10 0.979688 0.258725 0.459124
O O11 0.804689 0.377036 0.865518
O O12 0.923325 0.475613 0.794479
O O13 0.824325 0.470992 0.043667
O O14 0.366642 0.799192 0.651315
O O15 0.254283 0.901857 0.649009
#
# Coordination Sequence:
#
# PCOD8151360 Si02
#       8
#     8   8   8   8   8   4   8   8
#     4  11  20  40  61  90 116 168 216 253 296 368
#     4  11  22  38  64  93 123 160 214 259 308 359
#     4  12  23  38  61  88 127 167 208 247 304 382
#     4  12  24  36  56  96 134 162 194 255 326 371
#     4  11  22  36  62  85 124 164 207 258 301 361
#     4  12  22  38  58  92 134 170 198 238 316 396
#     4  11  21  40  61  85 122 169 211 249 297 376
#     4  12  20  37  62  93 125 158 204 265 308 358
#
# _framework density 20.144348000000001
#
# number of rings (size 3 to 8) (size 9 to 14) (size 15 to 20)
#    0.000    0.533    6.667    4.400    0.000    0.533 
#    0.000    0.000    0.000    0.800    3.467    0.000 
#    0.000    0.000    0.000    0.000    0.000    0.000 
#
# Total GULP energy -372026.170265 kJ/mol
# GULP energy per Si atom -12400.872342 kJ/mol
# Density = 2.009850 g / cm^3
# Si number density = 20.144348 Si / 1000 Ang^3
#
#
#
# Elastic Constant Matrix: (Units=GPa)
#
#
# Indices 1 2 3 4 5 6 
#
# 1 52.9426 31.0930 18.9761 0.0000 1.5496 0.0000
# 2 31.0930 88.7602 45.8298 0.0000 3.8988 0.0000
# 3 18.9761 45.8298 88.1309 0.0000 5.1746 0.0000
# 4 0.0000 0.0000 0.0000 25.4354 0.0000 4.1339
# 5 1.5496 3.8988 5.1746 0.0000 17.8825 0.0000
# 6 0.0000 0.0000 0.0000 4.1339 0.0000 28.3231
#
#
#
# Elastic Compliance Matrix: (Units=1/GPa)
#
#
# Indices 1 2 3 4 5 6 
#
# 1 0.023856 -0.007798 -0.001078 0.000000 -0.000055 0.000000
# 2 -0.007798 0.017970 -0.007605 0.000000 -0.001042 0.000000
# 3 -0.001078 -0.007605 0.015697 0.000000 -0.002791 0.000000
# 4 0.000000 0.000000 0.000000 0.040271 0.000000 -0.005878
# 5 -0.000055 -0.001042 -0.002791 0.000000 0.056960 0.000000
# 6 0.000000 0.000000 0.000000 -0.005878 0.000000 0.036165
#
#
# Mechanical properties :
#
#
# Convention : Reuss Voigt Hill
#
# Bulk Modulus (GPa) = 40.71317 46.84793 43.78055
# Shear Modulus (GPa) = 21.54542 23.25719 22.40130
#
# Velocity S-wave (km/s) = 3.27395 3.40152 3.33834
# Velocity P-wave (km/s) = 5.87760 6.22364 6.05310
#
# Compressibility (1/GPa) = 0.02456208
#
# Stress axis : x y z
#
# Youngs Moduli (GPa) = 41.91818 55.64783 63.70457
#
# Poissons Ratio (x) = 0.43392 0.06870
# Poissons Ratio (y) = 0.32686 0.48446
# Poissons Ratio (z) = 0.04521 0.42319
#
# Static dielectric constant tensor:
#      x y z
#    x 3.356620 0.000000 0.027390 
#    y 0.000000 3.618040 0.000000 
#    z 0.027390 0.000000 3.646630 
# 
# 
# High freq. dielectric constant tensor:
#      x y z
#    x 1.758820 0.000000 0.004470 
#    y 0.000000 1.781500 0.000000 
#    z 0.004470 0.000000 1.790880 
# 
# From -- ./inp_files/105685.got.cif
#   From: 2010.06.25/outbox.cif.g09.slc.cpg/sg15_53_cif.got.tgz:105685.got - 2010.06.28 07:06:18.
