data_PCOD8151394
_publ_section_title
;
Structure prediction by ZEFSAII (Michael W. Deem and Ramdas Pophale) SiO2 
 PCOD8151394
Probable space group: C 2/C
;
_chemical_formula_sum "Si O2"
_cell_formula_units_Z 64
_cell_length_a 18.016728
_cell_length_b 28.544560
_cell_length_c 9.209995
_cell_angle_alpha 90.000000
_cell_angle_beta 140.452249
_cell_angle_gamma 90.000000
_cell_volume 3015.837230
_symmetry_space_group_name_H-M "C 2/C"
_symmetry_group_IT_number 15
_symmetry_cell_setting 'monoclinic'
loop_
_space_group_symop_operation_xyz
x,y,z
-x,y,1/2-z
-x,-y,-z
x,-y,1/2+z
1/2+x,1/2+y,z
1/2-x,1/2+y,1/2-z
1/2-x,1/2-y,-z
1/2+x,1/2-y,1/2+z
loop_
_atom_site_type_symbol
_atom_site_label
_atom_site_fract_x
_atom_site_fract_y
_atom_site_fract_z
Si Si1 0.481406 0.805755 0.393032
Si Si2 0.841574 0.128884 0.802707
Si Si3 0.900570 0.373072 0.714809
Si Si4 0.251240 0.352516 0.475872
Si Si5 0.232257 0.553673 0.070147
Si Si6 0.492133 0.451550 0.910481
Si Si7 0.027445 0.200550 0.122030
Si Si8 0.377019 0.024204 0.292162
O O1 0.500000 0.808275 0.250000
O O2 0.575743 0.840289 0.609934
O O3 0.489052 0.752802 0.465089
O O4 0.349710 0.819016 0.233924
O O5 0.727428 0.138126 0.536543
O O6 0.817320 0.126444 0.937275
O O7 0.904413 0.079573 0.864880
O O8 0.931317 0.169680 0.894842
O O9 0.904210 0.428362 0.748786
O O10 0.000000 0.360313 0.750000
O O11 0.181034 0.395132 0.451856
O O12 0.343641 0.321942 0.710311
O O13 0.367583 0.568606 0.270368
O O14 0.187354 0.536445 0.156443
O O15 0.205172 0.512045 0.916784
O O16 0.500000 0.456337 0.750000
O O17 0.500000 0.500000 0.000000
O O18 0.000000 0.200704 0.250000
O O19 0.500000 0.000000 0.500000
#
# Coordination Sequence:
#
# PCOD8151394 Si02
#       8
#     8   8   8   8   8   8   8   8
#     4  11  23  41  70 100 132 175 232 286 343 416
#     4  11  22  43  67  96 140 176 223 284 346 413
#     4  12  25  44  68  99 139 183 226 282 352 414
#     4  11  20  40  69  98 134 176 231 278 340 410
#     4  12  24  41  68  94 136 179 231 278 340 399
#     4  12  23  40  66  98 133 180 232 280 341 406
#     4   9  20  40  68 102 131 175 226 286 344 409
#     4  12  27  44  63  99 137 181 231 285 336 405
#
# _framework density 21.221305000000001
#
# number of rings (size 3 to 8) (size 9 to 14) (size 15 to 20)
#    0.000    0.750    3.750    4.875    1.750    0.500 
#    0.000    0.000    2.750    0.000    0.000    0.000 
#    0.000    0.000    0.000    0.000    0.000    0.000 
#
# Total GULP energy -396728.522582 kJ/mol
# GULP energy per Si atom -12397.766331 kJ/mol
# Density = 2.117300 g / cm^3
# Si number density = 21.221305 Si / 1000 Ang^3
#
#
#
# Elastic Constant Matrix: (Units=GPa)
#
#
# Indices 1 2 3 4 5 6 
#
# 1 90.1528 25.8284 33.0111 0.0000 7.8370 0.0000
# 2 25.8284 166.8800 62.6872 0.0000 8.8297 0.0000
# 3 33.0111 62.6872 142.2952 0.0000 26.6983 0.0000
# 4 0.0000 0.0000 0.0000 34.7986 0.0000 5.2438
# 5 7.8370 8.8297 26.6983 0.0000 33.1126 0.0000
# 6 0.0000 0.0000 0.0000 5.2438 0.0000 29.1316
#
#
#
# Elastic Compliance Matrix: (Units=1/GPa)
#
#
# Indices 1 2 3 4 5 6 
#
# 1 0.012277 -0.001012 -0.002248 0.000000 -0.000823 0.000000
# 2 -0.001012 0.007280 -0.003126 0.000000 0.000819 0.000000
# 3 -0.002248 -0.003126 0.010215 0.000000 -0.006871 0.000000
# 4 0.000000 0.000000 0.000000 0.029538 0.000000 -0.005317
# 5 -0.000823 0.000819 -0.006871 0.000000 0.035717 0.000000
# 6 0.000000 0.000000 0.000000 -0.005317 0.000000 0.035284
#
#
# Mechanical properties :
#
#
# Convention : Reuss Voigt Hill
#
# Bulk Modulus (GPa) = 58.82173 71.37573 65.09873
# Shear Modulus (GPa) = 33.61361 37.92865 35.77113
#
# Velocity S-wave (km/s) = 3.98421 4.23222 4.11009
# Velocity P-wave (km/s) = 6.99598 7.58876 7.29839
#
# Compressibility (1/GPa) = 0.01700052
#
# Stress axis : x y z
#
# Youngs Moduli (GPa) = 81.45384 137.36467 97.89179
#
# Poissons Ratio (x) = 0.13904 0.22003
# Poissons Ratio (y) = 0.08245 0.30600
# Poissons Ratio (z) = 0.18308 0.42939
#
# Static dielectric constant tensor:
#      x y z
#    x 3.803070 0.000000 0.229380 
#    y 0.000000 4.365780 0.000000 
#    z 0.229380 0.000000 3.820690 
# 
# 
# High freq. dielectric constant tensor:
#      x y z
#    x 1.824720 0.000000 0.021620 
#    y 0.000000 1.852250 0.000000 
#    z 0.021620 0.000000 1.827950 
# 
# From -- ./inp_files/52840.got.cif
#   From: 2010.06.25/outbox.cif.g09.slc.cpg/sg15_27_cif.got.tgz:52840.got - 2010.06.28 07:06:18.
