data_PCOD8151602
_publ_section_title
;
Structure prediction by ZEFSAII (Michael W. Deem and Ramdas Pophale) SiO2 
 PCOD8151602
Probable space group: C 2/C
;
_chemical_formula_sum "Si O2"
_cell_formula_units_Z 48
_cell_length_a 13.832477
_cell_length_b 17.052180
_cell_length_c 14.035886
_cell_angle_alpha 90.000000
_cell_angle_beta 41.195661
_cell_angle_gamma 90.000000
_cell_volume 2180.533884
_symmetry_space_group_name_H-M "C 2/C"
_symmetry_group_IT_number 15
_symmetry_cell_setting 'monoclinic'
loop_
_space_group_symop_operation_xyz
x,y,z
-x,y,1/2-z
-x,-y,-z
x,-y,1/2+z
1/2+x,1/2+y,z
1/2-x,1/2+y,1/2-z
1/2-x,1/2-y,-z
1/2+x,1/2-y,1/2+z
loop_
_atom_site_type_symbol
_atom_site_label
_atom_site_fract_x
_atom_site_fract_y
_atom_site_fract_z
Si Si1 0.827888 0.228808 0.586055
Si Si2 0.038344 0.021734 0.364294
Si Si3 0.635895 0.679805 0.363145
Si Si4 0.829567 0.325029 0.896760
Si Si5 0.354860 0.136001 0.916346
Si Si6 0.735902 0.520990 0.562028
O O1 0.708002 0.246761 0.755439
O O2 0.779813 0.155330 0.555881
O O3 0.850806 0.306134 0.507606
O O4 0.981972 0.208261 0.523350
O O5 0.095934 0.111277 0.317739
O O6 0.174094 0.972959 0.216405
O O7 0.000000 0.000000 0.500000
O O8 0.896651 0.004012 0.407654
O O9 0.745942 0.649414 0.362664
O O10 0.000000 0.306990 0.750000
O O11 0.750000 0.250000 0.000000
O O12 0.814133 0.397145 0.981004
O O13 0.500000 0.151470 0.750000
O O14 0.354036 0.048086 0.958875
#
# Coordination Sequence:
#
# PCOD8151602 Si02
#       6
#     8   8   8   8   8   8
#     4  11  23  36  65 103 141 186 217 275 335 418
#     4  11  23  42  72 105 133 190 234 284 348 426
#     4  12  23  45  69 101 138 183 242 277 343 428
#     4  12  29  51  72  97 135 185 241 300 355 408
#     4  11  21  37  62 103 150 174 212 273 353 411
#     4  11  24  43  73 101 144 176 233 295 348 415
#
# _framework density 22.012958999999999
#
# number of rings (size 3 to 8) (size 9 to 14) (size 15 to 20)
#    0.000    0.667    6.667    1.500    2.333    1.333 
#    0.000    0.833    0.000    0.000    0.000    0.000 
#    0.000    0.000    0.000    0.000    0.000    0.000 
#
# Total GULP energy -297562.065804 kJ/mol
# GULP energy per Si atom -12398.419408 kJ/mol
# Density = 2.196286 g / cm^3
# Si number density = 22.012959 Si / 1000 Ang^3
#
#
#
# Elastic Constant Matrix: (Units=GPa)
#
#
# Indices 1 2 3 4 5 6 
#
# 1 77.4469 8.3871 37.2935 0.0009 -14.5096 -0.0004
# 2 8.3871 126.1825 51.6453 0.0012 -5.2630 -0.0007
# 3 37.2935 51.6453 134.7127 0.0024 -8.6698 -0.0014
# 4 0.0009 0.0012 0.0024 36.0425 -0.0013 -5.9693
# 5 -14.5096 -5.2630 -8.6698 -0.0013 42.1772 0.0007
# 6 -0.0004 -0.0007 -0.0014 -5.9693 0.0007 14.7000
#
#
#
# Elastic Compliance Matrix: (Units=1/GPa)
#
#
# Indices 1 2 3 4 5 6 
#
# 1 0.015822 0.000964 -0.004450 0.000000 0.004648 0.000000
# 2 0.000964 0.009467 -0.003850 0.000000 0.000721 0.000000
# 3 -0.004450 -0.003850 0.010136 0.000000 0.000072 0.000001
# 4 0.000000 0.000000 0.000000 0.029745 0.000001 0.012079
# 5 0.004648 0.000721 0.000072 0.000001 0.025413 -0.000001
# 6 0.000000 0.000000 0.000001 0.012079 -0.000001 0.072932
#
#
# Mechanical properties :
#
#
# Convention : Reuss Voigt Hill
#
# Bulk Modulus (GPa) = 48.18930 59.22154 53.70542
# Shear Modulus (GPa) = 27.01180 34.65171 30.83175
#
# Velocity S-wave (km/s) = 3.50678 3.97186 3.74654
# Velocity P-wave (km/s) = 6.19157 6.92789 6.57005
#
# Compressibility (1/GPa) = 0.02075150
#
# Stress axis : x y z
#
# Youngs Moduli (GPa) = 63.20495 105.63359 98.66114
#
# Poissons Ratio (x) = -0.10180 0.43907
# Poissons Ratio (y) = -0.06091 0.37981
# Poissons Ratio (z) = 0.28128 0.40665
#
# Static dielectric constant tensor:
#      x y z
#    x 4.355590 0.000000 0.497920 
#    y 0.000000 3.942440 0.000000 
#    z 0.497920 0.000000 4.812580 
# 
# 
# High freq. dielectric constant tensor:
#      x y z
#    x 1.848860 0.000000 -0.004890 
#    y 0.000000 1.864930 0.000000 
#    z -0.004890 0.000000 1.884000 
# 
# From -- ./inp_files/155079.got.cif
#   From: 2010.06.25/outbox.cif.g09.slc.cpg/sg15_78_cif.got.tgz:155079.got - 2010.06.28 07:06:18.
