data_PCOD8151952
_publ_section_title
;
Structure prediction by ZEFSAII (Michael W. Deem and Ramdas Pophale) SiO2 
 PCOD8151952
Probable space group: C 2/C
;
_chemical_formula_sum "Si O2"
_cell_formula_units_Z 64
_cell_length_a 13.301462
_cell_length_b 19.593290
_cell_length_c 16.431941
_cell_angle_alpha 90.000000
_cell_angle_beta 139.861782
_cell_angle_gamma 90.000000
_cell_volume 2760.632683
_symmetry_space_group_name_H-M "C 2/C"
_symmetry_group_IT_number 15
_symmetry_cell_setting 'monoclinic'
loop_
_space_group_symop_operation_xyz
x,y,z
-x,y,1/2-z
-x,-y,-z
x,-y,1/2+z
1/2+x,1/2+y,z
1/2-x,1/2+y,1/2-z
1/2-x,1/2-y,-z
1/2+x,1/2-y,1/2+z
loop_
_atom_site_type_symbol
_atom_site_label
_atom_site_fract_x
_atom_site_fract_y
_atom_site_fract_z
Si Si1 0.909703 0.689444 0.481403
Si Si2 0.234063 0.738474 0.735600
Si Si3 0.372977 0.370601 0.609095
Si Si4 0.670729 0.523659 0.939804
Si Si5 0.743914 0.991008 0.818969
Si Si6 0.904819 0.109802 0.829390
Si Si7 0.579043 0.636503 0.089807
Si Si8 0.521393 0.059789 0.449272
O O1 0.821667 0.749992 0.376219
O O2 0.794084 0.662131 0.478394
O O3 0.050517 0.718935 0.622770
O O4 0.965785 0.631137 0.452977
O O5 0.319168 0.676730 0.738614
O O6 0.228592 0.812827 0.689742
O O7 0.500000 0.340723 0.750000
O O8 0.354550 0.450564 0.615290
O O9 0.430772 0.348978 0.555602
O O10 0.505503 0.564364 0.829493
O O11 0.732743 0.510790 0.069954
O O12 0.797064 0.565622 0.964431
O O13 0.869134 0.940249 0.854616
O O14 0.573316 0.963310 0.689975
O O15 0.777158 0.065521 0.800978
O O16 0.033274 0.141530 0.968414
O O17 0.500000 0.000000 0.500000
#
# Coordination Sequence:
#
# PCOD8151952 Si02
#       8
#     8   8   8   8   8   8   8   8
#     4  12  27  46  70 101 149 193 236 300 362 433
#     4  12  25  47  69 100 144 195 235 288 369 429
#     4  12  22  40  68 105 142 184 232 294 361 427
#     4  11  24  41  71 108 137 183 243 296 367 430
#     4  11  21  43  71 102 136 185 237 297 358 431
#     4  11  23  43  73 100 137 185 239 291 353 437
#     4  11  21  43  69  95 139 189 233 285 358 431
#     4  12  24  42  70 107 141 179 239 309 366 412
#
# _framework density 23.183093
#
# number of rings (size 3 to 8) (size 9 to 14) (size 15 to 20)
#    0.000    0.500    7.500    1.875    0.000    1.500 
#    2.250    0.625    5.500    0.000    0.000    0.000 
#    0.000    0.000    0.000    0.000    0.000    0.000 
#
# Total GULP energy -396553.119425 kJ/mol
# GULP energy per Si atom -12392.284982 kJ/mol
# Density = 2.313033 g / cm^3
# Si number density = 23.183093 Si / 1000 Ang^3
#
#
#
# Elastic Constant Matrix: (Units=GPa)
#
#
# Indices 1 2 3 4 5 6 
#
# 1 87.5532 27.2035 8.0586 -0.0001 19.8760 -0.0001
# 2 27.2035 115.7963 29.4274 0.0000 6.8713 -0.0001
# 3 8.0586 29.4274 77.2846 -0.0002 26.9035 -0.0002
# 4 -0.0001 0.0000 -0.0002 47.3219 -0.0001 13.0238
# 5 19.8760 6.8713 26.9035 -0.0001 29.3057 0.0000
# 6 -0.0001 -0.0001 -0.0002 13.0238 0.0000 28.4258
#
#
#
# Elastic Compliance Matrix: (Units=1/GPa)
#
#
# Indices 1 2 3 4 5 6 
#
# 1 0.015366 -0.003992 0.004732 0.000000 -0.013830 0.000000
# 2 -0.003992 0.010650 -0.005456 0.000000 0.005219 0.000000
# 3 0.004732 -0.005456 0.022332 0.000000 -0.022431 0.000000
# 4 0.000000 0.000000 0.000000 0.024181 0.000000 -0.011079
# 5 -0.013830 0.005219 -0.022431 0.000000 0.062872 0.000000
# 6 0.000000 0.000000 0.000000 -0.011079 0.000000 0.040255
#
#
# Mechanical properties :
#
#
# Convention : Reuss Voigt Hill
#
# Bulk Modulus (GPa) = 25.69576 45.55700 35.62638
# Shear Modulus (GPa) = 25.24495 35.40698 30.32597
#
# Velocity S-wave (km/s) = 3.30349 3.91228 3.62070
# Velocity P-wave (km/s) = 5.06543 6.33258 5.73411
#
# Compressibility (1/GPa) = 0.03891692
#
# Stress axis : x y z
#
# Youngs Moduli (GPa) = 65.07905 93.89307 44.77948
#
# Poissons Ratio (x) = 0.37480 -0.21189
# Poissons Ratio (y) = 0.25978 0.24431
# Poissons Ratio (z) = -0.30795 0.51226
#
# Static dielectric constant tensor:
#      x y z
#    x 3.960500 0.000000 0.259110 
#    y 0.000000 4.602780 0.000000 
#    z 0.259110 0.000000 4.485240 
# 
# 
# High freq. dielectric constant tensor:
#      x y z
#    x 1.881650 0.000000 0.010600 
#    y 0.000000 1.930610 0.000000 
#    z 0.010600 0.000000 1.933630 
# 
# From -- ./inp_files/206477.got.cif
#   From: 2010.06.25/outbox.cif.g09.slc.cpg/sg15_104_cif.got.tgz:206477.got - 2010.06.28 07:06:18.
