data_PCOD8151126
_publ_section_title
;
Structure prediction by ZEFSAII (Michael W. Deem and Ramdas Pophale) SiO2 
 PCOD8151126
Probable space group: C 2/C
;
_chemical_formula_sum "Si O2"
_cell_formula_units_Z 40
_cell_length_a 17.198772
_cell_length_b 10.062054
_cell_length_c 25.223742
_cell_angle_alpha 90.000000
_cell_angle_beta 25.345635
_cell_angle_gamma 90.000000
_cell_volume 1868.599882
_symmetry_space_group_name_H-M "C 2/C"
_symmetry_group_IT_number 15
_symmetry_cell_setting 'monoclinic'
loop_
_space_group_symop_operation_xyz
x,y,z
-x,y,1/2-z
-x,-y,-z
x,-y,1/2+z
1/2+x,1/2+y,z
1/2-x,1/2+y,1/2-z
1/2-x,1/2-y,-z
1/2+x,1/2-y,1/2+z
loop_
_atom_site_type_symbol
_atom_site_label
_atom_site_fract_x
_atom_site_fract_y
_atom_site_fract_z
Si Si1 0.046175 0.499490 0.158673
Si Si2 0.873978 0.251134 0.717774
Si Si3 0.534251 0.533966 0.120940
Si Si4 0.016487 0.137061 0.459562
Si Si5 0.697971 0.758915 0.212530
O O1 0.000000 0.508512 0.250000
O O2 0.019390 0.638253 0.145108
O O3 0.917665 0.392992 0.209436
O O4 0.251227 0.457158 0.019220
O O5 0.694509 0.275953 0.864962
O O6 0.828359 0.255966 0.683520
O O7 0.964875 0.111936 0.677397
O O8 0.444896 0.595524 0.123797
O O9 0.439257 0.638807 0.220001
O O10 0.837047 0.225943 0.577615
O O11 0.000000 0.000000 0.500000
#
# Coordination Sequence:
#
# PCOD8151126 Si02
#       5
#     8   8   8   8   8
#     4  12  23  43  70  94 135 177 211 264 335 389
#     4  11  23  39  69  99 128 172 220 268 316 391
#     4  11  23  39  63 100 130 166 223 273 317 376
#     4  11  19  41  67  92 131 177 217 253 331 400
#     4  11  22  41  69  93 131 179 216 261 321 399
#
# _framework density 21.406400999999999
#
# number of rings (size 3 to 8) (size 9 to 14) (size 15 to 20)
#    0.000    0.800    6.000    2.400    0.000    0.800 
#    0.000    1.000    0.000    0.000    0.000    0.000 
#    0.000    0.000    0.000    0.000    0.000    0.000 
#
# Total GULP energy -247825.747085 kJ/mol
# GULP energy per Si atom -12391.287354 kJ/mol
# Density = 2.135768 g / cm^3
# Si number density = 21.406401 Si / 1000 Ang^3
#
#
#
# Elastic Constant Matrix: (Units=GPa)
#
#
# Indices 1 2 3 4 5 6 
#
# 1 53.4616 21.4184 -0.2760 -0.0064 -6.6764 0.0030
# 2 21.4184 106.5783 31.8837 -0.0068 5.5787 0.0010
# 3 -0.2760 31.8837 130.5259 -0.0168 -7.8784 0.0068
# 4 -0.0064 -0.0068 -0.0168 45.7302 0.0069 -5.6129
# 5 -6.6764 5.5787 -7.8784 0.0069 18.9343 -0.0046
# 6 0.0030 0.0010 0.0068 -5.6129 -0.0046 31.2113
#
#
#
# Elastic Compliance Matrix: (Units=1/GPa)
#
#
# Indices 1 2 3 4 5 6 
#
# 1 0.022265 -0.005629 0.002048 0.000001 0.010361 -0.000001
# 2 -0.005629 0.011868 -0.003325 0.000001 -0.006865 0.000000
# 3 0.002048 -0.003325 0.008802 0.000002 0.005364 -0.000001
# 4 0.000001 0.000001 0.000002 0.022361 -0.000006 0.004021
# 5 0.010361 -0.006865 0.005364 -0.000006 0.060722 0.000006
# 6 -0.000001 0.000000 -0.000001 0.004021 0.000006 0.032763
#
#
# Mechanical properties :
#
#
# Convention : Reuss Voigt Hill
#
# Bulk Modulus (GPa) = 34.34008 44.06867 39.20437
# Shear Modulus (GPa) = 27.42702 35.01113 31.21908
#
# Velocity S-wave (km/s) = 3.58334 4.04857 3.82304
# Velocity P-wave (km/s) = 5.76171 6.51813 6.15155
#
# Compressibility (1/GPa) = 0.02912050
#
# Stress axis : x y z
#
# Youngs Moduli (GPa) = 44.91396 84.25864 113.61444
#
# Poissons Ratio (x) = 0.47432 -0.23263
# Poissons Ratio (y) = 0.25283 0.37781
# Poissons Ratio (z) = -0.09196 0.28019
#
# Static dielectric constant tensor:
#      x y z
#    x 3.506070 0.000010 -0.280350 
#    y 0.000010 3.914340 -0.000010 
#    z -0.280350 -0.000010 3.943230 
# 
# 
# High freq. dielectric constant tensor:
#      x y z
#    x 1.813740 0.000000 -0.015260 
#    y 0.000000 1.848100 0.000000 
#    z -0.015260 0.000000 1.860980 
# 
# From -- ./inp_files/167083.got.cif
#   From: 2010.06.25/outbox.cif.g09.slc.cpg/sg15_84_cif.got.tgz:167083.got - 2010.06.28 07:06:18.
