data_PCOD8151981
_publ_section_title
;
Structure prediction by ZEFSAII (Michael W. Deem and Ramdas Pophale) SiO2 
 PCOD8151981
Probable space group: C 2/C
;
_chemical_formula_sum "Si O2"
_cell_formula_units_Z 52
_cell_length_a 17.868237
_cell_length_b 16.770944
_cell_length_c 10.390974
_cell_angle_alpha 90.000000
_cell_angle_beta 130.684479
_cell_angle_gamma 90.000000
_cell_volume 2361.254521
_symmetry_space_group_name_H-M "C 2/C"
_symmetry_group_IT_number 15
_symmetry_cell_setting 'monoclinic'
loop_
_space_group_symop_operation_xyz
x,y,z
-x,y,1/2-z
-x,-y,-z
x,-y,1/2+z
1/2+x,1/2+y,z
1/2-x,1/2+y,1/2-z
1/2-x,1/2-y,-z
1/2+x,1/2-y,1/2+z
loop_
_atom_site_type_symbol
_atom_site_label
_atom_site_fract_x
_atom_site_fract_y
_atom_site_fract_z
Si Si1 0.136078 0.721747 0.107796
Si Si2 0.451932 0.445546 0.055593
Si Si3 0.593894 0.955823 0.160921
Si Si4 0.537017 0.270339 0.429701
Si Si5 0.000000 0.665044 0.750000
Si Si6 0.782398 0.657476 0.872231
Si Si7 0.237429 0.412483 0.874405
O O1 0.188995 0.807729 0.186869
O O2 0.205861 0.647444 0.223311
O O3 0.039552 0.711564 0.088776
O O4 0.089445 0.717184 0.911913
O O5 0.500000 0.459417 0.250000
O O6 0.459488 0.357155 0.001512
O O7 0.500000 0.500000 0.000000
O O8 0.335073 0.460446 0.942129
O O9 0.557306 0.886594 0.210995
O O10 0.666706 0.919446 0.134303
O O11 0.653954 0.021800 0.307917
O O12 0.500000 0.000000 0.000000
O O13 0.500000 0.291503 0.250000
O O14 0.643317 0.231120 0.539989
O O15 0.745437 0.636415 0.974185
#
# Coordination Sequence:
#
# PCOD8151981 Si02
#       7
#     8   8   8   8   4   8   8
#     4  12  25  44  70 107 143 185 245 303 376 436
#     4  11  27  47  70 106 149 198 253 308 374 450
#     4  12  26  45  72 108 147 193 240 307 383 443
#     4  11  21  43  75 103 139 183 246 310 359 436
#     4  12  26  46  66 106 154 188 242 308 378 450
#     4  12  24  45  76 108 138 193 250 306 366 443
#     4  12  25  45  77 105 143 187 252 303 367 449
#
# _framework density 22.022190999999999
#
# number of rings (size 3 to 8) (size 9 to 14) (size 15 to 20)
#    0.000    0.308    6.154    3.231    4.308    0.615 
#    1.385    0.000    0.000    0.000    0.000    0.000 
#    0.000    0.000    0.000    0.000    0.000    0.000 
#
# Total GULP energy -322303.141473 kJ/mol
# GULP energy per Si atom -12396.274672 kJ/mol
# Density = 2.197207 g / cm^3
# Si number density = 22.022191 Si / 1000 Ang^3
#
#
#
# Elastic Constant Matrix: (Units=GPa)
#
#
# Indices 1 2 3 4 5 6 
#
# 1 126.1864 39.6829 55.9838 0.0000 13.0318 0.0000
# 2 39.6829 103.3576 62.8572 0.0000 3.3144 0.0000
# 3 55.9838 62.8572 150.9333 0.0000 14.4967 0.0000
# 4 0.0000 0.0000 0.0000 38.3625 0.0000 5.2590
# 5 13.0318 3.3144 14.4967 0.0000 36.3391 0.0000
# 6 0.0000 0.0000 0.0000 5.2590 0.0000 55.0617
#
#
#
# Elastic Compliance Matrix: (Units=1/GPa)
#
#
# Indices 1 2 3 4 5 6 
#
# 1 0.009999 -0.002204 -0.002564 0.000000 -0.002362 0.000000
# 2 -0.002204 0.013478 -0.004943 0.000000 0.001533 0.000000
# 3 -0.002564 -0.004943 0.009882 0.000000 -0.002572 0.000000
# 4 0.000000 0.000000 0.000000 0.026413 0.000000 -0.002523
# 5 -0.002362 0.001533 -0.002572 0.000000 0.029252 0.000000
# 6 0.000000 0.000000 0.000000 -0.002523 0.000000 0.018402
#
#
# Mechanical properties :
#
#
# Convention : Reuss Voigt Hill
#
# Bulk Modulus (GPa) = 71.74833 77.50280 74.62556
# Shear Modulus (GPa) = 38.02433 40.74956 39.38695
#
# Velocity S-wave (km/s) = 4.15979 4.30628 4.23367
# Velocity P-wave (km/s) = 7.46475 7.74563 7.60649
#
# Compressibility (1/GPa) = 0.01393761
#
# Stress axis : x y z
#
# Youngs Moduli (GPa) = 100.00520 74.19410 101.19356
#
# Poissons Ratio (x) = 0.16352 0.25949
# Poissons Ratio (y) = 0.22041 0.50018
# Poissons Ratio (z) = 0.25644 0.36673
#
# Static dielectric constant tensor:
#      x y z
#    x 3.871130 0.000000 0.708700 
#    y 0.000000 8.573030 0.000000 
#    z 0.708700 0.000000 2.226100 
# 
# 
# High freq. dielectric constant tensor:
#      x y z
#    x 1.871910 0.000000 0.021100 
#    y 0.000000 1.870590 0.000000 
#    z 0.021100 0.000000 1.866090 
# 
# From -- ./inp_files/50722.got.cif
#   From: 2010.06.25/outbox.cif.g09.slc.cpg/sg15_26_cif.got.tgz:50722.got - 2010.06.28 07:06:18.
