data_PCOD8151999
_publ_section_title
;
Structure prediction by ZEFSAII (Michael W. Deem and Ramdas Pophale) SiO2 
 PCOD8151999
Probable space group: C 2/C
;
_chemical_formula_sum "Si O2"
_cell_formula_units_Z 64
_cell_length_a 8.952626
_cell_length_b 19.519290
_cell_length_c 20.282009
_cell_angle_alpha 90.000000
_cell_angle_beta 61.335020
_cell_angle_gamma 90.000000
_cell_volume 3109.872761
_symmetry_space_group_name_H-M "C 2/C"
_symmetry_group_IT_number 15
_symmetry_cell_setting 'monoclinic'
loop_
_space_group_symop_operation_xyz
x,y,z
-x,y,1/2-z
-x,-y,-z
x,-y,1/2+z
1/2+x,1/2+y,z
1/2-x,1/2+y,1/2-z
1/2-x,1/2-y,-z
1/2+x,1/2-y,1/2+z
loop_
_atom_site_type_symbol
_atom_site_label
_atom_site_fract_x
_atom_site_fract_y
_atom_site_fract_z
Si Si1 0.393591 0.766097 0.707985
Si Si2 0.152611 0.315896 0.546585
Si Si3 0.299971 0.133378 0.792683
Si Si4 0.132214 0.077271 0.424323
Si Si5 0.314075 0.088848 0.258219
Si Si6 0.557434 0.071613 0.957857
Si Si7 0.800229 0.029033 0.797085
Si Si8 0.271233 0.430210 0.053931
O O1 0.500000 0.742280 0.750000
O O2 0.499818 0.787448 0.621906
O O3 0.271180 0.706626 0.711329
O O4 0.280856 0.831898 0.750181
O O5 0.250000 0.250000 0.500000
O O6 0.273155 0.355605 0.571042
O O7 0.088529 0.366760 0.502410
O O8 0.500000 0.139645 0.750000
O O9 0.250155 0.079997 0.748821
O O10 0.219599 0.107180 0.877881
O O11 0.167319 0.065365 0.339756
O O12 0.932752 0.091925 0.476162
O O13 0.211005 0.012414 0.446036
O O14 0.500000 0.076796 0.250000
O O15 0.295734 0.043229 0.196234
O O16 0.734549 0.058917 0.880780
O O17 0.404483 0.094047 0.941934
O O18 0.500000 0.000000 0.000000
O O19 0.000000 0.017671 0.750000
#
# Coordination Sequence:
#
# PCOD8151999 Si02
#       8
#     8   8   8   8   8   8   8   8
#     4  11  25  46  70  97 137 184 233 283 345 422
#     4  12  26  44  70 102 140 184 230 282 353 423
#     4  12  25  46  68  97 135 184 231 290 350 411
#     4  11  22  42  72 100 134 182 228 283 344 416
#     4  11  21  44  71  99 135 180 227 283 348 408
#     4  12  26  45  69 101 142 177 229 290 348 412
#     4  12  27  40  72 105 134 176 234 289 344 411
#     4  11  24  43  70 102 138 178 233 286 349 411
#
# _framework density 20.579620999999999
#
# number of rings (size 3 to 8) (size 9 to 14) (size 15 to 20)
#    0.000    0.500    6.250    3.000    7.000    0.500 
#    2.250    1.250    0.000    0.000    0.000    0.000 
#    0.000    0.000    0.000    0.000    0.000    0.000 
#
# Total GULP energy -396812.398354 kJ/mol
# GULP energy per Si atom -12400.387449 kJ/mol
# Density = 2.053278 g / cm^3
# Si number density = 20.579621 Si / 1000 Ang^3
#
#
#
# Elastic Constant Matrix: (Units=GPa)
#
#
# Indices 1 2 3 4 5 6 
#
# 1 128.2678 80.6636 56.4111 0.0000 -7.8647 0.0000
# 2 80.6636 119.1231 31.8215 0.0000 3.7165 0.0000
# 3 56.4111 31.8215 139.3233 0.0000 -6.8061 0.0000
# 4 0.0000 0.0000 0.0000 27.8670 0.0000 1.2665
# 5 -7.8647 3.7165 -6.8061 0.0000 35.7130 0.0000
# 6 0.0000 0.0000 0.0000 1.2665 0.0000 44.5590
#
#
#
# Elastic Compliance Matrix: (Units=1/GPa)
#
#
# Indices 1 2 3 4 5 6 
#
# 1 0.016027 -0.009890 -0.004045 0.000000 0.003788 0.000000
# 2 -0.009890 0.015107 0.000374 0.000000 -0.003679 0.000000
# 3 -0.004045 0.000374 0.008766 0.000000 0.000741 0.000000
# 4 0.000000 0.000000 0.000000 0.035931 0.000000 -0.001021
# 5 0.003788 -0.003679 0.000741 0.000000 0.029359 0.000000
# 6 0.000000 0.000000 0.000000 -0.001021 0.000000 0.022471
#
#
# Mechanical properties :
#
#
# Convention : Reuss Voigt Hill
#
# Bulk Modulus (GPa) = 78.26191 80.50073 79.38132
# Shear Modulus (GPa) = 31.43800 36.14899 33.79349
#
# Velocity S-wave (km/s) = 3.91273 4.19566 4.05666
# Velocity P-wave (km/s) = 7.65010 7.91663 7.78451
#
# Compressibility (1/GPa) = 0.01277761
#
# Stress axis : x y z
#
# Youngs Moduli (GPa) = 62.39365 66.19617 114.07520
#
# Poissons Ratio (x) = 0.65470 0.46147
# Poissons Ratio (y) = 0.61709 -0.04272
# Poissons Ratio (z) = 0.25240 -0.02479
#
# Static dielectric constant tensor:
#      x y z
#    x 3.692910 0.000000 0.054230 
#    y 0.000000 3.600950 0.000000 
#    z 0.054230 0.000000 4.100260 
# 
# 
# High freq. dielectric constant tensor:
#      x y z
#    x 1.798450 0.000000 -0.002570 
#    y 0.000000 1.812660 0.000000 
#    z -0.002570 0.000000 1.825610 
# 
# From -- ./inp_files/233823.got.cif
#   From: 2010.06.25/outbox.cif.g09.slc.cpg/sg15_117_cif.got.tgz:233823.got - 2010.06.28 07:06:18.
