data_PCOD8151096
_publ_section_title
;
Structure prediction by ZEFSAII (Michael W. Deem and Ramdas Pophale) SiO2 
 PCOD8151096
Probable space group: C 2/C
;
_chemical_formula_sum "Si O2"
_cell_formula_units_Z 56
_cell_length_a 13.107876
_cell_length_b 22.677633
_cell_length_c 9.553105
_cell_angle_alpha 90.000000
_cell_angle_beta 92.512794
_cell_angle_gamma 90.000000
_cell_volume 2836.983463
_symmetry_space_group_name_H-M "C 2/C"
_symmetry_group_IT_number 15
_symmetry_cell_setting 'monoclinic'
loop_
_space_group_symop_operation_xyz
x,y,z
-x,y,1/2-z
-x,-y,-z
x,-y,1/2+z
1/2+x,1/2+y,z
1/2-x,1/2+y,1/2-z
1/2-x,1/2-y,-z
1/2+x,1/2-y,1/2+z
loop_
_atom_site_type_symbol
_atom_site_label
_atom_site_fract_x
_atom_site_fract_y
_atom_site_fract_z
Si Si1 0.194248 0.285428 0.275130
Si Si2 0.073396 0.799323 0.130636
Si Si3 0.570971 0.823767 0.526491
Si Si4 0.074880 0.489751 0.134082
Si Si5 0.640511 0.126091 0.535220
Si Si6 0.700324 0.895675 0.732991
Si Si7 0.897184 0.842123 0.663838
O O1 0.314483 0.284498 0.306454
O O2 0.137646 0.324002 0.389338
O O3 0.175902 0.316659 0.124490
O O4 0.148442 0.219696 0.280211
O O5 0.024642 0.740000 0.062497
O O6 0.000000 0.823857 0.250000
O O7 0.081055 0.844319 0.001601
O O8 0.479415 0.869442 0.506092
O O9 0.641802 0.841712 0.658836
O O10 0.153728 0.435727 0.117029
O O11 0.144792 0.544469 0.184568
O O12 0.000000 0.470232 0.250000
O O13 0.000000 0.500000 0.000000
O O14 0.703883 0.118709 0.397430
O O15 0.817444 0.894861 0.688581
O O16 0.000000 0.857499 0.750000
#
# Coordination Sequence:
#
# PCOD8151096 Si02
#       7
#     8   8   8   8   8   8   8
#     4  11  22  39  60  95 128 172 205 260 314 378
#     4  11  22  38  61  92 129 169 211 260 316 376
#     4  11  19  39  58  89 130 168 197 251 320 376
#     4  12  23  41  63  96 128 163 209 261 325 386
#     4  12  25  36  66  96 130 163 212 256 321 391
#     4  12  23  40  61  91 130 168 204 261 323 369
#     4  11  24  42  63  89 132 171 217 258 310 380
#
# _framework density 19.739277999999999
#
# number of rings (size 3 to 8) (size 9 to 14) (size 15 to 20)
#    0.000    0.571    5.714    5.143    2.000    0.571 
#    0.000    0.000    0.000    1.714    0.000    0.000 
#    0.000    0.000    0.000    0.000    0.000    0.000 
#
# Total GULP energy -347164.127374 kJ/mol
# GULP energy per Si atom -12398.718835 kJ/mol
# Density = 1.969435 g / cm^3
# Si number density = 19.739278 Si / 1000 Ang^3
#
#
#
# Elastic Constant Matrix: (Units=GPa)
#
#
# Indices 1 2 3 4 5 6 
#
# 1 92.7053 19.4275 40.3176 0.0000 -8.6113 0.0000
# 2 19.4275 44.2741 29.7209 0.0000 -5.5815 0.0000
# 3 40.3176 29.7209 138.8899 0.0000 -15.3448 0.0000
# 4 0.0000 0.0000 0.0000 20.3858 0.0000 5.0792
# 5 -8.6113 -5.5815 -15.3448 0.0000 38.0555 0.0000
# 6 0.0000 0.0000 0.0000 5.0792 0.0000 17.0701
#
#
#
# Elastic Compliance Matrix: (Units=1/GPa)
#
#
# Indices 1 2 3 4 5 6 
#
# 1 0.012889 -0.003596 -0.002834 0.000000 0.001246 0.000000
# 2 -0.003596 0.027480 -0.004690 0.000000 0.001326 0.000000
# 3 -0.002834 -0.004690 0.009293 0.000000 0.002418 0.000000
# 4 0.000000 0.000000 0.000000 0.052982 0.000000 -0.015765
# 5 0.001246 0.001326 0.002418 0.000000 0.027729 0.000000
# 6 0.000000 0.000000 0.000000 -0.015765 0.000000 0.063273
#
#
# Mechanical properties :
#
#
# Convention : Reuss Voigt Hill
#
# Bulk Modulus (GPa) = 36.46740 50.53347 43.50044
# Shear Modulus (GPa) = 22.21958 27.52916 24.87437
#
# Velocity S-wave (km/s) = 3.35871 3.73854 3.55370
# Velocity P-wave (km/s) = 5.79275 6.65519 6.23889
#
# Compressibility (1/GPa) = 0.02742175
#
# Stress axis : x y z
#
# Youngs Moduli (GPa) = 77.58664 36.39006 107.60230
#
# Poissons Ratio (x) = 0.13086 0.30497
# Poissons Ratio (y) = 0.27899 0.50467
# Poissons Ratio (z) = 0.21990 0.17067
#
# Static dielectric constant tensor:
#      x y z
#    x 3.666900 0.000000 -0.038030 
#    y 0.000000 3.446410 0.000000 
#    z -0.038030 0.000000 3.808640 
# 
# 
# High freq. dielectric constant tensor:
#      x y z
#    x 1.759960 0.000000 -0.003810 
#    y 0.000000 1.743420 0.000000 
#    z -0.003810 0.000000 1.787190 
# 
# From -- ./inp_files/41235.got.cif
#   From: 2010.06.25/outbox.cif.g09.slc.cpg/sg15_21_cif.got.tgz:41235.got - 2010.06.28 07:06:18.
