data_PCOD8151346
_publ_section_title
;
Structure prediction by ZEFSAII (Michael W. Deem and Ramdas Pophale) SiO2 
 PCOD8151346
Probable space group: C 2/C
;
_chemical_formula_sum "Si O2"
_cell_formula_units_Z 56
_cell_length_a 17.945227
_cell_length_b 12.049110
_cell_length_c 12.820899
_cell_angle_alpha 90.000000
_cell_angle_beta 104.333497
_cell_angle_gamma 90.000000
_cell_volume 2685.891310
_symmetry_space_group_name_H-M "C 2/C"
_symmetry_group_IT_number 15
_symmetry_cell_setting 'monoclinic'
loop_
_space_group_symop_operation_xyz
x,y,z
-x,y,1/2-z
-x,-y,-z
x,-y,1/2+z
1/2+x,1/2+y,z
1/2-x,1/2+y,1/2-z
1/2-x,1/2-y,-z
1/2+x,1/2-y,1/2+z
loop_
_atom_site_type_symbol
_atom_site_label
_atom_site_fract_x
_atom_site_fract_y
_atom_site_fract_z
Si Si1 0.686199 0.931757 0.895083
Si Si2 0.198724 0.078875 0.885174
Si Si3 0.911711 0.493935 0.457585
Si Si4 0.178307 0.821960 0.864531
Si Si5 0.590487 0.256584 0.263873
Si Si6 0.350742 0.238137 0.433202
Si Si7 0.825233 0.374158 0.262890
O O1 0.654060 0.841804 0.801454
O O2 0.697975 0.051157 0.845740
O O3 0.766714 0.907398 0.985481
O O4 0.620009 0.922758 0.958338
O O5 0.116525 0.142022 0.848612
O O6 0.254955 0.135048 0.820013
O O7 0.186871 0.951628 0.844714
O O8 0.871688 0.611129 0.453072
O O9 0.896001 0.436353 0.342017
O O10 0.000000 0.500000 0.500000
O O11 0.259312 0.755867 0.890191
O O12 0.140885 0.747795 0.758481
O O13 0.129981 0.806424 0.954618
O O14 0.500000 0.226437 0.250000
O O15 0.602230 0.291736 0.146860
#
# Coordination Sequence:
#
# PCOD8151346 Si02
#       7
#     8   8   8   8   8   8   8
#     4  11  21  39  63  94 120 160 216 269 313 370
#     4  11  24  40  64  96 127 167 219 261 316 390
#     4  11  22  37  58  96 130 159 207 261 333 379
#     4  11  20  41  67  95 121 160 221 266 308 380
#     4  12  25  42  63  91 135 175 206 261 328 387
#     4  11  20  39  66  90 121 166 210 262 321 374
#     4  11  21  38  67  94 121 163 208 270 321 368
#
# _framework density 20.849689000000001
#
# number of rings (size 3 to 8) (size 9 to 14) (size 15 to 20)
#    0.000    0.857    7.143    2.143    0.000    0.000 
#    0.000    2.143    0.000    0.000    0.000    0.000 
#    0.000    0.000    0.000    0.000    0.000    0.000 
#
# Total GULP energy -346947.965843 kJ/mol
# GULP energy per Si atom -12390.998780 kJ/mol
# Density = 2.080223 g / cm^3
# Si number density = 20.849689 Si / 1000 Ang^3
#
#
#
# Elastic Constant Matrix: (Units=GPa)
#
#
# Indices 1 2 3 4 5 6 
#
# 1 67.5385 17.4103 33.7557 0.0000 3.2604 0.0000
# 2 17.4103 89.0702 16.3328 0.0000 14.1601 0.0000
# 3 33.7557 16.3328 86.4213 0.0000 -5.0883 0.0000
# 4 0.0000 0.0000 0.0000 24.1700 0.0000 -8.0258
# 5 3.2604 14.1601 -5.0883 0.0000 27.6441 0.0000
# 6 0.0000 0.0000 0.0000 -8.0258 0.0000 8.3892
#
#
#
# Elastic Compliance Matrix: (Units=1/GPa)
#
#
# Indices 1 2 3 4 5 6 
#
# 1 0.019049 -0.001995 -0.007214 0.000000 -0.002553 0.000000
# 2 -0.001995 0.013092 -0.002099 0.000000 -0.006857 0.000000
# 3 -0.007214 -0.002099 0.015062 0.000000 0.004698 0.000000
# 4 0.000000 0.000000 0.000000 0.060636 0.000000 0.058010
# 5 -0.002553 -0.006857 0.004698 0.000000 0.040852 0.000000
# 6 0.000000 0.000000 0.000000 0.058010 0.000000 0.174699
#
#
# Mechanical properties :
#
#
# Convention : Reuss Voigt Hill
#
# Bulk Modulus (GPa) = 40.66952 42.00307 41.33629
# Shear Modulus (GPa) = 14.11620 23.74272 18.92946
#
# Velocity S-wave (km/s) = 2.60483 3.37821 3.01641
# Velocity P-wave (km/s) = 5.34746 5.95027 5.65690
#
# Compressibility (1/GPa) = 0.02458844
#
# Stress axis : x y z
#
# Youngs Moduli (GPa) = 52.49532 76.38233 66.39135
#
# Poissons Ratio (x) = 0.15238 0.47894
# Poissons Ratio (y) = 0.10472 0.13934
# Poissons Ratio (z) = 0.37869 0.16031
#
# Static dielectric constant tensor:
#      x y z
#    x 3.480760 0.000000 -0.104380 
#    y 0.000000 3.707950 0.000000 
#    z -0.104380 0.000000 4.185220 
# 
# 
# High freq. dielectric constant tensor:
#      x y z
#    x 1.781130 0.000000 -0.013600 
#    y 0.000000 1.813270 0.000000 
#    z -0.013600 0.000000 1.830240 
# 
# From -- ./inp_files/111679.got.cif
#   From: 2010.06.25/outbox.cif.g09.slc.cpg/sg15_56_cif.got.tgz:111679.got - 2010.06.28 07:06:18.
