data_PCOD8151483
_publ_section_title
;
Structure prediction by ZEFSAII (Michael W. Deem and Ramdas Pophale) SiO2 
 PCOD8151483
Probable space group: C 2/C
;
_chemical_formula_sum "Si O2"
_cell_formula_units_Z 56
_cell_length_a 14.584148
_cell_length_b 18.721674
_cell_length_c 16.084295
_cell_angle_alpha 90.000000
_cell_angle_beta 144.511441
_cell_angle_gamma 90.000000
_cell_volume 2549.530451
_symmetry_space_group_name_H-M "C 2/C"
_symmetry_group_IT_number 15
_symmetry_cell_setting 'monoclinic'
loop_
_space_group_symop_operation_xyz
x,y,z
-x,y,1/2-z
-x,-y,-z
x,-y,1/2+z
1/2+x,1/2+y,z
1/2-x,1/2+y,1/2-z
1/2-x,1/2-y,-z
1/2+x,1/2-y,1/2+z
loop_
_atom_site_type_symbol
_atom_site_label
_atom_site_fract_x
_atom_site_fract_y
_atom_site_fract_z
Si Si1 0.671140 0.269153 0.857050
Si Si2 0.269682 0.644684 0.825066
Si Si3 0.896414 0.796393 0.973034
Si Si4 0.854031 0.899850 0.086772
Si Si5 0.959489 0.967161 0.557495
Si Si6 0.254758 0.875026 0.791297
Si Si7 0.608048 0.127177 0.538209
O O1 0.500000 0.301111 0.750000
O O2 0.653840 0.200786 0.783916
O O3 0.775283 0.329988 0.890754
O O4 0.750000 0.250000 0.000000
O O5 0.179365 0.606905 0.681537
O O6 0.420067 0.684548 0.897226
O O7 0.324110 0.591057 0.938695
O O8 0.805202 0.822038 0.824296
O O9 0.879723 0.711833 0.969144
O O10 0.819861 0.837382 0.995005
O O11 0.703436 0.911682 0.035010
O O12 0.000000 0.874019 0.250000
O O13 0.891753 0.975016 0.070763
O O14 0.125656 0.936308 0.714107
O O15 0.000000 0.000000 0.500000
O O16 0.429783 0.903835 0.899671
#
# Coordination Sequence:
#
# PCOD8151483 Si02
#       7
#     8   8   8   8   8   8   8
#     4  12  23  40  66 103 135 173 232 287 352 416
#     4  11  22  42  70  98 142 185 221 300 361 410
#     4  11  20  43  71 103 146 184 218 292 371 418
#     4  12  25  43  71 102 140 191 244 275 345 453
#     4  11  23  47  68  88 139 201 236 271 360 427
#     4  11  24  41  74 103 137 185 227 297 360 410
#     4  12  22  42  72 112 138 173 239 302 355 411
#
# _framework density 21.964827
#
# number of rings (size 3 to 8) (size 9 to 14) (size 15 to 20)
#    0.000    0.571    7.143    3.000    0.000    2.286 
#    0.000    4.286    0.000    0.000    0.000    0.000 
#    0.000    0.000    0.000    0.000    0.000    0.000 
#
# Total GULP energy -347244.167868 kJ/mol
# GULP energy per Si atom -12401.577424 kJ/mol
# Density = 2.191483 g / cm^3
# Si number density = 21.964827 Si / 1000 Ang^3
#
#
#
# Elastic Constant Matrix: (Units=GPa)
#
#
# Indices 1 2 3 4 5 6 
#
# 1 132.0824 36.8337 50.9289 -0.0005 -0.2290 -0.0002
# 2 36.8337 74.2061 31.7291 0.0097 0.1611 0.0037
# 3 50.9289 31.7291 122.6664 0.0111 7.5838 0.0039
# 4 -0.0005 0.0097 0.0111 25.8504 0.0038 -1.1475
# 5 -0.2290 0.1611 7.5838 0.0038 39.6677 0.0011
# 6 -0.0002 0.0037 0.0039 -1.1475 0.0011 45.2397
#
#
#
# Elastic Compliance Matrix: (Units=1/GPa)
#
#
# Indices 1 2 3 4 5 6 
#
# 1 0.009779 -0.003487 -0.003200 0.000003 0.000682 0.000001
# 2 -0.003487 0.016414 -0.002826 -0.000005 0.000453 -0.000001
# 3 -0.003200 -0.002826 0.010334 -0.000003 -0.001983 -0.000001
# 4 0.000003 -0.000005 -0.000003 0.038728 -0.000003 0.000982
# 5 0.000682 0.000453 -0.001983 -0.000003 0.025591 -0.000001
# 6 0.000001 -0.000001 -0.000001 0.000982 -0.000001 0.022129
#
#
# Mechanical properties :
#
#
# Convention : Reuss Voigt Hill
#
# Bulk Modulus (GPa) = 57.13996 63.10427 60.12211
# Shear Modulus (GPa) = 33.82157 36.11578 34.96867
#
# Velocity S-wave (km/s) = 3.92829 4.05934 3.99435
# Velocity P-wave (km/s) = 6.82979 7.12482 6.97887
#
# Compressibility (1/GPa) = 0.01750089
#
# Stress axis : x y z
#
# Youngs Moduli (GPa) = 102.26479 60.92297 96.76428
#
# Poissons Ratio (x) = 0.21244 0.30966
# Poissons Ratio (y) = 0.35659 0.27346
# Poissons Ratio (z) = 0.32726 0.17217
#
# Static dielectric constant tensor:
#      x y z
#    x 3.159310 0.000040 0.650010 
#    y 0.000040 3.709130 -0.000060 
#    z 0.650010 -0.000060 3.327090 
# 
# 
# High freq. dielectric constant tensor:
#      x y z
#    x 1.872210 0.000000 -0.008080 
#    y 0.000000 1.851680 0.000000 
#    z -0.008080 0.000000 1.866560 
# 
# From -- ./inp_files/206998.got.cif
#   From: 2010.06.25/outbox.cif.g09.slc.cpg/sg15_104_cif.got.tgz:206998.got - 2010.06.28 07:06:18.
