data_PCOD8151695
_publ_section_title
;
Structure prediction by ZEFSAII (Michael W. Deem and Ramdas Pophale) SiO2 
 PCOD8151695
Probable space group: C 2/C
;
_chemical_formula_sum "Si O2"
_cell_formula_units_Z 56
_cell_length_a 9.251067
_cell_length_b 27.870046
_cell_length_c 12.124186
_cell_angle_alpha 90.000000
_cell_angle_beta 61.029114
_cell_angle_gamma 90.000000
_cell_volume 2734.787667
_symmetry_space_group_name_H-M "C 2/C"
_symmetry_group_IT_number 15
_symmetry_cell_setting 'monoclinic'
loop_
_space_group_symop_operation_xyz
x,y,z
-x,y,1/2-z
-x,-y,-z
x,-y,1/2+z
1/2+x,1/2+y,z
1/2-x,1/2+y,1/2-z
1/2-x,1/2-y,-z
1/2+x,1/2-y,1/2+z
loop_
_atom_site_type_symbol
_atom_site_label
_atom_site_fract_x
_atom_site_fract_y
_atom_site_fract_z
Si Si1 0.744944 0.089850 0.575384
Si Si2 0.689501 0.013835 0.419961
Si Si3 0.554892 0.246031 0.603199
Si Si4 0.534134 0.649112 0.366988
Si Si5 0.015257 0.354561 0.455812
Si Si6 0.685318 0.415486 0.198643
Si Si7 0.144398 0.401680 0.780438
O O1 0.749873 0.039763 0.508434
O O2 0.577039 0.119091 0.611867
O O3 0.757886 0.076790 0.697633
O O4 0.896381 0.123276 0.488337
O O5 0.713102 0.049109 0.307207
O O6 0.500000 0.000000 0.500000
O O7 0.798906 0.966474 0.368060
O O8 0.500000 0.236583 0.750000
O O9 0.750000 0.250000 0.500000
O O10 0.466996 0.295111 0.598331
O O11 0.478642 0.202472 0.561703
O O12 0.500000 0.642332 0.250000
O O13 0.708218 0.625636 0.336745
O O14 0.199587 0.375169 0.399120
O O15 0.916359 0.365371 0.603389
O O16 0.500000 0.396866 0.250000
O O17 0.000000 0.414943 0.750000
#
# Coordination Sequence:
#
# PCOD8151695 Si02
#       7
#     8   8   8   8   8   8   8
#     4  11  23  42  68  90 133 167 218 277 329 379
#     4  11  24  41  66  94 125 175 229 267 332 395
#     4  11  21  38  72 105 129 167 232 286 341 400
#     4  11  21  42  67 100 125 167 222 279 326 396
#     4  11  22  44  65  97 130 172 219 275 332 394
#     4  12  28  41  62  98 136 173 219 264 334 404
#     4  11  25  42  66  91 136 173 217 274 337 397
#
# _framework density 20.476911000000001
#
# number of rings (size 3 to 8) (size 9 to 14) (size 15 to 20)
#    0.000    0.857    7.143    2.143    6.000    0.571 
#    0.000    1.429    0.000    0.000    0.000    0.000 
#    0.000    0.000    0.000    0.000    0.000    0.000 
#
# Total GULP energy -347252.110348 kJ/mol
# GULP energy per Si atom -12401.861084 kJ/mol
# Density = 2.043030 g / cm^3
# Si number density = 20.476911 Si / 1000 Ang^3
#
#
#
# Elastic Constant Matrix: (Units=GPa)
#
#
# Indices 1 2 3 4 5 6 
#
# 1 80.0663 19.9971 7.0493 0.0000 -22.8578 0.0000
# 2 19.9971 135.0008 23.0724 0.0000 -23.0680 0.0000
# 3 7.0493 23.0724 54.5998 0.0000 -16.0301 0.0000
# 4 0.0000 0.0000 0.0000 30.8923 0.0000 -5.9860
# 5 -22.8578 -23.0680 -16.0301 0.0000 41.5520 0.0000
# 6 0.0000 0.0000 0.0000 -5.9860 0.0000 23.0651
#
#
#
# Elastic Compliance Matrix: (Units=1/GPa)
#
#
# Indices 1 2 3 4 5 6 
#
# 1 0.014946 -0.000991 0.000836 0.000000 0.007994 0.000000
# 2 -0.000991 0.008537 -0.002535 0.000000 0.003216 0.000000
# 3 0.000836 -0.002535 0.021427 0.000000 0.007319 0.000000
# 4 0.000000 0.000000 0.000000 0.034085 0.000000 0.008846
# 5 0.007994 0.003216 0.007319 0.000000 0.033073 0.000000
# 6 0.000000 0.000000 0.000000 0.008846 0.000000 0.045651
#
#
# Mechanical properties :
#
#
# Convention : Reuss Voigt Hill
#
# Bulk Modulus (GPa) = 25.29727 41.10050 33.19888
# Shear Modulus (GPa) = 28.36470 33.73840 31.05155
#
# Velocity S-wave (km/s) = 3.72587 4.06351 3.89835
# Velocity P-wave (km/s) = 5.55791 6.49086 6.04242
#
# Compressibility (1/GPa) = 0.03952996
#
# Stress axis : x y z
#
# Youngs Moduli (GPa) = 66.90883 117.13727 46.66960
#
# Poissons Ratio (x) = 0.11605 -0.03902
# Poissons Ratio (y) = 0.06629 0.11832
# Poissons Ratio (z) = -0.05594 0.29698
#
# Static dielectric constant tensor:
#      x y z
#    x 3.605150 0.000000 -0.089990 
#    y 0.000000 4.101670 0.000000 
#    z -0.089990 0.000000 3.889530 
# 
# 
# High freq. dielectric constant tensor:
#      x y z
#    x 1.781910 0.000000 -0.017640 
#    y 0.000000 1.807570 0.000000 
#    z -0.017640 0.000000 1.809720 
# 
# From -- ./inp_files/81280.got.cif
#   From: 2010.06.25/outbox.cif.g09.slc.cpg/sg15_41_cif.got.tgz:81280.got - 2010.06.28 07:06:18.
