data_PCOD8151588
_publ_section_title
;
Structure prediction by ZEFSAII (Michael W. Deem and Ramdas Pophale) SiO2 
 PCOD8151588
Probable space group: C 2/C
;
_chemical_formula_sum "Si O2"
_cell_formula_units_Z 64
_cell_length_a 19.673801
_cell_length_b 16.639068
_cell_length_c 10.049522
_cell_angle_alpha 90.000000
_cell_angle_beta 90.139514
_cell_angle_gamma 90.000000
_cell_volume 3289.738584
_symmetry_space_group_name_H-M "C 2/C"
_symmetry_group_IT_number 15
_symmetry_cell_setting 'monoclinic'
loop_
_space_group_symop_operation_xyz
x,y,z
-x,y,1/2-z
-x,-y,-z
x,-y,1/2+z
1/2+x,1/2+y,z
1/2-x,1/2+y,1/2-z
1/2-x,1/2-y,-z
1/2+x,1/2-y,1/2+z
loop_
_atom_site_type_symbol
_atom_site_label
_atom_site_fract_x
_atom_site_fract_y
_atom_site_fract_z
Si Si1 0.254194 0.362640 0.895304
Si Si2 0.835725 0.302364 0.387704
Si Si3 0.193587 0.327834 0.630599
Si Si4 0.257823 0.847512 0.146213
Si Si5 0.613694 0.556266 0.020834
Si Si6 0.879433 0.079857 0.782504
Si Si7 0.469480 0.288293 0.896102
Si Si8 0.944090 0.247433 0.852078
O O1 0.293384 0.279005 0.895152
O O2 0.223832 0.381796 0.749782
O O3 0.307527 0.430042 0.940039
O O4 0.189588 0.359598 0.993413
O O5 0.820644 0.346836 0.248725
O O6 0.915599 0.284768 0.400195
O O7 0.225920 0.240088 0.633145
O O8 0.213034 0.374872 0.496120
O O9 0.112698 0.316572 0.641461
O O10 0.201070 0.909418 0.196587
O O11 0.589719 0.477564 0.102370
O O12 0.566174 0.629195 0.063614
O O13 0.607304 0.541159 0.862716
O O14 0.916392 0.165065 0.788868
O O15 0.500000 0.297600 0.750000
O O16 0.529160 0.267842 0.999091
O O17 0.000000 0.280535 0.750000
#
# Coordination Sequence:
#
# PCOD8151588 Si02
#       8
#     8   8   8   8   8   8   8   8
#     4   9  17  31  54  74  95 127 171 217 271 310
#     4   9  16  31  53  72  98 130 167 215 271 307
#     4   9  18  29  53  77  99 131 165 218 270 313
#     4   9  17  33  51  75 100 127 170 221 275 302
#     4  11  24  38  52  74 105 144 184 218 254 301
#     4  11  24  37  54  72 106 146 182 220 252 301
#     4  11  23  35  53  78 108 144 179 213 249 311
#     4  11  21  37  52  76 113 147 179 209 252 305
#
# _framework density 19.454433000000002
#
# number of rings (size 3 to 8) (size 9 to 14) (size 15 to 20)
#    0.000    2.000    2.500    1.500    7.000    3.000 
#    0.000    0.000    0.000    0.000    0.000    0.000 
#    0.000   20.000    0.000    0.000    0.000    0.000 
#
# Total GULP energy -396779.798251 kJ/mol
# GULP energy per Si atom -12399.368695 kJ/mol
# Density = 1.941015 g / cm^3
# Si number density = 19.454433 Si / 1000 Ang^3
#
#
#
# Elastic Constant Matrix: (Units=GPa)
#
#
# Indices 1 2 3 4 5 6 
#
# 1 84.0903 4.1285 32.9112 0.0000 -4.3570 0.0000
# 2 4.1285 3.6742 4.0682 0.0000 -1.4654 0.0000
# 3 32.9112 4.0682 158.3273 0.0000 -8.1988 0.0000
# 4 0.0000 0.0000 0.0000 22.4413 0.0000 4.1885
# 5 -4.3570 -1.4654 -8.1988 0.0000 37.5712 0.0000
# 6 0.0000 0.0000 0.0000 4.1885 0.0000 10.1051
#
#
#
# Elastic Compliance Matrix: (Units=1/GPa)
#
#
# Indices 1 2 3 4 5 6 
#
# 1 0.013483 -0.012206 -0.002460 0.000000 0.000551 0.000000
# 2 -0.012206 0.294551 -0.004561 0.000000 0.009078 0.000000
# 3 -0.002460 -0.004561 0.007000 0.000000 0.001064 0.000000
# 4 0.000000 0.000000 0.000000 0.048297 0.000000 -0.020019
# 5 0.000551 0.009078 0.001064 0.000000 0.027266 0.000000
# 6 0.000000 0.000000 0.000000 -0.020019 0.000000 0.107257
#
#
# Mechanical properties :
#
#
# Convention : Reuss Voigt Hill
#
# Bulk Modulus (GPa) = 3.61561 36.47862 20.04711
# Shear Modulus (GPa) = 7.95543 27.68914 17.82228
#
# Velocity S-wave (km/s) = 2.02439 3.77673 3.03000
# Velocity P-wave (km/s) = 2.70679 6.14897 4.75061
#
# Compressibility (1/GPa) = 0.27657884
#
# Stress axis : x y z
#
# Youngs Moduli (GPa) = 74.16893 3.39500 142.86130
#
# Poissons Ratio (x) = 0.04144 0.35151
# Poissons Ratio (y) = 0.90529 0.65161
# Poissons Ratio (z) = 0.18249 0.01549
#
# Static dielectric constant tensor:
#      x y z
#    x 3.658100 0.000000 0.003770 
#    y 0.000000 3.064240 0.000000 
#    z 0.003770 0.000000 3.840490 
# 
# 
# High freq. dielectric constant tensor:
#      x y z
#    x 1.753240 0.000000 -0.000350 
#    y 0.000000 1.696870 0.000000 
#    z -0.000350 0.000000 1.781790 
# 
# From -- ./inp_files/50244.got.cif
#   From: 2010.06.25/outbox.cif.g09.slc.cpg/sg15_26_cif.got.tgz:50244.got - 2010.06.28 07:06:18.
