data_PCOD8151323
_publ_section_title
;
Structure prediction by ZEFSAII (Michael W. Deem and Ramdas Pophale) SiO2 
 PCOD8151323
Probable space group: C 2/C
;
_chemical_formula_sum "Si O2"
_cell_formula_units_Z 48
_cell_length_a 9.089666
_cell_length_b 19.581673
_cell_length_c 15.597401
_cell_angle_alpha 90.000000
_cell_angle_beta 119.899243
_cell_angle_gamma 90.000000
_cell_volume 2406.692645
_symmetry_space_group_name_H-M "C 2/C"
_symmetry_group_IT_number 15
_symmetry_cell_setting 'monoclinic'
loop_
_space_group_symop_operation_xyz
x,y,z
-x,y,1/2-z
-x,-y,-z
x,-y,1/2+z
1/2+x,1/2+y,z
1/2-x,1/2+y,1/2-z
1/2-x,1/2-y,-z
1/2+x,1/2-y,1/2+z
loop_
_atom_site_type_symbol
_atom_site_label
_atom_site_fract_x
_atom_site_fract_y
_atom_site_fract_z
Si Si1 0.303630 0.932400 0.685261
Si Si2 0.941045 0.715284 0.988199
Si Si3 0.888154 0.059782 0.798706
Si Si4 0.615580 0.169904 0.702512
Si Si5 0.360456 0.203174 0.283146
Si Si6 0.146191 0.857782 0.487359
O O1 0.500000 0.955581 0.750000
O O2 0.267456 0.867930 0.736261
O O3 0.261272 0.910021 0.575434
O O4 0.177741 0.992058 0.674733
O O5 0.930054 0.797502 0.974718
O O6 0.059047 0.693361 0.100269
O O7 0.003471 0.683695 0.915558
O O8 0.754276 0.682220 0.946910
O O9 0.730262 0.103761 0.719600
O O10 0.000000 0.038141 0.750000
O O11 0.993575 0.102516 0.898500
O O12 0.500000 0.155212 0.750000
O O13 0.729492 0.236019 0.750601
O O14 0.500000 0.218286 0.250000
#
# Coordination Sequence:
#
# PCOD8151323 Si02
#       6
#     8   8   8   8   8   8
#     4  11  23  42  65  97 133 173 212 270 322 388
#     4  11  20  38  72 102 121 165 220 271 325 388
#     4  12  25  43  64  93 132 180 221 262 324 393
#     4  12  25  41  64  97 137 170 216 275 323 383
#     4  11  20  41  70  97 128 168 215 270 326 391
#     4  11  20  39  72  98 125 164 225 267 324 394
#
# _framework density 19.944382000000001
#
# number of rings (size 3 to 8) (size 9 to 14) (size 15 to 20)
#    0.000    0.667    8.333    2.500    0.000    1.333 
#    0.000    5.000    0.000    0.000    0.000    0.000 
#    0.000    0.000    0.000    0.000    0.000    0.000 
#
# Total GULP energy -297596.072862 kJ/mol
# GULP energy per Si atom -12399.836369 kJ/mol
# Density = 1.989899 g / cm^3
# Si number density = 19.944382 Si / 1000 Ang^3
#
#
#
# Elastic Constant Matrix: (Units=GPa)
#
#
# Indices 1 2 3 4 5 6 
#
# 1 65.1974 37.7651 25.4641 0.0000 -9.4333 0.0000
# 2 37.7651 110.0036 19.5628 0.0000 1.2917 0.0000
# 3 25.4641 19.5628 130.2577 0.0000 -7.9460 0.0000
# 4 0.0000 0.0000 0.0000 23.8862 0.0000 -0.0220
# 5 -9.4333 1.2917 -7.9460 0.0000 25.5641 0.0000
# 6 0.0000 0.0000 0.0000 -0.0220 0.0000 25.1490
#
#
#
# Elastic Compliance Matrix: (Units=1/GPa)
#
#
# Indices 1 2 3 4 5 6 
#
# 1 0.021525 -0.006997 -0.002702 0.000000 0.007456 0.000000
# 2 -0.006997 0.011636 -0.000584 0.000000 -0.003351 0.000000
# 3 -0.002702 -0.000584 0.008393 0.000000 0.001641 0.000000
# 4 0.000000 0.000000 0.000000 0.041865 0.000000 0.000037
# 5 0.007456 -0.003351 0.001641 0.000000 0.042548 0.000000
# 6 0.000000 0.000000 0.000000 0.000037 0.000000 0.039763
#
#
# Mechanical properties :
#
#
# Convention : Reuss Voigt Hill
#
# Bulk Modulus (GPa) = 47.64670 52.33809 49.99239
# Shear Modulus (GPa) = 25.86742 29.76429 27.81586
#
# Velocity S-wave (km/s) = 3.60526 3.86730 3.73858
# Velocity P-wave (km/s) = 6.42435 6.80003 6.61485
#
# Compressibility (1/GPa) = 0.02098781
#
# Stress axis : x y z
#
# Youngs Moduli (GPa) = 46.45729 85.94093 119.14393
#
# Poissons Ratio (x) = 0.60131 0.32196
# Poissons Ratio (y) = 0.32505 0.06960
# Poissons Ratio (z) = 0.12554 0.05021
#
# Static dielectric constant tensor:
#      x y z
#    x 3.387690 0.000000 0.049430 
#    y 0.000000 3.719570 0.000000 
#    z 0.049430 0.000000 3.836910 
# 
# 
# High freq. dielectric constant tensor:
#      x y z
#    x 1.746620 0.000000 0.005880 
#    y 0.000000 1.783050 0.000000 
#    z 0.005880 0.000000 1.796710 
# 
# From -- ./inp_files/136198.got.cif
#   From: 2010.06.25/outbox.cif.g09.slc.cpg/sg15_69_cif.got.tgz:136198.got - 2010.06.28 07:06:18.
