data_PCOD8151146
_publ_section_title
;
Structure prediction by ZEFSAII (Michael W. Deem and Ramdas Pophale) SiO2 
 PCOD8151146
Probable space group: C 2/C
;
_chemical_formula_sum "Si O2"
_cell_formula_units_Z 48
_cell_length_a 20.740410
_cell_length_b 33.907652
_cell_length_c 5.145311
_cell_angle_alpha 90.000000
_cell_angle_beta 109.294805
_cell_angle_gamma 90.000000
_cell_volume 3415.237287
_symmetry_space_group_name_H-M "C 2/C"
_symmetry_group_IT_number 15
_symmetry_cell_setting 'monoclinic'
loop_
_space_group_symop_operation_xyz
x,y,z
-x,y,1/2-z
-x,-y,-z
x,-y,1/2+z
1/2+x,1/2+y,z
1/2-x,1/2+y,1/2-z
1/2-x,1/2-y,-z
1/2+x,1/2-y,1/2+z
loop_
_atom_site_type_symbol
_atom_site_label
_atom_site_fract_x
_atom_site_fract_y
_atom_site_fract_z
Si Si1 0.321265 0.779712 0.810704
Si Si2 0.123191 0.844833 0.006689
Si Si3 0.044408 0.233677 0.549231
Si Si4 0.421377 0.389139 0.072756
Si Si5 0.919783 0.020656 0.608403
Si Si6 0.259213 0.800469 0.228049
O O1 0.396674 0.765856 0.831038
O O2 0.295147 0.809726 0.551682
O O3 0.271170 0.742919 0.778237
O O4 0.317307 0.802315 0.081199
O O5 0.095261 0.864747 0.708166
O O6 0.075025 0.808544 0.017050
O O7 0.123901 0.875016 0.246279
O O8 0.200911 0.831364 0.070360
O O9 0.000000 0.229683 0.750000
O O10 0.000000 0.249085 0.250000
O O11 0.500000 0.383114 0.250000
O O12 0.403003 0.434710 0.005558
O O13 0.000000 0.013917 0.750000
O O14 0.887796 0.992598 0.341548
#
# Coordination Sequence:
#
# PCOD8151146 Si02
#       6
#     8   8   8   8   8   8
#     4   9  17  29  42  54  70  96 127 154 184 227
#     4  11  20  29  41  58  79  99 122 157 203 244
#     4  11  20  29  41  58  79  99 122 157 203 244
#     4  11  20  29  41  58  79  99 122 157 203 244
#     4   9  17  29  42  54  70  96 127 154 184 227
#     4   9  17  29  42  54  70  96 127 154 184 227
#
# _framework density 14.054660999999999
#
# number of rings (size 3 to 8) (size 9 to 14) (size 15 to 20)
#    0.000    2.000    0.000    6.000    0.000    8.000 
#    0.000    0.000    0.000    0.000    0.000    0.000 
#    0.000    0.000    0.000    0.000    0.000    0.000 
#
# Total GULP energy -297499.099277 kJ/mol
# GULP energy per Si atom -12395.795803 kJ/mol
# Density = 1.402267 g / cm^3
# Si number density = 14.054661 Si / 1000 Ang^3
#
#
#
# Elastic Constant Matrix: (Units=GPa)
#
#
# Indices 1 2 3 4 5 6 
#
# 1 56.4271 32.9617 47.0555 0.0000 -5.4410 0.0000
# 2 32.9617 54.8839 41.4436 0.0000 -2.0056 0.0000
# 3 47.0555 41.4436 117.9921 0.0000 -19.1060 0.0000
# 4 0.0000 0.0000 0.0000 10.6882 0.0000 -0.7249
# 5 -5.4410 -2.0056 -19.1060 0.0000 18.7474 0.0000
# 6 0.0000 0.0000 0.0000 -0.7249 0.0000 11.4281
#
#
#
# Elastic Compliance Matrix: (Units=1/GPa)
#
#
# Indices 1 2 3 4 5 6 
#
# 1 0.032300 -0.013098 -0.008371 0.000000 -0.000558 0.000000
# 2 -0.013098 0.031009 -0.006883 0.000000 -0.007498 0.000000
# 3 -0.008371 -0.006883 0.016430 0.000000 0.013578 0.000000
# 4 0.000000 0.000000 0.000000 0.093965 0.000000 0.005961
# 5 -0.000558 -0.007498 0.013578 0.000000 0.066214 0.000000
# 6 0.000000 0.000000 0.000000 0.005961 0.000000 0.087881
#
#
# Mechanical properties :
#
#
# Convention : Reuss Voigt Hill
#
# Bulk Modulus (GPa) = 43.40978 52.46940 47.93959
# Shear Modulus (GPa) = 12.74918 15.36224 14.05571
#
# Velocity S-wave (km/s) = 3.01510 3.30969 3.16583
# Velocity P-wave (km/s) = 6.56312 7.21241 6.89541
#
# Compressibility (1/GPa) = 0.02303628
#
# Stress axis : x y z
#
# Youngs Moduli (GPa) = 30.95971 32.24824 60.86523
#
# Poissons Ratio (x) = 0.42237 0.50952
# Poissons Ratio (y) = 0.40550 0.41891
# Poissons Ratio (z) = 0.25917 0.22195
#
# Static dielectric constant tensor:
#      x y z
#    x 2.620640 0.000000 -0.193400 
#    y 0.000000 2.537200 0.000000 
#    z -0.193400 0.000000 3.004630 
# 
# 
# High freq. dielectric constant tensor:
#      x y z
#    x 1.507620 0.000000 -0.025190 
#    y 0.000000 1.497200 0.000000 
#    z -0.025190 0.000000 1.557570 
# 
# From -- ./inp_files/11733.got.cif
#   From: 2010.06.25/outbox.cif.g09.slc.cpg/sg15_6_cif.got.tgz:11733.got - 2010.06.28 07:06:18.
