data_PCOD8151477
_publ_section_title
;
Structure prediction by ZEFSAII (Michael W. Deem and Ramdas Pophale) SiO2 
 PCOD8151477
Probable space group: C 2/C
;
_chemical_formula_sum "Si O2"
_cell_formula_units_Z 60
_cell_length_a 12.108817
_cell_length_b 17.169524
_cell_length_c 22.336824
_cell_angle_alpha 90.000000
_cell_angle_beta 40.193361
_cell_angle_gamma 90.000000
_cell_volume 2997.019820
_symmetry_space_group_name_H-M "C 2/C"
_symmetry_group_IT_number 15
_symmetry_cell_setting 'monoclinic'
loop_
_space_group_symop_operation_xyz
x,y,z
-x,y,1/2-z
-x,-y,-z
x,-y,1/2+z
1/2+x,1/2+y,z
1/2-x,1/2+y,1/2-z
1/2-x,1/2-y,-z
1/2+x,1/2-y,1/2+z
loop_
_atom_site_type_symbol
_atom_site_label
_atom_site_fract_x
_atom_site_fract_y
_atom_site_fract_z
Si Si1 0.474411 0.157436 0.479246
Si Si2 0.666927 0.415116 0.646393
Si Si3 0.812969 0.086512 0.821357
Si Si4 0.311253 0.554563 0.684872
Si Si5 0.009355 0.837448 0.473600
Si Si6 0.180119 0.588283 0.074160
Si Si7 0.103856 0.061809 0.044651
Si Si8 0.500000 0.990125 0.750000
O O1 0.651062 0.110353 0.403391
O O2 0.343910 0.135652 0.586691
O O3 0.531201 0.245655 0.465711
O O4 0.383675 0.141211 0.453981
O O5 0.500000 0.380627 0.750000
O O6 0.663467 0.508696 0.649402
O O7 0.653957 0.388970 0.582676
O O8 0.761884 0.066678 0.774402
O O9 0.000000 0.129588 0.750000
O O10 0.416269 0.630124 0.619817
O O11 0.417077 0.475197 0.631675
O O12 0.150656 0.547758 0.707284
O O13 0.106426 0.878365 0.488607
O O14 0.810519 0.859422 0.558298
O O15 0.028788 0.566438 0.181611
O O16 0.260351 0.506834 0.020116
#
# Coordination Sequence:
#
# PCOD8151477 Si02
#       8
#     8   8   8   8   8   8   8   4
#     4  12  26  42  65  98 134 176 211 263 341 401
#     4  11  23  42  67  93 125 166 224 275 311 381
#     4  11  21  41  68  98 122 164 222 277 316 378
#     4  11  21  40  65  92 127 163 217 272 318 378
#     4  11  24  45  59  94 137 174 202 266 347 393
#     4  11  22  40  68  92 125 167 224 269 313 389
#     4  11  20  43  69  86 126 172 216 268 321 378
#     4  12  22  36  68 102 114 160 232 272 308 382
#
# _framework density 20.019887000000001
#
# number of rings (size 3 to 8) (size 9 to 14) (size 15 to 20)
#    0.000    0.800    6.667    3.200    1.867    0.533 
#    7.200    0.000    0.000    0.000    0.000    0.000 
#    0.000    0.000    0.000    0.000    0.000    0.000 
#
# Total GULP energy -372001.686285 kJ/mol
# GULP energy per Si atom -12400.056209 kJ/mol
# Density = 1.997432 g / cm^3
# Si number density = 20.019887 Si / 1000 Ang^3
#
#
#
# Elastic Constant Matrix: (Units=GPa)
#
#
# Indices 1 2 3 4 5 6 
#
# 1 90.1388 18.1027 23.7244 -0.0005 13.6230 0.0005
# 2 18.1027 72.4289 23.8051 -0.0014 5.2036 0.0006
# 3 23.7244 23.8051 102.6631 -0.0005 6.7350 0.0004
# 4 -0.0005 -0.0014 -0.0005 15.7321 0.0007 2.4786
# 5 13.6230 5.2036 6.7350 0.0007 45.0101 -0.0005
# 6 0.0005 0.0006 0.0004 2.4786 -0.0005 22.3473
#
#
#
# Elastic Compliance Matrix: (Units=1/GPa)
#
#
# Indices 1 2 3 4 5 6 
#
# 1 0.012600 -0.002197 -0.002190 0.000000 -0.003232 0.000000
# 2 -0.002197 0.015396 -0.003019 0.000001 -0.000663 0.000000
# 3 -0.002190 -0.003019 0.010988 0.000000 -0.000632 0.000000
# 4 0.000000 0.000001 0.000000 0.064695 -0.000001 -0.007175
# 5 -0.003232 -0.000663 -0.000632 -0.000001 0.023367 0.000001
# 6 0.000000 0.000000 0.000000 -0.007175 0.000001 0.045544
#
#
# Mechanical properties :
#
#
# Convention : Reuss Voigt Hill
#
# Bulk Modulus (GPa) = 41.37056 44.05503 42.71279
# Shear Modulus (GPa) = 25.58086 29.92448 27.75267
#
# Velocity S-wave (km/s) = 3.57847 3.87038 3.72728
# Velocity P-wave (km/s) = 6.14683 6.48279 6.31704
#
# Compressibility (1/GPa) = 0.02417178
#
# Stress axis : x y z
#
# Youngs Moduli (GPa) = 79.36384 64.95369 91.00698
#
# Poissons Ratio (x) = 0.14272 0.19933
# Poissons Ratio (y) = 0.17438 0.27471
# Poissons Ratio (z) = 0.17383 0.19607
#
# Static dielectric constant tensor:
#      x y z
#    x 3.776860 0.000000 -0.010030 
#    y 0.000000 3.283980 0.000000 
#    z -0.010030 0.000000 3.930140 
# 
# 
# High freq. dielectric constant tensor:
#      x y z
#    x 1.797100 0.000000 0.003310 
#    y 0.000000 1.741190 0.000000 
#    z 0.003310 0.000000 1.794550 
# 
# From -- ./inp_files/239954.got.cif
#   From: 2010.06.25/outbox.cif.g09.slc.cpg/sg15_120_cif.got.tgz:239954.got - 2010.06.28 07:06:18.
