data_PCOD8151054
_publ_section_title
;
Structure prediction by ZEFSAII (Michael W. Deem and Ramdas Pophale) SiO2 
 PCOD8151054
Probable space group: C 2/C
;
_chemical_formula_sum "Si O2"
_cell_formula_units_Z 60
_cell_length_a 24.193481
_cell_length_b 18.356802
_cell_length_c 12.452898
_cell_angle_alpha 90.000000
_cell_angle_beta 150.488586
_cell_angle_gamma 90.000000
_cell_volume 2724.316245
_symmetry_space_group_name_H-M "C 2/C"
_symmetry_group_IT_number 15
_symmetry_cell_setting 'monoclinic'
loop_
_space_group_symop_operation_xyz
x,y,z
-x,y,1/2-z
-x,-y,-z
x,-y,1/2+z
1/2+x,1/2+y,z
1/2-x,1/2+y,1/2-z
1/2-x,1/2-y,-z
1/2+x,1/2-y,1/2+z
loop_
_atom_site_type_symbol
_atom_site_label
_atom_site_fract_x
_atom_site_fract_y
_atom_site_fract_z
Si Si1 0.721289 0.779396 0.159517
Si Si2 0.701739 0.621640 0.096395
Si Si3 0.503366 0.407290 0.944829
Si Si4 0.246058 0.098687 0.942622
Si Si5 0.520889 0.748213 0.404600
Si Si6 0.178314 0.314193 0.327682
Si Si7 0.234945 0.063568 0.376617
Si Si8 0.500000 0.516303 0.750000
O O1 0.651929 0.703986 0.028289
O O2 0.688544 0.841315 0.018443
O O3 0.847422 0.751255 0.350652
O O4 0.703009 0.816715 0.243269
O O5 0.767921 0.597155 0.316269
O O6 0.780812 0.615990 0.124541
O O7 0.605053 0.565886 0.901758
O O8 0.468212 0.332650 0.826661
O O9 0.401131 0.435198 0.846055
O O10 0.532367 0.466861 0.905359
O O11 0.611666 0.392492 0.201304
O O12 0.283189 0.017943 0.969034
O O13 0.500000 0.777707 0.250000
O O14 0.453935 0.800291 0.374162
O O15 0.250000 0.250000 0.500000
O O16 0.212484 0.390969 0.436989
#
# Coordination Sequence:
#
# PCOD8151054 Si02
#       8
#     8   8   8   8   8   8   8   4
#     4  11  25  43  61  93 131 173 212 263 327 383
#     4  12  23  39  58  91 129 168 214 248 321 401
#     4  11  20  35  57  99 132 159 196 254 342 382
#     4  11  25  37  60  87 128 171 203 261 324 389
#     4  11  19  35  64  93 129 164 204 264 314 380
#     4  12  22  38  64  99 125 164 219 272 316 372
#     4  12  22  37  59  94 127 162 213 264 321 386
#     4  12  22  34  64  98 134 162 202 270 324 406
#
# _framework density 22.023875
#
# number of rings (size 3 to 8) (size 9 to 14) (size 15 to 20)
#    0.000    0.533    7.333    1.600    3.733    1.067 
#    0.000    0.000    0.000    0.800    8.667    0.000 
#    0.000    0.000    0.000    0.000    0.000    0.000 
#
# Total GULP energy -372019.773566 kJ/mol
# GULP energy per Si atom -12400.659119 kJ/mol
# Density = 2.197375 g / cm^3
# Si number density = 22.023875 Si / 1000 Ang^3
#
#
#
# Elastic Constant Matrix: (Units=GPa)
#
#
# Indices 1 2 3 4 5 6 
#
# 1 131.6342 42.1826 35.6947 0.0000 -40.7541 0.0000
# 2 42.1826 147.3605 18.8276 0.0000 -29.7830 0.0000
# 3 35.6947 18.8276 33.9050 0.0000 -19.6598 0.0000
# 4 0.0000 0.0000 0.0000 13.3325 0.0000 -10.8723
# 5 -40.7541 -29.7830 -19.6598 0.0000 46.5239 0.0000
# 6 0.0000 0.0000 0.0000 -10.8723 0.0000 39.4134
#
#
#
# Elastic Compliance Matrix: (Units=1/GPa)
#
#
# Indices 1 2 3 4 5 6 
#
# 1 0.012263 -0.001121 -0.008577 0.000000 0.006401 0.000000
# 2 -0.001121 0.007991 -0.001140 0.000000 0.003652 0.000000
# 3 -0.008577 -0.001140 0.045534 0.000000 0.010999 0.000000
# 4 0.000000 0.000000 0.000000 0.096774 0.000000 0.026695
# 5 0.006401 0.003652 0.010999 0.000000 0.034087 0.000000
# 6 0.000000 0.000000 0.000000 0.026695 0.000000 0.032736
#
#
# Mechanical properties :
#
#
# Convention : Reuss Voigt Hill
#
# Bulk Modulus (GPa) = 22.66881 56.25662 39.46271
# Shear Modulus (GPa) = 18.81365 34.26693 26.54029
#
# Velocity S-wave (km/s) = 2.92591 3.94877 3.47518
# Velocity P-wave (km/s) = 4.66152 6.81097 5.83605
#
# Compressibility (1/GPa) = 0.04411347
#
# Stress axis : x y z
#
# Youngs Moduli (GPa) = 81.54345 125.14644 21.96143
#
# Poissons Ratio (x) = 0.14029 0.18836
# Poissons Ratio (y) = 0.09141 0.02503
# Poissons Ratio (z) = 0.69939 0.14261
#
# Static dielectric constant tensor:
#      x y z
#    x 4.168720 0.000000 -0.256230 
#    y 0.000000 4.252980 0.000000 
#    z -0.256230 0.000000 3.612620 
# 
# 
# High freq. dielectric constant tensor:
#      x y z
#    x 1.866070 0.000000 -0.032730 
#    y 0.000000 1.880280 0.000000 
#    z -0.032730 0.000000 1.826700 
# 
# From -- ./inp_files/124016.got.cif
#   From: 2010.06.25/outbox.cif.g09.slc.cpg/sg15_63_cif.got.tgz:124016.got - 2010.06.28 07:06:18.
