data_PCOD8151284
_publ_section_title
;
Structure prediction by ZEFSAII (Michael W. Deem and Ramdas Pophale) SiO2 
 PCOD8151284
Probable space group: C 2/C
;
_chemical_formula_sum "Si O2"
_cell_formula_units_Z 64
_cell_length_a 21.439571
_cell_length_b 11.375141
_cell_length_c 29.873349
_cell_angle_alpha 90.000000
_cell_angle_beta 27.239394
_cell_angle_gamma 90.000000
_cell_volume 3334.621673
_symmetry_space_group_name_H-M "C 2/C"
_symmetry_group_IT_number 15
_symmetry_cell_setting 'monoclinic'
loop_
_space_group_symop_operation_xyz
x,y,z
-x,y,1/2-z
-x,-y,-z
x,-y,1/2+z
1/2+x,1/2+y,z
1/2-x,1/2+y,1/2-z
1/2-x,1/2-y,-z
1/2+x,1/2-y,1/2+z
loop_
_atom_site_type_symbol
_atom_site_label
_atom_site_fract_x
_atom_site_fract_y
_atom_site_fract_z
Si Si1 0.120302 0.178725 0.343209
Si Si2 0.567169 0.155642 0.486207
Si Si3 0.972270 0.946621 0.451470
Si Si4 0.239723 0.442166 0.667501
Si Si5 0.633881 0.097905 0.963734
Si Si6 0.905447 0.767175 0.268770
Si Si7 0.884748 0.762456 0.442825
Si Si8 0.772333 0.815212 0.173245
O O1 0.236114 0.139853 0.304515
O O2 0.189476 0.216493 0.252871
O O3 0.041201 0.294229 0.409817
O O4 0.017320 0.070129 0.401080
O O5 0.493522 0.129129 0.486188
O O6 0.680558 0.253493 0.402766
O O7 0.641643 0.043401 0.460719
O O8 0.888179 0.966014 0.550901
O O9 0.873175 0.879626 0.480175
O O10 0.101872 0.863615 0.377646
O O11 0.140061 0.370057 0.698372
O O12 0.180108 0.570434 0.718793
O O13 0.773684 0.148754 0.853744
O O14 0.603784 0.148407 0.032404
O O15 0.000000 0.799929 0.250000
O O16 0.984580 0.780601 0.171845
O O17 0.750000 0.750000 0.500000
#
# Coordination Sequence:
#
# PCOD8151284 Si02
#       8
#     8   8   8   8   8   8   8   8
#     4  11  21  34  57  88 119 156 191 238 302 364
#     4  11  22  38  57  88 134 149 188 253 306 369
#     4  11  20  38  59  82 119 154 197 244 297 354
#     4  11  20  38  59  82 119 154 198 248 296 352
#     4  11  24  37  58  91 121 158 195 246 311 349
#     4  12  23  40  61  87 116 155 206 251 294 354
#     4  12  23  40  61  87 116 154 206 249 290 356
#     4  11  21  34  57  88 119 156 189 238 306 367
#
# _framework density 19.192582999999999
#
# number of rings (size 3 to 8) (size 9 to 14) (size 15 to 20)
#    0.000    0.750    7.500    1.500    3.500    2.000 
#    0.000    0.000    0.000    3.000    0.000    0.000 
#    0.000    0.000    0.000    0.000    0.000    0.000 
#
# Total GULP energy -396773.686214 kJ/mol
# GULP energy per Si atom -12399.177694 kJ/mol
# Density = 1.914890 g / cm^3
# Si number density = 19.192583 Si / 1000 Ang^3
#
#
#
# Elastic Constant Matrix: (Units=GPa)
#
#
# Indices 1 2 3 4 5 6 
#
# 1 57.7892 25.2514 -1.3496 -0.0032 2.5177 0.0005
# 2 25.2514 123.2001 12.3986 -0.0039 0.9946 0.0008
# 3 -1.3496 12.3986 65.3430 -0.0002 17.3206 0.0007
# 4 -0.0032 -0.0039 -0.0002 36.7625 0.0013 4.3044
# 5 2.5177 0.9946 17.3206 0.0013 21.0804 -0.0006
# 6 0.0005 0.0008 0.0007 4.3044 -0.0006 22.6591
#
#
#
# Elastic Compliance Matrix: (Units=1/GPa)
#
#
# Indices 1 2 3 4 5 6 
#
# 1 0.019346 -0.004158 0.002236 0.000001 -0.003952 -0.000001
# 2 -0.004158 0.009191 -0.002361 0.000001 0.002003 0.000000
# 3 0.002236 -0.002361 0.020249 0.000001 -0.016794 -0.000001
# 4 0.000001 0.000001 0.000001 0.027820 -0.000003 -0.005285
# 5 -0.003952 0.002003 -0.016794 -0.000003 0.061613 0.000003
# 6 -0.000001 0.000000 -0.000001 -0.005285 0.000003 0.045136
#
#
# Mechanical properties :
#
#
# Convention : Reuss Voigt Hill
#
# Bulk Modulus (GPa) = 24.86322 35.43701 30.15011
# Shear Modulus (GPa) = 24.35128 30.10253 27.22691
#
# Velocity S-wave (km/s) = 3.56587 3.96466 3.77054
# Velocity P-wave (km/s) = 5.47143 6.28188 5.89061
#
# Compressibility (1/GPa) = 0.04022006
#
# Stress axis : x y z
#
# Youngs Moduli (GPa) = 51.69126 108.80726 49.38398
#
# Poissons Ratio (x) = 0.45245 -0.11042
# Poissons Ratio (y) = 0.21495 0.11658
# Poissons Ratio (z) = -0.11558 0.25685
#
# Static dielectric constant tensor:
#      x y z
#    x 3.208500 0.000000 0.109270 
#    y 0.000000 3.765030 0.000010 
#    z 0.109270 0.000010 3.557930 
# 
# 
# High freq. dielectric constant tensor:
#      x y z
#    x 1.706070 0.000000 0.014380 
#    y 0.000000 1.755710 0.000000 
#    z 0.014380 0.000000 1.754580 
# 
# From -- ./inp_files/252557.got.cif
#   From: 2010.06.25/outbox.cif.g09.slc.cpg/sg15_127_cif.got.tgz:252557.got - 2010.06.28 07:06:18.
