data_PCOD8151677
_publ_section_title
;
Structure prediction by ZEFSAII (Michael W. Deem and Ramdas Pophale) SiO2 
 PCOD8151677
Probable space group: C 2/C
;
_chemical_formula_sum "Si O2"
_cell_formula_units_Z 56
_cell_length_a 12.200249
_cell_length_b 20.014020
_cell_length_c 11.220035
_cell_angle_alpha 90.000000
_cell_angle_beta 84.987824
_cell_angle_gamma 90.000000
_cell_volume 2729.187523
_symmetry_space_group_name_H-M "C 2/C"
_symmetry_group_IT_number 15
_symmetry_cell_setting 'monoclinic'
loop_
_space_group_symop_operation_xyz
x,y,z
-x,y,1/2-z
-x,-y,-z
x,-y,1/2+z
1/2+x,1/2+y,z
1/2-x,1/2+y,1/2-z
1/2-x,1/2-y,-z
1/2+x,1/2-y,1/2+z
loop_
_atom_site_type_symbol
_atom_site_label
_atom_site_fract_x
_atom_site_fract_y
_atom_site_fract_z
Si Si1 0.864149 0.216659 0.663035
Si Si2 0.638836 0.165653 0.642205
Si Si3 0.615005 0.036470 0.512342
Si Si4 0.619048 0.870273 0.792819
Si Si5 0.101028 0.816959 0.074382
Si Si6 0.084086 0.695785 0.916567
Si Si7 0.722138 0.096560 0.046034
O O1 0.760900 0.190466 0.594979
O O2 0.881244 0.295896 0.653706
O O3 0.844705 0.198609 0.803418
O O4 0.969799 0.177223 0.600992
O O5 0.617375 0.086176 0.626877
O O6 0.622419 0.188262 0.778563
O O7 0.548997 0.202446 0.566872
O O8 0.649443 0.079157 0.394634
O O9 0.500000 0.000000 0.500000
O O10 0.709586 0.982587 0.531021
O O11 0.500000 0.887557 0.750000
O O12 0.712719 0.881045 0.684497
O O13 0.135334 0.759704 0.976860
O O14 0.157965 0.883745 0.017649
O O15 0.120955 0.630520 0.985007
#
# Coordination Sequence:
#
# PCOD8151677 Si02
#       7
#     8   8   8   8   8   8   8
#     4  11  22  41  68  93 130 166 225 270 324 377
#     4  11  24  39  64  97 130 166 209 279 324 378
#     4  12  26  40  61  95 136 170 205 262 330 395
#     4  12  22  39  65  96 127 167 210 266 320 386
#     4  11  22  40  64  96 124 176 218 265 319 393
#     4  11  21  38  65  97 128 159 215 271 335 371
#     4  12  23  39  63  92 131 168 217 254 322 399
#
# _framework density 20.518926
#
# number of rings (size 3 to 8) (size 9 to 14) (size 15 to 20)
#    0.000    0.571    7.143    2.143    2.000    2.286 
#    0.000    0.714    0.000    0.000    0.000    0.000 
#    0.000    0.000    0.000    0.143    0.000    0.000 
#
# Total GULP energy -347164.923968 kJ/mol
# GULP energy per Si atom -12398.747285 kJ/mol
# Density = 2.047222 g / cm^3
# Si number density = 20.518926 Si / 1000 Ang^3
#
#
#
# Elastic Constant Matrix: (Units=GPa)
#
#
# Indices 1 2 3 4 5 6 
#
# 1 134.1757 47.1693 37.1408 0.0000 0.0882 0.0000
# 2 47.1693 88.3179 26.7891 0.0000 -11.1474 0.0000
# 3 37.1408 26.7891 89.8861 0.0000 -21.1354 0.0000
# 4 0.0000 0.0000 0.0000 34.0665 0.0000 -0.7342
# 5 0.0882 -11.1474 -21.1354 0.0000 24.3182 0.0000
# 6 0.0000 0.0000 0.0000 -0.7342 0.0000 28.1305
#
#
#
# Elastic Compliance Matrix: (Units=1/GPa)
#
#
# Indices 1 2 3 4 5 6 
#
# 1 0.010389 -0.005030 -0.004204 0.000000 -0.005997 0.000000
# 2 -0.005030 0.015075 -0.000987 0.000000 0.006071 0.000000
# 3 -0.004204 -0.000987 0.016406 0.000000 0.013822 0.000000
# 4 0.000000 0.000000 0.000000 0.029371 0.000000 0.000767
# 5 -0.005997 0.006071 0.013822 0.000000 0.055939 0.000000
# 6 0.000000 0.000000 0.000000 0.000767 0.000000 0.035569
#
#
# Mechanical properties :
#
#
# Convention : Reuss Voigt Hill
#
# Bulk Modulus (GPa) = 46.66675 59.39757 53.03216
# Shear Modulus (GPa) = 26.26977 30.72174 28.49576
#
# Velocity S-wave (km/s) = 3.58197 3.87362 3.73064
# Velocity P-wave (km/s) = 6.31664 7.00122 6.66772
#
# Compressibility (1/GPa) = 0.02142853
#
# Stress axis : x y z
#
# Youngs Moduli (GPa) = 96.25688 66.33492 60.95264
#
# Poissons Ratio (x) = 0.33369 0.25622
# Poissons Ratio (y) = 0.48421 0.06015
# Poissons Ratio (z) = 0.40462 0.06546
#
# Static dielectric constant tensor:
#      x y z
#    x 3.789860 0.000000 0.017540 
#    y 0.000000 3.663110 0.000000 
#    z 0.017540 0.000000 3.906940 
# 
# 
# High freq. dielectric constant tensor:
#      x y z
#    x 1.792540 0.000000 -0.005000 
#    y 0.000000 1.781830 0.000000 
#    z -0.005000 0.000000 1.820410 
# 
# From -- ./inp_files/88956.got.cif
#   From: 2010.06.25/outbox.cif.g09.slc.cpg/sg15_45_cif.got.tgz:88956.got - 2010.06.28 07:06:18.
