data_PCOD8151745
_publ_section_title
;
Structure prediction by ZEFSAII (Michael W. Deem and Ramdas Pophale) SiO2 
 PCOD8151745
Probable space group: C 2/C
;
_chemical_formula_sum "Si O2"
_cell_formula_units_Z 48
_cell_length_a 22.890541
_cell_length_b 19.411768
_cell_length_c 14.635240
_cell_angle_alpha 90.000000
_cell_angle_beta 160.835923
_cell_angle_gamma 90.000000
_cell_volume 2134.804565
_symmetry_space_group_name_H-M "C 2/C"
_symmetry_group_IT_number 15
_symmetry_cell_setting 'monoclinic'
loop_
_space_group_symop_operation_xyz
x,y,z
-x,y,1/2-z
-x,-y,-z
x,-y,1/2+z
1/2+x,1/2+y,z
1/2-x,1/2+y,1/2-z
1/2-x,1/2-y,-z
1/2+x,1/2-y,1/2+z
loop_
_atom_site_type_symbol
_atom_site_label
_atom_site_fract_x
_atom_site_fract_y
_atom_site_fract_z
Si Si1 0.500000 0.398744 0.250000
Si Si2 0.000000 0.340261 0.250000
Si Si3 0.937996 0.987935 0.511262
Si Si4 0.217284 0.123781 0.467660
Si Si5 0.671004 0.191196 0.320284
Si Si6 0.831318 0.619469 0.841282
Si Si7 0.062228 0.233724 0.487161
O O1 0.547532 0.442033 0.410616
O O2 0.668816 0.351061 0.485329
O O3 0.141234 0.388465 0.405098
O O4 0.105500 0.292485 0.477360
O O5 0.738539 0.954644 0.223120
O O6 0.070538 0.934819 0.754812
O O7 0.000000 0.000000 0.500000
O O8 0.316955 0.121677 0.710732
O O9 0.124767 0.197856 0.315339
O O10 0.750000 0.250000 0.500000
O O11 0.549698 0.229931 0.066418
O O12 0.537242 0.136100 0.172077
O O13 0.717891 0.678475 0.722179
#
# Coordination Sequence:
#
# PCOD8151745 Si02
#       7
#     4   4   8   8   8   8   8
#     4  12  28  51  68  99 148 184 242 302 354 430
#     4  12  20  33  66 107 132 172 222 288 354 416
#     4  11  26  48  72  97 136 187 241 307 361 416
#     4  11  22  41  69 104 137 174 237 304 355 413
#     4  12  28  45  70 104 150 193 230 284 369 452
#     4  11  22  46  72 100 138 186 238 297 356 428
#     4  11  21  39  68 103 143 174 230 291 356 422
#
# _framework density 22.484493000000001
#
# number of rings (size 3 to 8) (size 9 to 14) (size 15 to 20)
#    0.000    0.667    5.000    3.500    7.000    0.667 
#    3.000    0.000    0.000    0.000    0.000    0.000 
#    0.000    0.000    0.000    0.000    0.000    0.000 
#
# Total GULP energy -297577.432704 kJ/mol
# GULP energy per Si atom -12399.059696 kJ/mol
# Density = 2.243332 g / cm^3
# Si number density = 22.484493 Si / 1000 Ang^3
#
#
#
# Elastic Constant Matrix: (Units=GPa)
#
#
# Indices 1 2 3 4 5 6 
#
# 1 130.3362 42.6399 35.9542 0.0000 6.4970 0.0000
# 2 42.6399 88.4736 34.3505 0.0000 -2.9308 0.0000
# 3 35.9542 34.3505 82.3649 0.0000 13.7009 0.0000
# 4 0.0000 0.0000 0.0000 8.7331 0.0000 2.9903
# 5 6.4970 -2.9308 13.7009 0.0000 44.2274 0.0000
# 6 0.0000 0.0000 0.0000 2.9903 0.0000 49.0046
#
#
#
# Elastic Compliance Matrix: (Units=1/GPa)
#
#
# Indices 1 2 3 4 5 6 
#
# 1 0.009616 -0.003688 -0.002514 0.000000 -0.000878 0.000000
# 2 -0.003688 0.015233 -0.005273 0.000000 0.003185 0.000000
# 3 -0.002514 -0.005273 0.016273 0.000000 -0.005021 0.000000
# 4 0.000000 0.000000 0.000000 0.116951 0.000000 -0.007137
# 5 -0.000878 0.003185 -0.005021 0.000000 0.024506 0.000000
# 6 0.000000 0.000000 0.000000 -0.007137 0.000000 0.020842
#
#
# Mechanical properties :
#
#
# Convention : Reuss Voigt Hill
#
# Bulk Modulus (GPa) = 55.02587 58.56267 56.79427
# Shear Modulus (GPa) = 21.51221 32.94169 27.22695
#
# Velocity S-wave (km/s) = 3.09651 3.83179 3.48360
# Velocity P-wave (km/s) = 6.10822 6.75864 6.44165
#
# Compressibility (1/GPa) = 0.01817327
#
# Stress axis : x y z
#
# Youngs Moduli (GPa) = 103.99271 65.64783 61.45282
#
# Poissons Ratio (x) = 0.24209 0.15447
# Poissons Ratio (y) = 0.38349 0.32403
# Poissons Ratio (z) = 0.26140 0.34615
#
# Static dielectric constant tensor:
#      x y z
#    x 4.168010 0.000000 0.059800 
#    y 0.000000 4.258880 0.000000 
#    z 0.059800 0.000000 4.174550 
# 
# 
# High freq. dielectric constant tensor:
#      x y z
#    x 1.896850 0.000000 0.009800 
#    y 0.000000 1.882660 0.000000 
#    z 0.009800 0.000000 1.878490 
# 
# From -- ./inp_files/174562.got.cif
#   From: 2010.06.25/outbox.cif.g09.slc.cpg/sg15_88_cif.got.tgz:174562.got - 2010.06.28 07:06:18.
