data_PCOD8151913
_publ_section_title
;
Structure prediction by ZEFSAII (Michael W. Deem and Ramdas Pophale) SiO2 
 PCOD8151913
Probable space group: C 2/C
;
_chemical_formula_sum "Si O2"
_cell_formula_units_Z 48
_cell_length_a 9.510993
_cell_length_b 26.218840
_cell_length_c 10.983487
_cell_angle_alpha 90.000000
_cell_angle_beta 53.042667
_cell_angle_gamma 90.000000
_cell_volume 2188.626788
_symmetry_space_group_name_H-M "C 2/C"
_symmetry_group_IT_number 15
_symmetry_cell_setting 'monoclinic'
loop_
_space_group_symop_operation_xyz
x,y,z
-x,y,1/2-z
-x,-y,-z
x,-y,1/2+z
1/2+x,1/2+y,z
1/2-x,1/2+y,1/2-z
1/2-x,1/2-y,-z
1/2+x,1/2-y,1/2+z
loop_
_atom_site_type_symbol
_atom_site_label
_atom_site_fract_x
_atom_site_fract_y
_atom_site_fract_z
Si Si1 0.608067 0.627118 0.399796
Si Si2 0.559822 0.171063 0.358846
Si Si3 0.085765 0.408732 0.399453
Si Si4 0.817324 0.459906 0.918006
Si Si5 0.060830 0.776611 0.088935
Si Si6 0.264407 0.427742 0.061723
O O1 0.749691 0.644189 0.223804
O O2 0.693023 0.586704 0.447193
O O3 0.550874 0.678116 0.499183
O O4 0.439673 0.600811 0.423859
O O5 0.500000 0.163427 0.250000
O O6 0.418303 0.143897 0.521123
O O7 0.571161 0.231017 0.384666
O O8 0.139710 0.454980 0.460781
O O9 0.223695 0.405383 0.217527
O O10 0.891930 0.418031 0.449698
O O11 0.709500 0.511356 0.946368
O O12 0.000000 0.459781 0.750000
O O13 0.000000 0.798844 0.250000
O O14 0.250000 0.750000 0.000000
#
# Coordination Sequence:
#
# PCOD8151913 Si02
#       6
#     8   8   8   8   8   8
#     4  12  24  41  65 107 131 166 229 286 330 395
#     4  11  21  42  69  98 131 178 221 278 343 394
#     4  11  22  45  67  92 136 186 216 275 341 405
#     4  12  22  45  69  91 135 182 224 267 342 395
#     4  11  22  39  67 104 133 172 231 282 337 396
#     4  11  28  39  65 103 134 175 227 278 335 401
#
# _framework density 21.931562
#
# number of rings (size 3 to 8) (size 9 to 14) (size 15 to 20)
#    0.000    0.667    8.333    1.000    4.667    0.667 
#    0.000    2.500    0.000    0.000    0.000    0.000 
#    0.000    0.000    0.000    0.000    0.000    0.000 
#
# Total GULP energy -297569.162473 kJ/mol
# GULP energy per Si atom -12398.715103 kJ/mol
# Density = 2.188164 g / cm^3
# Si number density = 21.931562 Si / 1000 Ang^3
#
#
#
# Elastic Constant Matrix: (Units=GPa)
#
#
# Indices 1 2 3 4 5 6 
#
# 1 75.8279 30.3559 14.3010 0.0000 -16.7188 0.0000
# 2 30.3559 150.1238 30.3497 0.0000 -4.1389 0.0000
# 3 14.3010 30.3497 70.6547 0.0000 -2.7181 0.0000
# 4 0.0000 0.0000 0.0000 33.4033 0.0000 -13.6474
# 5 -16.7188 -4.1389 -2.7181 0.0000 37.2176 0.0000
# 6 0.0000 0.0000 0.0000 -13.6474 0.0000 31.6669
#
#
#
# Elastic Compliance Matrix: (Units=1/GPa)
#
#
# Indices 1 2 3 4 5 6 
#
# 1 0.016116 -0.002699 -0.001841 0.000000 0.006805 0.000000
# 2 -0.002699 0.007759 -0.002808 0.000000 -0.000555 0.000000
# 3 -0.001841 -0.002808 0.015733 0.000000 0.000010 0.000000
# 4 0.000000 0.000000 0.000000 0.036335 0.000000 0.015659
# 5 0.006805 -0.000555 0.000010 0.000000 0.029865 0.000000
# 6 0.000000 0.000000 0.000000 0.015659 0.000000 0.038327
#
#
# Mechanical properties :
#
#
# Convention : Reuss Voigt Hill
#
# Bulk Modulus (GPa) = 40.14141 49.62439 44.88290
# Shear Modulus (GPa) = 29.91605 35.23088 32.57347
#
# Velocity S-wave (km/s) = 3.69733 4.01234 3.85805
# Velocity P-wave (km/s) = 6.04729 6.64389 6.35260
#
# Compressibility (1/GPa) = 0.02491193
#
# Stress axis : x y z
#
# Youngs Moduli (GPa) = 62.05109 128.87740 63.56266
#
# Poissons Ratio (x) = 0.34783 0.11701
# Poissons Ratio (y) = 0.16747 0.17849
# Poissons Ratio (z) = 0.11422 0.36190
#
# Static dielectric constant tensor:
#      x y z
#    x 3.780700 0.000000 -0.251370 
#    y 0.000000 4.611710 0.000000 
#    z -0.251370 0.000000 4.216190 
# 
# 
# High freq. dielectric constant tensor:
#      x y z
#    x 1.839230 0.000000 -0.011620 
#    y 0.000000 1.875810 0.000000 
#    z -0.011620 0.000000 1.863520 
# 
# From -- ./inp_files/80520.got.cif
#   From: 2010.06.25/outbox.cif.g09.slc.cpg/sg15_41_cif.got.tgz:80520.got - 2010.06.28 07:06:18.
