data_PCOD8151877
_publ_section_title
;
Structure prediction by ZEFSAII (Michael W. Deem and Ramdas Pophale) SiO2 
 PCOD8151877
Probable space group: C 2/C
;
_chemical_formula_sum "Si O2"
_cell_formula_units_Z 48
_cell_length_a 9.672072
_cell_length_b 10.860523
_cell_length_c 23.980602
_cell_angle_alpha 90.000000
_cell_angle_beta 94.202982
_cell_angle_gamma 90.000000
_cell_volume 2512.238140
_symmetry_space_group_name_H-M "C 2/C"
_symmetry_group_IT_number 15
_symmetry_cell_setting 'monoclinic'
loop_
_space_group_symop_operation_xyz
x,y,z
-x,y,1/2-z
-x,-y,-z
x,-y,1/2+z
1/2+x,1/2+y,z
1/2-x,1/2+y,1/2-z
1/2-x,1/2-y,-z
1/2+x,1/2-y,1/2+z
loop_
_atom_site_type_symbol
_atom_site_label
_atom_site_fract_x
_atom_site_fract_y
_atom_site_fract_z
Si Si1 0.705063 0.937279 0.630215
Si Si2 0.076778 0.152180 0.453517
Si Si3 0.834160 0.973103 0.434834
Si Si4 0.864697 0.919953 0.223066
Si Si5 0.093234 0.816126 0.166642
Si Si6 0.967592 0.441518 0.057889
O O1 0.832993 0.909219 0.593133
O O2 0.623078 0.814480 0.641190
O O3 0.753586 0.993580 0.690618
O O4 0.598093 0.034490 0.601385
O O5 0.150697 0.126420 0.514714
O O6 0.060346 0.296541 0.444775
O O7 0.922823 0.094795 0.450424
O O8 0.886451 0.919319 0.378821
O O9 0.672056 0.007441 0.424016
O O10 0.806958 0.846581 0.276264
O O11 0.000000 0.998398 0.250000
O O12 0.930878 0.821411 0.180752
O O13 0.000000 0.500000 0.000000
#
# Coordination Sequence:
#
# PCOD8151877 Si02
#       6
#     8   8   8   8   8   8
#     4  12  21  43  67  91 126 165 210 258 318 374
#     4  11  23  40  67  90 126 174 205 248 321 376
#     4  11  21  42  63  91 129 168 206 254 317 370
#     4   8  21  44  60  91 121 163 213 258 314 358
#     4   9  20  41  65  85 124 163 202 266 307 362
#     4  12  25  38  61 102 131 160 209 261 312 382
#
# _framework density 19.106468
#
# number of rings (size 3 to 8) (size 9 to 14) (size 15 to 20)
#    1.000    0.333    5.000    1.500    0.000    2.000 
#   12.000    0.000    0.000    0.000    0.000    0.000 
#    0.000    0.000    0.000    0.000    0.000    0.000 
#
# Total GULP energy -297388.021792 kJ/mol
# GULP energy per Si atom -12391.167575 kJ/mol
# Density = 1.906298 g / cm^3
# Si number density = 19.106468 Si / 1000 Ang^3
#
#
#
# Elastic Constant Matrix: (Units=GPa)
#
#
# Indices 1 2 3 4 5 6 
#
# 1 72.8333 46.3796 16.4345 0.0000 17.4342 0.0000
# 2 46.3796 57.8100 21.6553 0.0000 1.5688 0.0000
# 3 16.4345 21.6553 100.8240 0.0000 0.8944 0.0000
# 4 0.0000 0.0000 0.0000 23.9911 0.0000 0.7570
# 5 17.4342 1.5688 0.8944 0.0000 32.2385 0.0000
# 6 0.0000 0.0000 0.0000 0.7570 0.0000 18.6488
#
#
#
# Elastic Compliance Matrix: (Units=1/GPa)
#
#
# Indices 1 2 3 4 5 6 
#
# 1 0.036384 -0.028855 0.000429 0.000000 -0.018284 0.000000
# 2 -0.028855 0.041716 -0.004378 0.000000 0.013696 0.000000
# 3 0.000429 -0.004378 0.010791 0.000000 -0.000318 0.000000
# 4 0.000000 0.000000 0.000000 0.041736 0.000000 -0.001694
# 5 -0.018284 0.013696 -0.000318 0.000000 0.040249 0.000000
# 6 0.000000 0.000000 0.000000 -0.001694 0.000000 0.053691
#
#
# Mechanical properties :
#
#
# Convention : Reuss Voigt Hill
#
# Bulk Modulus (GPa) = 42.94769 44.48956 43.71862
# Shear Modulus (GPa) = 16.78207 24.77554 20.77880
#
# Velocity S-wave (km/s) = 2.96690 3.60489 3.30135
# Velocity P-wave (km/s) = 5.85351 6.37672 6.12071
#
# Compressibility (1/GPa) = 0.02328414
#
# Stress axis : x y z
#
# Youngs Moduli (GPa) = 27.48431 23.97163 92.66572
#
# Poissons Ratio (x) = 0.69170 -0.03976
# Poissons Ratio (y) = 0.79306 0.40569
# Poissons Ratio (z) = -0.01179 0.10495
#
# Static dielectric constant tensor:
#      x y z
#    x 3.419120 0.000000 -0.131050 
#    y 0.000000 3.271880 0.000000 
#    z -0.131050 0.000000 3.633860 
# 
# 
# High freq. dielectric constant tensor:
#      x y z
#    x 1.737650 0.000000 -0.005000 
#    y 0.000000 1.723590 0.000000 
#    z -0.005000 0.000000 1.757770 
# 
# From -- ./inp_files/263178.got.cif
#   From: 2010.06.25/outbox.cif.g09.slc.cpg/sg15_132_cif.got.tgz:263178.got - 2010.06.28 07:06:18.
