data_PCOD8151047
_publ_section_title
;
Structure prediction by ZEFSAII (Michael W. Deem and Ramdas Pophale) SiO2 
 PCOD8151047
Probable space group: C 2/C
;
_chemical_formula_sum "Si O2"
_cell_formula_units_Z 36
_cell_length_a 17.616231
_cell_length_b 7.212061
_cell_length_c 14.788011
_cell_angle_alpha 90.000000
_cell_angle_beta 68.231156
_cell_angle_gamma 90.000000
_cell_volume 1744.824753
_symmetry_space_group_name_H-M "C 2/C"
_symmetry_group_IT_number 15
_symmetry_cell_setting 'monoclinic'
loop_
_space_group_symop_operation_xyz
x,y,z
-x,y,1/2-z
-x,-y,-z
x,-y,1/2+z
1/2+x,1/2+y,z
1/2-x,1/2+y,1/2-z
1/2-x,1/2-y,-z
1/2+x,1/2-y,1/2+z
loop_
_atom_site_type_symbol
_atom_site_label
_atom_site_fract_x
_atom_site_fract_y
_atom_site_fract_z
Si Si1 0.417577 0.316930 0.199551
Si Si2 0.354433 0.052286 0.920407
Si Si3 0.500000 0.022682 0.750000
Si Si4 0.902562 0.870243 0.403704
Si Si5 0.187468 0.849884 0.425523
O O1 0.391116 0.425716 0.302788
O O2 0.501038 0.389886 0.116771
O O3 0.344295 0.346093 0.162396
O O4 0.436180 0.104595 0.221034
O O5 0.440244 0.139698 0.842494
O O6 0.282782 0.095787 0.879750
O O7 0.367648 0.836384 0.935391
O O8 0.329755 0.147204 0.025584
O O9 0.855098 0.002671 0.490836
#
# Coordination Sequence:
#
# PCOD8151047 Si02
#       5
#     8   8   4   8   8
#     4   8  18  35  57  80 114 148 187 227 272 334
#     4   9  21  36  55  80 112 146 183 236 272 333
#     4   8  18  40  56  76 120 154 180 228 290 332
#     4   9  19  38  55  79 117 151 178 230 282 327
#     4  11  19  35  58  86 111 139 196 231 269 332
#
# _framework density 20.632445000000001
#
# number of rings (size 3 to 8) (size 9 to 14) (size 15 to 20)
#    0.000    3.556    0.000    1.333    0.000    5.333 
#   16.000    4.444    0.000    0.000    0.000    0.000 
#    0.000    0.000    0.000    0.000    0.000    0.000 
#
# Total GULP energy -222986.898649 kJ/mol
# GULP energy per Si atom -12388.161036 kJ/mol
# Density = 2.058548 g / cm^3
# Si number density = 20.632445 Si / 1000 Ang^3
#
#
#
# Elastic Constant Matrix: (Units=GPa)
#
#
# Indices 1 2 3 4 5 6 
#
# 1 77.5765 15.1413 18.5461 0.0001 21.2745 -0.0003
# 2 15.1413 60.6416 17.2243 0.0002 1.9047 -0.0005
# 3 18.5461 17.2243 49.9729 0.0001 5.4774 -0.0001
# 4 0.0001 0.0002 0.0001 11.0784 0.0000 -3.2294
# 5 21.2745 1.9047 5.4774 0.0000 44.1906 0.0000
# 6 -0.0003 -0.0005 -0.0001 -3.2294 0.0000 13.1352
#
#
#
# Elastic Compliance Matrix: (Units=1/GPa)
#
#
# Indices 1 2 3 4 5 6 
#
# 1 0.016447 -0.002628 -0.004402 0.000000 -0.007259 0.000000
# 2 -0.002628 0.018700 -0.005596 0.000000 0.001153 0.000001
# 3 -0.004402 -0.005596 0.023636 0.000000 -0.000569 0.000000
# 4 0.000000 0.000000 0.000000 0.097234 0.000000 0.023906
# 5 -0.007259 0.001153 -0.000569 0.000000 0.026145 0.000000
# 6 0.000000 0.000001 0.000000 0.023906 0.000000 0.082009
#
#
# Mechanical properties :
#
#
# Convention : Reuss Voigt Hill
#
# Bulk Modulus (GPa) = 29.82495 32.22382 31.02438
# Shear Modulus (GPa) = 16.63341 22.83279 19.73310
#
# Velocity S-wave (km/s) = 2.84241 3.33024 3.09594
# Velocity P-wave (km/s) = 5.02584 5.51718 5.27723
#
# Compressibility (1/GPa) = 0.03352898
#
# Stress axis : x y z
#
# Youngs Moduli (GPa) = 60.80304 53.47639 42.30857
#
# Poissons Ratio (x) = 0.14054 0.18625
# Poissons Ratio (y) = 0.15979 0.23677
# Poissons Ratio (z) = 0.26767 0.29927
#
# Static dielectric constant tensor:
#      x y z
#    x 3.843130 0.000000 -0.263520 
#    y 0.000000 3.480660 0.000000 
#    z -0.263520 0.000000 3.757100 
# 
# 
# High freq. dielectric constant tensor:
#      x y z
#    x 1.806410 0.000000 -0.018770 
#    y 0.000000 1.785470 0.000000 
#    z -0.018770 0.000000 1.802890 
# 
# From -- ./inp_files/158718.got.cif
#   From: 2010.06.25/outbox.cif.g09.slc.cpg/sg15_80_cif.got.tgz:158718.got - 2010.06.28 07:06:18.
