data_PCOD8151234
_publ_section_title
;
Structure prediction by ZEFSAII (Michael W. Deem and Ramdas Pophale) SiO2 
 PCOD8151234
Probable space group: C 2/C
;
_chemical_formula_sum "Si O2"
_cell_formula_units_Z 56
_cell_length_a 19.716965
_cell_length_b 17.961523
_cell_length_c 20.286718
_cell_angle_alpha 90.000000
_cell_angle_beta 158.654029
_cell_angle_gamma 90.000000
_cell_volume 2615.139083
_symmetry_space_group_name_H-M "C 2/C"
_symmetry_group_IT_number 15
_symmetry_cell_setting 'monoclinic'
loop_
_space_group_symop_operation_xyz
x,y,z
-x,y,1/2-z
-x,-y,-z
x,-y,1/2+z
1/2+x,1/2+y,z
1/2-x,1/2+y,1/2-z
1/2-x,1/2-y,-z
1/2+x,1/2-y,1/2+z
loop_
_atom_site_type_symbol
_atom_site_label
_atom_site_fract_x
_atom_site_fract_y
_atom_site_fract_z
Si Si1 0.319720 0.145592 0.907634
Si Si2 0.572126 0.895060 0.746075
Si Si3 0.971791 0.637184 0.916234
Si Si4 0.079016 0.185541 0.001390
Si Si5 0.625071 0.063893 0.802830
Si Si6 0.358880 0.291607 0.797321
Si Si7 0.378211 0.313232 0.581549
O O1 0.412324 0.098224 0.931028
O O2 0.096241 0.151082 0.697194
O O3 0.385022 0.100682 0.031621
O O4 0.422296 0.225587 0.006737
O O5 0.500000 0.861631 0.750000
O O6 0.663287 0.976286 0.840241
O O7 0.732022 0.844581 0.859747
O O8 0.964205 0.581298 0.848748
O O9 0.817453 0.704899 0.776611
O O10 0.180652 0.667855 0.107405
O O11 0.071638 0.165789 0.073306
O O12 0.500000 0.090866 0.750000
O O13 0.802723 0.115018 0.974581
O O14 0.504545 0.275878 0.870338
O O15 0.500000 0.347903 0.750000
O O16 0.250000 0.250000 0.500000
#
# Coordination Sequence:
#
# PCOD8151234 Si02
#       7
#     8   8   8   8   8   8   8
#     4  11  21  42  71  97 125 165 215 275 331 386
#     4  11  26  47  64  93 135 169 215 274 332 400
#     4  11  20  37  65  93 129 169 214 271 325 384
#     4  11  21  43  69  99 128 162 220 276 328 389
#     4  11  24  43  60  89 136 176 210 266 333 388
#     4  11  20  36  64  97 127 166 218 279 320 371
#     4  12  23  38  63  97 131 173 227 265 317 390
#
# _framework density 21.413774
#
# number of rings (size 3 to 8) (size 9 to 14) (size 15 to 20)
#    0.000    0.857    2.857    8.143    0.000    1.714 
#    7.714    1.429    0.000    0.000    0.000    0.000 
#    0.000    0.000    0.000    0.000    0.000    0.000 
#
# Total GULP energy -346930.381609 kJ/mol
# GULP energy per Si atom -12390.370772 kJ/mol
# Density = 2.136504 g / cm^3
# Si number density = 21.413774 Si / 1000 Ang^3
#
#
#
# Elastic Constant Matrix: (Units=GPa)
#
#
# Indices 1 2 3 4 5 6 
#
# 1 171.8641 19.1089 51.3318 0.0216 -15.6504 -0.0071
# 2 19.1089 47.2077 15.9056 -0.0235 -6.4574 -0.0672
# 3 51.3318 15.9056 114.3480 -0.0533 -12.3457 -0.1100
# 4 0.0216 -0.0235 -0.0533 -3.3876 0.0106 -41.4752
# 5 -15.6504 -6.4574 -12.3457 0.0106 36.6153 -0.0220
# 6 -0.0071 -0.0672 -0.1100 -41.4752 -0.0220 -33.6550
#
#
#
# Elastic Compliance Matrix: (Units=1/GPa)
#
#
# Indices 1 2 3 4 5 6 
#
# 1 0.006974 -0.001668 -0.002707 0.000001 0.001774 0.000008
# 2 -0.001668 0.022943 -0.002161 -0.000026 0.002604 -0.000008
# 3 -0.002707 -0.002161 0.010476 -0.000015 0.001994 -0.000012
# 4 0.000001 -0.000026 -0.000015 0.020954 -0.000031 -0.025822
# 5 0.001774 0.002604 0.001994 -0.000031 0.029201 0.000007
# 6 0.000008 -0.000008 -0.000012 -0.025822 0.000007 0.002109
#
#
# Mechanical properties :
#
#
# Convention : Reuss Voigt Hill
#
# Bulk Modulus (GPa) = 36.60329 56.23469 46.41899
# Shear Modulus (GPa) = 43.54011 16.38612 29.96311
#
# Velocity S-wave (km/s) = 4.51408 2.76925 3.74471
# Velocity P-wave (km/s) = 6.65580 6.04508 6.35778
#
# Compressibility (1/GPa) = 0.02731995
#
# Stress axis : x y z
#
# Youngs Moduli (GPa) = 143.38674 43.58692 95.45257
#
# Poissons Ratio (x) = 0.07271 0.25841
# Poissons Ratio (y) = 0.23920 0.20630
# Poissons Ratio (z) = 0.38817 0.09420
#
# Static dielectric constant tensor:
#      x y z
#    x 4.324440 -0.000050 -0.279960 
#    y -0.000050 3.460950 -0.000100 
#    z -0.279960 -0.000100 4.003180 
# 
# 
# High freq. dielectric constant tensor:
#      x y z
#    x 1.862860 0.000000 -0.013380 
#    y 0.000000 1.800160 -0.000010 
#    z -0.013380 -0.000010 1.847360 
# 
# From -- ./inp_files/253374.got.cif
#   From: 2010.06.25/outbox.cif.g09.slc.cpg/sg15_127_cif.got.tgz:253374.got - 2010.06.28 07:06:18.
