data_PCOD8151040
_publ_section_title
;
Structure prediction by ZEFSAII (Michael W. Deem and Ramdas Pophale) SiO2 
 PCOD8151040
Probable space group: C 2/C
;
_chemical_formula_sum "Si O2"
_cell_formula_units_Z 52
_cell_length_a 12.176031
_cell_length_b 20.969640
_cell_length_c 13.641336
_cell_angle_alpha 90.000000
_cell_angle_beta 133.529179
_cell_angle_gamma 90.000000
_cell_volume 2525.258494
_symmetry_space_group_name_H-M "C 2/C"
_symmetry_group_IT_number 15
_symmetry_cell_setting 'monoclinic'
loop_
_space_group_symop_operation_xyz
x,y,z
-x,y,1/2-z
-x,-y,-z
x,-y,1/2+z
1/2+x,1/2+y,z
1/2-x,1/2+y,1/2-z
1/2-x,1/2-y,-z
1/2+x,1/2-y,1/2+z
loop_
_atom_site_type_symbol
_atom_site_label
_atom_site_fract_x
_atom_site_fract_y
_atom_site_fract_z
Si Si1 0.841400 0.396869 0.675578
Si Si2 0.830762 0.187232 0.779925
Si Si3 0.327369 0.095807 0.679176
Si Si4 0.341327 0.724114 0.464942
Si Si5 0.000000 0.090282 0.750000
Si Si6 0.212775 0.999321 0.466903
Si Si7 0.347377 0.988495 0.849717
O O1 0.700749 0.349996 0.575775
O O2 0.842566 0.456239 0.598947
O O3 0.837934 0.422557 0.784629
O O4 0.000000 0.360627 0.750000
O O5 0.751829 0.159547 0.829290
O O6 0.705734 0.235154 0.658724
O O7 0.872247 0.134789 0.722023
O O8 0.979122 0.226992 0.904477
O O9 0.500000 0.108635 0.750000
O O10 0.218014 0.067110 0.526229
O O11 0.322489 0.047950 0.765660
O O12 0.250000 0.750000 0.500000
O O13 0.936604 0.045509 0.621678
O O14 0.222271 0.013110 0.357266
O O15 0.500000 0.000000 0.000000
#
# Coordination Sequence:
#
# PCOD8151040 Si02
#       7
#     8   8   8   8   4   8   8
#     4  11  21  34  62  96 128 166 216 269 319 395
#     4  12  25  43  68  98 131 173 223 283 338 389
#     4  11  24  41  67  97 134 178 220 265 330 410
#     4  12  24  43  66  96 128 169 225 284 336 379
#     4  12  22  38  66 100 132 170 204 280 342 394
#     4  11  21  38  61  97 137 168 212 259 338 399
#     4  11  19  34  62  95 131 170 210 255 322 398
#
# _framework density 20.591951000000002
#
# number of rings (size 3 to 8) (size 9 to 14) (size 15 to 20)
#    0.000    0.615    7.692    1.846    0.000    3.077 
#    0.000    0.769    0.000    0.000    0.000    0.000 
#    0.000    0.000    0.000    0.000    0.000    0.000 
#
# Total GULP energy -322243.247127 kJ/mol
# GULP energy per Si atom -12393.971043 kJ/mol
# Density = 2.054508 g / cm^3
# Si number density = 20.591951 Si / 1000 Ang^3
#
#
#
# Elastic Constant Matrix: (Units=GPa)
#
#
# Indices 1 2 3 4 5 6 
#
# 1 85.1461 44.6891 45.8330 0.0000 -15.3476 0.0000
# 2 44.6891 88.9396 50.5046 0.0000 -5.5703 0.0000
# 3 45.8330 50.5046 125.3828 0.0000 -1.1183 0.0000
# 4 0.0000 0.0000 0.0000 46.9659 0.0000 -5.2685
# 5 -15.3476 -5.5703 -1.1183 0.0000 36.8524 0.0000
# 6 0.0000 0.0000 0.0000 -5.2685 0.0000 32.6911
#
#
#
# Elastic Compliance Matrix: (Units=1/GPa)
#
#
# Indices 1 2 3 4 5 6 
#
# 1 0.018607 -0.006620 -0.004076 0.000000 0.006625 0.000000
# 2 -0.006620 0.017086 -0.004465 0.000000 -0.000310 0.000000
# 3 -0.004076 -0.004465 0.011246 0.000000 -0.002031 0.000000
# 4 0.000000 0.000000 0.000000 0.021684 0.000000 0.003495
# 5 0.006625 -0.000310 -0.002031 0.000000 0.029786 0.000000
# 6 0.000000 0.000000 0.000000 0.003495 0.000000 0.031153
#
#
# Mechanical properties :
#
#
# Convention : Reuss Voigt Hill
#
# Bulk Modulus (GPa) = 60.18006 64.61353 62.39679
# Shear Modulus (GPa) = 30.22548 33.86467 32.04507
#
# Velocity S-wave (km/s) = 3.83538 4.05972 3.94914
# Velocity P-wave (km/s) = 6.99300 7.30898 7.15274
#
# Compressibility (1/GPa) = 0.01661680
#
# Stress axis : x y z
#
# Youngs Moduli (GPa) = 53.74240 58.52736 88.91994
#
# Poissons Ratio (x) = 0.38745 0.36245
# Poissons Ratio (y) = 0.35577 0.39704
# Poissons Ratio (z) = 0.21906 0.26134
#
# Static dielectric constant tensor:
#      x y z
#    x 3.566660 0.000000 0.160430 
#    y 0.000000 4.032470 0.000000 
#    z 0.160430 0.000000 3.803340 
# 
# 
# High freq. dielectric constant tensor:
#      x y z
#    x 1.784200 0.000000 0.004220 
#    y 0.000000 1.788600 0.000000 
#    z 0.004220 0.000000 1.822200 
# 
# From -- ./inp_files/89699.got.cif
#   From: 2010.06.25/outbox.cif.g09.slc.cpg/sg15_45_cif.got.tgz:89699.got - 2010.06.28 07:06:18.
