data_PCOD8151769
_publ_section_title
;
Structure prediction by ZEFSAII (Michael W. Deem and Ramdas Pophale) SiO2 
 PCOD8151769
Probable space group: C 2/C
;
_chemical_formula_sum "Si O2"
_cell_formula_units_Z 56
_cell_length_a 30.565123
_cell_length_b 17.997040
_cell_length_c 8.763613
_cell_angle_alpha 90.000000
_cell_angle_beta 143.462018
_cell_angle_gamma 90.000000
_cell_volume 2870.032542
_symmetry_space_group_name_H-M "C 2/C"
_symmetry_group_IT_number 15
_symmetry_cell_setting 'monoclinic'
loop_
_space_group_symop_operation_xyz
x,y,z
-x,y,1/2-z
-x,-y,-z
x,-y,1/2+z
1/2+x,1/2+y,z
1/2-x,1/2+y,1/2-z
1/2-x,1/2-y,-z
1/2+x,1/2-y,1/2+z
loop_
_atom_site_type_symbol
_atom_site_label
_atom_site_fract_x
_atom_site_fract_y
_atom_site_fract_z
Si Si1 0.745938 0.591309 0.572061
Si Si2 0.457185 0.939378 0.287787
Si Si3 0.855431 0.715222 0.973916
Si Si4 0.875523 0.789168 0.719779
Si Si5 0.999393 0.279998 0.068573
Si Si6 0.765403 0.290387 0.699530
Si Si7 0.289128 0.947778 0.846499
O O1 0.809517 0.639130 0.831488
O O2 0.666650 0.633627 0.361809
O O3 0.738482 0.515626 0.647626
O O4 0.769123 0.573073 0.464093
O O5 0.500000 0.934030 0.250000
O O6 0.458660 0.856346 0.362279
O O7 0.500000 0.000000 0.500000
O O8 0.373803 0.968839 0.053339
O O9 0.885247 0.737811 0.894194
O O10 0.801228 0.781069 0.870104
O O11 0.917213 0.709616 0.275977
O O12 0.837218 0.743886 0.476915
O O13 0.959875 0.792234 0.894180
O O14 0.000000 0.266594 0.250000
O O15 0.750000 0.250000 0.500000
O O16 0.773827 0.377783 0.693546
#
# Coordination Sequence:
#
# PCOD8151769 Si02
#       7
#     8   8   8   8   8   8   8
#     4  11  24  39  63  94 126 167 213 261 312 379
#     4  11  23  37  56  87 131 163 198 240 306 389
#     4  11  21  40  63  88 125 167 206 258 312 376
#     4  11  21  43  61  90 125 166 217 258 309 381
#     4  11  23  38  63  95 124 162 210 259 322 375
#     4  11  22  37  63  90 123 164 213 262 303 371
#     4  12  23  41  60  92 130 166 210 255 319 372
#
# _framework density 19.511975
#
# number of rings (size 3 to 8) (size 9 to 14) (size 15 to 20)
#    0.000    0.857    4.286    3.857    6.000    1.143 
#    0.000    0.000    0.000    0.857    0.000    0.000 
#    0.000    0.000    0.000    0.000    0.000    0.000 
#
# Total GULP energy -347034.173847 kJ/mol
# GULP energy per Si atom -12394.077637 kJ/mol
# Density = 1.946756 g / cm^3
# Si number density = 19.511975 Si / 1000 Ang^3
#
#
#
# Elastic Constant Matrix: (Units=GPa)
#
#
# Indices 1 2 3 4 5 6 
#
# 1 91.3292 39.9291 24.1449 0.0000 -0.8165 0.0000
# 2 39.9291 115.6919 35.1694 0.0000 -0.4741 0.0000
# 3 24.1449 35.1694 71.6657 0.0000 -15.4001 0.0000
# 4 0.0000 0.0000 0.0000 30.2713 0.0000 -2.0707
# 5 -0.8165 -0.4741 -15.4001 0.0000 34.2109 0.0000
# 6 0.0000 0.0000 0.0000 -2.0707 0.0000 23.9677
#
#
#
# Elastic Compliance Matrix: (Units=1/GPa)
#
#
# Indices 1 2 3 4 5 6 
#
# 1 0.013333 -0.003729 -0.002884 0.000000 -0.001032 0.000000
# 2 -0.003729 0.011373 -0.004771 0.000000 -0.002079 0.000000
# 3 -0.002884 -0.004771 0.019084 0.000000 0.008456 0.000000
# 4 0.000000 0.000000 0.000000 0.033231 0.000000 0.002871
# 5 -0.001032 -0.002079 0.008456 0.000000 0.032983 0.000000
# 6 0.000000 0.000000 0.000000 0.002871 0.000000 0.041971
#
#
# Mechanical properties :
#
#
# Convention : Reuss Voigt Hill
#
# Bulk Modulus (GPa) = 47.57185 53.01931 50.29558
# Shear Modulus (GPa) = 27.51028 29.65286 28.58157
#
# Velocity S-wave (km/s) = 3.75896 3.90260 3.83145
# Velocity P-wave (km/s) = 6.57826 6.89483 6.73840
#
# Compressibility (1/GPa) = 0.02102083
#
# Stress axis : x y z
#
# Youngs Moduli (GPa) = 75.00211 87.92976 52.40057
#
# Poissons Ratio (x) = 0.32792 0.15110
# Poissons Ratio (y) = 0.27971 0.25003
# Poissons Ratio (z) = 0.21627 0.41955
#
# Static dielectric constant tensor:
#      x y z
#    x 1.553250 0.000000 0.205040 
#    y 0.000000 3.666670 0.000000 
#    z 0.205040 0.000000 3.714930 
# 
# 
# High freq. dielectric constant tensor:
#      x y z
#    x 1.773470 0.000000 -0.007860 
#    y 0.000000 1.746770 0.000000 
#    z -0.007860 0.000000 1.755380 
# 
# From -- ./inp_files/67191.got.cif
#   From: 2010.06.25/outbox.cif.g09.slc.cpg/sg15_34_cif.got.tgz:67191.got - 2010.06.28 07:06:18.
