data_PCOD8151497
_publ_section_title
;
Structure prediction by ZEFSAII (Michael W. Deem and Ramdas Pophale) SiO2 
 PCOD8151497
Probable space group: C 2/C
;
_chemical_formula_sum "Si O2"
_cell_formula_units_Z 56
_cell_length_a 8.747974
_cell_length_b 11.897832
_cell_length_c 27.421999
_cell_angle_alpha 90.000000
_cell_angle_beta 62.718137
_cell_angle_gamma 90.000000
_cell_volume 2536.647303
_symmetry_space_group_name_H-M "C 2/C"
_symmetry_group_IT_number 15
_symmetry_cell_setting 'monoclinic'
loop_
_space_group_symop_operation_xyz
x,y,z
-x,y,1/2-z
-x,-y,-z
x,-y,1/2+z
1/2+x,1/2+y,z
1/2-x,1/2+y,1/2-z
1/2-x,1/2-y,-z
1/2+x,1/2-y,1/2+z
loop_
_atom_site_type_symbol
_atom_site_label
_atom_site_fract_x
_atom_site_fract_y
_atom_site_fract_z
Si Si1 0.249890 0.002329 0.158437
Si Si2 0.501933 0.911005 0.956765
Si Si3 0.448446 0.233558 0.965855
Si Si4 0.743744 0.112276 0.095808
Si Si5 0.418603 0.892084 0.373168
Si Si6 0.521921 0.711937 0.689554
Si Si7 0.163108 0.237734 0.197321
O O1 0.400907 0.948711 0.170124
O O2 0.108602 0.908654 0.166457
O O3 0.326204 0.065564 0.099608
O O4 0.163143 0.102905 0.201585
O O5 0.337588 0.897766 0.946081
O O6 0.495792 0.794583 0.987332
O O7 0.500000 0.000000 0.000000
O O8 0.560171 0.342943 0.933902
O O9 0.465095 0.133397 0.923363
O O10 0.250000 0.250000 0.000000
O O11 0.634708 0.191703 0.147684
O O12 0.734481 0.982414 0.114937
O O13 0.366770 0.778022 0.353992
O O14 0.500000 0.737313 0.750000
O O15 0.335021 0.707077 0.692946
O O16 0.000000 0.285792 0.250000
#
# Coordination Sequence:
#
# PCOD8151497 Si02
#       7
#     8   8   8   8   8   8   8
#     4  11  23  48  72 101 142 186 234 292 357 425
#     4  11  20  44  71  98 140 184 234 293 347 423
#     4  12  25  41  69 106 146 188 236 295 355 425
#     4  11  24  46  73 101 143 192 239 289 363 430
#     4  11  24  47  68 105 146 179 242 299 341 440
#     4  12  25  48  74 100 139 189 235 294 366 421
#     4  12  27  45  72 105 139 183 243 296 362 423
#
# _framework density 22.076383
#
# number of rings (size 3 to 8) (size 9 to 14) (size 15 to 20)
#    0.000    0.571    7.143    2.571    0.000    3.429 
#    2.571    0.000    0.000    0.000    0.000    0.000 
#    0.000    0.000    0.000    0.000    0.000    0.000 
#
# Total GULP energy -346927.080082 kJ/mol
# GULP energy per Si atom -12390.252860 kJ/mol
# Density = 2.202614 g / cm^3
# Si number density = 22.076383 Si / 1000 Ang^3
#
#
#
# Elastic Constant Matrix: (Units=GPa)
#
#
# Indices 1 2 3 4 5 6 
#
# 1 116.9599 54.6222 51.6271 0.0000 -11.5847 0.0000
# 2 54.6222 121.5290 23.1572 0.0000 -7.1492 0.0000
# 3 51.6271 23.1572 85.1467 0.0000 -3.0920 0.0000
# 4 0.0000 0.0000 0.0000 31.1695 0.0000 -0.4245
# 5 -11.5847 -7.1492 -3.0920 0.0000 44.8921 0.0000
# 6 0.0000 0.0000 0.0000 -0.4245 0.0000 45.5621
#
#
#
# Elastic Compliance Matrix: (Units=1/GPa)
#
#
# Indices 1 2 3 4 5 6 
#
# 1 0.014265 -0.004892 -0.007231 0.000000 0.002404 0.000000
# 2 -0.004892 0.010423 0.000146 0.000000 0.000408 0.000000
# 3 -0.007231 0.000146 0.016063 0.000000 -0.000736 0.000000
# 4 0.000000 0.000000 0.000000 0.032087 0.000000 0.000299
# 5 0.002404 0.000408 -0.000736 0.000000 0.022910 0.000000
# 6 0.000000 0.000000 0.000000 0.000299 0.000000 0.021951
#
#
# Mechanical properties :
#
#
# Convention : Reuss Voigt Hill
#
# Bulk Modulus (GPa) = 59.53744 64.71652 62.12698
# Shear Modulus (GPa) = 33.95552 37.27336 35.61444
#
# Velocity S-wave (km/s) = 3.92611 4.11345 4.02087
# Velocity P-wave (km/s) = 6.89781 7.20688 7.05404
#
# Compressibility (1/GPa) = 0.01679616
#
# Stress axis : x y z
#
# Youngs Moduli (GPa) = 70.10316 95.93817 62.25671
#
# Poissons Ratio (x) = 0.46933 0.45020
# Poissons Ratio (y) = 0.34295 -0.00910
# Poissons Ratio (z) = 0.50694 -0.01402
#
# Static dielectric constant tensor:
#      x y z
#    x 3.959740 0.000000 -0.070910 
#    y 0.000000 4.541030 0.000000 
#    z -0.070910 0.000000 3.937530 
# 
# 
# High freq. dielectric constant tensor:
#      x y z
#    x 1.862750 0.000000 -0.002540 
#    y 0.000000 1.877670 0.000000 
#    z -0.002540 0.000000 1.872450 
# 
# From -- ./inp_files/307407.got.cif
#   From: 2010.06.25/outbox.cif.g09.slc.cpg/sg15_154_cif.got.tgz:307407.got - 2010.06.28 07:06:18.
