data_PCOD8151882
_publ_section_title
;
Structure prediction by ZEFSAII (Michael W. Deem and Ramdas Pophale) SiO2 
 PCOD8151882
Probable space group: C 2/C
;
_chemical_formula_sum "Si O2"
_cell_formula_units_Z 64
_cell_length_a 18.899019
_cell_length_b 11.109649
_cell_length_c 14.220149
_cell_angle_alpha 90.000000
_cell_angle_beta 84.859360
_cell_angle_gamma 90.000000
_cell_volume 2973.674223
_symmetry_space_group_name_H-M "C 2/C"
_symmetry_group_IT_number 15
_symmetry_cell_setting 'monoclinic'
loop_
_space_group_symop_operation_xyz
x,y,z
-x,y,1/2-z
-x,-y,-z
x,-y,1/2+z
1/2+x,1/2+y,z
1/2-x,1/2+y,1/2-z
1/2-x,1/2-y,-z
1/2+x,1/2-y,1/2+z
loop_
_atom_site_type_symbol
_atom_site_label
_atom_site_fract_x
_atom_site_fract_y
_atom_site_fract_z
Si Si1 0.186676 0.365796 0.192333
Si Si2 0.943956 0.579892 0.673096
Si Si3 0.071253 0.692995 0.383419
Si Si4 0.838784 0.063279 0.961560
Si Si5 0.066849 0.733765 0.000280
Si Si6 0.304919 0.102113 0.422454
Si Si7 0.326670 0.698099 0.777863
Si Si8 0.669656 0.716079 0.030043
O O1 0.136453 0.393459 0.285703
O O2 0.184345 0.468175 0.114147
O O3 0.268070 0.354361 0.214611
O O4 0.157073 0.248116 0.141376
O O5 0.944740 0.446560 0.632201
O O6 0.964578 0.679204 0.592410
O O7 0.000000 0.592872 0.750000
O O8 0.104313 0.758929 0.288599
O O9 0.122724 0.703957 0.466281
O O10 0.995931 0.753202 0.416954
O O11 0.850239 0.096498 0.850227
O O12 0.848998 0.923552 0.981403
O O13 0.896344 0.135721 0.017856
O O14 0.760739 0.109892 0.998400
O O15 0.124002 0.639400 0.032459
O O16 0.291739 0.188117 0.334623
O O17 0.750000 0.750000 0.000000
#
# Coordination Sequence:
#
# PCOD8151882 Si02
#       8
#     8   8   8   8   8   8   8   8
#     4  12  23  39  70  98 142 172 235 289 346 415
#     4  12  25  44  73 107 139 177 235 301 355 421
#     4  12  25  45  70 102 140 183 238 286 367 420
#     4  11  25  44  69  99 140 185 238 282 361 422
#     4  11  25  45  72  97 142 186 230 290 358 428
#     4  11  21  42  65 102 135 179 229 288 352 414
#     4  11  24  38  67 102 132 183 226 292 347 415
#     4  12  25  45  68  99 139 187 230 286 352 427
#
# _framework density 21.522196999999998
#
# number of rings (size 3 to 8) (size 9 to 14) (size 15 to 20)
#    0.000    0.500    3.750    5.625    5.250    0.500 
#    2.250    0.000    2.750    0.000    0.000    0.000 
#    0.000    0.000    0.000    0.000    0.000    0.000 
#
# Total GULP energy -396910.273787 kJ/mol
# GULP energy per Si atom -12403.446056 kJ/mol
# Density = 2.147321 g / cm^3
# Si number density = 21.522197 Si / 1000 Ang^3
#
#
#
# Elastic Constant Matrix: (Units=GPa)
#
#
# Indices 1 2 3 4 5 6 
#
# 1 106.6662 39.5190 38.4160 0.0000 -5.4776 0.0000
# 2 39.5190 122.4090 42.6251 0.0000 10.2940 0.0000
# 3 38.4160 42.6251 107.1009 0.0000 2.0831 0.0000
# 4 0.0000 0.0000 0.0000 30.9893 0.0000 1.2804
# 5 -5.4776 10.2940 2.0831 0.0000 46.5332 0.0000
# 6 0.0000 0.0000 0.0000 1.2804 0.0000 24.0182
#
#
#
# Elastic Compliance Matrix: (Units=1/GPa)
#
#
# Indices 1 2 3 4 5 6 
#
# 1 0.011659 -0.002872 -0.003081 0.000000 0.002146 0.000000
# 2 -0.002872 0.010367 -0.003048 0.000000 -0.002495 0.000000
# 3 -0.003081 -0.003048 0.011659 0.000000 -0.000210 0.000000
# 4 0.000000 0.000000 0.000000 0.032340 0.000000 -0.001724
# 5 0.002146 -0.002495 -0.000210 0.000000 0.022304 0.000000
# 6 0.000000 0.000000 0.000000 -0.001724 0.000000 0.041727
#
#
# Mechanical properties :
#
#
# Convention : Reuss Voigt Hill
#
# Bulk Modulus (GPa) = 63.75387 64.14401 63.94894
# Shear Modulus (GPa) = 32.61904 34.68256 33.65080
#
# Velocity S-wave (km/s) = 3.89729 4.01868 3.95845
# Velocity P-wave (km/s) = 7.06672 7.16948 7.11828
#
# Compressibility (1/GPa) = 0.01568532
#
# Stress axis : x y z
#
# Youngs Moduli (GPa) = 85.77333 96.45556 85.77054
#
# Poissons Ratio (x) = 0.27698 0.26423
# Poissons Ratio (y) = 0.24631 0.26139
# Poissons Ratio (z) = 0.26424 0.29396
#
# Static dielectric constant tensor:
#      x y z
#    x 3.968180 0.000000 -0.146300 
#    y 0.000000 4.012930 0.000000 
#    z -0.146300 0.000000 4.115390 
# 
# 
# High freq. dielectric constant tensor:
#      x y z
#    x 1.848070 0.000000 -0.004070 
#    y 0.000000 1.842880 0.000000 
#    z -0.004070 0.000000 1.855540 
# 
# From -- ./inp_files/161350.got.cif
#   From: 2010.06.25/outbox.cif.g09.slc.cpg/sg15_81_cif.got.tgz:161350.got - 2010.06.28 07:06:18.
