data_PCOD8151381
_publ_section_title
;
Structure prediction by ZEFSAII (Michael W. Deem and Ramdas Pophale) SiO2 
 PCOD8151381
Probable space group: C 2/C
;
_chemical_formula_sum "Si O2"
_cell_formula_units_Z 60
_cell_length_a 8.952579
_cell_length_b 30.209031
_cell_length_c 10.799687
_cell_angle_alpha 90.000000
_cell_angle_beta 79.339987
_cell_angle_gamma 90.000000
_cell_volume 2870.355593
_symmetry_space_group_name_H-M "C 2/C"
_symmetry_group_IT_number 15
_symmetry_cell_setting 'monoclinic'
loop_
_space_group_symop_operation_xyz
x,y,z
-x,y,1/2-z
-x,-y,-z
x,-y,1/2+z
1/2+x,1/2+y,z
1/2-x,1/2+y,1/2-z
1/2-x,1/2-y,-z
1/2+x,1/2-y,1/2+z
loop_
_atom_site_type_symbol
_atom_site_label
_atom_site_fract_x
_atom_site_fract_y
_atom_site_fract_z
Si Si1 0.404285 0.492406 0.139318
Si Si2 0.288629 0.396615 0.155881
Si Si3 0.818258 0.786225 0.903430
Si Si4 0.058866 0.153600 0.505017
Si Si5 0.500000 0.220289 0.750000
Si Si6 0.368012 0.130818 0.068838
Si Si7 0.163501 0.085466 0.290622
Si Si8 0.653137 0.846502 0.403386
O O1 0.500000 0.485668 0.250000
O O2 0.298579 0.449490 0.142667
O O3 0.300137 0.536110 0.167195
O O4 0.500000 0.500000 0.000000
O O5 0.205559 0.383190 0.295598
O O6 0.454217 0.374154 0.116499
O O7 0.187940 0.378563 0.060411
O O8 0.695645 0.821630 0.876716
O O9 0.964213 0.810376 0.943110
O O10 0.861576 0.754631 0.783617
O O11 0.750000 0.750000 0.000000
O O12 0.149984 0.119985 0.403122
O O13 0.194861 0.176003 0.563447
O O14 0.457208 0.190458 0.638850
O O15 0.302973 0.095715 0.176456
O O16 0.551723 0.130999 0.029457
O O17 0.000000 0.086097 0.250000
#
# Coordination Sequence:
#
# PCOD8151381 Si02
#       8
#     8   8   8   8   4   8   8   8
#     4  11  21  36  65 103 130 164 232 290 329 402
#     4  11  20  40  66  95 125 171 217 273 334 391
#     4  11  21  39  66  91 122 167 221 268 324 389
#     4  11  23  39  67  96 125 168 224 272 321 395
#     4  12  22  42  64  90 126 174 216 268 330 398
#     4  11  22  43  65  91 133 176 214 263 343 408
#     4  11  20  40  67  94 125 175 220 272 336 395
#     4  12  24  41  65  93 133 173 217 267 341 403
#
# _framework density 20.903333
#
# number of rings (size 3 to 8) (size 9 to 14) (size 15 to 20)
#    0.000    0.800    6.667    3.600    0.000    1.067 
#    0.000    0.667    2.933    0.000    0.000    0.000 
#    0.000    0.000    0.000    0.000    0.000    0.000 
#
# Total GULP energy -371737.520141 kJ/mol
# GULP energy per Si atom -12391.250671 kJ/mol
# Density = 2.085576 g / cm^3
# Si number density = 20.903333 Si / 1000 Ang^3
#
#
#
# Elastic Constant Matrix: (Units=GPa)
#
#
# Indices 1 2 3 4 5 6 
#
# 1 84.2260 27.9445 25.9355 0.0000 -19.0857 0.0000
# 2 27.9445 123.2554 29.3462 0.0000 -16.7572 0.0000
# 3 25.9355 29.3462 101.0674 0.0000 -37.4508 0.0000
# 4 0.0000 0.0000 0.0000 39.1404 0.0000 -11.7849
# 5 -19.0857 -16.7572 -37.4508 0.0000 37.7562 0.0000
# 6 0.0000 0.0000 0.0000 -11.7849 0.0000 7.2805
#
#
#
# Elastic Compliance Matrix: (Units=1/GPa)
#
#
# Indices 1 2 3 4 5 6 
#
# 1 0.014099 -0.002250 -0.001097 0.000000 0.005040 0.000000
# 2 -0.002250 0.009186 -0.001582 0.000000 0.001370 0.000000
# 3 -0.001097 -0.001582 0.016080 0.000000 0.014693 0.000000
# 4 0.000000 0.000000 0.000000 0.049840 0.000000 0.080675
# 5 0.005040 0.001370 0.014693 0.000000 0.044216 0.000000
# 6 0.000000 0.000000 0.000000 0.080675 0.000000 0.267941
#
#
# Mechanical properties :
#
#
# Convention : Reuss Voigt Hill
#
# Bulk Modulus (GPa) = 33.89046 52.77791 43.33419
# Shear Modulus (GPa) = 11.87489 31.85693 21.86591
#
# Velocity S-wave (km/s) = 2.38604 3.90809 3.23778
# Velocity P-wave (km/s) = 4.88253 6.75778 5.89520
#
# Compressibility (1/GPa) = 0.02950683
#
# Stress axis : x y z
#
# Youngs Moduli (GPa) = 70.92532 108.85656 62.18974
#
# Poissons Ratio (x) = 0.24494 0.06822
# Poissons Ratio (y) = 0.15959 0.09840
# Poissons Ratio (z) = 0.07781 0.17223
#
# Static dielectric constant tensor:
#      x y z
#    x 3.617500 0.000000 -0.184670 
#    y 0.000000 3.888060 0.000000 
#    z -0.184670 0.000000 3.896550 
# 
# 
# High freq. dielectric constant tensor:
#      x y z
#    x 1.795860 0.000000 -0.015700 
#    y 0.000000 1.820330 0.000000 
#    z -0.015700 0.000000 1.833520 
# 
# From -- ./inp_files/82562.got.cif
#   From: 2010.06.25/outbox.cif.g09.slc.cpg/sg15_42_cif.got.tgz:82562.got - 2010.06.28 07:06:18.
