data_PCOD8151341
_publ_section_title
;
Structure prediction by ZEFSAII (Michael W. Deem and Ramdas Pophale) SiO2 
 PCOD8151341
Probable space group: C 2/C
;
_chemical_formula_sum "Si O2"
_cell_formula_units_Z 48
_cell_length_a 20.342924
_cell_length_b 13.773293
_cell_length_c 9.766231
_cell_angle_alpha 90.000000
_cell_angle_beta 60.009765
_cell_angle_gamma 90.000000
_cell_volume 2370.017281
_symmetry_space_group_name_H-M "C 2/C"
_symmetry_group_IT_number 15
_symmetry_cell_setting 'monoclinic'
loop_
_space_group_symop_operation_xyz
x,y,z
-x,y,1/2-z
-x,-y,-z
x,-y,1/2+z
1/2+x,1/2+y,z
1/2-x,1/2+y,1/2-z
1/2-x,1/2-y,-z
1/2+x,1/2-y,1/2+z
loop_
_atom_site_type_symbol
_atom_site_label
_atom_site_fract_x
_atom_site_fract_y
_atom_site_fract_z
Si Si1 0.916023 0.299078 0.832091
Si Si2 0.948425 0.108007 0.421844
Si Si3 0.273615 0.916157 0.036741
Si Si4 0.671352 0.725642 0.815723
Si Si5 0.235973 0.094480 0.258326
Si Si6 0.573795 0.604100 0.510475
O O1 0.891296 0.288563 0.700225
O O2 0.000000 0.345822 0.750000
O O3 0.857263 0.370084 0.970191
O O4 0.916326 0.192376 0.897242
O O5 0.869372 0.165918 0.520808
O O6 0.000000 0.155625 0.250000
O O7 0.994426 0.115421 0.515228
O O8 0.928600 0.996952 0.402657
O O9 0.211971 0.843910 0.164353
O O10 0.272924 0.017187 0.117678
O O11 0.254323 0.931918 0.897315
O O12 0.731213 0.800476 0.818546
O O13 0.145036 0.098383 0.331692
#
# Coordination Sequence:
#
# PCOD8151341 Si02
#       6
#     8   8   8   8   8   8
#     4  11  20  39  65  88 113 162 207 242 290 367
#     4  11  25  36  56  96 129 150 189 260 314 351
#     4  11  23  41  62  91 123 157 209 249 295 357
#     4  11  21  40  62  88 122 158 203 246 294 370
#     4  11  23  40  64  92 118 163 204 250 295 360
#     4  11  21  36  63  88 121 151 200 240 311 358
#
# _framework density 20.253015999999999
#
# number of rings (size 3 to 8) (size 9 to 14) (size 15 to 20)
#    0.000    1.000    6.667    1.500    4.667    0.000 
#    3.000    5.833    0.000    0.000    0.000    0.000 
#    0.000    0.000    0.000    0.000    0.000    0.000 
#
# Total GULP energy -297634.856373 kJ/mol
# GULP energy per Si atom -12401.452349 kJ/mol
# Density = 2.020692 g / cm^3
# Si number density = 20.253016 Si / 1000 Ang^3
#
#
#
# Elastic Constant Matrix: (Units=GPa)
#
#
# Indices 1 2 3 4 5 6 
#
# 1 42.9086 15.7178 13.2835 0.0000 -25.7455 0.0000
# 2 15.7178 86.6448 36.8044 0.0000 -4.9943 0.0000
# 3 13.2835 36.8044 114.1922 0.0000 -24.3876 0.0000
# 4 0.0000 0.0000 0.0000 34.3876 0.0000 -12.7180
# 5 -25.7455 -4.9943 -24.3876 0.0000 34.8183 0.0000
# 6 0.0000 0.0000 0.0000 -12.7180 0.0000 24.2522
#
#
#
# Elastic Compliance Matrix: (Units=1/GPa)
#
#
# Indices 1 2 3 4 5 6 
#
# 1 0.047310 -0.008670 0.005287 0.000000 0.037442 0.000000
# 2 -0.008670 0.015011 -0.005572 0.000000 -0.008161 0.000000
# 3 0.005287 -0.005572 0.012467 0.000000 0.011843 0.000000
# 4 0.000000 0.000000 0.000000 0.036077 0.000000 0.018919
# 5 0.037442 -0.008161 0.011843 0.000000 0.063530 0.000000
# 6 0.000000 0.000000 0.000000 0.018919 0.000000 0.051155
#
#
# Mechanical properties :
#
#
# Convention : Reuss Voigt Hill
#
# Bulk Modulus (GPa) = 17.58151 41.70633 29.64392
# Shear Modulus (GPa) = 19.05347 30.55427 24.80387
#
# Velocity S-wave (km/s) = 3.07053 3.88832 3.50337
# Velocity P-wave (km/s) = 4.61201 6.38718 5.57076
#
# Compressibility (1/GPa) = 0.05687793
#
# Stress axis : x y z
#
# Youngs Moduli (GPa) = 21.13726 66.61907 80.20998
#
# Poissons Ratio (x) = 0.57759 -0.42410
# Poissons Ratio (y) = 0.18326 0.44695
# Poissons Ratio (z) = -0.11176 0.37122
#
# Static dielectric constant tensor:
#      x y z
#    x 3.770320 0.000000 -0.438250 
#    y 0.000000 3.652030 0.000000 
#    z -0.438250 0.000000 3.716490 
# 
# 
# High freq. dielectric constant tensor:
#      x y z
#    x 1.787350 0.000000 -0.021900 
#    y 0.000000 1.776430 0.000000 
#    z -0.021900 0.000000 1.790290 
# 
# From -- ./inp_files/104196.got.cif
#   From: 2010.06.25/outbox.cif.g09.slc.cpg/sg15_53_cif.got.tgz:104196.got - 2010.06.28 07:06:18.
