data_PCOD8151812
_publ_section_title
;
Structure prediction by ZEFSAII (Michael W. Deem and Ramdas Pophale) SiO2 
 PCOD8151812
Probable space group: C 2/C
;
_chemical_formula_sum "Si O2"
_cell_formula_units_Z 44
_cell_length_a 23.039770
_cell_length_b 8.818853
_cell_length_c 12.309623
_cell_angle_alpha 90.000000
_cell_angle_beta 131.151935
_cell_angle_gamma 90.000000
_cell_volume 1883.263378
_symmetry_space_group_name_H-M "C 2/C"
_symmetry_group_IT_number 15
_symmetry_cell_setting 'monoclinic'
loop_
_space_group_symop_operation_xyz
x,y,z
-x,y,1/2-z
-x,-y,-z
x,-y,1/2+z
1/2+x,1/2+y,z
1/2-x,1/2+y,1/2-z
1/2-x,1/2-y,-z
1/2+x,1/2-y,1/2+z
loop_
_atom_site_type_symbol
_atom_site_label
_atom_site_fract_x
_atom_site_fract_y
_atom_site_fract_z
Si Si1 0.650987 0.310107 0.641554
Si Si2 0.000000 0.688326 0.750000
Si Si3 0.131977 0.443792 0.273601
Si Si4 0.701992 0.255338 0.304136
Si Si5 0.790439 0.947297 0.570887
Si Si6 0.895746 0.100304 0.004402
O O1 0.615720 0.150058 0.640760
O O2 0.711849 0.298755 0.618456
O O3 0.698718 0.380367 0.798101
O O4 0.585334 0.428767 0.516543
O O5 0.064104 0.578315 0.777266
O O6 0.970781 0.794546 0.613407
O O7 0.143147 0.620119 0.261215
O O8 0.210752 0.381960 0.424492
O O9 0.711940 0.369349 0.418341
O O10 0.666496 0.333477 0.154487
O O11 0.861479 0.902431 0.583209
#
# Coordination Sequence:
#
# PCOD8151812 Si02
#       6
#     8   4   8   8   8   8
#     4  11  21  40  71 100 129 175 230 293 327 390
#     4  12  28  44  66  96 150 196 216 270 356 426
#     4  12  23  42  70 103 141 177 222 291 345 403
#     4  11  23  41  73 110 126 167 242 293 341 386
#     4  11  21  43  72 100 133 176 233 289 333 400
#     4  11  24  45  67  97 136 183 229 276 341 415
#
# _framework density 23.363700999999999
#
# number of rings (size 3 to 8) (size 9 to 14) (size 15 to 20)
#    0.000    0.727    5.455    3.273    0.000    1.455 
#    0.000    0.909    0.000    0.000    0.000    0.000 
#    0.000    0.000    0.000    0.000    0.000    0.000 
#
# Total GULP energy -272756.279821 kJ/mol
# GULP energy per Si atom -12398.012719 kJ/mol
# Density = 2.331052 g / cm^3
# Si number density = 23.363701 Si / 1000 Ang^3
#
#
#
# Elastic Constant Matrix: (Units=GPa)
#
#
# Indices 1 2 3 4 5 6 
#
# 1 93.8983 52.5385 22.4324 0.0000 -13.1382 0.0000
# 2 52.5385 110.2816 2.1231 0.0000 -6.1616 0.0000
# 3 22.4324 2.1231 47.9977 0.0000 -11.2619 0.0000
# 4 0.0000 0.0000 0.0000 34.1819 0.0000 0.8341
# 5 -13.1382 -6.1616 -11.2619 0.0000 24.0334 0.0000
# 6 0.0000 0.0000 0.0000 0.8341 0.0000 26.1906
#
#
#
# Elastic Compliance Matrix: (Units=1/GPa)
#
#
# Indices 1 2 3 4 5 6 
#
# 1 0.017239 -0.007845 -0.006708 0.000000 0.004269 0.000000
# 2 -0.007845 0.012771 0.003217 0.000000 0.000493 0.000000
# 3 -0.006708 0.003217 0.026021 0.000000 0.009351 0.000000
# 4 0.000000 0.000000 0.000000 0.029278 0.000000 -0.000932
# 5 0.004269 0.000493 0.009351 0.000000 0.048451 0.000000
# 6 0.000000 0.000000 0.000000 -0.000932 0.000000 0.038211
#
#
# Mechanical properties :
#
#
# Convention : Reuss Voigt Hill
#
# Bulk Modulus (GPa) = 29.97673 45.15171 37.56422
# Shear Modulus (GPa) = 24.29971 28.55344 26.42657
#
# Velocity S-wave (km/s) = 3.22850 3.49969 3.36682
# Velocity P-wave (km/s) = 5.17261 5.97478 5.58811
#
# Compressibility (1/GPa) = 0.03335921
#
# Stress axis : x y z
#
# Youngs Moduli (GPa) = 58.00665 78.30368 38.42998
#
# Poissons Ratio (x) = 0.61431 0.25780
# Poissons Ratio (y) = 0.45508 -0.12364
# Poissons Ratio (z) = 0.38913 -0.25193
#
# Static dielectric constant tensor:
#      x y z
#    x 3.796800 0.000000 -0.260880 
#    y 0.000000 4.830870 0.000000 
#    z -0.260880 0.000000 4.180760 
# 
# 
# High freq. dielectric constant tensor:
#      x y z
#    x 1.900750 0.000000 -0.028800 
#    y 0.000000 1.949430 0.000000 
#    z -0.028800 0.000000 1.920840 
# 
# From -- ./inp_files/116860.got.cif
#   From: 2010.06.25/outbox.cif.g09.slc.cpg/sg15_59_cif.got.tgz:116860.got - 2010.06.28 07:06:18.
