data_PCOD8151489
_publ_section_title
;
Structure prediction by ZEFSAII (Michael W. Deem and Ramdas Pophale) SiO2 
 PCOD8151489
Probable space group: C 2/C
;
_chemical_formula_sum "Si O2"
_cell_formula_units_Z 40
_cell_length_a 6.425781
_cell_length_b 23.440519
_cell_length_c 11.731352
_cell_angle_alpha 90.000000
_cell_angle_beta 89.113814
_cell_angle_gamma 90.000000
_cell_volume 1766.807607
_symmetry_space_group_name_H-M "C 2/C"
_symmetry_group_IT_number 15
_symmetry_cell_setting 'monoclinic'
loop_
_space_group_symop_operation_xyz
x,y,z
-x,y,1/2-z
-x,-y,-z
x,-y,1/2+z
1/2+x,1/2+y,z
1/2-x,1/2+y,1/2-z
1/2-x,1/2-y,-z
1/2+x,1/2-y,1/2+z
loop_
_atom_site_type_symbol
_atom_site_label
_atom_site_fract_x
_atom_site_fract_y
_atom_site_fract_z
Si Si1 0.443275 0.139419 0.532453
Si Si2 0.098315 0.060589 0.627536
Si Si3 0.500000 0.377411 0.750000
Si Si4 0.687522 0.787663 0.670685
Si Si5 0.000000 0.696051 0.750000
Si Si6 0.780284 0.055742 0.439843
O O1 0.225095 0.115229 0.581831
O O2 0.389641 0.195128 0.455431
O O3 0.583476 0.157283 0.643042
O O4 0.568460 0.092293 0.456825
O O5 0.000000 0.073257 0.750000
O O6 0.890843 0.046862 0.558884
O O7 0.258764 0.006307 0.618230
O O8 0.295329 0.341907 0.725516
O O9 0.548983 0.413900 0.639471
O O10 0.500000 0.768668 0.750000
O O11 0.836992 0.733226 0.678548
#
# Coordination Sequence:
#
# PCOD8151489 Si02
#       6
#     8   8   4   8   4   8
#     4  12  24  45  68  99 133 178 219 273 333 391
#     4  11  24  41  66 103 141 173 212 266 329 396
#     4  11  20  44  66 100 132 170 226 267 322 396
#     4  11  24  44  70  94 125 179 227 275 331 391
#     4  11  28  44  64  98 130 168 230 285 334 382
#     4  11  23  41  70  99 136 176 217 263 326 406
#
# _framework density 22.639703000000001
#
# number of rings (size 3 to 8) (size 9 to 14) (size 15 to 20)
#    0.000    0.800    5.000    2.400    0.000    3.200 
#    0.000    0.000    0.000    0.000    0.000    0.000 
#    0.000    0.000    0.000    0.000    0.000    0.000 
#
# Total GULP energy -247875.100443 kJ/mol
# GULP energy per Si atom -12393.755022 kJ/mol
# Density = 2.258817 g / cm^3
# Si number density = 22.639703 Si / 1000 Ang^3
#
#
#
# Elastic Constant Matrix: (Units=GPa)
#
#
# Indices 1 2 3 4 5 6 
#
# 1 70.4944 14.7945 34.1687 0.0000 -12.6286 0.0000
# 2 14.7945 75.4574 28.0525 0.0000 -9.6367 0.0000
# 3 34.1687 28.0525 134.3581 0.0000 -13.3413 0.0000
# 4 0.0000 0.0000 0.0000 32.2566 0.0000 8.5518
# 5 -12.6286 -9.6367 -13.3413 0.0000 40.3814 0.0000
# 6 0.0000 0.0000 0.0000 8.5518 0.0000 14.5112
#
#
#
# Elastic Compliance Matrix: (Units=1/GPa)
#
#
# Indices 1 2 3 4 5 6 
#
# 1 0.016924 -0.001495 -0.003621 0.000000 0.003740 0.000000
# 2 -0.001495 0.014752 -0.002478 0.000000 0.002234 0.000000
# 3 -0.003621 -0.002478 0.009005 0.000000 0.001252 0.000000
# 4 0.000000 0.000000 0.000000 0.036742 0.000000 -0.021653
# 5 0.003740 0.002234 0.001252 0.000000 0.026880 0.000000
# 6 0.000000 0.000000 0.000000 -0.021653 0.000000 0.081673
#
#
# Mechanical properties :
#
#
# Convention : Reuss Voigt Hill
#
# Bulk Modulus (GPa) = 39.22356 48.26012 43.74184
# Shear Modulus (GPa) = 23.84798 30.98278 27.41538
#
# Velocity S-wave (km/s) = 3.24909 3.70336 3.48364
# Velocity P-wave (km/s) = 5.60697 6.29677 5.96186
#
# Compressibility (1/GPa) = 0.02549488
#
# Stress axis : x y z
#
# Youngs Moduli (GPa) = 59.08750 67.78658 111.04669
#
# Poissons Ratio (x) = 0.10131 0.40205
# Poissons Ratio (y) = 0.08831 0.27519
# Poissons Ratio (z) = 0.21393 0.16798
#
# Static dielectric constant tensor:
#      x y z
#    x 3.772600 0.000000 0.037240 
#    y 0.000000 4.215470 0.000000 
#    z 0.037240 0.000000 4.143350 
# 
# 
# High freq. dielectric constant tensor:
#      x y z
#    x 1.872070 0.000000 -0.002920 
#    y 0.000000 1.901990 0.000000 
#    z -0.002920 0.000000 1.910930 
# 
# From -- ./inp_files/73157.got.cif
#   From: 2010.06.25/outbox.cif.g09.slc.cpg/sg15_37_cif.got.tgz:73157.got - 2010.06.28 07:06:18.
