data_PCOD8151371
_publ_section_title
;
Structure prediction by ZEFSAII (Michael W. Deem and Ramdas Pophale) SiO2 
 PCOD8151371
Probable space group: C 2/C
;
_chemical_formula_sum "Si O2"
_cell_formula_units_Z 64
_cell_length_a 34.341820
_cell_length_b 7.947297
_cell_length_c 14.485211
_cell_angle_alpha 90.000000
_cell_angle_beta 130.758353
_cell_angle_gamma 90.000000
_cell_volume 2994.559221
_symmetry_space_group_name_H-M "C 2/C"
_symmetry_group_IT_number 15
_symmetry_cell_setting 'monoclinic'
loop_
_space_group_symop_operation_xyz
x,y,z
-x,y,1/2-z
-x,-y,-z
x,-y,1/2+z
1/2+x,1/2+y,z
1/2-x,1/2+y,1/2-z
1/2-x,1/2-y,-z
1/2+x,1/2-y,1/2+z
loop_
_atom_site_type_symbol
_atom_site_label
_atom_site_fract_x
_atom_site_fract_y
_atom_site_fract_z
Si Si1 0.764135 0.562343 0.490844
Si Si2 0.509778 0.122928 0.932540
Si Si3 0.789261 0.883323 0.253557
Si Si4 0.783231 0.109278 0.412989
Si Si5 0.549591 0.384919 0.575589
Si Si6 0.043402 0.325356 0.878956
Si Si7 0.106389 0.793661 0.162212
Si Si8 0.862513 0.358814 0.605761
O O1 0.750000 0.750000 0.500000
O O2 0.725728 0.520146 0.347368
O O3 0.755105 0.444111 0.564984
O O4 0.823548 0.520687 0.552670
O O5 0.460214 0.249553 0.856493
O O6 0.515299 0.004917 0.853072
O O7 0.562053 0.229151 0.026178
O O8 0.500000 0.000000 0.000000
O O9 0.743515 0.749693 0.191936
O O10 0.839689 0.779162 0.305586
O O11 0.798909 0.958916 0.369688
O O12 0.832755 0.186004 0.538819
O O13 0.500000 0.500000 0.500000
O O14 0.556420 0.287685 0.488403
O O15 0.597843 0.506111 0.671454
O O16 0.096201 0.378585 0.911322
O O17 0.000000 0.227747 0.750000
O O18 0.106509 0.674003 0.251927
#
# Coordination Sequence:
#
# PCOD8151371 Si02
#       8
#     8   8   8   8   8   8   8   8
#     4  11  23  44  62  93 134 167 220 269 330 396
#     4   9  20  38  57  86 123 161 206 257 315 377
#     4  11  22  40  64  94 126 172 206 274 322 385
#     4  11  22  41  63  93 132 166 220 262 330 393
#     4   9  19  38  62  89 121 166 210 261 316 383
#     4  11  22  40  62  92 128 171 214 264 326 385
#     4  11  20  40  65  89 126 164 212 266 326 372
#     4  11  22  42  65  90 131 172 209 277 329 385
#
# _framework density 21.372094000000001
#
# number of rings (size 3 to 8) (size 9 to 14) (size 15 to 20)
#    0.000    1.500    2.500    4.500    0.000    3.000 
#    9.000    6.250    0.000    0.000    0.000    0.000 
#    0.000    0.000    0.000    0.000    0.000    0.000 
#
# Total GULP energy -396510.075031 kJ/mol
# GULP energy per Si atom -12390.939845 kJ/mol
# Density = 2.132345 g / cm^3
# Si number density = 21.372094 Si / 1000 Ang^3
#
#
#
# Elastic Constant Matrix: (Units=GPa)
#
#
# Indices 1 2 3 4 5 6 
#
# 1 127.4305 30.2230 14.6028 0.0000 -1.9982 0.0000
# 2 30.2230 76.3686 5.6679 0.0000 0.6270 0.0000
# 3 14.6028 5.6679 53.6467 0.0000 2.5542 0.0000
# 4 0.0000 0.0000 0.0000 26.1008 0.0000 -1.4297
# 5 -1.9982 0.6270 2.5542 0.0000 26.9551 0.0000
# 6 0.0000 0.0000 0.0000 -1.4297 0.0000 31.6062
#
#
#
# Elastic Compliance Matrix: (Units=1/GPa)
#
#
# Indices 1 2 3 4 5 6 
#
# 1 0.008905 -0.003375 -0.002112 0.000000 0.000939 0.000000
# 2 -0.003375 0.014478 -0.000586 0.000000 -0.000531 0.000000
# 3 -0.002112 -0.000586 0.019371 0.000000 -0.001979 0.000000
# 4 0.000000 0.000000 0.000000 0.038408 0.000000 0.001737
# 5 0.000939 -0.000531 -0.001979 0.000000 0.037368 0.000000
# 6 0.000000 0.000000 0.000000 0.001737 0.000000 0.031718
#
#
# Mechanical properties :
#
#
# Convention : Reuss Voigt Hill
#
# Bulk Modulus (GPa) = 32.67041 39.82591 36.24816
# Shear Modulus (GPa) = 28.96934 30.72923 29.84928
#
# Velocity S-wave (km/s) = 3.68567 3.79597 3.74123
# Velocity P-wave (km/s) = 5.78203 6.15529 5.97158
#
# Compressibility (1/GPa) = 0.03060874
#
# Stress axis : x y z
#
# Youngs Moduli (GPa) = 112.30139 69.07089 51.62236
#
# Poissons Ratio (x) = 0.23311 0.10903
# Poissons Ratio (y) = 0.37902 0.03023
# Poissons Ratio (z) = 0.23718 0.04045
#
# Static dielectric constant tensor:
#      x y z
#    x 4.162720 0.000000 0.247950 
#    y 0.000000 4.520870 0.000000 
#    z 0.247950 0.000000 3.316250 
# 
# 
# High freq. dielectric constant tensor:
#      x y z
#    x 1.850840 0.000000 0.003590 
#    y 0.000000 1.838210 0.000000 
#    z 0.003590 0.000000 1.820270 
# 
# From -- ./inp_files/181166.got.cif
#   From: 2010.06.25/outbox.cif.g09.slc.cpg/sg15_91_cif.got.tgz:181166.got - 2010.06.28 07:06:18.
