data_PCOD8151608
_publ_section_title
;
Structure prediction by ZEFSAII (Michael W. Deem and Ramdas Pophale) SiO2 
 PCOD8151608
Probable space group: C 2/C
;
_chemical_formula_sum "Si O2"
_cell_formula_units_Z 40
_cell_length_a 21.824728
_cell_length_b 18.099337
_cell_length_c 14.216206
_cell_angle_alpha 90.000000
_cell_angle_beta 159.411841
_cell_angle_gamma 90.000000
_cell_volume 1974.711255
_symmetry_space_group_name_H-M "C 2/C"
_symmetry_group_IT_number 15
_symmetry_cell_setting 'monoclinic'
loop_
_space_group_symop_operation_xyz
x,y,z
-x,y,1/2-z
-x,-y,-z
x,-y,1/2+z
1/2+x,1/2+y,z
1/2-x,1/2+y,1/2-z
1/2-x,1/2-y,-z
1/2+x,1/2-y,1/2+z
loop_
_atom_site_type_symbol
_atom_site_label
_atom_site_fract_x
_atom_site_fract_y
_atom_site_fract_z
Si Si1 0.516032 0.399485 0.016559
Si Si2 0.903762 0.008907 0.709051
Si Si3 0.645168 0.848916 0.533627
Si Si4 0.354683 0.321326 0.462377
Si Si5 0.407064 0.928558 0.326416
O O1 0.537393 0.462648 0.966584
O O2 0.317234 0.395329 0.763724
O O3 0.631093 0.417626 0.276023
O O4 0.577554 0.326739 0.048444
O O5 0.000000 0.029816 0.750000
O O6 0.729720 0.960709 0.446149
O O7 0.699973 0.763320 0.605489
O O8 0.557900 0.874582 0.505139
O O9 0.500000 0.868998 0.250000
O O10 0.192602 0.376878 0.241845
O O11 0.500000 0.342897 0.750000
O O12 0.500000 0.000000 0.500000
#
# Coordination Sequence:
#
# PCOD8151608 Si02
#       5
#     8   8   8   8   8
#     4  11  21  37  63  82 121 161 191 242 307 370
#     4  11  21  38  58  87 121 156 199 241 305 358
#     4  11  22  35  60  94 122 155 201 256 308 359
#     4  11  21  40  60  88 128 159 196 253 313 364
#     4  12  23  37  61  90 127 154 204 261 294 353
#
# _framework density 20.256126999999999
#
# number of rings (size 3 to 8) (size 9 to 14) (size 15 to 20)
#    0.000    0.800    6.000    2.400    2.800    3.200 
#    0.000    0.000    0.000   13.200    0.000    0.000 
#    0.000    0.000    0.000    0.000    0.000    0.000 
#
# Total GULP energy -247817.902378 kJ/mol
# GULP energy per Si atom -12390.895119 kJ/mol
# Density = 2.021002 g / cm^3
# Si number density = 20.256127 Si / 1000 Ang^3
#
#
#
# Elastic Constant Matrix: (Units=GPa)
#
#
# Indices 1 2 3 4 5 6 
#
# 1 133.2400 35.7806 38.7710 0.0000 6.4780 0.0000
# 2 35.7806 81.1159 39.3690 0.0000 7.4766 0.0000
# 3 38.7710 39.3690 55.2749 0.0000 5.7837 0.0000
# 4 0.0000 0.0000 0.0000 33.3061 0.0000 4.2761
# 5 6.4780 7.4766 5.7837 0.0000 31.7764 0.0000
# 6 0.0000 0.0000 0.0000 4.2761 0.0000 32.0083
#
#
#
# Elastic Compliance Matrix: (Units=1/GPa)
#
#
# Indices 1 2 3 4 5 6 
#
# 1 0.009554 -0.001433 -0.005619 0.000000 -0.000588 0.000000
# 2 -0.001433 0.019185 -0.012455 0.000000 -0.001955 0.000000
# 3 -0.005619 -0.012455 0.031069 0.000000 -0.001579 0.000000
# 4 0.000000 0.000000 0.000000 0.030549 0.000000 -0.004081
# 5 -0.000588 -0.001955 -0.001579 0.000000 0.032337 0.000000
# 6 0.000000 0.000000 0.000000 -0.004081 0.000000 0.031787
#
#
# Mechanical properties :
#
#
# Convention : Reuss Voigt Hill
#
# Bulk Modulus (GPa) = 48.09075 55.27469 51.68272
# Shear Modulus (GPa) = 24.94694 29.79882 27.37288
#
# Velocity S-wave (km/s) = 3.51319 3.83966 3.68004
# Velocity P-wave (km/s) = 6.34425 6.85598 6.60507
#
# Compressibility (1/GPa) = 0.02079402
#
# Stress axis : x y z
#
# Youngs Moduli (GPa) = 104.67151 52.12380 32.18656
#
# Poissons Ratio (x) = 0.07468 0.18086
# Poissons Ratio (y) = 0.14997 0.40088
# Poissons Ratio (z) = 0.58817 0.64919
#
# Static dielectric constant tensor:
#      x y z
#    x 2.589030 0.000000 -0.966700 
#    y 0.000000 3.705850 0.000000 
#    z -0.966700 0.000000 3.014510 
# 
# 
# High freq. dielectric constant tensor:
#      x y z
#    x 1.803260 0.000000 0.012220 
#    y 0.000000 1.789110 0.000000 
#    z 0.012220 0.000000 1.757560 
# 
# From -- ./inp_files/29077.got.cif
#   From: 2010.06.25/outbox.cif.g09.slc.cpg/sg15_15_cif.got.tgz:29077.got - 2010.06.28 07:06:18.
