data_PCOD8151465
_publ_section_title
;
Structure prediction by ZEFSAII (Michael W. Deem and Ramdas Pophale) SiO2 
 PCOD8151465
Probable space group: C 2/C
;
_chemical_formula_sum "Si O2"
_cell_formula_units_Z 56
_cell_length_a 11.645611
_cell_length_b 17.870216
_cell_length_c 16.664954
_cell_angle_alpha 90.000000
_cell_angle_beta 130.014608
_cell_angle_gamma 90.000000
_cell_volume 2656.178347
_symmetry_space_group_name_H-M "C 2/C"
_symmetry_group_IT_number 15
_symmetry_cell_setting 'monoclinic'
loop_
_space_group_symop_operation_xyz
x,y,z
-x,y,1/2-z
-x,-y,-z
x,-y,1/2+z
1/2+x,1/2+y,z
1/2-x,1/2+y,1/2-z
1/2-x,1/2-y,-z
1/2+x,1/2-y,1/2+z
loop_
_atom_site_type_symbol
_atom_site_label
_atom_site_fract_x
_atom_site_fract_y
_atom_site_fract_z
Si Si1 0.052012 0.148339 0.538099
Si Si2 0.412252 0.216219 0.050853
Si Si3 0.773395 0.934080 0.257801
Si Si4 0.290256 0.580684 0.030456
Si Si5 0.013310 0.586126 0.529693
Si Si6 0.500000 0.838079 0.750000
Si Si7 0.765449 0.047942 0.394792
Si Si8 0.000000 0.988510 0.750000
O O1 0.148613 0.133907 0.661198
O O2 0.156974 0.145360 0.507013
O O3 0.982334 0.229943 0.515053
O O4 0.930341 0.082234 0.477190
O O5 0.516343 0.213468 0.177926
O O6 0.250000 0.250000 0.000000
O O7 0.413437 0.134245 0.010068
O O8 0.614745 0.905109 0.154242
O O9 0.748961 0.004448 0.304518
O O10 0.869889 0.958414 0.224630
O O11 0.431334 0.563363 0.150222
O O12 0.237670 0.506741 0.957743
O O13 0.153608 0.613425 0.021730
O O14 0.000000 0.500000 0.500000
O O15 0.354687 0.886215 0.662507
#
# Coordination Sequence:
#
# PCOD8151465 Si02
#       8
#     8   8   8   8   8   4   8   4
#     4  11  24  43  65  95 142 182 229 281 342 417
#     4  12  29  47  67 101 141 184 230 286 353 418
#     4  11  23  37  70 100 137 180 228 277 347 404
#     4  11  23  42  68 103 139 180 232 286 342 408
#     4  12  26  44  70 105 139 174 235 294 338 410
#     4  12  26  41  70  92 141 180 226 284 352 403
#     4  11  20  43  65 104 134 179 225 291 337 415
#     4  12  20  33  68 104 135 180 228 284 338 407
#
# _framework density 21.082920000000001
#
# number of rings (size 3 to 8) (size 9 to 14) (size 15 to 20)
#    0.000    0.571    5.714    3.429    4.000    2.286 
#    0.000    0.000    0.000    0.000    0.000    0.000 
#    0.000    0.000    0.000    0.000    0.000    0.000 
#
# Total GULP energy -347261.996404 kJ/mol
# GULP energy per Si atom -12402.214157 kJ/mol
# Density = 2.103493 g / cm^3
# Si number density = 21.082920 Si / 1000 Ang^3
#
#
#
# Elastic Constant Matrix: (Units=GPa)
#
#
# Indices 1 2 3 4 5 6 
#
# 1 114.1937 45.1616 31.7238 0.0000 -2.3040 0.0000
# 2 45.1616 93.5017 28.7764 0.0000 -8.8090 0.0000
# 3 31.7238 28.7764 134.6448 0.0000 -5.9605 0.0000
# 4 0.0000 0.0000 0.0000 21.6411 0.0000 -3.1296
# 5 -2.3040 -8.8090 -5.9605 0.0000 36.9864 0.0000
# 6 0.0000 0.0000 0.0000 -3.1296 0.0000 38.3730
#
#
#
# Elastic Compliance Matrix: (Units=1/GPa)
#
#
# Indices 1 2 3 4 5 6 
#
# 1 0.011149 -0.004963 -0.001599 0.000000 -0.000745 0.000000
# 2 -0.004963 0.013864 -0.001673 0.000000 0.002723 0.000000
# 3 -0.001599 -0.001673 0.008198 0.000000 0.000823 0.000000
# 4 0.000000 0.000000 0.000000 0.046760 0.000000 0.003814
# 5 -0.000745 0.002723 0.000823 0.000000 0.027772 0.000000
# 6 0.000000 0.000000 0.000000 0.003814 0.000000 0.026371
#
#
# Mechanical properties :
#
#
# Convention : Reuss Voigt Hill
#
# Bulk Modulus (GPa) = 59.73746 61.51820 60.62783
# Shear Modulus (GPa) = 32.01775 35.17869 33.59822
#
# Velocity S-wave (km/s) = 3.90122 4.08927 3.99635
# Velocity P-wave (km/s) = 6.97773 7.17904 7.07910
#
# Compressibility (1/GPa) = 0.01673991
#
# Stress axis : x y z
#
# Youngs Moduli (GPa) = 89.69358 72.13121 121.98525
#
# Poissons Ratio (x) = 0.35799 0.19507
# Poissons Ratio (y) = 0.44516 0.20409
# Poissons Ratio (z) = 0.14343 0.12068
#
# Static dielectric constant tensor:
#      x y z
#    x 4.017080 0.000000 -0.006670 
#    y 0.000000 3.590980 0.000000 
#    z -0.006670 0.000000 3.983550 
# 
# 
# High freq. dielectric constant tensor:
#      x y z
#    x 1.834190 0.000000 -0.004900 
#    y 0.000000 1.803030 0.000000 
#    z -0.004900 0.000000 1.841130 
# 
# From -- ./inp_files/199626.got.cif
#   From: 2010.06.25/outbox.cif.g09.slc.cpg/sg15_100_cif.got.tgz:199626.got - 2010.06.28 07:06:18.
