data_PCOD8151660
_publ_section_title
;
Structure prediction by ZEFSAII (Michael W. Deem and Ramdas Pophale) SiO2 
 PCOD8151660
Probable space group: C 2/C
;
_chemical_formula_sum "Si O2"
_cell_formula_units_Z 48
_cell_length_a 9.315326
_cell_length_b 18.884755
_cell_length_c 14.837162
_cell_angle_alpha 90.000000
_cell_angle_beta 69.971366
_cell_angle_gamma 90.000000
_cell_volume 2452.262798
_symmetry_space_group_name_H-M "C 2/C"
_symmetry_group_IT_number 15
_symmetry_cell_setting 'monoclinic'
loop_
_space_group_symop_operation_xyz
x,y,z
-x,y,1/2-z
-x,-y,-z
x,-y,1/2+z
1/2+x,1/2+y,z
1/2-x,1/2+y,1/2-z
1/2-x,1/2-y,-z
1/2+x,1/2-y,1/2+z
loop_
_atom_site_type_symbol
_atom_site_label
_atom_site_fract_x
_atom_site_fract_y
_atom_site_fract_z
Si Si1 0.182878 0.717632 0.923934
Si Si2 0.332412 0.192030 0.040349
Si Si3 0.681966 0.017331 0.216977
Si Si4 0.316700 0.062348 0.611054
Si Si5 0.321385 0.953155 0.463787
Si Si6 0.173889 0.678879 0.245037
O O1 0.253778 0.640960 0.883543
O O2 0.212964 0.769467 0.833652
O O3 0.250000 0.750000 0.000000
O O4 0.007735 0.701241 0.978622
O O5 0.309603 0.197292 0.152831
O O6 0.250000 0.250000 0.000000
O O7 0.257742 0.118682 0.021311
O O8 0.500000 0.016485 0.250000
O O9 0.752077 0.975848 0.286541
O O10 0.748756 0.973544 0.118005
O O11 0.731588 0.099452 0.211409
O O12 0.498301 0.058181 0.580896
O O13 0.267772 0.019365 0.534122
O O14 0.000000 0.690696 0.250000
#
# Coordination Sequence:
#
# PCOD8151660 Si02
#       6
#     8   8   8   8   8   8
#     4  11  22  37  61  89 117 155 200 243 290 354
#     4  11  24  39  58  89 126 157 192 244 303 350
#     4   9  17  30  54  83 111 146 191 248 293 334
#     4   9  17  30  53  83 108 141 192 245 286 335
#     4   9  17  32  53  81 114 142 189 248 293 332
#     4  11  21  38  62  88 119 158 199 242 296 354
#
# _framework density 19.573758000000002
#
# number of rings (size 3 to 8) (size 9 to 14) (size 15 to 20)
#    0.000    2.000    3.333    1.000    7.000    0.667 
#    0.000    0.000    0.000    6.000    0.000    0.000 
#    0.000    0.000    0.000    0.000    0.000    0.000 
#
# Total GULP energy -297417.188859 kJ/mol
# GULP energy per Si atom -12392.382869 kJ/mol
# Density = 1.952921 g / cm^3
# Si number density = 19.573758 Si / 1000 Ang^3
#
#
#
# Elastic Constant Matrix: (Units=GPa)
#
#
# Indices 1 2 3 4 5 6 
#
# 1 19.3325 21.4241 16.2557 0.0000 10.6536 0.0000
# 2 21.4241 179.2830 81.6177 0.0000 16.1412 0.0000
# 3 16.2557 81.6177 165.9977 0.0000 26.9260 0.0000
# 4 0.0000 0.0000 0.0000 43.7717 0.0000 4.9406
# 5 10.6536 16.1412 26.9260 0.0000 23.6360 0.0000
# 6 0.0000 0.0000 0.0000 4.9406 0.0000 24.6646
#
#
#
# Elastic Compliance Matrix: (Units=1/GPa)
#
#
# Indices 1 2 3 4 5 6 
#
# 1 0.075030 -0.006612 0.000806 0.000000 -0.030221 0.000000
# 2 -0.006612 0.007792 -0.003439 0.000000 0.001577 0.000000
# 3 0.000806 -0.003439 0.008972 0.000000 -0.008235 0.000000
# 4 0.000000 0.000000 0.000000 0.023374 0.000000 -0.004682
# 5 -0.030221 0.001577 -0.008235 0.000000 0.064235 0.000000
# 6 0.000000 0.000000 0.000000 -0.004682 0.000000 0.041482
#
#
# Mechanical properties :
#
#
# Convention : Reuss Voigt Hill
#
# Bulk Modulus (GPa) = 13.64206 67.02313 40.33259
# Shear Modulus (GPa) = 18.95299 34.76885 26.86092
#
# Velocity S-wave (km/s) = 3.11510 4.21919 3.70847
# Velocity P-wave (km/s) = 4.46354 7.61912 6.24397
#
# Compressibility (1/GPa) = 0.07330272
#
# Stress axis : x y z
#
# Youngs Moduli (GPa) = 13.32794 128.34288 111.45530
#
# Poissons Ratio (x) = 0.84859 -0.08978
# Poissons Ratio (y) = 0.08812 0.38334
# Poissons Ratio (z) = -0.01074 0.44142
#
# Static dielectric constant tensor:
#      x y z
#    x 2.971470 0.000000 0.200740 
#    y 0.000000 3.980910 0.000000 
#    z 0.200740 0.000000 3.893770 
# 
# 
# High freq. dielectric constant tensor:
#      x y z
#    x 1.703430 0.000000 0.023480 
#    y 0.000000 1.783060 0.000000 
#    z 0.023480 0.000000 1.778650 
# 
# From -- ./inp_files/145000.got.cif
#   From: 2010.06.25/outbox.cif.g09.slc.cpg/sg15_73_cif.got.tgz:145000.got - 2010.06.28 07:06:18.
