data_PCOD8151362
_publ_section_title
;
Structure prediction by ZEFSAII (Michael W. Deem and Ramdas Pophale) SiO2 
 PCOD8151362
Probable space group: C 2/C
;
_chemical_formula_sum "Si O2"
_cell_formula_units_Z 60
_cell_length_a 25.455866
_cell_length_b 14.489499
_cell_length_c 16.492998
_cell_angle_alpha 90.000000
_cell_angle_beta 150.292640
_cell_angle_gamma 90.000000
_cell_volume 3014.713701
_symmetry_space_group_name_H-M "C 2/C"
_symmetry_group_IT_number 15
_symmetry_cell_setting 'monoclinic'
loop_
_space_group_symop_operation_xyz
x,y,z
-x,y,1/2-z
-x,-y,-z
x,-y,1/2+z
1/2+x,1/2+y,z
1/2-x,1/2+y,1/2-z
1/2-x,1/2-y,-z
1/2+x,1/2-y,1/2+z
loop_
_atom_site_type_symbol
_atom_site_label
_atom_site_fract_x
_atom_site_fract_y
_atom_site_fract_z
Si Si1 0.511825 0.222706 0.486607
Si Si2 0.702038 0.647893 0.430252
Si Si3 0.500000 0.690683 0.250000
Si Si4 0.362352 0.261229 0.422984
Si Si5 0.119157 0.567058 0.733275
Si Si6 0.970804 0.425089 0.617214
Si Si7 0.258295 0.049004 0.753348
Si Si8 0.676043 0.371059 0.710985
O O1 0.405933 0.255895 0.389874
O O2 0.581574 0.163826 0.643988
O O3 0.484011 0.165086 0.368635
O O4 0.577678 0.312063 0.545633
O O5 0.750000 0.750000 0.500000
O O6 0.600190 0.632074 0.351900
O O7 0.795928 0.579991 0.581773
O O8 0.664006 0.620118 0.290809
O O9 0.543295 0.750748 0.384021
O O10 0.302760 0.358248 0.354118
O O11 0.286226 0.175730 0.335375
O O12 0.176273 0.511194 0.736893
O O13 0.020246 0.513489 0.638334
O O14 0.843258 0.430211 0.438706
O O15 0.000000 0.419797 0.750000
O O16 0.173644 0.972746 0.668418
#
# Coordination Sequence:
#
# PCOD8151362 Si02
#       8
#     8   8   4   8   8   8   8   8
#     4  11  22  39  64  89 127 168 205 260 316 376
#     4  12  20  36  58  95 125 158 195 258 319 378
#     4  12  20  36  62  90 136 160 188 260 322 372
#     4  12  22  40  64  95 130 166 207 256 321 378
#     4  11  20  40  62  94 127 155 212 267 317 372
#     4  11  23  43  65  91 122 166 224 268 304 360
#     4  11  23  40  63  93 125 164 209 261 318 382
#     4  12  22  38  64  89 129 166 204 253 322 377
#
# _framework density 19.902388999999999
#
# number of rings (size 3 to 8) (size 9 to 14) (size 15 to 20)
#    0.000    0.533    8.000    4.000    0.000    0.533 
#    2.400    0.667    4.400    0.000    0.000    0.000 
#    0.000    0.000    0.000    0.000    0.000    0.000 
#
# Total GULP energy -372010.025112 kJ/mol
# GULP energy per Si atom -12400.334170 kJ/mol
# Density = 1.985709 g / cm^3
# Si number density = 19.902389 Si / 1000 Ang^3
#
#
#
# Elastic Constant Matrix: (Units=GPa)
#
#
# Indices 1 2 3 4 5 6 
#
# 1 108.1812 31.7647 25.6127 0.0000 3.8706 0.0000
# 2 31.7647 62.8149 19.7709 0.0000 -2.2725 0.0000
# 3 25.6127 19.7709 61.7602 0.0000 2.7861 0.0000
# 4 0.0000 0.0000 0.0000 22.8827 0.0000 6.8891
# 5 3.8706 -2.2725 2.7861 0.0000 36.3528 0.0000
# 6 0.0000 0.0000 0.0000 6.8891 0.0000 34.0201
#
#
#
# Elastic Compliance Matrix: (Units=1/GPa)
#
#
# Indices 1 2 3 4 5 6 
#
# 1 0.011458 -0.004852 -0.003141 0.000000 -0.001283 0.000000
# 2 -0.004852 0.019845 -0.004435 0.000000 0.002097 0.000000
# 3 -0.003141 -0.004435 0.018977 0.000000 -0.001397 0.000000
# 4 0.000000 0.000000 0.000000 0.046538 0.000000 -0.009424
# 5 -0.001283 0.002097 -0.001397 0.000000 0.027883 0.000000
# 6 0.000000 0.000000 0.000000 -0.009424 0.000000 0.031303
#
#
# Mechanical properties :
#
#
# Convention : Reuss Voigt Hill
#
# Bulk Modulus (GPa) = 39.33260 43.00587 41.16923
# Shear Modulus (GPa) = 26.40825 29.02500 27.71662
#
# Velocity S-wave (km/s) = 3.64660 3.82300 3.73584
# Velocity P-wave (km/s) = 6.12666 6.41424 6.27209
#
# Compressibility (1/GPa) = 0.02542421
#
# Stress axis : x y z
#
# Youngs Moduli (GPa) = 87.27626 50.38981 52.69540
#
# Poissons Ratio (x) = 0.24449 0.16550
# Poissons Ratio (y) = 0.42346 0.23372
# Poissons Ratio (z) = 0.27410 0.22350
#
# Static dielectric constant tensor:
#      x y z
#    x 3.876650 0.000000 0.146200 
#    y 0.000000 3.409250 0.000000 
#    z 0.146200 0.000000 3.632120 
# 
# 
# High freq. dielectric constant tensor:
#      x y z
#    x 1.788050 0.000000 0.013200 
#    y 0.000000 1.750080 0.000000 
#    z 0.013200 0.000000 1.768250 
# 
# From -- ./inp_files/219605.got.cif
#   From: 2010.06.25/outbox.cif.g09.slc.cpg/sg15_110_cif.got.tgz:219605.got - 2010.06.28 07:06:18.
