data_PCOD8151932
_publ_section_title
;
Structure prediction by ZEFSAII (Michael W. Deem and Ramdas Pophale) SiO2 
 PCOD8151932
Probable space group: C 2/C
;
_chemical_formula_sum "Si O2"
_cell_formula_units_Z 52
_cell_length_a 15.979641
_cell_length_b 6.463282
_cell_length_c 29.084781
_cell_angle_alpha 90.000000
_cell_angle_beta 120.773289
_cell_angle_gamma 90.000000
_cell_volume 2580.949097
_symmetry_space_group_name_H-M "C 2/C"
_symmetry_group_IT_number 15
_symmetry_cell_setting 'monoclinic'
loop_
_space_group_symop_operation_xyz
x,y,z
-x,y,1/2-z
-x,-y,-z
x,-y,1/2+z
1/2+x,1/2+y,z
1/2-x,1/2+y,1/2-z
1/2-x,1/2-y,-z
1/2+x,1/2-y,1/2+z
loop_
_atom_site_type_symbol
_atom_site_label
_atom_site_fract_x
_atom_site_fract_y
_atom_site_fract_z
Si Si1 0.325754 0.407343 0.996804
Si Si2 0.537221 0.431748 0.700051
Si Si3 0.628752 0.183124 0.802179
Si Si4 0.685312 0.307086 0.086801
Si Si5 0.522728 0.447265 0.591312
Si Si6 0.087032 0.603789 0.549709
Si Si7 0.000000 0.692268 0.250000
O O1 0.282148 0.603386 0.954838
O O2 0.374234 0.287560 0.969465
O O3 0.250000 0.250000 0.000000
O O4 0.407804 0.491514 0.055364
O O5 0.623962 0.319009 0.753546
O O6 0.439915 0.295168 0.679629
O O7 0.562194 0.455877 0.654032
O O8 0.519689 0.665085 0.711582
O O9 0.735654 0.154041 0.851829
O O10 0.594168 0.949655 0.784040
O O11 0.582648 0.396793 0.075759
O O12 0.673597 0.059391 0.081510
O O13 0.543035 0.208752 0.583165
O O14 0.000000 0.500000 0.500000
#
# Coordination Sequence:
#
# PCOD8151932 Si02
#       7
#     8   8   8   8   8   8   4
#     4  11  25  38  61  96 119 154 212 251 303 373
#     4   9  21  39  61  89 118 156 203 250 296 362
#     4   9  21  40  60  91 116 158 208 242 303 361
#     4  11  23  41  62  87 124 164 197 253 310 361
#     4  11  23  40  60  90 123 160 202 250 309 368
#     4  11  21  43  60  81 129 162 191 245 307 367
#     4   8  18  40  64  80 128 152 194 264 304 348
#
# _framework density 20.147628999999998
#
# number of rings (size 3 to 8) (size 9 to 14) (size 15 to 20)
#    0.000    2.154    3.077    0.923    4.308    8.000 
#    5.538    0.000    0.000    0.000    0.000    0.000 
#    0.000    0.000    0.000    0.000    0.000    0.000 
#
# Total GULP energy -322170.747988 kJ/mol
# GULP energy per Si atom -12391.182615 kJ/mol
# Density = 2.010177 g / cm^3
# Si number density = 20.147629 Si / 1000 Ang^3
#
#
#
# Elastic Constant Matrix: (Units=GPa)
#
#
# Indices 1 2 3 4 5 6 
#
# 1 57.8438 20.3904 33.8080 0.0000 1.3365 0.0000
# 2 20.3904 116.5995 32.7019 0.0000 -5.9387 0.0001
# 3 33.8080 32.7019 125.8663 0.0000 0.5525 0.0000
# 4 0.0000 0.0000 0.0000 23.4843 0.0000 -0.0024
# 5 1.3365 -5.9387 0.5525 0.0000 41.3573 0.0000
# 6 0.0000 0.0001 0.0000 -0.0024 0.0000 28.0466
#
#
#
# Elastic Compliance Matrix: (Units=1/GPa)
#
#
# Indices 1 2 3 4 5 6 
#
# 1 0.021082 -0.002317 -0.005057 0.000000 -0.000946 0.000000
# 2 -0.002317 0.009582 -0.001874 0.000000 0.001476 0.000000
# 3 -0.005057 -0.001874 0.009791 0.000000 -0.000236 0.000000
# 4 0.000000 0.000000 0.000000 0.042582 0.000000 0.000004
# 5 -0.000946 0.001476 -0.000236 0.000000 0.024425 0.000000
# 6 0.000000 0.000000 0.000000 0.000004 0.000000 0.035655
#
#
# Mechanical properties :
#
#
# Convention : Reuss Voigt Hill
#
# Bulk Modulus (GPa) = 45.53546 52.67895 49.10721
# Shear Modulus (GPa) = 29.59783 32.80493 31.20138
#
# Velocity S-wave (km/s) = 3.83697 4.03951 3.93954
# Velocity P-wave (km/s) = 6.50229 6.92532 6.71714
#
# Compressibility (1/GPa) = 0.02196091
#
# Stress axis : x y z
#
# Youngs Moduli (GPa) = 47.43411 104.36011 102.13433
#
# Poissons Ratio (x) = 0.24177 0.51645
# Poissons Ratio (y) = 0.10989 0.19138
# Poissons Ratio (z) = 0.23985 0.19555
#
# Static dielectric constant tensor:
#      x y z
#    x 3.099750 0.000000 -0.161480 
#    y 0.000000 0.763720 0.000000 
#    z -0.161480 0.000000 3.575930 
# 
# 
# High freq. dielectric constant tensor:
#      x y z
#    x 1.759940 0.000000 0.001280 
#    y 0.000000 1.807030 0.000000 
#    z 0.001280 0.000000 1.788840 
# 
# From -- ./inp_files/314930.got.cif
#   From: 2010.06.25/outbox.cif.g09.slc.cpg/sg15_158_cif.got.tgz:314930.got - 2010.06.28 07:06:18.
