data_PCOD8151058
_publ_section_title
;
Structure prediction by ZEFSAII (Michael W. Deem and Ramdas Pophale) SiO2 
 PCOD8151058
Probable space group: C 2/C
;
_chemical_formula_sum "Si O2"
_cell_formula_units_Z 40
_cell_length_a 24.684650
_cell_length_b 10.553582
_cell_length_c 12.279670
_cell_angle_alpha 90.000000
_cell_angle_beta 36.901651
_cell_angle_gamma 90.000000
_cell_volume 1920.815001
_symmetry_space_group_name_H-M "C 2/C"
_symmetry_group_IT_number 15
_symmetry_cell_setting 'monoclinic'
loop_
_space_group_symop_operation_xyz
x,y,z
-x,y,1/2-z
-x,-y,-z
x,-y,1/2+z
1/2+x,1/2+y,z
1/2-x,1/2+y,1/2-z
1/2-x,1/2-y,-z
1/2+x,1/2-y,1/2+z
loop_
_atom_site_type_symbol
_atom_site_label
_atom_site_fract_x
_atom_site_fract_y
_atom_site_fract_z
Si Si1 0.258414 0.354654 0.394839
Si Si2 0.050629 0.679058 0.905398
Si Si3 0.760613 0.306724 0.318471
Si Si4 0.564230 0.055525 0.243898
Si Si5 0.338569 0.598978 0.327213
O O1 0.250000 0.250000 0.500000
O O2 0.272699 0.294482 0.252445
O O3 0.167259 0.435329 0.543790
O O4 0.341285 0.451446 0.287736
O O5 0.138220 0.634086 0.836063
O O6 0.044252 0.588793 0.810668
O O7 0.065385 0.826865 0.845054
O O8 0.959839 0.657518 0.121334
O O9 0.690633 0.393801 0.498900
O O10 0.762821 0.168157 0.372547
O O11 0.500000 0.094849 0.250000
#
# Coordination Sequence:
#
# PCOD8151058 Si02
#       5
#     8   8   8   8   8
#     4  12  24  35  61  94 118 161 215 253 306 379
#     4   9  19  36  58  82 117 158 191 257 312 353
#     4   9  18  36  59  80 119 161 190 257 311 359
#     4  11  19  36  59  90 121 154 211 260 301 367
#     4   9  19  39  56  83 122 157 195 254 317 356
#
# _framework density 20.824493
#
# number of rings (size 3 to 8) (size 9 to 14) (size 15 to 20)
#    1.200    0.800    4.000    0.000    2.800    0.000 
#    7.200    1.000    0.000    1.200    0.000    0.000 
#    0.000    0.000    0.000    0.000    0.000    0.000 
#
# Total GULP energy -247777.915963 kJ/mol
# GULP energy per Si atom -12388.895798 kJ/mol
# Density = 2.077710 g / cm^3
# Si number density = 20.824493 Si / 1000 Ang^3
#
#
#
# Elastic Constant Matrix: (Units=GPa)
#
#
# Indices 1 2 3 4 5 6 
#
# 1 48.8331 18.7541 27.8849 0.0000 33.0234 0.0000
# 2 18.7541 99.9141 28.4415 0.0000 14.7657 0.0000
# 3 27.8849 28.4415 76.9342 0.0000 23.5213 0.0000
# 4 0.0000 0.0000 0.0000 26.7463 0.0000 -6.4515
# 5 33.0234 14.7657 23.5213 0.0000 44.1215 0.0000
# 6 0.0000 0.0000 0.0000 -6.4515 0.0000 26.0503
#
#
#
# Elastic Compliance Matrix: (Units=1/GPa)
#
#
# Indices 1 2 3 4 5 6 
#
# 1 0.044935 -0.002246 -0.006456 0.000000 -0.029439 0.000000
# 2 -0.002246 0.011424 -0.003291 0.000000 -0.000388 0.000000
# 3 -0.006456 -0.003291 0.017611 0.000000 -0.003455 0.000000
# 4 0.000000 0.000000 0.000000 0.039764 0.000000 0.009848
# 5 -0.029439 -0.000388 -0.003455 0.000000 0.046670 0.000000
# 6 0.000000 0.000000 0.000000 0.009848 0.000000 0.040826
#
#
# Mechanical properties :
#
#
# Convention : Reuss Voigt Hill
#
# Bulk Modulus (GPa) = 20.00607 41.76027 30.88317
# Shear Modulus (GPa) = 20.67159 29.42369 25.04764
#
# Velocity S-wave (km/s) = 3.15406 3.76298 3.47190
# Velocity P-wave (km/s) = 4.78456 6.24316 5.56188
#
# Compressibility (1/GPa) = 0.04998484
#
# Stress axis : x y z
#
# Youngs Moduli (GPa) = 22.25425 87.53312 56.78275
#
# Poissons Ratio (x) = 0.19660 0.36659
# Poissons Ratio (y) = 0.04998 0.18686
# Poissons Ratio (z) = 0.14367 0.28805
#
# Static dielectric constant tensor:
#      x y z
#    x 3.399590 0.000000 0.080220 
#    y 0.000000 3.421810 0.000000 
#    z 0.080220 0.000000 3.813090 
# 
# 
# High freq. dielectric constant tensor:
#      x y z
#    x 1.780330 0.000000 0.018850 
#    y 0.000000 1.791650 0.000000 
#    z 0.018850 0.000000 1.816400 
# 
# From -- ./inp_files/122350.got.cif
#   From: 2010.06.25/outbox.cif.g09.slc.cpg/sg15_62_cif.got.tgz:122350.got - 2010.06.28 07:06:18.
