data_PCOD8151273
_publ_section_title
;
Structure prediction by ZEFSAII (Michael W. Deem and Ramdas Pophale) SiO2 
 PCOD8151273
Probable space group: C 2/C
;
_chemical_formula_sum "Si O2"
_cell_formula_units_Z 48
_cell_length_a 18.077829
_cell_length_b 7.903871
_cell_length_c 29.341790
_cell_angle_alpha 90.000000
_cell_angle_beta 148.394554
_cell_angle_gamma 90.000000
_cell_volume 2197.148547
_symmetry_space_group_name_H-M "C 2/C"
_symmetry_group_IT_number 15
_symmetry_cell_setting 'monoclinic'
loop_
_space_group_symop_operation_xyz
x,y,z
-x,y,1/2-z
-x,-y,-z
x,-y,1/2+z
1/2+x,1/2+y,z
1/2-x,1/2+y,1/2-z
1/2-x,1/2-y,-z
1/2+x,1/2-y,1/2+z
loop_
_atom_site_type_symbol
_atom_site_label
_atom_site_fract_x
_atom_site_fract_y
_atom_site_fract_z
Si Si1 0.135579 0.830893 0.172962
Si Si2 0.140306 0.358491 0.971504
Si Si3 0.928931 0.110079 0.422771
Si Si4 0.086367 0.277852 0.420441
Si Si5 0.338176 0.060903 0.919203
Si Si6 0.144907 0.092073 0.247611
O O1 0.254910 0.690436 0.235274
O O2 0.984303 0.762983 0.077877
O O3 0.173351 0.981639 0.157747
O O4 0.124072 0.902153 0.218158
O O5 0.067627 0.518580 0.908124
O O6 0.250000 0.250000 0.000000
O O7 0.214313 0.426902 0.056310
O O8 0.829937 0.256138 0.391344
O O9 0.038724 0.194239 0.443681
O O10 0.000000 0.000000 0.500000
O O11 0.250000 0.250000 0.500000
O O12 0.003193 0.194499 0.333280
O O13 0.226022 0.926742 0.838389
O O14 0.500000 0.000000 0.000000
#
# Coordination Sequence:
#
# PCOD8151273 Si02
#       6
#     8   8   8   8   8   8
#     4  11  21  38  66 100 133 174 231 285 345 414
#     4  12  24  43  69  98 144 185 227 290 366 418
#     4  11  20  37  68 103 136 177 231 287 341 422
#     4  11  25  43  66  98 137 182 230 287 363 411
#     4  12  22  42  69 103 133 180 239 288 345 424
#     4  11  22  40  67  99 134 179 229 297 338 424
#
# _framework density 21.846498
#
# number of rings (size 3 to 8) (size 9 to 14) (size 15 to 20)
#    0.000    0.667    5.000    5.000    0.000    0.000 
#    0.000    3.333    0.000    2.000    0.000    0.000 
#    0.000    0.000    0.000    0.000    0.000    0.000 
#
# Total GULP energy -297390.543676 kJ/mol
# GULP energy per Si atom -12391.272653 kJ/mol
# Density = 2.179677 g / cm^3
# Si number density = 21.846498 Si / 1000 Ang^3
#
#
#
# Elastic Constant Matrix: (Units=GPa)
#
#
# Indices 1 2 3 4 5 6 
#
# 1 78.8660 32.5871 42.9151 -0.0001 -3.1443 0.0003
# 2 32.5871 119.8496 49.7142 -0.0004 -5.0434 0.0004
# 3 42.9151 49.7142 147.5238 0.0000 -6.6034 0.0001
# 4 -0.0001 -0.0004 0.0000 43.0721 0.0001 -1.9900
# 5 -3.1443 -5.0434 -6.6034 0.0001 32.0762 -0.0002
# 6 0.0003 0.0004 0.0001 -1.9900 -0.0002 38.9283
#
#
#
# Elastic Compliance Matrix: (Units=1/GPa)
#
#
# Indices 1 2 3 4 5 6 
#
# 1 0.015828 -0.002773 -0.003654 0.000000 0.000363 0.000000
# 2 -0.002773 0.010209 -0.002598 0.000000 0.000799 0.000000
# 3 -0.003654 -0.002598 0.008763 0.000000 0.001037 0.000000
# 4 0.000000 0.000000 0.000000 0.023272 0.000000 0.001190
# 5 0.000363 0.000799 0.001037 0.000000 0.031551 0.000000
# 6 0.000000 0.000000 0.000000 0.001190 0.000000 0.025749
#
#
# Mechanical properties :
#
#
# Convention : Reuss Voigt Hill
#
# Bulk Modulus (GPa) = 59.69641 66.29692 62.99666
# Shear Modulus (GPa) = 35.96998 37.55019 36.76009
#
# Velocity S-wave (km/s) = 4.06210 4.15036 4.10647
# Velocity P-wave (km/s) = 7.02748 7.30616 7.16818
#
# Compressibility (1/GPa) = 0.01675143
#
# Stress axis : x y z
#
# Youngs Moduli (GPa) = 63.17866 97.95313 114.11100
#
# Poissons Ratio (x) = 0.27160 0.41694
# Poissons Ratio (y) = 0.17518 0.29646
# Poissons Ratio (z) = 0.23084 0.25448
#
# Static dielectric constant tensor:
#      x y z
#    x 3.557760 0.000000 -0.402920 
#    y 0.000000 4.734670 0.000000 
#    z -0.402920 0.000000 3.794160 
# 
# 
# High freq. dielectric constant tensor:
#      x y z
#    x 1.823490 0.000000 -0.016490 
#    y 0.000000 1.885690 0.000000 
#    z -0.016490 0.000000 1.858650 
# 
# From -- ./inp_files/315787.got.cif
#   From: 2010.06.25/outbox.cif.g09.slc.cpg/sg15_158_cif.got.tgz:315787.got - 2010.06.28 07:06:18.
