data_PCOD8151670
_publ_section_title
;
Structure prediction by ZEFSAII (Michael W. Deem and Ramdas Pophale) SiO2 
 PCOD8151670
Probable space group: C 2/C
;
_chemical_formula_sum "Si O2"
_cell_formula_units_Z 48
_cell_length_a 30.953053
_cell_length_b 14.055845
_cell_length_c 15.080562
_cell_angle_alpha 90.000000
_cell_angle_beta 17.758164
_cell_angle_gamma 90.000000
_cell_volume 2001.141593
_symmetry_space_group_name_H-M "C 2/C"
_symmetry_group_IT_number 15
_symmetry_cell_setting 'monoclinic'
loop_
_space_group_symop_operation_xyz
x,y,z
-x,y,1/2-z
-x,-y,-z
x,-y,1/2+z
1/2+x,1/2+y,z
1/2-x,1/2+y,1/2-z
1/2-x,1/2-y,-z
1/2+x,1/2-y,1/2+z
loop_
_atom_site_type_symbol
_atom_site_label
_atom_site_fract_x
_atom_site_fract_y
_atom_site_fract_z
Si Si1 0.155082 0.141708 0.636820
Si Si2 0.898035 0.781513 0.750587
Si Si3 0.383113 0.872079 0.407862
Si Si4 0.333503 0.749987 0.055482
Si Si5 0.737837 0.072480 0.904531
Si Si6 0.045556 0.958358 0.762181
O O1 0.211729 0.215187 0.453590
O O2 0.282030 0.126611 0.461423
O O3 0.135925 0.046900 0.616470
O O4 0.006175 0.182729 0.964845
O O5 0.958695 0.689647 0.683723
O O6 0.867375 0.862753 0.885030
O O7 0.750000 0.750000 0.000000
O O8 0.500000 0.897327 0.250000
O O9 0.340556 0.972691 0.449433
O O10 0.252345 0.809142 0.702594
O O11 0.500000 0.737935 0.750000
O O12 0.293571 0.862767 0.121894
O O13 0.901709 0.046625 0.598729
O O14 0.000000 0.967446 0.750000
#
# Coordination Sequence:
#
# PCOD8151670 Si02
#       6
#     8   8   8   8   8   8
#     4  11  23  41  65  94 130 174 218 266 323 390
#     4  11  21  38  64  97 130 168 216 270 322 380
#     4  12  25  44  68  97 131 170 217 271 323 383
#     4  12  25  44  67  95 131 175 216 263 326 393
#     4  11  23  41  62  93 130 167 214 270 324 384
#     4  11  21  38  64  94 128 172 221 268 320 386
#
# _framework density 23.986308000000001
#
# number of rings (size 3 to 8) (size 9 to 14) (size 15 to 20)
#    0.000    0.667    0.000   12.000    0.000    0.000 
#    0.000    6.667    0.000    0.000    0.000    0.000 
#    0.000    0.000    0.000    0.000    0.000    0.000 
#
# Total GULP energy -297427.108992 kJ/mol
# GULP energy per Si atom -12392.796208 kJ/mol
# Density = 2.393171 g / cm^3
# Si number density = 23.986308 Si / 1000 Ang^3
#
#
#
# Elastic Constant Matrix: (Units=GPa)
#
#
# Indices 1 2 3 4 5 6 
#
# 1 122.8196 45.1703 9.4997 0.0000 -12.8488 0.0001
# 2 45.1703 141.9867 21.6763 0.0000 -10.3025 0.0001
# 3 9.4997 21.6763 43.6843 0.0001 -13.5856 0.0000
# 4 0.0000 0.0000 0.0001 30.2429 0.0000 -12.5033
# 5 -12.8488 -10.3025 -13.5856 0.0000 39.2553 0.0000
# 6 0.0001 0.0001 0.0000 -12.5033 0.0000 54.1423
#
#
#
# Elastic Compliance Matrix: (Units=1/GPa)
#
#
# Indices 1 2 3 4 5 6 
#
# 1 0.009428 -0.002842 0.000098 0.000000 0.002374 0.000000
# 2 -0.002842 0.008498 -0.003580 0.000000 0.000061 0.000000
# 3 0.000098 -0.003580 0.027303 0.000000 0.008542 0.000000
# 4 0.000000 0.000000 0.000000 0.036556 0.000000 0.008442
# 5 0.002374 0.000061 0.008542 0.000000 0.029224 0.000000
# 6 0.000000 0.000000 0.000000 0.008442 0.000000 0.020419
#
#
# Mechanical properties :
#
#
# Convention : Reuss Voigt Hill
#
# Bulk Modulus (GPa) = 30.69183 51.24259 40.96721
# Shear Modulus (GPa) = 32.27159 40.20438 36.23798
#
# Velocity S-wave (km/s) = 3.67197 4.09851 3.89109
# Velocity P-wave (km/s) = 5.54988 6.61866 6.10769
#
# Compressibility (1/GPa) = 0.03258196
#
# Stress axis : x y z
#
# Youngs Moduli (GPa) = 106.06661 117.67477 36.62629
#
# Poissons Ratio (x) = 0.33444 -0.00360
# Poissons Ratio (y) = 0.30145 0.13111
# Poissons Ratio (z) = -0.01043 0.42123
#
# Static dielectric constant tensor:
#      x y z
#    x 5.171030 0.000000 0.368960 
#    y 0.000000 4.751800 0.000000 
#    z 0.368960 0.000000 4.180280 
# 
# 
# High freq. dielectric constant tensor:
#      x y z
#    x 1.974090 0.000000 -0.004480 
#    y 0.000000 1.976390 0.000000 
#    z -0.004480 0.000000 1.920160 
# 
# From -- ./inp_files/182455.got.cif
#   From: 2010.06.25/outbox.cif.g09.slc.cpg/sg15_92_cif.got.tgz:182455.got - 2010.06.28 07:06:18.
