data_PCOD8151666
_publ_section_title
;
Structure prediction by ZEFSAII (Michael W. Deem and Ramdas Pophale) SiO2 
 PCOD8151666
Probable space group: C 2/C
;
_chemical_formula_sum "Si O2"
_cell_formula_units_Z 64
_cell_length_a 19.704126
_cell_length_b 14.090116
_cell_length_c 26.458562
_cell_angle_alpha 90.000000
_cell_angle_beta 25.057659
_cell_angle_gamma 90.000000
_cell_volume 3111.159403
_symmetry_space_group_name_H-M "C 2/C"
_symmetry_group_IT_number 15
_symmetry_cell_setting 'monoclinic'
loop_
_space_group_symop_operation_xyz
x,y,z
-x,y,1/2-z
-x,-y,-z
x,-y,1/2+z
1/2+x,1/2+y,z
1/2-x,1/2+y,1/2-z
1/2-x,1/2-y,-z
1/2+x,1/2-y,1/2+z
loop_
_atom_site_type_symbol
_atom_site_label
_atom_site_fract_x
_atom_site_fract_y
_atom_site_fract_z
Si Si1 0.691657 0.631939 0.348072
Si Si2 0.256117 0.665350 0.777316
Si Si3 0.322865 0.335252 0.117709
Si Si4 0.032117 0.819728 0.668475
Si Si5 0.171225 0.966445 0.755358
Si Si6 0.103341 0.490555 0.229693
Si Si7 0.594280 0.867119 0.962518
Si Si8 0.113266 0.632107 0.564728
O O1 0.798213 0.725307 0.260896
O O2 0.515289 0.649412 0.489940
O O3 0.661011 0.566396 0.320074
O O4 0.799965 0.582654 0.317416
O O5 0.242754 0.646733 0.726477
O O6 0.370115 0.579707 0.720796
O O7 0.091097 0.653439 0.918785
O O8 0.235397 0.404939 0.136252
O O9 0.293767 0.226250 0.122325
O O10 0.999673 0.721450 0.659189
O O11 0.211476 0.848894 0.532317
O O12 0.000000 0.805470 0.750000
O O13 0.935244 0.908101 0.711738
O O14 0.353412 0.948615 0.612449
O O15 0.000000 0.512561 0.250000
O O16 0.964710 0.463702 0.362248
O O17 0.630472 0.892106 0.995071
#
# Coordination Sequence:
#
# PCOD8151666 Si02
#       8
#     8   8   8   8   8   8   8   8
#     4  11  25  44  64  95 129 165 217 268 313 377
#     4  11  23  40  63  93 121 167 213 266 314 373
#     4  11  22  40  65  97 125 160 214 265 323 376
#     4  11  23  37  56  94 132 170 201 262 324 391
#     4  12  22  39  66  90 128 164 218 256 320 379
#     4  12  26  41  65  94 127 170 215 260 328 382
#     4  11  21  38  63  94 128 160 202 263 327 381
#     4  11  23  38  61  90 136 162 204 255 333 386
#
# _framework density 20.571109
#
# number of rings (size 3 to 8) (size 9 to 14) (size 15 to 20)
#    0.000    0.750    5.000    3.375    5.250    0.000 
#    0.000    0.625    0.000    1.500    0.000    0.000 
#    0.000    0.000    0.000    0.000    0.000    0.000 
#
# Total GULP energy -396498.376404 kJ/mol
# GULP energy per Si atom -12390.574263 kJ/mol
# Density = 2.052429 g / cm^3
# Si number density = 20.571109 Si / 1000 Ang^3
#
#
#
# Elastic Constant Matrix: (Units=GPa)
#
#
# Indices 1 2 3 4 5 6 
#
# 1 79.2642 29.1552 6.8325 -0.0170 -1.7680 -0.0044
# 2 29.1552 120.7825 9.3289 -0.0029 -3.6995 0.0060
# 3 6.8325 9.3289 70.9703 -0.0253 9.3481 0.0135
# 4 -0.0170 -0.0029 -0.0253 25.9721 0.0236 -2.4318
# 5 -1.7680 -3.6995 9.3481 0.0236 23.0828 0.0015
# 6 -0.0044 0.0060 0.0135 -2.4318 0.0015 20.1365
#
#
#
# Elastic Compliance Matrix: (Units=1/GPa)
#
#
# Indices 1 2 3 4 5 6 
#
# 1 0.013923 -0.003251 -0.001040 0.000007 0.000967 0.000006
# 2 -0.003251 0.009202 -0.001118 -0.000004 0.001678 -0.000003
# 3 -0.001040 -0.001118 0.015181 0.000019 -0.006407 -0.000007
# 4 0.000007 -0.000004 0.000019 0.038943 -0.000048 0.004703
# 5 0.000967 0.001678 -0.006407 -0.000048 0.046260 -0.000005
# 6 0.000006 -0.000003 -0.000007 0.004703 -0.000005 0.050229
#
#
# Mechanical properties :
#
#
# Convention : Reuss Voigt Hill
#
# Bulk Modulus (GPa) = 36.37907 40.18337 38.28122
# Shear Modulus (GPa) = 25.81053 28.88498 27.34775
#
# Velocity S-wave (km/s) = 3.54601 3.75127 3.65008
# Velocity P-wave (km/s) = 5.87270 6.19185 6.03438
#
# Compressibility (1/GPa) = 0.02748833
#
# Stress axis : x y z
#
# Youngs Moduli (GPa) = 71.82352 108.67451 65.87004
#
# Poissons Ratio (x) = 0.35328 0.06853
# Poissons Ratio (y) = 0.23349 0.07362
# Poissons Ratio (z) = 0.07473 0.12146
#
# Static dielectric constant tensor:
#      x y z
#    x 3.447670 -0.000030 0.067440 
#    y -0.000030 3.942170 0.000080 
#    z 0.067440 0.000080 4.343450 
# 
# 
# High freq. dielectric constant tensor:
#      x y z
#    x 1.774810 0.000000 0.008150 
#    y 0.000000 1.800100 0.000010 
#    z 0.008150 0.000010 1.830050 
# 
# From -- ./inp_files/277632.got.cif
#   From: 2010.06.25/outbox.cif.g09.slc.cpg/sg15_139_cif.got.tgz:277632.got - 2010.06.28 07:06:18.
