data_PCOD8151232
_publ_section_title
;
Structure prediction by ZEFSAII (Michael W. Deem and Ramdas Pophale) SiO2 
 PCOD8151232
Probable space group: C 2/C
;
_chemical_formula_sum "Si O2"
_cell_formula_units_Z 48
_cell_length_a 6.382876
_cell_length_b 21.046814
_cell_length_c 22.468947
_cell_angle_alpha 90.000000
_cell_angle_beta 58.110203
_cell_angle_gamma 90.000000
_cell_volume 2562.871468
_symmetry_space_group_name_H-M "C 2/C"
_symmetry_group_IT_number 15
_symmetry_cell_setting 'monoclinic'
loop_
_space_group_symop_operation_xyz
x,y,z
-x,y,1/2-z
-x,-y,-z
x,-y,1/2+z
1/2+x,1/2+y,z
1/2-x,1/2+y,1/2-z
1/2-x,1/2-y,-z
1/2+x,1/2-y,1/2+z
loop_
_atom_site_type_symbol
_atom_site_label
_atom_site_fract_x
_atom_site_fract_y
_atom_site_fract_z
Si Si1 0.957283 0.704530 0.822614
Si Si2 0.401896 0.014539 0.948822
Si Si3 0.402756 0.325257 0.410629
Si Si4 0.513454 0.730461 0.433689
Si Si5 0.068053 0.098846 0.478844
Si Si6 0.731814 0.406663 0.179028
O O1 0.671145 0.702503 0.880219
O O2 0.058901 0.752528 0.857597
O O3 0.000000 0.732386 0.750000
O O4 0.082317 0.634722 0.807948
O O5 0.628244 0.034873 0.872844
O O6 0.209642 0.072352 0.980968
O O7 0.269715 0.955579 0.935062
O O8 0.500000 0.000000 0.000000
O O9 0.351190 0.376905 0.468729
O O10 0.386081 0.358899 0.350151
O O11 0.208766 0.268152 0.444822
O O12 0.250000 0.750000 0.500000
O O13 0.570566 0.655596 0.430625
O O14 0.500000 0.435328 0.250000
#
# Coordination Sequence:
#
# PCOD8151232 Si02
#       6
#     8   8   8   8   8   8
#     4  11  22  37  60  93 121 154 197 252 315 362
#     4  11  23  37  61  88 122 161 206 251 301 351
#     4  11  20  36  64  92 119 151 193 260 309 360
#     4  11  23  35  61  96 120 152 202 247 312 366
#     4  11  22  38  59  92 122 158 202 250 302 365
#     4  11  21  36  60  92 116 153 207 254 303 364
#
# _framework density 18.728992999999999
#
# number of rings (size 3 to 8) (size 9 to 14) (size 15 to 20)
#    0.000    1.000    6.667    1.500    0.000    0.000 
#    0.000    0.000    0.000    6.000    0.000    0.000 
#    0.000    0.000    0.000    0.000    0.000    0.000 
#
# Total GULP energy -297582.639385 kJ/mol
# GULP energy per Si atom -12399.276641 kJ/mol
# Density = 1.868637 g / cm^3
# Si number density = 18.728993 Si / 1000 Ang^3
#
#
#
# Elastic Constant Matrix: (Units=GPa)
#
#
# Indices 1 2 3 4 5 6 
#
# 1 106.5644 49.2608 46.6054 0.0000 -8.3793 0.0000
# 2 49.2608 116.8519 56.7791 0.0000 -7.6836 0.0000
# 3 46.6054 56.7791 114.8479 0.0000 -4.7138 0.0000
# 4 0.0000 0.0000 0.0000 26.7109 0.0000 -1.3803
# 5 -8.3793 -7.6836 -4.7138 0.0000 41.5365 0.0000
# 6 0.0000 0.0000 0.0000 -1.3803 0.0000 28.2346
#
#
#
# Elastic Compliance Matrix: (Units=1/GPa)
#
#
# Indices 1 2 3 4 5 6 
#
# 1 0.012606 -0.003632 -0.003258 0.000000 0.001501 0.000000
# 2 -0.003632 0.012399 -0.004613 0.000000 0.001037 0.000000
# 3 -0.003258 -0.004613 0.012305 0.000000 -0.000114 0.000000
# 4 0.000000 0.000000 0.000000 0.037533 0.000000 0.001835
# 5 0.001501 0.001037 -0.000114 0.000000 0.024557 0.000000
# 6 0.000000 0.000000 0.000000 0.001835 0.000000 0.035507
#
#
# Mechanical properties :
#
#
# Convention : Reuss Voigt Hill
#
# Bulk Modulus (GPa) = 69.91631 71.50609 70.71120
# Shear Modulus (GPa) = 30.73467 31.67098 31.20283
#
# Velocity S-wave (km/s) = 4.05535 4.11665 4.08612
# Velocity P-wave (km/s) = 7.70320 7.80116 7.75233
#
# Compressibility (1/GPa) = 0.01430281
#
# Stress axis : x y z
#
# Youngs Moduli (GPa) = 79.32652 80.65181 81.26540
#
# Poissons Ratio (x) = 0.29296 0.26477
# Poissons Ratio (y) = 0.28815 0.37490
# Poissons Ratio (z) = 0.25846 0.37207
#
# Static dielectric constant tensor:
#      x y z
#    x 3.872790 0.000000 0.271730 
#    y 0.000000 3.349610 0.000000 
#    z 0.271730 0.000000 3.763040 
# 
# 
# High freq. dielectric constant tensor:
#      x y z
#    x 1.754780 0.000000 0.000930 
#    y 0.000000 1.710360 0.000000 
#    z 0.000930 0.000000 1.711780 
# 
# From -- ./inp_files/185300.got.cif
#   From: 2010.06.25/outbox.cif.g09.slc.cpg/sg15_93_cif.got.tgz:185300.got - 2010.06.28 07:06:18.
