data_PCOD8151333
_publ_section_title
;
Structure prediction by ZEFSAII (Michael W. Deem and Ramdas Pophale) SiO2 
 PCOD8151333
Probable space group: C 2/C
;
_chemical_formula_sum "Si O2"
_cell_formula_units_Z 56
_cell_length_a 17.682371
_cell_length_b 16.212202
_cell_length_c 9.749222
_cell_angle_alpha 90.000000
_cell_angle_beta 77.469790
_cell_angle_gamma 90.000000
_cell_volume 2728.243624
_symmetry_space_group_name_H-M "C 2/C"
_symmetry_group_IT_number 15
_symmetry_cell_setting 'monoclinic'
loop_
_space_group_symop_operation_xyz
x,y,z
-x,y,1/2-z
-x,-y,-z
x,-y,1/2+z
1/2+x,1/2+y,z
1/2-x,1/2+y,1/2-z
1/2-x,1/2-y,-z
1/2+x,1/2-y,1/2+z
loop_
_atom_site_type_symbol
_atom_site_label
_atom_site_fract_x
_atom_site_fract_y
_atom_site_fract_z
Si Si1 0.794463 0.822516 0.278809
Si Si2 0.538330 0.273869 0.367554
Si Si3 0.781136 0.416482 0.421376
Si Si4 0.963136 0.059482 0.907480
Si Si5 0.204429 0.917661 0.965586
Si Si6 0.802052 0.177068 0.301002
Si Si7 0.923233 0.694922 0.866570
O O1 0.886013 0.820899 0.218045
O O2 0.757896 0.897776 0.208705
O O3 0.772952 0.839850 0.446848
O O4 0.760772 0.736239 0.242920
O O5 0.500000 0.227370 0.250000
O O6 0.479794 0.345195 0.441931
O O7 0.554309 0.210918 0.484040
O O8 0.774005 0.515070 0.443313
O O9 0.735491 0.364285 0.552538
O O10 0.870676 0.387545 0.385003
O O11 0.000000 0.034897 0.750000
O O12 0.871554 0.041146 0.937949
O O13 0.000000 0.000000 0.000000
O O14 0.180732 0.890923 0.821158
O O15 0.878321 0.226859 0.318658
O O16 0.000000 0.676765 0.750000
#
# Coordination Sequence:
#
# PCOD8151333 Si02
#       7
#     8   8   8   8   8   8   8
#     4  11  20  42  62  91 128 167 219 260 318 384
#     4  11  20  39  62  92 133 162 205 268 318 385
#     4  11  23  42  65  91 134 173 213 272 320 386
#     4  11  24  35  53  87 131 165 193 249 318 387
#     4  12  24  38  63  94 131 170 213 265 326 384
#     4  11  23  41  68  93 124 174 218 267 317 390
#     4  11  23  42  69  96 124 171 226 265 322 384
#
# _framework density 20.526026000000002
#
# number of rings (size 3 to 8) (size 9 to 14) (size 15 to 20)
#    0.000    0.857    5.714    3.857    2.000    0.571 
#    0.000    0.000    0.000    8.571    0.000    0.000 
#    0.000    0.000    0.000    0.000    0.000    0.000 
#
# Total GULP energy -347199.904832 kJ/mol
# GULP energy per Si atom -12399.996601 kJ/mol
# Density = 2.047931 g / cm^3
# Si number density = 20.526026 Si / 1000 Ang^3
#
#
#
# Elastic Constant Matrix: (Units=GPa)
#
#
# Indices 1 2 3 4 5 6 
#
# 1 112.5360 34.9239 54.7315 0.0000 3.6420 0.0000
# 2 34.9239 71.8174 29.1947 0.0000 0.2372 0.0000
# 3 54.7315 29.1947 108.3736 0.0000 4.7729 0.0000
# 4 0.0000 0.0000 0.0000 24.2280 0.0000 3.2547
# 5 3.6420 0.2372 4.7729 0.0000 41.5119 0.0000
# 6 0.0000 0.0000 0.0000 3.2547 0.0000 25.0682
#
#
#
# Elastic Compliance Matrix: (Units=1/GPa)
#
#
# Indices 1 2 3 4 5 6 
#
# 1 0.012744 -0.004029 -0.005329 0.000000 -0.000482 0.000000
# 2 -0.004029 0.016917 -0.002547 0.000000 0.000550 0.000000
# 3 -0.005329 -0.002547 0.012648 0.000000 -0.000972 0.000000
# 4 0.000000 0.000000 0.000000 0.042007 0.000000 -0.005454
# 5 -0.000482 0.000550 -0.000972 0.000000 0.024240 0.000000
# 6 0.000000 0.000000 0.000000 -0.005454 0.000000 0.040599
#
#
# Mechanical properties :
#
#
# Convention : Reuss Voigt Hill
#
# Bulk Modulus (GPa) = 54.05919 58.93634 56.49777
# Shear Modulus (GPa) = 27.91239 29.75343 28.83291
#
# Velocity S-wave (km/s) = 3.69162 3.81142 3.75200
# Velocity P-wave (km/s) = 6.67569 6.93863 6.80843
#
# Compressibility (1/GPa) = 0.01849824
#
# Stress axis : x y z
#
# Youngs Moduli (GPa) = 78.46840 59.11232 79.06600
#
# Poissons Ratio (x) = 0.23817 0.42137
# Poissons Ratio (y) = 0.31616 0.20135
# Poissons Ratio (z) = 0.41819 0.15054
#
# Static dielectric constant tensor:
#      x y z
#    x 3.909080 0.000000 0.236760 
#    y 0.000000 3.460880 0.000000 
#    z 0.236760 0.000000 4.108480 
# 
# 
# High freq. dielectric constant tensor:
#      x y z
#    x 1.803480 0.000000 0.013100 
#    y 0.000000 1.773820 0.000000 
#    z 0.013100 0.000000 1.819560 
# 
# From -- ./inp_files/49031.got.cif
#   From: 2010.06.25/outbox.cif.g09.slc.cpg/sg15_25_cif.got.tgz:49031.got - 2010.06.28 07:06:18.
