data_PCOD8151950
_publ_section_title
;
Structure prediction by ZEFSAII (Michael W. Deem and Ramdas Pophale) SiO2 
 PCOD8151950
Probable space group: C 2/C
;
_chemical_formula_sum "Si O2"
_cell_formula_units_Z 64
_cell_length_a 12.104569
_cell_length_b 20.194266
_cell_length_c 22.008046
_cell_angle_alpha 90.000000
_cell_angle_beta 35.342478
_cell_angle_gamma 90.000000
_cell_volume 3111.960845
_symmetry_space_group_name_H-M "C 2/C"
_symmetry_group_IT_number 15
_symmetry_cell_setting 'monoclinic'
loop_
_space_group_symop_operation_xyz
x,y,z
-x,y,1/2-z
-x,-y,-z
x,-y,1/2+z
1/2+x,1/2+y,z
1/2-x,1/2+y,1/2-z
1/2-x,1/2-y,-z
1/2+x,1/2-y,1/2+z
loop_
_atom_site_type_symbol
_atom_site_label
_atom_site_fract_x
_atom_site_fract_y
_atom_site_fract_z
Si Si1 0.062976 0.798902 0.475995
Si Si2 0.729459 0.770750 0.317859
Si Si3 0.547435 0.442788 0.431510
Si Si4 0.721879 0.587130 0.650876
Si Si5 0.591913 0.041247 0.813506
Si Si6 0.950411 0.679669 0.842206
Si Si7 0.539010 0.777312 0.594687
Si Si8 0.660974 0.924158 0.534912
O O1 0.091260 0.874748 0.445319
O O2 0.239938 0.787191 0.443073
O O3 0.864350 0.787560 0.600201
O O4 0.074524 0.749458 0.413218
O O5 0.747097 0.834673 0.352714
O O6 0.599456 0.782261 0.317267
O O7 0.937072 0.748712 0.201699
O O8 0.500000 0.500000 0.500000
O O9 0.735605 0.465784 0.311332
O O10 0.376267 0.424967 0.462889
O O11 0.500000 0.569469 0.750000
O O12 0.820894 0.546006 0.658981
O O13 0.823030 0.562885 0.544007
O O14 0.454737 0.102405 0.858678
O O15 0.459262 0.977020 0.872961
O O16 0.000000 0.688902 0.750000
O O17 0.750000 0.750000 0.500000
O O18 0.547847 0.855979 0.594670
#
# Coordination Sequence:
#
# PCOD8151950 Si02
#       8
#     8   8   8   8   8   8   8   8
#     4  12  23  43  68  97 134 177 224 270 334 410
#     4  11  25  39  69 101 133 176 221 278 340 395
#     4  12  26  43  67  98 135 177 222 277 338 402
#     4  11  21  43  72  95 129 178 221 270 341 401
#     4  11  25  44  68  95 130 180 224 274 336 404
#     4  11  21  43  69  91 131 182 226 267 334 410
#     4  12  24  43  66 103 137 172 217 278 339 399
#     4  12  25  43  69 100 133 170 227 280 329 402
#
# _framework density 20.565812000000001
#
# number of rings (size 3 to 8) (size 9 to 14) (size 15 to 20)
#    0.000    0.500    6.250    3.000    1.750    0.000 
#    0.000    0.000    2.750    0.000    0.000    0.000 
#    0.000    0.000    0.000    0.000    0.000    0.000 
#
# Total GULP energy -396832.281285 kJ/mol
# GULP energy per Si atom -12401.008790 kJ/mol
# Density = 2.051900 g / cm^3
# Si number density = 20.565812 Si / 1000 Ang^3
#
#
#
# Elastic Constant Matrix: (Units=GPa)
#
#
# Indices 1 2 3 4 5 6 
#
# 1 68.6795 0.3107 12.5193 0.0011 -4.3432 -0.0028
# 2 0.3107 68.5894 33.3959 -0.0241 0.7501 -0.0010
# 3 12.5193 33.3959 128.5773 -0.0889 -1.4034 0.0115
# 4 0.0011 -0.0241 -0.0889 36.0738 0.0164 0.4906
# 5 -4.3432 0.7501 -1.4034 0.0164 39.2776 -0.0035
# 6 -0.0028 -0.0010 0.0115 0.4906 -0.0035 23.5005
#
#
#
# Elastic Compliance Matrix: (Units=1/GPa)
#
#
# Indices 1 2 3 4 5 6 
#
# 1 0.014953 0.000705 -0.001622 -0.000005 0.001582 0.000003
# 2 0.000705 0.016732 -0.004419 0.000000 -0.000400 0.000003
# 3 -0.001622 -0.004419 0.009086 0.000019 0.000230 -0.000005
# 4 -0.000005 0.000000 0.000019 0.027729 -0.000011 -0.000579
# 5 0.001582 -0.000400 0.000230 -0.000011 0.025651 0.000004
# 6 0.000003 0.000003 -0.000005 -0.000579 0.000004 0.042564
#
#
# Mechanical properties :
#
#
# Convention : Reuss Voigt Hill
#
# Bulk Modulus (GPa) = 33.22408 39.81090 36.51749
# Shear Modulus (GPa) = 31.76230 34.41174 33.08702
#
# Velocity S-wave (km/s) = 3.93418 4.09498 4.01538
# Velocity P-wave (km/s) = 6.06853 6.46206 6.26839
#
# Compressibility (1/GPa) = 0.03009865
#
# Stress axis : x y z
#
# Youngs Moduli (GPa) = 66.87691 59.76485 110.06449
#
# Poissons Ratio (x) = -0.04211 0.17849
# Poissons Ratio (y) = -0.04712 0.48636
# Poissons Ratio (z) = 0.10845 0.26409
#
# Static dielectric constant tensor:
#      x y z
#    x 4.101880 -0.000190 -0.060640 
#    y -0.000190 3.618130 0.000280 
#    z -0.060640 0.000280 3.813450 
# 
# 
# High freq. dielectric constant tensor:
#      x y z
#    x 1.826320 0.000000 -0.001170 
#    y 0.000000 1.790080 0.000010 
#    z -0.001170 0.000010 1.814050 
# 
# From -- ./inp_files/240412.got.cif
#   From: 2010.06.25/outbox.cif.g09.slc.cpg/sg15_121_cif.got.tgz:240412.got - 2010.06.28 07:06:18.
