data_PCOD8151227
_publ_section_title
;
Structure prediction by ZEFSAII (Michael W. Deem and Ramdas Pophale) SiO2 
 PCOD8151227
Probable space group: C 2/C
;
_chemical_formula_sum "Si O2"
_cell_formula_units_Z 64
_cell_length_a 21.073084
_cell_length_b 13.552134
_cell_length_c 11.996939
_cell_angle_alpha 90.000000
_cell_angle_beta 69.860208
_cell_angle_gamma 90.000000
_cell_volume 3216.658257
_symmetry_space_group_name_H-M "C 2/C"
_symmetry_group_IT_number 15
_symmetry_cell_setting 'monoclinic'
loop_
_space_group_symop_operation_xyz
x,y,z
-x,y,1/2-z
-x,-y,-z
x,-y,1/2+z
1/2+x,1/2+y,z
1/2-x,1/2+y,1/2-z
1/2-x,1/2-y,-z
1/2+x,1/2-y,1/2+z
loop_
_atom_site_type_symbol
_atom_site_label
_atom_site_fract_x
_atom_site_fract_y
_atom_site_fract_z
Si Si1 0.709588 0.637084 0.340187
Si Si2 0.441346 0.945265 0.218026
Si Si3 0.604483 0.202811 0.934525
Si Si4 0.476531 0.158686 0.143655
Si Si5 0.677867 0.081485 0.571206
Si Si6 0.727711 0.113442 0.964462
Si Si7 0.837136 0.713792 0.125294
Si Si8 0.218075 0.092417 0.807487
O O1 0.638070 0.695000 0.368563
O O2 0.734196 0.659202 0.451849
O O3 0.767363 0.673377 0.220944
O O4 0.695252 0.521114 0.328887
O O5 0.500000 0.886646 0.250000
O O6 0.400137 0.874954 0.162134
O O7 0.387041 0.978863 0.344128
O O8 0.476635 0.039052 0.136740
O O9 0.652821 0.159333 0.001365
O O10 0.528066 0.211762 0.026866
O O11 0.500000 0.196137 0.250000
O O12 0.399969 0.186759 0.164205
O O13 0.655996 0.170205 0.503318
O O14 0.717722 0.119333 0.655278
O O15 0.723853 0.004687 0.476401
O O16 0.767776 0.131597 0.826022
O O17 0.839462 0.832889 0.113496
#
# Coordination Sequence:
#
# PCOD8151227 Si02
#       8
#     8   8   8   8   8   8   8   8
#     4  11  24  39  62  95 122 159 211 259 307 362
#     4  11  21  38  58  90 127 161 198 242 307 380
#     4  12  22  39  62  89 123 165 202 252 310 370
#     4  11  24  38  59  94 127 158 205 249 311 369
#     4  11  21  37  60  91 126 156 200 252 310 369
#     4  11  20  36  62  88 123 152 203 252 313 357
#     4  12  22  40  63  89 128 164 206 253 310 373
#     4  11  23  39  59  92 118 162 204 261 301 362
#
# _framework density 19.896425000000001
#
# number of rings (size 3 to 8) (size 9 to 14) (size 15 to 20)
#    0.000    0.750    3.750    6.375    1.750    0.000 
#    0.000    0.625    0.000    0.750    0.000    0.000 
#    0.000    0.000    0.000    0.000    0.000    0.000 
#
# Total GULP energy -396598.281739 kJ/mol
# GULP energy per Si atom -12393.696304 kJ/mol
# Density = 1.985114 g / cm^3
# Si number density = 19.896425 Si / 1000 Ang^3
#
#
#
# Elastic Constant Matrix: (Units=GPa)
#
#
# Indices 1 2 3 4 5 6 
#
# 1 87.2159 44.5580 34.7163 0.0000 -2.3156 0.0000
# 2 44.5580 87.3213 23.1315 0.0000 -11.1493 0.0000
# 3 34.7163 23.1315 75.7648 0.0000 -8.2022 0.0000
# 4 0.0000 0.0000 0.0000 19.8092 0.0000 -5.5695
# 5 -2.3156 -11.1493 -8.2022 0.0000 30.3329 0.0000
# 6 0.0000 0.0000 0.0000 -5.5695 0.0000 25.9575
#
#
#
# Elastic Compliance Matrix: (Units=1/GPa)
#
#
# Indices 1 2 3 4 5 6 
#
# 1 0.017848 -0.007896 -0.006113 0.000000 -0.003193 0.000000
# 2 -0.007896 0.016360 -0.000815 0.000000 0.005190 0.000000
# 3 -0.006113 -0.000815 0.016653 0.000000 0.003737 0.000000
# 4 0.000000 0.000000 0.000000 0.053722 0.000000 0.011527
# 5 -0.003193 0.005190 0.003737 0.000000 0.035642 0.000000
# 6 0.000000 0.000000 0.000000 0.011527 0.000000 0.040998
#
#
# Mechanical properties :
#
#
# Convention : Reuss Voigt Hill
#
# Bulk Modulus (GPa) = 47.14049 50.56816 48.85432
# Shear Modulus (GPa) = 22.94186 25.07968 24.01077
#
# Velocity S-wave (km/s) = 3.39936 3.55422 3.47765
# Velocity P-wave (km/s) = 6.25715 6.50494 6.38225
#
# Compressibility (1/GPa) = 0.02121319
#
# Stress axis : x y z
#
# Youngs Moduli (GPa) = 56.02750 61.12637 60.04832
#
# Poissons Ratio (x) = 0.48264 0.36709
# Poissons Ratio (y) = 0.44238 0.04893
# Poissons Ratio (z) = 0.34251 0.04981
#
# Static dielectric constant tensor:
#      x y z
#    x 3.661750 0.000000 0.096730 
#    y 0.000000 3.569780 0.000000 
#    z 0.096730 0.000000 3.657430 
# 
# 
# High freq. dielectric constant tensor:
#      x y z
#    x 1.766340 0.000000 0.012560 
#    y 0.000000 1.761660 0.000000 
#    z 0.012560 0.000000 1.784970 
# 
# From -- ./inp_files/112716.got.cif
#   From: 2010.06.25/outbox.cif.g09.slc.cpg/sg15_57_cif.got.tgz:112716.got - 2010.06.28 07:06:18.
