data_PCOD8151372
_publ_section_title
;
Structure prediction by ZEFSAII (Michael W. Deem and Ramdas Pophale) SiO2 
 PCOD8151372
Probable space group: C 2/C
;
_chemical_formula_sum "Si O2"
_cell_formula_units_Z 36
_cell_length_a 7.937683
_cell_length_b 16.910660
_cell_length_c 15.213187
_cell_angle_alpha 90.000000
_cell_angle_beta 125.143871
_cell_angle_gamma 90.000000
_cell_volume 1669.834372
_symmetry_space_group_name_H-M "C 2/C"
_symmetry_group_IT_number 15
_symmetry_cell_setting 'monoclinic'
loop_
_space_group_symop_operation_xyz
x,y,z
-x,y,1/2-z
-x,-y,-z
x,-y,1/2+z
1/2+x,1/2+y,z
1/2-x,1/2+y,1/2-z
1/2-x,1/2-y,-z
1/2+x,1/2-y,1/2+z
loop_
_atom_site_type_symbol
_atom_site_label
_atom_site_fract_x
_atom_site_fract_y
_atom_site_fract_z
Si Si1 0.000000 0.432965 0.750000
Si Si2 0.694528 0.154653 0.744418
Si Si3 0.959139 0.590322 0.517317
Si Si4 0.261537 0.667641 0.206021
Si Si5 0.303375 0.453039 0.416519
O O1 0.807290 0.384890 0.732018
O O2 0.894943 0.488740 0.646228
O O3 0.500000 0.146685 0.750000
O O4 0.652043 0.126770 0.631266
O O5 0.777291 0.243401 0.772697
O O6 0.853033 0.094465 0.840598
O O7 0.903105 0.647491 0.419607
O O8 0.757408 0.601112 0.518716
O O9 0.000000 0.500000 0.500000
O O10 0.500000 0.651681 0.250000
O O11 0.500000 0.500000 0.500000
#
# Coordination Sequence:
#
# PCOD8151372 Si02
#       5
#     4   8   8   8   8
#     4  12  22  44  64 100 138 164 230 286 318 402
#     4   9  21  41  62  92 132 173 216 273 341 394
#     4  11  20  40  65  89 129 174 216 274 329 395
#     4  11  24  41  67  96 130 176 221 274 344 393
#     4  11  21  39  67  93 130 175 223 274 332 393
#
# _framework density 21.559024000000001
#
# number of rings (size 3 to 8) (size 9 to 14) (size 15 to 20)
#    0.000    1.333    5.556    1.333    0.000    9.778 
#    4.000    2.222    0.000    0.000    0.000    0.000 
#    0.000    0.000    0.000    0.000    0.000    0.000 
#
# Total GULP energy -223006.962346 kJ/mol
# GULP energy per Si atom -12389.275686 kJ/mol
# Density = 2.150996 g / cm^3
# Si number density = 21.559024 Si / 1000 Ang^3
#
#
#
# Elastic Constant Matrix: (Units=GPa)
#
#
# Indices 1 2 3 4 5 6 
#
# 1 57.3724 15.5160 5.5259 0.0000 -1.4178 0.0000
# 2 15.5160 137.6963 54.0230 0.0000 -1.2586 0.0000
# 3 5.5259 54.0230 118.4149 0.0000 -10.0759 0.0000
# 4 0.0000 0.0000 0.0000 47.0443 0.0000 1.7577
# 5 -1.4178 -1.2586 -10.0759 0.0000 30.7410 0.0000
# 6 0.0000 0.0000 0.0000 1.7577 0.0000 30.0197
#
#
#
# Elastic Compliance Matrix: (Units=1/GPa)
#
#
# Indices 1 2 3 4 5 6 
#
# 1 0.017998 -0.002093 0.000183 0.000000 0.000804 0.000000
# 2 -0.002093 0.009118 -0.004155 0.000000 -0.001085 0.000000
# 3 0.000183 -0.004155 0.010614 0.000000 0.003317 0.000000
# 4 0.000000 0.000000 0.000000 0.021303 0.000000 -0.001247
# 5 0.000804 -0.001085 0.003317 0.000000 0.033610 0.000000
# 6 0.000000 0.000000 0.000000 -0.001247 0.000000 0.033385
#
#
# Mechanical properties :
#
#
# Convention : Reuss Voigt Hill
#
# Bulk Modulus (GPa) = 39.05871 51.51260 45.28566
# Shear Modulus (GPa) = 34.08549 37.45556 35.77053
#
# Velocity S-wave (km/s) = 3.98053 4.17267 4.07774
# Velocity P-wave (km/s) = 6.26758 6.86736 6.57431
#
# Compressibility (1/GPa) = 0.02560249
#
# Stress axis : x y z
#
# Youngs Moduli (GPa) = 55.56127 109.67055 94.21532
#
# Poissons Ratio (x) = 0.22950 -0.01727
# Poissons Ratio (y) = 0.11627 0.39142
# Poissons Ratio (z) = -0.01018 0.45563
#
# Static dielectric constant tensor:
#      x y z
#    x 3.606550 0.000000 -0.158520 
#    y 0.000000 4.184360 0.000000 
#    z -0.158520 0.000000 4.058730 
# 
# 
# High freq. dielectric constant tensor:
#      x y z
#    x 1.817930 0.000000 -0.014580 
#    y 0.000000 1.851320 0.000000 
#    z -0.014580 0.000000 1.859890 
# 
# From -- ./inp_files/76429.got.cif
#   From: 2010.06.25/outbox.cif.g09.slc.cpg/sg15_39_cif.got.tgz:76429.got - 2010.06.28 07:06:18.
