data_PCOD8151340
_publ_section_title
;
Structure prediction by ZEFSAII (Michael W. Deem and Ramdas Pophale) SiO2 
 PCOD8151340
Probable space group: C 2/C
;
_chemical_formula_sum "Si O2"
_cell_formula_units_Z 60
_cell_length_a 12.049903
_cell_length_b 13.497471
_cell_length_c 16.524899
_cell_angle_alpha 90.000000
_cell_angle_beta 82.448185
_cell_angle_gamma 90.000000
_cell_volume 2664.351053
_symmetry_space_group_name_H-M "C 2/C"
_symmetry_group_IT_number 15
_symmetry_cell_setting 'monoclinic'
loop_
_space_group_symop_operation_xyz
x,y,z
-x,y,1/2-z
-x,-y,-z
x,-y,1/2+z
1/2+x,1/2+y,z
1/2-x,1/2+y,1/2-z
1/2-x,1/2-y,-z
1/2+x,1/2-y,1/2+z
loop_
_atom_site_type_symbol
_atom_site_label
_atom_site_fract_x
_atom_site_fract_y
_atom_site_fract_z
Si Si1 0.760192 0.402804 0.291670
Si Si2 0.427532 0.413536 0.837779
Si Si3 0.303228 0.188527 0.172169
Si Si4 0.539369 0.185376 0.073607
Si Si5 0.434775 0.263964 0.599649
Si Si6 0.500000 0.857137 0.250000
Si Si7 0.224253 0.612620 0.152946
Si Si8 0.591239 0.632372 0.675014
O O1 0.728481 0.303568 0.344808
O O2 0.893544 0.423494 0.283518
O O3 0.714897 0.506818 0.333075
O O4 0.712059 0.385098 0.206004
O O5 0.500000 0.389637 0.750000
O O6 0.298116 0.384523 0.839023
O O7 0.473397 0.351604 0.909549
O O8 0.442382 0.527682 0.860582
O O9 0.412298 0.160918 0.110168
O O10 0.328962 0.169567 0.264290
O O11 0.622349 0.099385 0.098588
O O12 0.589509 0.288291 0.103890
O O13 0.545216 0.189445 0.976248
O O14 0.451903 0.208353 0.682316
O O15 0.313480 0.313121 0.605596
O O16 0.500000 0.666396 0.750000
#
# Coordination Sequence:
#
# PCOD8151340 Si02
#       8
#     8   8   8   8   8   4   8   8
#     4  12  23  39  73  96 125 175 228 263 316 397
#     4  11  20  40  70  93 123 176 229 264 318 400
#     4  12  22  43  65 100 130 172 222 270 319 394
#     4  12  27  39  66 102 141 163 215 282 335 371
#     4  12  23  46  69  93 133 180 217 269 332 397
#     4  12  24  46  70  88 126 184 230 258 326 400
#     4  12  23  44  68  98 131 176 219 266 327 395
#     4  11  20  39  64  98 129 167 218 270 326 388
#
# _framework density 22.519553999999999
#
# number of rings (size 3 to 8) (size 9 to 14) (size 15 to 20)
#    0.000    0.267    8.667    1.600    1.867    1.067 
#    0.000    0.667    0.000    0.000    0.000    0.000 
#    0.000    0.000    0.000    0.000    0.000    0.000 
#
# Total GULP energy -371910.795283 kJ/mol
# GULP energy per Si atom -12397.026509 kJ/mol
# Density = 2.246830 g / cm^3
# Si number density = 22.519554 Si / 1000 Ang^3
#
#
#
# Elastic Constant Matrix: (Units=GPa)
#
#
# Indices 1 2 3 4 5 6 
#
# 1 136.5804 -4.5793 19.4332 0.0000 -4.9355 0.0000
# 2 -4.5793 73.3617 12.0225 0.0000 6.1683 0.0000
# 3 19.4332 12.0225 63.1755 0.0000 4.1073 0.0000
# 4 0.0000 0.0000 0.0000 7.1593 0.0000 -1.1448
# 5 -4.9355 6.1683 4.1073 0.0000 27.7258 0.0000
# 6 0.0000 0.0000 0.0000 -1.1448 0.0000 24.6755
#
#
#
# Elastic Compliance Matrix: (Units=1/GPa)
#
#
# Indices 1 2 3 4 5 6 
#
# 1 0.007783 0.000785 -0.002648 0.000000 0.001603 0.000000
# 2 0.000785 0.014361 -0.002803 0.000000 -0.002640 0.000000
# 3 -0.002648 -0.002803 0.017334 0.000000 -0.002416 0.000000
# 4 0.000000 0.000000 0.000000 0.140722 0.000000 0.006529
# 5 0.001603 -0.002640 -0.002416 0.000000 0.037298 0.000000
# 6 0.000000 0.000000 0.000000 0.006529 0.000000 0.040829
#
#
# Mechanical properties :
#
#
# Convention : Reuss Voigt Hill
#
# Bulk Modulus (GPa) = 33.17100 36.31893 34.74496
# Shear Modulus (GPa) = 18.00459 28.32821 23.16640
#
# Velocity S-wave (km/s) = 2.83063 3.55059 3.21085
# Velocity P-wave (km/s) = 5.04431 5.74210 5.40448
#
# Compressibility (1/GPa) = 0.03014682
#
# Stress axis : x y z
#
# Youngs Moduli (GPa) = 128.49101 69.63118 57.69091
#
# Poissons Ratio (x) = -0.05465 0.15274
# Poissons Ratio (y) = -0.10085 0.16170
# Poissons Ratio (z) = 0.34019 0.19516
#
# Static dielectric constant tensor:
#      x y z
#    x 4.373440 0.000000 0.164490 
#    y 0.000000 4.164170 0.000000 
#    z 0.164490 0.000000 3.605920 
# 
# 
# High freq. dielectric constant tensor:
#      x y z
#    x 1.911440 0.000000 0.008780 
#    y 0.000000 1.892200 0.000000 
#    z 0.008780 0.000000 1.833180 
# 
# From -- ./inp_files/197815.got.cif
#   From: 2010.06.25/outbox.cif.g09.slc.cpg/sg15_99_cif.got.tgz:197815.got - 2010.06.28 07:06:18.
