data_PCOD8151317
_publ_section_title
;
Structure prediction by ZEFSAII (Michael W. Deem and Ramdas Pophale) SiO2 
 PCOD8151317
Probable space group: C 2/C
;
_chemical_formula_sum "Si O2"
_cell_formula_units_Z 48
_cell_length_a 9.530124
_cell_length_b 11.011432
_cell_length_c 24.410022
_cell_angle_alpha 90.000000
_cell_angle_beta 61.920715
_cell_angle_gamma 90.000000
_cell_volume 2260.088135
_symmetry_space_group_name_H-M "C 2/C"
_symmetry_group_IT_number 15
_symmetry_cell_setting 'monoclinic'
loop_
_space_group_symop_operation_xyz
x,y,z
-x,y,1/2-z
-x,-y,-z
x,-y,1/2+z
1/2+x,1/2+y,z
1/2-x,1/2+y,1/2-z
1/2-x,1/2-y,-z
1/2+x,1/2-y,1/2+z
loop_
_atom_site_type_symbol
_atom_site_label
_atom_site_fract_x
_atom_site_fract_y
_atom_site_fract_z
Si Si1 0.996729 0.856636 0.002558
Si Si2 0.544494 0.753929 0.383105
Si Si3 0.874357 0.833744 0.320383
Si Si4 0.543302 0.184683 0.091428
Si Si5 0.322855 0.060019 0.966159
Si Si6 0.725724 0.583232 0.107485
O O1 0.805199 0.840763 0.033561
O O2 0.067285 0.793873 0.043362
O O3 0.087290 0.811351 0.932348
O O4 0.000000 0.000000 0.000000
O O5 0.712630 0.779608 0.322456
O O6 0.485902 0.886876 0.413014
O O7 0.423287 0.676880 0.368329
O O8 0.940010 0.735097 0.350931
O O9 0.000000 0.855416 0.250000
O O10 0.846464 0.960006 0.356103
O O11 0.363568 0.134448 0.121131
O O12 0.678966 0.080647 0.054374
O O13 0.311880 0.059099 0.033673
#
# Coordination Sequence:
#
# PCOD8151317 Si02
#       6
#     8   8   8   8   8   8
#     4  11  21  35  63 105 132 159 202 257 335 403
#     4  11  21  42  66  96 138 158 200 276 328 388
#     4  12  29  45  60  90 129 180 232 264 301 373
#     4  12  22  40  68  94 131 170 211 258 330 384
#     4  11  20  38  69 106 131 157 198 270 348 394
#     4  11  22  43  72  97 130 166 206 269 337 391
#
# _framework density 21.238109000000001
#
# number of rings (size 3 to 8) (size 9 to 14) (size 15 to 20)
#    0.000    0.667    5.000    5.500    0.000    3.333 
#    0.000    0.000    0.000    0.000    0.000    0.000 
#    0.000    0.000    0.000    0.000    0.000    0.000 
#
# Total GULP energy -297470.232211 kJ/mol
# GULP energy per Si atom -12394.593009 kJ/mol
# Density = 2.118977 g / cm^3
# Si number density = 21.238109 Si / 1000 Ang^3
#
#
#
# Elastic Constant Matrix: (Units=GPa)
#
#
# Indices 1 2 3 4 5 6 
#
# 1 57.0740 17.1254 35.9823 0.0000 -14.9675 0.0000
# 2 17.1254 108.7625 27.6773 0.0000 -4.1762 0.0000
# 3 35.9823 27.6773 79.7872 0.0000 -20.1818 0.0000
# 4 0.0000 0.0000 0.0000 15.6385 0.0000 -4.9689
# 5 -14.9675 -4.1762 -20.1818 0.0000 27.5628 0.0000
# 6 0.0000 0.0000 0.0000 -4.9689 0.0000 41.9328
#
#
#
# Elastic Compliance Matrix: (Units=1/GPa)
#
#
# Indices 1 2 3 4 5 6 
#
# 1 0.025627 -0.001396 -0.009336 0.000000 0.006869 0.000000
# 2 -0.001396 0.010197 -0.003324 0.000000 -0.001647 0.000000
# 3 -0.009336 -0.003324 0.020235 0.000000 0.009243 0.000000
# 4 0.000000 0.000000 0.000000 0.066446 0.000000 0.007874
# 5 0.006869 -0.001647 0.009243 0.000000 0.046529 0.000000
# 6 0.000000 0.000000 0.000000 0.007874 0.000000 0.024781
#
#
# Mechanical properties :
#
#
# Convention : Reuss Voigt Hill
#
# Bulk Modulus (GPa) = 35.78181 45.24375 40.51278
# Shear Modulus (GPa) = 21.62243 28.01607 24.81925
#
# Velocity S-wave (km/s) = 3.19422 3.63594 3.42222
# Velocity P-wave (km/s) = 5.52165 6.24308 5.89341
#
# Compressibility (1/GPa) = 0.02794716
#
# Stress axis : x y z
#
# Youngs Moduli (GPa) = 39.02147 98.06973 49.42038
#
# Poissons Ratio (x) = 0.13688 0.46136
# Poissons Ratio (y) = 0.05446 0.16429
# Poissons Ratio (z) = 0.36429 0.32602
#
# Static dielectric constant tensor:
#      x y z
#    x 3.121460 0.000000 0.100780 
#    y 0.000000 4.063790 0.000000 
#    z 0.100780 0.000000 3.269580 
# 
# 
# High freq. dielectric constant tensor:
#      x y z
#    x 1.854910 0.000000 -0.025650 
#    y 0.000000 1.861700 0.000000 
#    z -0.025650 0.000000 1.780270 
# 
# From -- ./inp_files/287536.got.cif
#   From: 2010.06.25/outbox.cif.g09.slc.cpg/sg15_144_cif.got.tgz:287536.got - 2010.06.28 07:06:18.
