data_PCOD8151918
_publ_section_title
;
Structure prediction by ZEFSAII (Michael W. Deem and Ramdas Pophale) SiO2 
 PCOD8151918
Probable space group: C 2/C
;
_chemical_formula_sum "Si O2"
_cell_formula_units_Z 56
_cell_length_a 8.689874
_cell_length_b 18.388556
_cell_length_c 25.265167
_cell_angle_alpha 90.000000
_cell_angle_beta 39.206276
_cell_angle_gamma 90.000000
_cell_volume 2551.989098
_symmetry_space_group_name_H-M "C 2/C"
_symmetry_group_IT_number 15
_symmetry_cell_setting 'monoclinic'
loop_
_space_group_symop_operation_xyz
x,y,z
-x,y,1/2-z
-x,-y,-z
x,-y,1/2+z
1/2+x,1/2+y,z
1/2-x,1/2+y,1/2-z
1/2-x,1/2-y,-z
1/2+x,1/2-y,1/2+z
loop_
_atom_site_type_symbol
_atom_site_label
_atom_site_fract_x
_atom_site_fract_y
_atom_site_fract_z
Si Si1 0.422521 0.158516 0.937025
Si Si2 0.721791 0.589880 0.338134
Si Si3 0.735854 0.749562 0.717129
Si Si4 0.464992 0.742035 0.515917
Si Si5 0.728278 0.985053 0.977508
Si Si6 0.278578 0.888866 0.943088
Si Si7 0.732677 0.192593 0.328415
O O1 0.577067 0.184652 0.845286
O O2 0.156311 0.191212 0.996622
O O3 0.539168 0.186498 0.962079
O O4 0.383449 0.072464 0.950682
O O5 0.682760 0.671095 0.326267
O O6 0.482365 0.543566 0.381721
O O7 0.697435 0.583964 0.407698
O O8 0.000000 0.562020 0.250000
O O9 0.500000 0.723335 0.750000
O O10 0.679055 0.751714 0.794602
O O11 0.686664 0.694050 0.480203
O O12 0.286567 0.765079 0.610984
O O13 0.500000 0.000000 0.000000
O O14 0.808486 0.056634 0.988317
O O15 0.569103 0.879531 0.868694
O O16 0.000000 0.160864 0.250000
#
# Coordination Sequence:
#
# PCOD8151918 Si02
#       7
#     8   8   8   8   8   8   8
#     4  11  21  42  70  97 139 177 230 292 354 405
#     4  11  22  45  72  96 130 188 235 287 350 423
#     4  11  21  42  71 102 136 179 228 295 360 405
#     4  11  22  40  70 100 130 177 229 294 341 413
#     4  12  28  44  68 102 141 188 235 291 356 429
#     4  12  24  43  70  97 139 186 234 272 353 442
#     4  12  24  38  68 108 135 167 235 295 346 407
#
# _framework density 21.943667999999999
#
# number of rings (size 3 to 8) (size 9 to 14) (size 15 to 20)
#    0.000    0.571    7.143    2.571    2.000    1.143 
#    0.000    4.286    0.000    0.000    0.000    0.000 
#    0.000    0.000    0.000    0.000    0.000    0.000 
#
# Total GULP energy -346905.228102 kJ/mol
# GULP energy per Si atom -12389.472432 kJ/mol
# Density = 2.189372 g / cm^3
# Si number density = 21.943668 Si / 1000 Ang^3
#
#
#
# Elastic Constant Matrix: (Units=GPa)
#
#
# Indices 1 2 3 4 5 6 
#
# 1 83.9538 22.3423 24.0754 -0.0099 -1.7043 -0.0011
# 2 22.3423 72.5292 30.6381 -0.0352 -3.7294 -0.0018
# 3 24.0754 30.6381 100.8236 -0.0862 -9.1313 -0.0141
# 4 -0.0099 -0.0352 -0.0862 30.8925 0.0006 -5.2120
# 5 -1.7043 -3.7294 -9.1313 0.0006 52.6879 0.0103
# 6 -0.0011 -0.0018 -0.0141 -5.2120 0.0103 32.6796
#
#
#
# Elastic Compliance Matrix: (Units=1/GPa)
#
#
# Indices 1 2 3 4 5 6 
#
# 1 0.013401 -0.003188 -0.002248 -0.000006 -0.000182 -0.000002
# 2 -0.003188 0.016581 -0.004247 0.000006 0.000334 0.000000
# 3 -0.002248 -0.004247 0.011899 0.000029 0.001689 0.000009
# 4 -0.000006 0.000006 0.000029 0.033265 0.000004 0.005305
# 5 -0.000182 0.000334 0.001689 0.000004 0.019290 -0.000005
# 6 -0.000002 0.000000 0.000009 0.005305 -0.000005 0.031446
#
#
# Mechanical properties :
#
#
# Convention : Reuss Voigt Hill
#
# Bulk Modulus (GPa) = 44.41504 45.71313 45.06408
# Shear Modulus (GPa) = 32.73282 35.26872 34.00077
#
# Velocity S-wave (km/s) = 3.86641 4.01339 3.94058
# Velocity P-wave (km/s) = 6.34166 6.50797 6.42535
#
# Compressibility (1/GPa) = 0.02251490
#
# Stress axis : x y z
#
# Youngs Moduli (GPa) = 74.62380 60.31070 84.04370
#
# Poissons Ratio (x) = 0.19226 0.18890
# Poissons Ratio (y) = 0.23789 0.35694
# Poissons Ratio (z) = 0.16773 0.25614
#
# Static dielectric constant tensor:
#      x y z
#    x 4.341120 -0.000010 -0.194910 
#    y -0.000010 3.680410 0.000090 
#    z -0.194910 0.000090 4.060830 
# 
# 
# High freq. dielectric constant tensor:
#      x y z
#    x 1.883820 0.000000 -0.010940 
#    y 0.000000 1.824200 0.000000 
#    z -0.010940 0.000000 1.861550 
# 
# From -- ./inp_files/289708.got.cif
#   From: 2010.06.25/outbox.cif.g09.slc.cpg/sg15_145_cif.got.tgz:289708.got - 2010.06.28 07:06:18.
