data_PCOD8151718
_publ_section_title
;
Structure prediction by ZEFSAII (Michael W. Deem and Ramdas Pophale) SiO2 
 PCOD8151718
Probable space group: C 2/C
;
_chemical_formula_sum "Si O2"
_cell_formula_units_Z 60
_cell_length_a 11.972458
_cell_length_b 14.814325
_cell_length_c 16.469571
_cell_angle_alpha 90.000000
_cell_angle_beta 87.801770
_cell_angle_gamma 90.000000
_cell_volume 2918.957441
_symmetry_space_group_name_H-M "C 2/C"
_symmetry_group_IT_number 15
_symmetry_cell_setting 'monoclinic'
loop_
_space_group_symop_operation_xyz
x,y,z
-x,y,1/2-z
-x,-y,-z
x,-y,1/2+z
1/2+x,1/2+y,z
1/2-x,1/2+y,1/2-z
1/2-x,1/2-y,-z
1/2+x,1/2-y,1/2+z
loop_
_atom_site_type_symbol
_atom_site_label
_atom_site_fract_x
_atom_site_fract_y
_atom_site_fract_z
Si Si1 0.308307 0.842290 0.471689
Si Si2 0.622484 0.966599 0.891922
Si Si3 0.100507 0.637483 0.114896
Si Si4 0.698728 0.371370 0.308340
Si Si5 0.120371 0.753000 0.780508
Si Si6 0.761364 0.934039 0.731337
Si Si7 0.071048 0.332220 0.440398
Si Si8 0.000000 0.235384 0.750000
O O1 0.250000 0.750000 0.500000
O O2 0.300994 0.916035 0.543679
O O3 0.236299 0.880985 0.399860
O O4 0.436627 0.826248 0.443011
O O5 0.495876 0.933631 0.902398
O O6 0.665898 0.937698 0.802515
O O7 0.619558 0.072882 0.906473
O O8 0.206593 0.582152 0.144259
O O9 0.074575 0.707359 0.186757
O O10 0.122069 0.687752 0.028482
O O11 0.791966 0.318036 0.256202
O O12 0.677318 0.470110 0.271302
O O13 0.580232 0.322230 0.305469
O O14 0.150840 0.854482 0.752492
O O15 0.118262 0.744320 0.878515
O O16 0.000000 0.725949 0.750000
#
# Coordination Sequence:
#
# PCOD8151718 Si02
#       8
#     8   8   8   8   8   8   8   4
#     4  11  22  39  67  99 132 170 222 277 334 387
#     4  11  21  39  65 100 132 163 222 282 324 389
#     4  11  21  39  66  95 128 171 217 274 328 379
#     4  12  24  44  66  95 129 178 216 267 332 395
#     4  12  25  43  66  97 131 175 222 273 333 395
#     4  12  24  41  66  95 134 174 217 270 333 398
#     4  11  23  39  65  99 133 167 222 282 327 389
#     4  12  24  44  64  92 134 174 222 264 326 396
#
# _framework density 20.555284
#
# number of rings (size 3 to 8) (size 9 to 14) (size 15 to 20)
#    0.000    0.533    5.333    5.600    0.933    0.533 
#    0.000    0.000    0.000    2.400    0.000    0.000 
#    0.000    0.000    0.000    0.000    0.000    0.000 
#
# Total GULP energy -372055.824094 kJ/mol
# GULP energy per Si atom -12401.860803 kJ/mol
# Density = 2.050850 g / cm^3
# Si number density = 20.555284 Si / 1000 Ang^3
#
#
#
# Elastic Constant Matrix: (Units=GPa)
#
#
# Indices 1 2 3 4 5 6 
#
# 1 63.6384 20.9579 14.2144 0.0000 11.1477 0.0000
# 2 20.9579 119.3165 21.6334 0.0000 -11.8608 0.0000
# 3 14.2144 21.6334 106.4864 0.0000 8.8391 0.0000
# 4 0.0000 0.0000 0.0000 27.7067 0.0000 0.9835
# 5 11.1477 -11.8608 8.8391 0.0000 31.3986 0.0000
# 6 0.0000 0.0000 0.0000 0.9835 0.0000 29.0861
#
#
#
# Elastic Compliance Matrix: (Units=1/GPa)
#
#
# Indices 1 2 3 4 5 6 
#
# 1 0.018572 -0.003841 -0.001056 0.000000 -0.007747 0.000000
# 2 -0.003841 0.009982 -0.001988 0.000000 0.005694 0.000000
# 3 -0.001056 -0.001988 0.010205 0.000000 -0.003249 0.000000
# 4 0.000000 0.000000 0.000000 0.036136 0.000000 -0.001222
# 5 -0.007747 0.005694 -0.003249 0.000000 0.037665 0.000000
# 6 0.000000 0.000000 0.000000 -0.001222 0.000000 0.034422
#
#
# Mechanical properties :
#
#
# Convention : Reuss Voigt Hill
#
# Bulk Modulus (GPa) = 40.01546 44.78362 42.39954
# Shear Modulus (GPa) = 29.57171 33.14731 31.35951
#
# Velocity S-wave (km/s) = 3.79706 4.02007 3.91015
# Velocity P-wave (km/s) = 6.22359 6.58651 6.40762
#
# Compressibility (1/GPa) = 0.02499034
#
# Stress axis : x y z
#
# Youngs Moduli (GPa) = 53.84564 100.17869 97.98796
#
# Poissons Ratio (x) = 0.38477 0.10344
# Poissons Ratio (y) = 0.20681 0.19479
# Poissons Ratio (z) = 0.05684 0.19914
#
# Static dielectric constant tensor:
#      x y z
#    x 3.576100 0.000000 0.092750 
#    y 0.000000 3.739980 0.000000 
#    z 0.092750 0.000000 4.094730 
# 
# 
# High freq. dielectric constant tensor:
#      x y z
#    x 1.789040 0.000000 0.009240 
#    y 0.000000 1.803230 0.000000 
#    z 0.009240 0.000000 1.819250 
# 
# From -- ./inp_files/197838.got.cif
#   From: 2010.06.25/outbox.cif.g09.slc.cpg/sg15_99_cif.got.tgz:197838.got - 2010.06.28 07:06:18.
