data_PCOD8151519
_publ_section_title
;
Structure prediction by ZEFSAII (Michael W. Deem and Ramdas Pophale) SiO2 
 PCOD8151519
Probable space group: C 2/C
;
_chemical_formula_sum "Si O2"
_cell_formula_units_Z 48
_cell_length_a 16.420075
_cell_length_b 8.666795
_cell_length_c 18.535654
_cell_angle_alpha 90.000000
_cell_angle_beta 90.103448
_cell_angle_gamma 90.000000
_cell_volume 2637.793943
_symmetry_space_group_name_H-M "C 2/C"
_symmetry_group_IT_number 15
_symmetry_cell_setting 'monoclinic'
loop_
_space_group_symop_operation_xyz
x,y,z
-x,y,1/2-z
-x,-y,-z
x,-y,1/2+z
1/2+x,1/2+y,z
1/2-x,1/2+y,1/2-z
1/2-x,1/2-y,-z
1/2+x,1/2-y,1/2+z
loop_
_atom_site_type_symbol
_atom_site_label
_atom_site_fract_x
_atom_site_fract_y
_atom_site_fract_z
Si Si1 0.412334 0.443489 0.914888
Si Si2 0.265492 0.429958 0.326894
Si Si3 0.087976 0.945817 0.415105
Si Si4 0.329698 0.856107 0.421017
Si Si5 0.170599 0.353938 0.919908
Si Si6 0.765192 0.072424 0.171945
O O1 0.344736 0.546202 0.875756
O O2 0.500208 0.498452 0.887422
O O3 0.402404 0.260023 0.896980
O O4 0.401223 0.471824 0.999775
O O5 0.185267 0.509254 0.362733
O O6 0.250057 0.251051 0.317949
O O7 0.282387 0.499626 0.249117
O O8 0.097973 0.762845 0.396145
O O9 0.155764 0.049770 0.377105
O O10 0.250117 0.751098 0.423732
O O11 0.347413 0.925524 0.500814
O O12 0.315189 0.994419 0.364538
#
# Coordination Sequence:
#
# PCOD8151519 Si02
#       6
#     8   8   8   8   8   8
#     4   9  18  34  55  77 102 133 167 205 255 313
#     4  11  21  33  51  74 102 135 174 216 257 305
#     4   9  18  34  55  77 102 133 167 205 255 313
#     4   8  15  30  51  73  99 130 165 204 247 301
#     4   8  15  30  51  73  99 130 165 204 247 301
#     4  11  21  33  51  74 102 135 174 216 257 305
#
# _framework density 18.197023000000002
#
# number of rings (size 3 to 8) (size 9 to 14) (size 15 to 20)
#    0.000    2.667    0.000    6.000    0.000    3.333 
#    0.000    1.667    0.000    8.000    0.000    0.000 
#    0.000    0.000    0.000    0.000    0.000    0.000 
#
# Total GULP energy -297485.304799 kJ/mol
# GULP energy per Si atom -12395.221033 kJ/mol
# Density = 1.815561 g / cm^3
# Si number density = 18.197023 Si / 1000 Ang^3
#
#
#
# Elastic Constant Matrix: (Units=GPa)
#
#
# Indices 1 2 3 4 5 6 
#
# 1 98.0828 54.1118 37.4770 0.0000 3.5863 0.0000
# 2 54.1118 131.4367 48.3296 0.0000 -2.5922 0.0000
# 3 37.4770 48.3296 72.0063 0.0000 -4.3268 0.0000
# 4 0.0000 0.0000 0.0000 32.8717 0.0000 -0.0858
# 5 3.5863 -2.5922 -4.3268 0.0000 2.0118 0.0000
# 6 0.0000 0.0000 0.0000 -0.0858 0.0000 31.8767
#
#
#
# Elastic Compliance Matrix: (Units=1/GPa)
#
#
# Indices 1 2 3 4 5 6 
#
# 1 0.019515 -0.005507 -0.010310 0.000000 -0.064059 0.000000
# 2 -0.005507 0.011661 -0.003982 0.000000 0.016276 0.000000
# 3 -0.010310 -0.003982 0.026095 0.000000 0.069372 0.000000
# 4 0.000000 0.000000 0.000000 0.030422 0.000000 0.000082
# 5 -0.064059 0.016276 0.069372 0.000000 0.781447 0.000000
# 6 0.000000 0.000000 0.000000 0.000082 0.000000 0.031371
#
#
# Mechanical properties :
#
#
# Convention : Reuss Voigt Hill
#
# Bulk Modulus (GPa) = 56.58519 64.59585 60.59052
# Shear Modulus (GPa) = 5.28541 24.12586 14.70564
#
# Velocity S-wave (km/s) = 1.70612 3.64512 2.84585
# Velocity P-wave (km/s) = 5.91984 7.30007 6.64588
#
# Compressibility (1/GPa) = 0.01767247
#
# Stress axis : x y z
#
# Youngs Moduli (GPa) = 51.24226 85.75895 38.32112
#
# Poissons Ratio (x) = 0.47224 0.39510
# Poissons Ratio (y) = 0.28217 0.15261
# Poissons Ratio (z) = 0.52832 0.34153
#
# Static dielectric constant tensor:
#      x y z
#    x 3.528580 0.000000 0.004010 
#    y 0.000000 3.563050 0.000000 
#    z 0.004010 0.000000 3.439950 
# 
# 
# High freq. dielectric constant tensor:
#      x y z
#    x 1.677480 0.000000 -0.002820 
#    y 0.000000 1.698020 0.000000 
#    z -0.002820 0.000000 1.707900 
# 
# From -- ./inp_files/208689.got.cif
#   From: 2010.06.25/outbox.cif.g09.slc.cpg/sg15_105_cif.got.tgz:208689.got - 2010.06.28 07:06:18.
