data_PCOD8151881
_publ_section_title
;
Structure prediction by ZEFSAII (Michael W. Deem and Ramdas Pophale) SiO2 
 PCOD8151881
Probable space group: C 2/C
;
_chemical_formula_sum "Si O2"
_cell_formula_units_Z 48
_cell_length_a 21.570802
_cell_length_b 13.664877
_cell_length_c 11.228423
_cell_angle_alpha 90.000000
_cell_angle_beta 45.559594
_cell_angle_gamma 90.000000
_cell_volume 2363.068307
_symmetry_space_group_name_H-M "C 2/C"
_symmetry_group_IT_number 15
_symmetry_cell_setting 'monoclinic'
loop_
_space_group_symop_operation_xyz
x,y,z
-x,y,1/2-z
-x,-y,-z
x,-y,1/2+z
1/2+x,1/2+y,z
1/2-x,1/2+y,1/2-z
1/2-x,1/2-y,-z
1/2+x,1/2-y,1/2+z
loop_
_atom_site_type_symbol
_atom_site_label
_atom_site_fract_x
_atom_site_fract_y
_atom_site_fract_z
Si Si1 0.613557 0.797182 0.713696
Si Si2 0.668969 0.383409 0.294962
Si Si3 0.257203 0.964710 0.964664
Si Si4 0.423228 0.244587 0.496467
Si Si5 0.217764 0.323927 0.142223
Si Si6 0.421197 0.536352 0.940710
O O1 0.637082 0.696995 0.746075
O O2 0.673418 0.885816 0.678390
O O3 0.630943 0.782234 0.549366
O O4 0.512462 0.817542 0.876033
O O5 0.709478 0.330673 0.354424
O O6 0.589702 0.453672 0.442688
O O7 0.739063 0.449799 0.129767
O O8 0.300164 0.070842 0.892114
O O9 0.168825 0.955700 0.009544
O O10 0.371645 0.216150 0.683778
O O11 0.444338 0.360009 0.469206
O O12 0.250000 0.250000 0.000000
O O13 0.500000 0.503531 0.750000
#
# Coordination Sequence:
#
# PCOD8151881 Si02
#       6
#     8   8   8   8   8   8
#     4  11  22  39  68  93 124 175 215 261 319 386
#     4  11  22  39  65  91 129 165 209 263 327 389
#     4  11  22  40  62  91 122 172 213 252 330 384
#     4  11  21  42  64  93 130 168 219 269 311 386
#     4  11  25  41  65  95 128 166 215 274 321 381
#     4  11  22  37  62  96 129 166 209 267 324 387
#
# _framework density 20.312574000000001
#
# number of rings (size 3 to 8) (size 9 to 14) (size 15 to 20)
#    0.000    1.000    5.000    2.500    0.000    7.333 
#    0.000    0.000    0.000    0.000    0.000    0.000 
#    0.000    0.000    0.000    0.000    0.000    0.000 
#
# Total GULP energy -297662.778346 kJ/mol
# GULP energy per Si atom -12402.615764 kJ/mol
# Density = 2.026634 g / cm^3
# Si number density = 20.312574 Si / 1000 Ang^3
#
#
#
# Elastic Constant Matrix: (Units=GPa)
#
#
# Indices 1 2 3 4 5 6 
#
# 1 70.1835 35.7340 43.6162 0.0000 2.1476 0.0000
# 2 35.7340 133.3584 87.5614 0.0000 -1.6733 0.0000
# 3 43.6162 87.5614 178.1509 0.0000 1.4802 0.0000
# 4 0.0000 0.0000 0.0000 47.3069 0.0000 1.5076
# 5 2.1476 -1.6733 1.4802 0.0000 27.4142 0.0000
# 6 0.0000 0.0000 0.0000 1.5076 0.0000 25.4716
#
#
#
# Elastic Compliance Matrix: (Units=1/GPa)
#
#
# Indices 1 2 3 4 5 6 
#
# 1 0.017522 -0.002810 -0.002897 0.000000 -0.001388 0.000000
# 2 -0.002810 0.011548 -0.004998 0.000000 0.001195 0.000000
# 3 -0.002897 -0.004998 0.008784 0.000000 -0.000552 0.000000
# 4 0.000000 0.000000 0.000000 0.021179 0.000000 -0.001253
# 5 -0.001388 0.001195 -0.000552 0.000000 0.036689 0.000000
# 6 0.000000 0.000000 0.000000 -0.001253 0.000000 0.039334
#
#
# Mechanical properties :
#
#
# Convention : Reuss Voigt Hill
#
# Bulk Modulus (GPa) = 60.81498 79.50178 70.15838
# Shear Modulus (GPa) = 30.87441 34.35728 32.61584
#
# Velocity S-wave (km/s) = 3.90290 4.11716 4.01146
# Velocity P-wave (km/s) = 7.09329 7.86292 7.48800
#
# Compressibility (1/GPa) = 0.01644332
#
# Stress axis : x y z
#
# Youngs Moduli (GPa) = 57.07064 86.59423 113.84966
#
# Poissons Ratio (x) = 0.24336 0.32983
# Poissons Ratio (y) = 0.16039 0.56900
# Poissons Ratio (z) = 0.16534 0.43278
#
# Static dielectric constant tensor:
#      x y z
#    x 3.551410 0.000000 0.050200 
#    y 0.000000 3.790970 0.000000 
#    z 0.050200 0.000000 3.953380 
# 
# 
# High freq. dielectric constant tensor:
#      x y z
#    x 1.784060 0.000000 -0.000500 
#    y 0.000000 1.793350 0.000000 
#    z -0.000500 0.000000 1.803160 
# 
# From -- ./inp_files/111445.got.cif
#   From: 2010.06.25/outbox.cif.g09.slc.cpg/sg15_56_cif.got.tgz:111445.got - 2010.06.28 07:06:18.
