data_PCOD8151737
_publ_section_title
;
Structure prediction by ZEFSAII (Michael W. Deem and Ramdas Pophale) SiO2 
 PCOD8151737
Probable space group: C 2/C
;
_chemical_formula_sum "Si O2"
_cell_formula_units_Z 48
_cell_length_a 14.232832
_cell_length_b 33.238963
_cell_length_c 14.913664
_cell_angle_alpha 90.000000
_cell_angle_beta 160.446172
_cell_angle_gamma 90.000000
_cell_volume 2361.396229
_symmetry_space_group_name_H-M "C 2/C"
_symmetry_group_IT_number 15
_symmetry_cell_setting 'monoclinic'
loop_
_space_group_symop_operation_xyz
x,y,z
-x,y,1/2-z
-x,-y,-z
x,-y,1/2+z
1/2+x,1/2+y,z
1/2-x,1/2+y,1/2-z
1/2-x,1/2-y,-z
1/2+x,1/2-y,1/2+z
loop_
_atom_site_type_symbol
_atom_site_label
_atom_site_fract_x
_atom_site_fract_y
_atom_site_fract_z
Si Si1 0.558026 0.723231 0.590974
Si Si2 0.500000 0.892291 0.250000
Si Si3 0.695924 0.338785 0.505476
Si Si4 0.500000 0.551515 0.250000
Si Si5 0.233073 0.112106 0.207938
Si Si6 0.282657 0.523330 0.242689
Si Si7 0.341555 0.851082 0.278267
O O1 0.258320 0.738779 0.286975
O O2 0.486876 0.696866 0.614383
O O3 0.718862 0.694286 0.665278
O O4 0.516358 0.861792 0.347699
O O5 0.768103 0.920872 0.494937
O O6 0.749146 0.377164 0.617312
O O7 0.000000 0.321713 0.750000
O O8 0.500000 0.355150 0.250000
O O9 0.375409 0.525080 0.220765
O O10 0.298923 0.066471 0.289886
O O11 0.454586 0.142285 0.453850
O O12 0.916934 0.118398 0.955647
O O13 0.500000 0.500000 0.500000
O O14 0.000000 0.500000 0.000000
#
# Coordination Sequence:
#
# PCOD8151737 Si02
#       7
#     8   4   8   4   8   8   8
#     4  11  23  39  60  90 129 164 204 265 328 379
#     4  12  20  40  72  97 116 166 228 268 290 383
#     4  11  23  40  63  90 123 168 220 261 307 387
#     4  12  24  44  70  99 130 170 228 268 308 395
#     4  11  22  43  64  90 127 165 212 263 315 375
#     4  12  25  44  68  98 138 169 209 271 333 386
#     4  11  21  39  67  93 120 164 210 262 317 369
#
# _framework density 20.326957
#
# number of rings (size 3 to 8) (size 9 to 14) (size 15 to 20)
#    0.000    0.667    3.333    7.000    0.000    2.000 
#    4.500    0.833    0.000    0.000    0.000    0.000 
#    0.000    0.000    0.000    0.000    0.000    0.000 
#
# Total GULP energy -297529.904422 kJ/mol
# GULP energy per Si atom -12397.079351 kJ/mol
# Density = 2.028069 g / cm^3
# Si number density = 20.326957 Si / 1000 Ang^3
#
#
#
# Elastic Constant Matrix: (Units=GPa)
#
#
# Indices 1 2 3 4 5 6 
#
# 1 439.9358 -772.1054 -277.1495 -0.2408 -233.6520 -0.3262
# 2 -772.1054 2262.2528 861.2243 0.6220 597.6106 0.8443
# 3 -277.1495 861.2243 449.8454 0.2549 231.2345 0.3447
# 4 -0.2408 0.6220 0.2549 31.5246 0.1724 -11.6103
# 5 -233.6520 597.6106 231.2345 0.1724 200.2020 0.2328
# 6 -0.3262 0.8443 0.3447 -11.6103 0.2328 2.2746
#
#
#
# Elastic Compliance Matrix: (Units=1/GPa)
#
#
# Indices 1 2 3 4 5 6 
#
# 1 0.006557 0.001397 -0.001046 -0.000048 0.004691 -0.000145
# 2 0.001397 0.003438 -0.003161 0.000041 -0.004982 0.000124
# 3 -0.001046 -0.003161 0.008387 0.000047 -0.001472 0.000141
# 4 -0.000048 0.000041 0.000047 -0.036038 0.000011 -0.183978
# 5 0.004691 -0.004982 -0.001472 0.000011 0.027041 0.000036
# 6 -0.000145 0.000124 0.000141 -0.183978 0.000036 -0.499529
#
#
# Mechanical properties :
#
#
# Convention : Reuss Voigt Hill
#
# Bulk Modulus (GPa) = 78.35102 308.44142 193.39622
# Shear Modulus (GPa) = -10.41079 269.47121 129.53021
#
# Velocity S-wave (km/s) = -2.26557 11.52633 7.99135
# Velocity P-wave (km/s) = 5.63785 18.14418 13.43496
#
# Compressibility (1/GPa) = 0.01276308
#
# Stress axis : x y z
#
# Youngs Moduli (GPa) = 152.50423 290.85027 119.23643
#
# Poissons Ratio (x) = -0.40632 0.12468
# Poissons Ratio (y) = -0.21305 0.37689
# Poissons Ratio (z) = 0.15947 0.91934
#
# Static dielectric constant tensor:
#      x y z
#    x 3.780500 -0.000010 0.110970 
#    y -0.000010 3.500500 0.000150 
#    z 0.110970 0.000150 3.543750 
# 
# 
# High freq. dielectric constant tensor:
#      x y z
#    x 1.792290 0.000000 0.007600 
#    y 0.000000 1.783090 0.000000 
#    z 0.007600 0.000000 1.821860 
# 
# From -- ./inp_files/157736.got.cif
#   From: 2010.06.25/outbox.cif.g09.slc.cpg/sg15_79_cif.got.tgz:157736.got - 2010.06.28 07:06:18.
