data_PCOD8151749
_publ_section_title
;
Structure prediction by ZEFSAII (Michael W. Deem and Ramdas Pophale) SiO2 
 PCOD8151749
Probable space group: C 2/C
;
_chemical_formula_sum "Si O2"
_cell_formula_units_Z 56
_cell_length_a 14.283269
_cell_length_b 22.296136
_cell_length_c 9.399248
_cell_angle_alpha 90.000000
_cell_angle_beta 121.651342
_cell_angle_gamma 90.000000
_cell_volume 2548.068232
_symmetry_space_group_name_H-M "C 2/C"
_symmetry_group_IT_number 15
_symmetry_cell_setting 'monoclinic'
loop_
_space_group_symop_operation_xyz
x,y,z
-x,y,1/2-z
-x,-y,-z
x,-y,1/2+z
1/2+x,1/2+y,z
1/2-x,1/2+y,1/2-z
1/2-x,1/2-y,-z
1/2+x,1/2-y,1/2+z
loop_
_atom_site_type_symbol
_atom_site_label
_atom_site_fract_x
_atom_site_fract_y
_atom_site_fract_z
Si Si1 0.500000 0.622859 0.250000
Si Si2 0.377617 0.813069 0.169922
Si Si3 0.642318 0.191810 0.147437
Si Si4 0.884033 0.202978 0.380784
Si Si5 0.500000 0.735965 0.750000
Si Si6 0.726440 0.429159 0.018887
Si Si7 0.675257 0.990799 0.153514
Si Si8 0.008097 0.584115 0.101254
O O1 0.466862 0.664966 0.353370
O O2 0.400181 0.581508 0.119179
O O3 0.500000 0.839469 0.250000
O O4 0.370689 0.770582 0.304827
O O5 0.353193 0.774423 0.003540
O O6 0.289932 0.867164 0.102824
O O7 0.764701 0.171971 0.290130
O O8 0.590574 0.228387 0.233665
O O9 0.569010 0.133133 0.052950
O O10 0.929985 0.199465 0.578095
O O11 0.779790 0.466367 0.932976
O O12 0.728852 0.470050 0.162865
O O13 0.581029 0.024158 0.169423
O O14 0.615376 0.930437 0.048742
O O15 0.000000 0.613568 0.250000
#
# Coordination Sequence:
#
# PCOD8151749 Si02
#       8
#     4   8   8   8   4   8   8   8
#     4  12  26  52  72  99 137 198 246 274 330 438
#     4  12  23  42  74 104 134 186 235 289 349 418
#     4  12  23  42  67 101 138 182 226 284 348 422
#     4  12  26  46  67 100 146 180 240 285 337 418
#     4  12  26  42  64 101 143 186 214 288 352 408
#     4  12  27  44  74 102 138 184 235 288 357 411
#     4  11  24  43  65 104 136 171 226 297 348 407
#     4  11  21  39  68  98 139 166 219 291 361 404
#
# _framework density 21.977433999999999
#
# number of rings (size 3 to 8) (size 9 to 14) (size 15 to 20)
#    0.000    0.286    7.143    1.714    4.000    0.571 
#    2.571    0.000    0.000    0.000    0.000    0.000 
#    0.000    0.000    0.000    0.000    0.000    0.000 
#
# Total GULP energy -347052.327248 kJ/mol
# GULP energy per Si atom -12394.725973 kJ/mol
# Density = 2.192741 g / cm^3
# Si number density = 21.977434 Si / 1000 Ang^3
#
#
#
# Elastic Constant Matrix: (Units=GPa)
#
#
# Indices 1 2 3 4 5 6 
#
# 1 95.4419 26.4709 44.4460 0.0000 11.4241 0.0000
# 2 26.4709 70.4855 40.8856 0.0000 3.9202 0.0000
# 3 44.4460 40.8856 173.6676 0.0000 -0.1954 0.0000
# 4 0.0000 0.0000 0.0000 9.9415 0.0000 -16.4757
# 5 11.4241 3.9202 -0.1954 0.0000 48.7104 0.0000
# 6 0.0000 0.0000 0.0000 -16.4757 0.0000 -12.9150
#
#
#
# Elastic Compliance Matrix: (Units=1/GPa)
#
#
# Indices 1 2 3 4 5 6 
#
# 1 0.012885 -0.003208 -0.002545 0.000000 -0.002774 0.000000
# 2 -0.003208 0.017318 -0.003257 0.000000 -0.000654 0.000000
# 3 -0.002545 -0.003257 0.007177 0.000000 0.000888 0.000000
# 4 0.000000 0.000000 0.000000 0.032300 0.000000 -0.041205
# 5 -0.002774 -0.000654 0.000888 0.000000 0.021236 0.000000
# 6 0.000000 0.000000 0.000000 -0.041205 0.000000 -0.024863
#
#
# Mechanical properties :
#
#
# Convention : Reuss Voigt Hill
#
# Bulk Modulus (GPa) = 51.65503 62.57776 57.11640
# Shear Modulus (GPa) = 55.23276 24.33354 39.78315
#
# Velocity S-wave (km/s) = 5.01858 3.33108 4.25924
# Velocity P-wave (km/s) = 7.55885 6.58257 7.08754
#
# Compressibility (1/GPa) = 0.01935920
#
# Stress axis : x y z
#
# Youngs Moduli (GPa) = 77.61122 57.74478 139.32904
#
# Poissons Ratio (x) = 0.18525 0.35465
# Poissons Ratio (y) = 0.24899 0.45375
# Poissons Ratio (z) = 0.19755 0.18806
#
# Static dielectric constant tensor:
#      x y z
#    x 3.988250 0.000000 0.021110 
#    y 0.000000 3.719840 0.000000 
#    z 0.021110 0.000000 4.278910 
# 
# 
# High freq. dielectric constant tensor:
#      x y z
#    x 1.864120 0.000000 -0.002150 
#    y 0.000000 1.838120 0.000000 
#    z -0.002150 0.000000 1.885350 
# 
# From -- ./inp_files/42794.got.cif
#   From: 2010.06.25/outbox.cif.g09.slc.cpg/sg15_22_cif.got.tgz:42794.got - 2010.06.28 07:06:18.
