data_PCOD8151892
_publ_section_title
;
Structure prediction by ZEFSAII (Michael W. Deem and Ramdas Pophale) SiO2 
 PCOD8151892
Probable space group: C 2/C
;
_chemical_formula_sum "Si O2"
_cell_formula_units_Z 56
_cell_length_a 30.711113
_cell_length_b 15.978792
_cell_length_c 10.951931
_cell_angle_alpha 90.000000
_cell_angle_beta 29.954003
_cell_angle_gamma 90.000000
_cell_volume 2683.463922
_symmetry_space_group_name_H-M "C 2/C"
_symmetry_group_IT_number 15
_symmetry_cell_setting 'monoclinic'
loop_
_space_group_symop_operation_xyz
x,y,z
-x,y,1/2-z
-x,-y,-z
x,-y,1/2+z
1/2+x,1/2+y,z
1/2-x,1/2+y,1/2-z
1/2-x,1/2-y,-z
1/2+x,1/2-y,1/2+z
loop_
_atom_site_type_symbol
_atom_site_label
_atom_site_fract_x
_atom_site_fract_y
_atom_site_fract_z
Si Si1 0.805106 0.621510 0.206963
Si Si2 0.755082 0.303577 0.141091
Si Si3 0.597470 0.568954 0.012593
Si Si4 0.913562 0.596559 0.149917
Si Si5 0.396867 0.093411 0.745185
Si Si6 0.340373 0.487385 0.882851
Si Si7 0.773726 0.669134 0.867685
O O1 0.764238 0.708904 0.354262
O O2 0.899290 0.595752 0.038033
O O3 0.739542 0.549172 0.403163
O O4 0.824039 0.625858 0.017203
O O5 0.666871 0.356590 0.341271
O O6 0.791700 0.302169 0.188058
O O7 0.834580 0.342191 0.874310
O O8 0.604707 0.514743 0.869944
O O9 0.500000 0.607085 0.250000
O O10 0.608005 0.514779 0.112706
O O11 0.900270 0.506685 0.244535
O O12 0.007888 0.632304 0.957953
O O13 0.363786 0.126723 0.695660
O O14 0.305923 0.395649 0.932662
O O15 0.750000 0.750000 0.000000
#
# Coordination Sequence:
#
# PCOD8151892 Si02
#       7
#     8   8   8   8   8   8   8
#     4  12  22  42  65  91 130 169 212 255 324 386
#     4  11  24  41  65  92 129 170 207 267 325 382
#     4  11  24  43  66  95 128 169 221 270 320 386
#     4  11  24  40  65  96 128 164 214 265 322 381
#     4  11  23  41  65  96 127 167 213 265 319 392
#     4  11  23  42  70  93 128 174 218 266 327 385
#     4  11  21  42  67  91 128 169 212 260 324 385
#
# _framework density 20.868549000000002
#
# number of rings (size 3 to 8) (size 9 to 14) (size 15 to 20)
#    0.000    0.857    4.286    3.857    0.000    1.714 
#    0.000    1.429    0.000    0.000    0.000    0.000 
#    0.000    0.000    0.000    0.000    0.000    0.000 
#
# Total GULP energy -347106.503299 kJ/mol
# GULP energy per Si atom -12396.660832 kJ/mol
# Density = 2.082105 g / cm^3
# Si number density = 20.868549 Si / 1000 Ang^3
#
#
#
# Elastic Constant Matrix: (Units=GPa)
#
#
# Indices 1 2 3 4 5 6 
#
# 1 117.2160 16.8936 43.3104 0.0000 -3.2767 0.0000
# 2 16.8936 93.9904 33.9267 0.0000 1.7799 0.0000
# 3 43.3104 33.9267 94.3782 0.0000 -10.8347 0.0000
# 4 0.0000 0.0000 0.0000 14.1457 0.0000 -1.0213
# 5 -3.2767 1.7799 -10.8347 0.0000 23.3657 0.0000
# 6 0.0000 0.0000 0.0000 -1.0213 0.0000 33.5156
#
#
#
# Elastic Compliance Matrix: (Units=1/GPa)
#
#
# Indices 1 2 3 4 5 6 
#
# 1 0.010288 -0.000114 -0.004767 0.000000 -0.000759 0.000000
# 2 -0.000114 0.012449 -0.004788 0.000000 -0.003185 0.000000
# 3 -0.004767 -0.004788 0.015283 0.000000 0.006783 0.000000
# 4 0.000000 0.000000 0.000000 0.070849 0.000000 0.002159
# 5 -0.000759 -0.003185 0.006783 0.000000 0.046079 0.000000
# 6 0.000000 0.000000 0.000000 0.002159 0.000000 0.029903
#
#
# Mechanical properties :
#
#
# Convention : Reuss Voigt Hill
#
# Bulk Modulus (GPa) = 53.53096 54.87176 54.20136
# Shear Modulus (GPa) = 23.76236 28.30232 26.03234
#
# Velocity S-wave (km/s) = 3.37808 3.68668 3.53575
# Velocity P-wave (km/s) = 6.39706 6.66883 6.53436
#
# Compressibility (1/GPa) = 0.01868078
#
# Stress axis : x y z
#
# Youngs Moduli (GPa) = 97.20092 80.33079 65.43043
#
# Poissons Ratio (x) = 0.00915 0.31193
# Poissons Ratio (y) = 0.01107 0.31330
# Poissons Ratio (z) = 0.46339 0.38464
#
# Static dielectric constant tensor:
#      x y z
#    x 6.598060 0.000000 0.540140 
#    y 0.000000 3.676840 0.000000 
#    z 0.540140 0.000000 3.741040 
# 
# 
# High freq. dielectric constant tensor:
#      x y z
#    x 1.851510 0.000000 0.004780 
#    y 0.000000 1.810560 0.000000 
#    z 0.004780 0.000000 1.801560 
# 
# From -- ./inp_files/98256.got.cif
#   From: 2010.06.25/outbox.cif.g09.slc.cpg/sg15_50_cif.got.tgz:98256.got - 2010.06.28 07:06:18.
