data_PCOD8151775
_publ_section_title
;
Structure prediction by ZEFSAII (Michael W. Deem and Ramdas Pophale) SiO2 
 PCOD8151775
Probable space group: C 2/C
;
_chemical_formula_sum "Si O2"
_cell_formula_units_Z 48
_cell_length_a 9.820986
_cell_length_b 20.264338
_cell_length_c 19.738291
_cell_angle_alpha 90.000000
_cell_angle_beta 144.179833
_cell_angle_gamma 90.000000
_cell_volume 2298.970376
_symmetry_space_group_name_H-M "C 2/C"
_symmetry_group_IT_number 15
_symmetry_cell_setting 'monoclinic'
loop_
_space_group_symop_operation_xyz
x,y,z
-x,y,1/2-z
-x,-y,-z
x,-y,1/2+z
1/2+x,1/2+y,z
1/2-x,1/2+y,1/2-z
1/2-x,1/2-y,-z
1/2+x,1/2-y,1/2+z
loop_
_atom_site_type_symbol
_atom_site_label
_atom_site_fract_x
_atom_site_fract_y
_atom_site_fract_z
Si Si1 0.834370 0.912896 0.985025
Si Si2 0.395945 0.153164 0.537165
Si Si3 0.179129 0.144036 0.882731
Si Si4 0.681583 0.052446 0.881713
Si Si5 0.959869 0.226920 0.311278
Si Si6 0.457871 0.783764 0.655639
O O1 0.709266 0.845982 0.913051
O O2 0.686933 0.975024 0.900022
O O3 0.861645 0.913264 0.077762
O O4 0.079836 0.915409 0.046911
O O5 0.557882 0.140763 0.537772
O O6 0.389980 0.086620 0.577472
O O7 0.139125 0.170375 0.406519
O O8 0.507873 0.209896 0.628412
O O9 0.000000 0.131245 0.750000
O O10 0.153483 0.213815 0.913982
O O11 0.500000 0.066747 0.750000
O O12 0.000000 0.247944 0.250000
O O13 0.697408 0.200033 0.213157
O O14 0.500000 0.766027 0.750000
#
# Coordination Sequence:
#
# PCOD8151775 Si02
#       6
#     8   8   8   8   8   8
#     4  11  25  42  66  94 126 172 218 258 318 378
#     4  11  23  40  62  95 129 168 216 258 324 378
#     4  11  22  40  61  95 126 166 210 264 326 377
#     4  11  25  44  66  93 129 172 214 263 314 384
#     4  11  23  38  63  97 130 167 212 269 321 376
#     4  11  21  40  64  95 130 163 210 269 319 379
#
# _framework density 20.878913000000001
#
# number of rings (size 3 to 8) (size 9 to 14) (size 15 to 20)
#    0.000    1.000    3.333    4.500    4.667    2.000 
#    0.000    0.833    0.000    0.000    0.000    0.000 
#    0.000    0.000    0.000    0.000    0.000    0.000 
#
# Total GULP energy -297672.218711 kJ/mol
# GULP energy per Si atom -12403.009113 kJ/mol
# Density = 2.083139 g / cm^3
# Si number density = 20.878913 Si / 1000 Ang^3
#
#
#
# Elastic Constant Matrix: (Units=GPa)
#
#
# Indices 1 2 3 4 5 6 
#
# 1 118.2860 35.4719 36.2115 0.0001 8.8862 0.0001
# 2 35.4719 74.5907 41.1028 0.0003 13.7785 0.0002
# 3 36.2115 41.1028 54.4709 0.0009 16.6137 0.0002
# 4 0.0001 0.0003 0.0009 26.3251 0.0004 -4.3935
# 5 8.8862 13.7785 16.6137 0.0004 33.9476 0.0003
# 6 0.0001 0.0002 0.0002 -4.3935 0.0003 35.7620
#
#
#
# Elastic Compliance Matrix: (Units=1/GPa)
#
#
# Indices 1 2 3 4 5 6 
#
# 1 0.010812 -0.002047 -0.005916 0.000000 0.000896 0.000000
# 2 -0.002047 0.023365 -0.015917 0.000000 -0.001158 0.000000
# 3 -0.005916 -0.015917 0.037449 -0.000001 -0.010318 0.000000
# 4 0.000000 0.000000 -0.000001 0.038782 0.000000 0.004764
# 5 0.000896 -0.001158 -0.010318 0.000000 0.034742 0.000000
# 6 0.000000 0.000000 0.000000 0.004764 0.000000 0.028548
#
#
# Mechanical properties :
#
#
# Convention : Reuss Voigt Hill
#
# Bulk Modulus (GPa) = 41.90096 52.54667 47.22381
# Shear Modulus (GPa) = 21.79485 28.17769 24.98627
#
# Velocity S-wave (km/s) = 3.23440 3.67764 3.46312
# Velocity P-wave (km/s) = 5.83615 6.57688 6.21756
#
# Compressibility (1/GPa) = 0.02386580
#
# Stress axis : x y z
#
# Youngs Moduli (GPa) = 92.49162 42.79987 26.70307
#
# Poissons Ratio (x) = 0.08761 0.15798
# Poissons Ratio (y) = 0.18933 0.42502
# Poissons Ratio (z) = 0.54720 0.68122
#
# Static dielectric constant tensor:
#      x y z
#    x 4.048350 0.000000 0.020000 
#    y 0.000000 3.592980 0.000000 
#    z 0.020000 0.000000 3.687340 
# 
# 
# High freq. dielectric constant tensor:
#      x y z
#    x 1.834750 0.000000 -0.002260 
#    y 0.000000 1.801910 0.000000 
#    z -0.002260 0.000000 1.829450 
# 
# From -- ./inp_files/233964.got.cif
#   From: 2010.06.25/outbox.cif.g09.slc.cpg/sg15_117_cif.got.tgz:233964.got - 2010.06.28 07:06:18.
