data_PCOD8151583
_publ_section_title
;
Structure prediction by ZEFSAII (Michael W. Deem and Ramdas Pophale) SiO2 
 PCOD8151583
Probable space group: C 2/C
;
_chemical_formula_sum "Si O2"
_cell_formula_units_Z 56
_cell_length_a 11.708233
_cell_length_b 17.797507
_cell_length_c 14.306017
_cell_angle_alpha 90.000000
_cell_angle_beta 102.956180
_cell_angle_gamma 90.000000
_cell_volume 2905.157938
_symmetry_space_group_name_H-M "C 2/C"
_symmetry_group_IT_number 15
_symmetry_cell_setting 'monoclinic'
loop_
_space_group_symop_operation_xyz
x,y,z
-x,y,1/2-z
-x,-y,-z
x,-y,1/2+z
1/2+x,1/2+y,z
1/2-x,1/2+y,1/2-z
1/2-x,1/2-y,-z
1/2+x,1/2-y,1/2+z
loop_
_atom_site_type_symbol
_atom_site_label
_atom_site_fract_x
_atom_site_fract_y
_atom_site_fract_z
Si Si1 0.204490 0.666984 0.497283
Si Si2 0.107507 0.086175 0.471290
Si Si3 0.739280 0.436933 0.821260
Si Si4 0.564519 0.672054 0.637039
Si Si5 0.965666 0.345011 0.847307
Si Si6 0.654162 0.448199 0.595335
Si Si7 0.177048 0.107070 0.824421
O O1 0.250000 0.750000 0.500000
O O2 0.299660 0.617581 0.461083
O O3 0.210765 0.647896 0.608826
O O4 0.074758 0.651770 0.437274
O O5 0.168106 0.112095 0.385184
O O6 0.086779 0.160034 0.531205
O O7 0.984845 0.050501 0.417874
O O8 0.183832 0.027384 0.549162
O O9 0.871607 0.407605 0.861304
O O10 0.708198 0.431283 0.706956
O O11 0.705972 0.520444 0.847378
O O12 0.580950 0.759701 0.663065
O O13 0.665321 0.627375 0.713406
O O14 0.440205 0.636482 0.644190
O O15 0.000000 0.368814 0.750000
#
# Coordination Sequence:
#
# PCOD8151583 Si02
#       7
#     8   8   8   8   8   8   8
#     4  12  21  40  66  91 121 166 226 265 309 381
#     4  11  21  38  61  93 128 162 209 265 331 377
#     4  12  25  37  60 100 133 163 205 278 333 382
#     4  11  21  40  68  93 121 168 220 267 317 387
#     4  12  24  41  63  94 130 171 220 263 320 391
#     4  11  21  36  62  93 127 161 209 269 318 382
#     4  11  21  37  65  95 121 165 214 267 320 382
#
# _framework density 19.276060000000001
#
# number of rings (size 3 to 8) (size 9 to 14) (size 15 to 20)
#    0.000    0.571    8.571    1.286    2.000    1.143 
#    0.000    0.000    0.000    0.000    0.000    0.000 
#    0.000    0.000    0.000    0.000    0.000    0.000 
#
# Total GULP energy -346884.619632 kJ/mol
# GULP energy per Si atom -12388.736415 kJ/mol
# Density = 1.923219 g / cm^3
# Si number density = 19.276060 Si / 1000 Ang^3
#
#
#
# Elastic Constant Matrix: (Units=GPa)
#
#
# Indices 1 2 3 4 5 6 
#
# 1 77.5352 30.5215 33.1323 0.0000 14.7662 0.0000
# 2 30.5215 73.9567 8.9693 0.0000 7.2021 0.0000
# 3 33.1323 8.9693 107.9791 0.0000 26.2895 0.0000
# 4 0.0000 0.0000 0.0000 20.0777 0.0000 11.7979
# 5 14.7662 7.2021 26.2895 0.0000 34.7902 0.0000
# 6 0.0000 0.0000 0.0000 11.7979 0.0000 27.5842
#
#
#
# Elastic Compliance Matrix: (Units=1/GPa)
#
#
# Indices 1 2 3 4 5 6 
#
# 1 0.017852 -0.006562 -0.004189 0.000000 -0.003053 0.000000
# 2 -0.006562 0.016239 0.000986 0.000000 -0.001322 0.000000
# 3 -0.004189 0.000986 0.012354 0.000000 -0.007762 0.000000
# 4 0.000000 0.000000 0.000000 0.066526 0.000000 -0.028454
# 5 -0.003053 -0.001322 -0.007762 0.000000 0.036178 0.000000
# 6 0.000000 0.000000 0.000000 -0.028454 0.000000 0.048422
#
#
# Mechanical properties :
#
#
# Convention : Reuss Voigt Hill
#
# Bulk Modulus (GPa) = 37.15382 44.96857 41.06119
# Shear Modulus (GPa) = 22.11669 28.94696 25.53182
#
# Velocity S-wave (km/s) = 3.39095 3.87939 3.64336
# Velocity P-wave (km/s) = 5.88624 6.59132 6.24874
#
# Compressibility (1/GPa) = 0.02691513
#
# Stress axis : x y z
#
# Youngs Moduli (GPa) = 56.01579 61.58146 80.94347
#
# Poissons Ratio (x) = 0.40410 0.33910
# Poissons Ratio (y) = 0.36758 -0.07985
# Poissons Ratio (z) = 0.23467 -0.06075
#
# Static dielectric constant tensor:
#      x y z
#    x 5.293970 0.000000 0.708600 
#    y 0.000000 3.540920 0.000000 
#    z 0.708600 0.000000 4.221980 
# 
# 
# High freq. dielectric constant tensor:
#      x y z
#    x 1.714760 0.000000 0.005020 
#    y 0.000000 1.744170 0.000000 
#    z 0.005020 0.000000 1.776990 
# 
# From -- ./inp_files/145744.got.cif
#   From: 2010.06.25/outbox.cif.g09.slc.cpg/sg15_73_cif.got.tgz:145744.got - 2010.06.28 07:06:18.
