data_PCOD8151940
_publ_section_title
;
Structure prediction by ZEFSAII (Michael W. Deem and Ramdas Pophale) SiO2 
 PCOD8151940
Probable space group: C 2/C
;
_chemical_formula_sum "Si O2"
_cell_formula_units_Z 36
_cell_length_a 16.523605
_cell_length_b 12.531133
_cell_length_c 14.240649
_cell_angle_alpha 90.000000
_cell_angle_beta 27.770423
_cell_angle_gamma 90.000000
_cell_volume 1373.869707
_symmetry_space_group_name_H-M "C 2/C"
_symmetry_group_IT_number 15
_symmetry_cell_setting 'monoclinic'
loop_
_space_group_symop_operation_xyz
x,y,z
-x,y,1/2-z
-x,-y,-z
x,-y,1/2+z
1/2+x,1/2+y,z
1/2-x,1/2+y,1/2-z
1/2-x,1/2-y,-z
1/2+x,1/2-y,1/2+z
loop_
_atom_site_type_symbol
_atom_site_label
_atom_site_fract_x
_atom_site_fract_y
_atom_site_fract_z
Si Si1 0.650171 0.220496 0.319910
Si Si2 0.500000 0.415750 0.750000
Si Si3 0.345090 0.135023 0.980764
Si Si4 0.862702 0.035778 0.064920
Si Si5 0.159959 0.420557 0.407960
O O1 0.667363 0.342865 0.266935
O O2 0.500886 0.158219 0.418252
O O3 0.627445 0.211825 0.456965
O O4 0.832741 0.162966 0.103310
O O5 0.654570 0.339625 0.630751
O O6 0.587754 0.495904 0.587088
O O7 0.500000 0.156663 0.750000
O O8 0.335844 0.008159 0.014293
O O9 0.675421 0.982301 0.291073
O O10 0.000000 0.000000 0.000000
#
# Coordination Sequence:
#
# PCOD8151940 Si02
#       5
#     8   4   8   8   8
#     4  11  23  42  69  96 139 180 227 282 348 412
#     4  12  22  40  78  92 136 174 238 272 354 404
#     4  11  24  46  69 103 137 182 232 293 342 413
#     4  11  21  43  66  96 135 181 224 277 350 408
#     4  11  23  42  69  96 139 180 227 282 348 412
#
# _framework density 26.203357
#
# number of rings (size 3 to 8) (size 9 to 14) (size 15 to 20)
#    0.000    0.889    4.444    6.667    0.000    0.000 
#    4.000    4.444    0.000    0.000    0.000    0.000 
#    0.000    0.000    0.000    0.000    0.000    0.000 
#
# Total GULP energy -223130.045743 kJ/mol
# GULP energy per Si atom -12396.113652 kJ/mol
# Density = 2.614372 g / cm^3
# Si number density = 26.203357 Si / 1000 Ang^3
#
#
#
# Elastic Constant Matrix: (Units=GPa)
#
#
# Indices 1 2 3 4 5 6 
#
# 1 70.1262 -3.8035 16.8934 0.0002 -3.4580 0.0000
# 2 -3.8035 106.0547 10.1899 0.0001 -1.9981 -0.0001
# 3 16.8934 10.1899 114.2390 -0.0003 15.9709 0.0001
# 4 0.0002 0.0001 -0.0003 37.4259 -0.0004 -9.7298
# 5 -3.4580 -1.9981 15.9709 -0.0004 39.5795 0.0003
# 6 0.0000 -0.0001 0.0001 -9.7298 0.0003 8.3385
#
#
#
# Elastic Compliance Matrix: (Units=1/GPa)
#
#
# Indices 1 2 3 4 5 6 
#
# 1 0.015061 0.000840 -0.002641 0.000000 0.002424 0.000000
# 2 0.000840 0.009586 -0.001120 0.000000 0.001009 0.000000
# 3 -0.002641 -0.001120 0.009839 0.000000 -0.004258 0.000000
# 4 0.000000 0.000000 0.000000 0.038354 0.000000 0.044754
# 5 0.002424 0.001009 -0.004258 0.000000 0.027246 -0.000001
# 6 0.000000 0.000000 0.000000 0.044754 -0.000001 0.172147
#
#
# Mechanical properties :
#
#
# Convention : Reuss Voigt Hill
#
# Bulk Modulus (GPa) = 34.91256 37.44216 36.17736
# Shear Modulus (GPa) = 17.38372 34.87811 26.13092
#
# Velocity S-wave (km/s) = 2.57848 3.65232 3.16133
# Velocity P-wave (km/s) = 4.71353 5.66622 5.21169
#
# Compressibility (1/GPa) = 0.02864298
#
# Stress axis : x y z
#
# Youngs Moduli (GPa) = 66.39539 104.32033 101.63348
#
# Poissons Ratio (x) = -0.08758 0.26841
# Poissons Ratio (y) = -0.05574 0.11386
# Poissons Ratio (z) = 0.17535 0.11687
#
# Static dielectric constant tensor:
#      x y z
#    x 4.376160 0.000000 -0.751690 
#    y 0.000000 5.197970 0.000010 
#    z -0.751690 0.000010 3.159590 
# 
# 
# High freq. dielectric constant tensor:
#      x y z
#    x 2.014230 0.000000 -0.033310 
#    y 0.000000 2.077340 0.000000 
#    z -0.033310 0.000000 2.078750 
# 
# From -- ./inp_files/45997.got.cif
#   From: 2010.06.25/outbox.cif.g09.slc.cpg/sg15_23_cif.got.tgz:45997.got - 2010.06.28 07:06:18.
