data_PCOD8151351
_publ_section_title
;
Structure prediction by ZEFSAII (Michael W. Deem and Ramdas Pophale) SiO2 
 PCOD8151351
Probable space group: C 2/C
;
_chemical_formula_sum "Si O2"
_cell_formula_units_Z 40
_cell_length_a 18.116881
_cell_length_b 16.470364
_cell_length_c 12.465352
_cell_angle_alpha 90.000000
_cell_angle_beta 149.280459
_cell_angle_gamma 90.000000
_cell_volume 1900.083972
_symmetry_space_group_name_H-M "C 2/C"
_symmetry_group_IT_number 15
_symmetry_cell_setting 'monoclinic'
loop_
_space_group_symop_operation_xyz
x,y,z
-x,y,1/2-z
-x,-y,-z
x,-y,1/2+z
1/2+x,1/2+y,z
1/2-x,1/2+y,1/2-z
1/2-x,1/2-y,-z
1/2+x,1/2-y,1/2+z
loop_
_atom_site_type_symbol
_atom_site_label
_atom_site_fract_x
_atom_site_fract_y
_atom_site_fract_z
Si Si1 0.233724 0.344168 0.656499
Si Si2 0.381083 0.443553 0.409317
Si Si3 0.168020 0.512313 0.477979
Si Si4 0.994940 0.219015 0.368041
Si Si5 0.349599 0.423854 0.018296
O O1 0.215294 0.417679 0.547873
O O2 0.078361 0.304061 0.488039
O O3 0.334348 0.277567 0.720296
O O4 0.297086 0.372175 0.850225
O O5 0.500000 0.500000 0.500000
O O6 0.426914 0.350915 0.466641
O O7 0.370303 0.481407 0.513724
O O8 0.223371 0.446717 0.156924
O O9 0.234556 0.569079 0.468815
O O10 0.000000 0.518815 0.250000
O O11 0.000000 0.195705 0.250000
O O12 0.500000 0.386057 0.250000
#
# Coordination Sequence:
#
# PCOD8151351 Si02
#       5
#     8   8   8   8   8
#     4  11  25  41  62  99 131 169 219 264 331 391
#     4  11  20  39  68  92 123 168 235 250 312 399
#     4  11  23  40  64  98 130 166 219 273 322 375
#     4  12  23  41  66  95 133 171 211 270 329 384
#     4  11  20  41  69  89 127 178 220 268 313 387
#
# _framework density 21.051701000000001
#
# number of rings (size 3 to 8) (size 9 to 14) (size 15 to 20)
#    0.000    0.800    6.000    3.000    0.000    6.400 
#    0.000    5.000    0.000    0.000    0.000    0.000 
#    0.000    0.000    0.000    0.000    0.000    0.000 
#
# Total GULP energy -247798.729647 kJ/mol
# GULP energy per Si atom -12389.936482 kJ/mol
# Density = 2.100379 g / cm^3
# Si number density = 21.051701 Si / 1000 Ang^3
#
#
#
# Elastic Constant Matrix: (Units=GPa)
#
#
# Indices 1 2 3 4 5 6 
#
# 1 101.1003 26.4919 52.5225 0.0000 3.3970 0.0000
# 2 26.4919 63.5364 24.5597 0.0000 -1.5717 0.0000
# 3 52.5225 24.5597 151.2401 0.0000 4.9495 0.0000
# 4 0.0000 0.0000 0.0000 42.1678 0.0000 21.9910
# 5 3.3970 -1.5717 4.9495 0.0000 34.5086 0.0000
# 6 0.0000 0.0000 0.0000 21.9910 0.0000 56.1695
#
#
#
# Elastic Compliance Matrix: (Units=1/GPa)
#
#
# Indices 1 2 3 4 5 6 
#
# 1 0.012941 -0.003940 -0.003825 0.000000 -0.000905 0.000000
# 2 -0.003940 0.018039 -0.001608 0.000000 0.001440 0.000000
# 3 -0.003825 -0.001608 0.008230 0.000000 -0.000877 0.000000
# 4 0.000000 0.000000 0.000000 0.029799 0.000000 -0.011667
# 5 -0.000905 0.001440 -0.000877 0.000000 0.029259 0.000000
# 6 0.000000 0.000000 0.000000 -0.011667 0.000000 0.022371
#
#
# Mechanical properties :
#
#
# Convention : Reuss Voigt Hill
#
# Bulk Modulus (GPa) = 48.86499 58.11388 53.48944
# Shear Modulus (GPa) = 34.19840 40.72270 37.46055
#
# Velocity S-wave (km/s) = 4.03488 4.40297 4.22293
# Velocity P-wave (km/s) = 6.70591 7.31529 7.01722
#
# Compressibility (1/GPa) = 0.02046455
#
# Stress axis : x y z
#
# Youngs Moduli (GPa) = 77.27436 55.43544 121.50488
#
# Poissons Ratio (x) = 0.21840 0.46472
# Poissons Ratio (y) = 0.30444 0.19541
# Poissons Ratio (z) = 0.29555 0.08916
#
# Static dielectric constant tensor:
#      x y z
#    x 3.894570 0.000000 -0.025300 
#    y 0.000000 3.788040 0.000000 
#    z -0.025300 0.000000 4.024780 
# 
# 
# High freq. dielectric constant tensor:
#      x y z
#    x 1.824250 0.000000 -0.005460 
#    y 0.000000 1.798730 0.000000 
#    z -0.005460 0.000000 1.842300 
# 
# From -- ./inp_files/106823.got.cif
#   From: 2010.06.25/outbox.cif.g09.slc.cpg/sg15_54_cif.got.tgz:106823.got - 2010.06.28 07:06:18.
