data_PCOD8151944
_publ_section_title
;
Structure prediction by ZEFSAII (Michael W. Deem and Ramdas Pophale) SiO2 
 PCOD8151944
Probable space group: C 2/C
;
_chemical_formula_sum "Si O2"
_cell_formula_units_Z 56
_cell_length_a 14.891640
_cell_length_b 12.241981
_cell_length_c 17.291556
_cell_angle_alpha 90.000000
_cell_angle_beta 56.703066
_cell_angle_gamma 90.000000
_cell_volume 2634.812785
_symmetry_space_group_name_H-M "C 2/C"
_symmetry_group_IT_number 15
_symmetry_cell_setting 'monoclinic'
loop_
_space_group_symop_operation_xyz
x,y,z
-x,y,1/2-z
-x,-y,-z
x,-y,1/2+z
1/2+x,1/2+y,z
1/2-x,1/2+y,1/2-z
1/2-x,1/2-y,-z
1/2+x,1/2-y,1/2+z
loop_
_atom_site_type_symbol
_atom_site_label
_atom_site_fract_x
_atom_site_fract_y
_atom_site_fract_z
Si Si1 0.342557 0.585611 0.919620
Si Si2 0.500000 0.442041 0.750000
Si Si3 0.328814 0.910744 0.703066
Si Si4 0.322454 0.956123 0.878001
Si Si5 0.628361 0.719704 0.278431
Si Si6 0.955050 0.701927 0.401662
Si Si7 0.500000 0.107742 0.750000
Si Si8 0.350140 0.128990 0.594303
O O1 0.402719 0.508719 0.830999
O O2 0.429622 0.668239 0.917140
O O3 0.257381 0.645291 0.904667
O O4 0.279726 0.517844 0.017501
O O5 0.462811 0.370399 0.693689
O O6 0.285420 0.957803 0.805837
O O7 0.240805 0.836606 0.700632
O O8 0.424641 0.827852 0.680197
O O9 0.358554 0.014937 0.636275
O O10 0.366908 0.838174 0.881447
O O11 0.427608 0.034808 0.842917
O O12 0.595188 0.824847 0.244667
O O13 0.639323 0.761300 0.360165
O O14 0.946932 0.639404 0.487738
#
# Coordination Sequence:
#
# PCOD8151944 Si02
#       8
#     8   4   8   8   8   8   4   8
#     4  11  25  44  69  98 134 174 221 269 335 386
#     4  11  26  47  64  90 138 179 208 283 336 386
#     4  12  22  39  70  97 132 172 222 274 324 383
#     4  11  21  43  68 100 127 176 220 266 321 401
#     4  11  24  43  62  97 130 169 221 269 328 387
#     4  11  23  39  69 100 135 172 219 275 327 385
#     4  11  22  43  68  88 134 177 210 265 332 388
#     4  11  22  43  66  98 129 173 223 272 317 394
#
# _framework density 21.253881
#
# number of rings (size 3 to 8) (size 9 to 14) (size 15 to 20)
#    0.000    0.857    4.286    3.857    4.000    1.143 
#    2.571    2.857    0.000    0.000    0.000    0.000 
#    0.000    0.000    0.000    0.000    0.000    0.000 
#
# Total GULP energy -346877.741106 kJ/mol
# GULP energy per Si atom -12388.490754 kJ/mol
# Density = 2.120551 g / cm^3
# Si number density = 21.253881 Si / 1000 Ang^3
#
#
#
# Elastic Constant Matrix: (Units=GPa)
#
#
# Indices 1 2 3 4 5 6 
#
# 1 83.6231 35.2375 37.1175 0.0000 5.6669 0.0000
# 2 35.2375 94.2581 45.8776 0.0000 2.9473 0.0000
# 3 37.1175 45.8776 128.9605 0.0000 5.4180 0.0000
# 4 0.0000 0.0000 0.0000 18.3526 0.0000 1.8798
# 5 5.6669 2.9473 5.4180 0.0000 31.7478 0.0000
# 6 0.0000 0.0000 0.0000 1.8798 0.0000 47.0089
#
#
#
# Elastic Compliance Matrix: (Units=1/GPa)
#
#
# Indices 1 2 3 4 5 6 
#
# 1 0.015095 -0.004243 -0.002758 0.000000 -0.001830 0.000000
# 2 -0.004243 0.014029 -0.003774 0.000000 0.000099 0.000000
# 3 -0.002758 -0.003774 0.009926 0.000000 -0.000851 0.000000
# 4 0.000000 0.000000 0.000000 0.054712 0.000000 -0.002188
# 5 -0.001830 0.000099 -0.000851 0.000000 0.031961 0.000000
# 6 0.000000 0.000000 0.000000 -0.002188 0.000000 0.021360
#
#
# Mechanical properties :
#
#
# Convention : Reuss Voigt Hill
#
# Bulk Modulus (GPa) = 57.14308 60.36743 58.75526
# Shear Modulus (GPa) = 28.65865 31.99579 30.32722
#
# Velocity S-wave (km/s) = 3.67603 3.88417 3.78153
# Velocity P-wave (km/s) = 6.70537 6.96996 6.83894
#
# Compressibility (1/GPa) = 0.01749993
#
# Stress axis : x y z
#
# Youngs Moduli (GPa) = 66.24823 71.28013 100.74128
#
# Poissons Ratio (x) = 0.30247 0.27786
# Poissons Ratio (y) = 0.28112 0.38017
# Poissons Ratio (z) = 0.18272 0.26899
#
# Static dielectric constant tensor:
#      x y z
#    x 3.895100 0.000000 0.047050 
#    y 0.000000 3.875690 0.000000 
#    z 0.047050 0.000000 3.883920 
# 
# 
# High freq. dielectric constant tensor:
#      x y z
#    x 1.836340 0.000000 0.003630 
#    y 0.000000 1.831050 0.000000 
#    z 0.003630 0.000000 1.824280 
# 
# From -- ./inp_files/203987.got.cif
#   From: 2010.06.25/outbox.cif.g09.slc.cpg/sg15_102_cif.got.tgz:203987.got - 2010.06.28 07:06:18.
