data_PCOD8151409
_publ_section_title
;
Structure prediction by ZEFSAII (Michael W. Deem and Ramdas Pophale) SiO2 
 PCOD8151409
Probable space group: C 2/C
;
_chemical_formula_sum "Si O2"
_cell_formula_units_Z 44
_cell_length_a 11.107458
_cell_length_b 19.399444
_cell_length_c 9.799087
_cell_angle_alpha 90.000000
_cell_angle_beta 84.737554
_cell_angle_gamma 90.000000
_cell_volume 2102.592778
_symmetry_space_group_name_H-M "C 2/C"
_symmetry_group_IT_number 15
_symmetry_cell_setting 'monoclinic'
loop_
_space_group_symop_operation_xyz
x,y,z
-x,y,1/2-z
-x,-y,-z
x,-y,1/2+z
1/2+x,1/2+y,z
1/2-x,1/2+y,1/2-z
1/2-x,1/2-y,-z
1/2+x,1/2-y,1/2+z
loop_
_atom_site_type_symbol
_atom_site_label
_atom_site_fract_x
_atom_site_fract_y
_atom_site_fract_z
Si Si1 0.000000 0.085104 0.250000
Si Si2 0.585477 0.807647 0.506913
Si Si3 0.183654 0.492085 0.198810
Si Si4 0.500000 0.888967 0.750000
Si Si5 0.343699 0.482392 0.432145
Si Si6 0.141025 0.842893 0.957595
Si Si7 0.000000 0.619990 0.750000
O O1 0.897867 0.133308 0.191636
O O2 0.944404 0.036387 0.373763
O O3 0.484713 0.840184 0.618284
O O4 0.716372 0.827857 0.552817
O O5 0.568038 0.725224 0.508605
O O6 0.566414 0.833407 0.354783
O O7 0.227843 0.479618 0.347213
O O8 0.096586 0.429420 0.163907
O O9 0.116240 0.564814 0.206692
O O10 0.298109 0.495586 0.087074
O O11 0.395348 0.404442 0.434685
#
# Coordination Sequence:
#
# PCOD8151409 Si02
#       7
#     4   8   8   4   8   8   4
#     4  12  25  43  67  89 130 168 218 260 316 359
#     4  11  23  41  66  90 134 166 210 253 320 376
#     4  11  22  37  67  96 127 153 218 264 316 363
#     4  11  20  41  63  96 127 168 200 264 319 372
#     4  12  22  42  63  94 125 165 208 271 305 369
#     4  11  24  42  61  93 127 171 208 257 304 384
#     4  11  21  40  66  97 121 168 204 264 319 375
#
# _framework density 20.926544
#
# number of rings (size 3 to 8) (size 9 to 14) (size 15 to 20)
#    0.000    0.727    5.455    2.182    0.000    3.636 
#    0.000    0.000    0.000    6.545    0.000    0.000 
#    0.000    0.000    0.000    0.000    0.000    0.000 
#
# Total GULP energy -272813.245761 kJ/mol
# GULP energy per Si atom -12400.602080 kJ/mol
# Density = 2.087891 g / cm^3
# Si number density = 20.926544 Si / 1000 Ang^3
#
#
#
# Elastic Constant Matrix: (Units=GPa)
#
#
# Indices 1 2 3 4 5 6 
#
# 1 68.5281 46.3314 24.7352 0.0000 1.5274 0.0000
# 2 46.3314 170.7597 65.0180 0.0000 4.5865 0.0000
# 3 24.7352 65.0180 106.0495 0.0000 -3.8365 0.0000
# 4 0.0000 0.0000 0.0000 29.3612 0.0000 6.5610
# 5 1.5274 4.5865 -3.8365 0.0000 36.2166 0.0000
# 6 0.0000 0.0000 0.0000 6.5610 0.0000 17.5490
#
#
#
# Elastic Compliance Matrix: (Units=1/GPa)
#
#
# Indices 1 2 3 4 5 6 
#
# 1 0.018076 -0.004283 -0.001604 0.000000 -0.000390 0.000000
# 2 -0.004283 0.008733 -0.004406 0.000000 -0.001392 0.000000
# 3 -0.001604 -0.004406 0.012576 0.000000 0.001958 0.000000
# 4 0.000000 0.000000 0.000000 0.037163 0.000000 -0.013894
# 5 -0.000390 -0.001392 0.001958 0.000000 0.028012 0.000000
# 6 0.000000 0.000000 0.000000 -0.013894 0.000000 0.062178
#
#
# Mechanical properties :
#
#
# Convention : Reuss Voigt Hill
#
# Bulk Modulus (GPa) = 53.19465 68.61183 60.90324
# Shear Modulus (GPa) = 25.82773 30.57553 28.20163
#
# Velocity S-wave (km/s) = 3.51694 3.82657 3.67502
# Velocity P-wave (km/s) = 6.47817 7.23752 6.86835
#
# Compressibility (1/GPa) = 0.01879888
#
# Stress axis : x y z
#
# Youngs Moduli (GPa) = 55.32152 114.50601 79.51936
#
# Poissons Ratio (x) = 0.49045 0.12757
# Poissons Ratio (y) = 0.23695 0.35033
# Poissons Ratio (z) = 0.08875 0.50446
#
# Static dielectric constant tensor:
#      x y z
#    x 3.671360 0.000000 0.254170 
#    y 0.000000 4.044650 0.000000 
#    z 0.254170 0.000000 3.647980 
# 
# 
# High freq. dielectric constant tensor:
#      x y z
#    x 1.814520 0.000000 0.021170 
#    y 0.000000 1.831660 0.000000 
#    z 0.021170 0.000000 1.813600 
# 
# From -- ./inp_files/30884.got.cif
#   From: 2010.06.25/outbox.cif.g09.slc.cpg/sg15_16_cif.got.tgz:30884.got - 2010.06.28 07:06:18.
