data_PCOD8151744
_publ_section_title
;
Structure prediction by ZEFSAII (Michael W. Deem and Ramdas Pophale) SiO2 
 PCOD8151744
Probable space group: C 2/C
;
_chemical_formula_sum "Si O2"
_cell_formula_units_Z 52
_cell_length_a 16.791193
_cell_length_b 8.616768
_cell_length_c 17.610373
_cell_angle_alpha 90.000000
_cell_angle_beta 97.957067
_cell_angle_gamma 90.000000
_cell_volume 2523.439489
_symmetry_space_group_name_H-M "C 2/C"
_symmetry_group_IT_number 15
_symmetry_cell_setting 'monoclinic'
loop_
_space_group_symop_operation_xyz
x,y,z
-x,y,1/2-z
-x,-y,-z
x,-y,1/2+z
1/2+x,1/2+y,z
1/2-x,1/2+y,1/2-z
1/2-x,1/2-y,-z
1/2+x,1/2-y,1/2+z
loop_
_atom_site_type_symbol
_atom_site_label
_atom_site_fract_x
_atom_site_fract_y
_atom_site_fract_z
Si Si1 0.709390 0.624740 0.372670
Si Si2 0.294671 0.808148 0.741571
Si Si3 0.000000 0.601496 0.750000
Si Si4 0.131212 0.243757 0.162936
Si Si5 0.693837 0.115542 0.522821
Si Si6 0.093295 0.965402 0.246942
Si Si7 0.144309 0.468453 0.368771
O O1 0.784001 0.622625 0.323728
O O2 0.745774 0.524693 0.446223
O O3 0.631926 0.543562 0.326261
O O4 0.678387 0.796437 0.390453
O O5 0.215697 0.702824 0.712598
O O6 0.376056 0.710339 0.753776
O O7 0.293562 0.940857 0.677085
O O8 0.057290 0.698649 0.703112
O O9 0.057852 0.510608 0.815761
O O10 0.133251 0.311232 0.078082
O O11 0.119940 0.056652 0.172708
O O12 0.750000 0.250000 0.500000
O O13 0.636330 0.054006 0.448529
O O14 0.000000 0.961033 0.250000
#
# Coordination Sequence:
#
# PCOD8151744 Si02
#       7
#     8   8   4   8   8   8   8
#     4  11  21  41  69 100 131 181 234 275 344 407
#     4  11  22  40  70 100 130 180 239 280 325 415
#     4  12  24  42  70 100 134 174 232 292 340 396
#     4  11  21  42  66  96 132 183 225 280 346 401
#     4  12  25  42  69 100 143 182 230 282 348 421
#     4  11  21  39  68 101 131 174 231 290 336 398
#     4  12  24  41  66 103 137 177 224 293 349 411
#
# _framework density 20.606795000000002
#
# number of rings (size 3 to 8) (size 9 to 14) (size 15 to 20)
#    0.000    0.615    6.923    3.231    1.077    0.615 
#    0.000    0.000    0.000    4.615    0.000    0.000 
#    0.000    0.000    0.000    0.000    0.000    0.000 
#
# Total GULP energy -322142.995645 kJ/mol
# GULP energy per Si atom -12390.115217 kJ/mol
# Density = 2.055989 g / cm^3
# Si number density = 20.606795 Si / 1000 Ang^3
#
#
#
# Elastic Constant Matrix: (Units=GPa)
#
#
# Indices 1 2 3 4 5 6 
#
# 1 137.9857 49.0487 55.2806 0.0000 -3.8969 0.0000
# 2 49.0487 107.0973 60.6381 0.0000 5.4519 0.0000
# 3 55.2806 60.6381 129.4785 0.0000 3.6414 0.0000
# 4 0.0000 0.0000 0.0000 35.6029 0.0000 0.4664
# 5 -3.8969 5.4519 3.6414 0.0000 16.9740 0.0000
# 6 0.0000 0.0000 0.0000 0.4664 0.0000 28.3346
#
#
#
# Elastic Compliance Matrix: (Units=1/GPa)
#
#
# Indices 1 2 3 4 5 6 
#
# 1 0.009524 -0.002981 -0.002776 0.000000 0.003739 0.000000
# 2 -0.002981 0.013775 -0.005066 0.000000 -0.004022 0.000000
# 3 -0.002776 -0.005066 0.011321 0.000000 -0.001439 0.000000
# 4 0.000000 0.000000 0.000000 0.028094 0.000000 -0.000462
# 5 0.003739 -0.004022 -0.001439 0.000000 0.061373 0.000000
# 6 0.000000 0.000000 0.000000 -0.000462 0.000000 0.035300
#
#
# Mechanical properties :
#
#
# Convention : Reuss Voigt Hill
#
# Bulk Modulus (GPa) = 77.06031 78.27736 77.66884
# Shear Modulus (GPa) = 26.97504 30.15524 28.56514
#
# Velocity S-wave (km/s) = 3.62199 3.82954 3.72721
# Velocity P-wave (km/s) = 7.41407 7.59095 7.50303
#
# Compressibility (1/GPa) = 0.01297685
#
# Stress axis : x y z
#
# Youngs Moduli (GPa) = 104.99519 72.59363 88.33056
#
# Poissons Ratio (x) = 0.21639 0.24517
# Poissons Ratio (y) = 0.31297 0.44744
# Poissons Ratio (z) = 0.29142 0.36773
#
# Static dielectric constant tensor:
#      x y z
#    x 3.753590 0.000000 0.065790 
#    y 0.000000 4.112470 0.000000 
#    z 0.065790 0.000000 3.959150 
# 
# 
# High freq. dielectric constant tensor:
#      x y z
#    x 1.802250 0.000000 -0.004360 
#    y 0.000000 1.819030 0.000000 
#    z -0.004360 0.000000 1.790320 
# 
# From -- ./inp_files/209186.got.cif
#   From: 2010.06.25/outbox.cif.g09.slc.cpg/sg15_105_cif.got.tgz:209186.got - 2010.06.28 07:06:18.
