data_PCOD8151819
_publ_section_title
;
Structure prediction by ZEFSAII (Michael W. Deem and Ramdas Pophale) SiO2 
 PCOD8151819
Probable space group: C 2/C
;
_chemical_formula_sum "Si O2"
_cell_formula_units_Z 40
_cell_length_a 18.291237
_cell_length_b 9.770394
_cell_length_c 11.906732
_cell_angle_alpha 90.000000
_cell_angle_beta 101.805979
_cell_angle_gamma 90.000000
_cell_volume 2082.869798
_symmetry_space_group_name_H-M "C 2/C"
_symmetry_group_IT_number 15
_symmetry_cell_setting 'monoclinic'
loop_
_space_group_symop_operation_xyz
x,y,z
-x,y,1/2-z
-x,-y,-z
x,-y,1/2+z
1/2+x,1/2+y,z
1/2-x,1/2+y,1/2-z
1/2-x,1/2-y,-z
1/2+x,1/2-y,1/2+z
loop_
_atom_site_type_symbol
_atom_site_label
_atom_site_fract_x
_atom_site_fract_y
_atom_site_fract_z
Si Si1 0.450128 0.898513 0.125746
Si Si2 0.187109 0.202970 0.394851
Si Si3 0.424571 0.174573 0.996541
Si Si4 0.280624 0.249964 0.842589
Si Si5 0.334046 0.600053 0.559634
O O1 0.500000 0.919256 0.250000
O O2 0.378261 0.811399 0.131731
O O3 0.496767 0.820661 0.043292
O O4 0.422129 0.046355 0.078501
O O5 0.250000 0.250000 0.500000
O O6 0.224262 0.189934 0.283818
O O7 0.150283 0.059628 0.420398
O O8 0.356364 0.160450 0.885551
O O9 0.411668 0.315014 0.064829
O O10 0.208198 0.156311 0.842863
O O11 0.280808 0.375499 0.933199
#
# Coordination Sequence:
#
# PCOD8151819 Si02
#       5
#     8   8   8   8   8
#     4  11  21  41  63  92 123 160 205 259 309 375
#     4  12  25  37  65  97 121 164 212 254 310 372
#     4   9  20  41  62  85 121 166 199 251 312 362
#     4   9  20  41  63  85 129 157 201 263 297 369
#     4   9  21  41  60  89 124 161 204 254 313 354
#
# _framework density 19.204273000000001
#
# number of rings (size 3 to 8) (size 9 to 14) (size 15 to 20)
#    1.200    0.800    2.000    1.200    2.800    0.800 
#    7.200    1.000    0.000    0.000    0.000    0.000 
#    0.000    0.000    0.000    0.000    0.000    0.000 
#
# Total GULP energy -247884.540079 kJ/mol
# GULP energy per Si atom -12394.227004 kJ/mol
# Density = 1.916056 g / cm^3
# Si number density = 19.204273 Si / 1000 Ang^3
#
#
#
# Elastic Constant Matrix: (Units=GPa)
#
#
# Indices 1 2 3 4 5 6 
#
# 1 49.5992 27.2673 26.6837 0.0000 -8.4183 0.0000
# 2 27.2673 115.7603 56.7087 0.0000 -7.4241 0.0000
# 3 26.6837 56.7087 112.1482 0.0000 -6.2675 0.0000
# 4 0.0000 0.0000 0.0000 21.5198 0.0000 -1.6107
# 5 -8.4183 -7.4241 -6.2675 0.0000 32.2069 0.0000
# 6 0.0000 0.0000 0.0000 -1.6107 0.0000 28.5096
#
#
#
# Elastic Compliance Matrix: (Units=1/GPa)
#
#
# Indices 1 2 3 4 5 6 
#
# 1 0.025103 -0.003728 -0.003810 0.000000 0.004961 0.000000
# 2 -0.003728 0.012112 -0.005192 0.000000 0.000807 0.000000
# 3 -0.003810 -0.005192 0.012462 0.000000 0.000232 0.000000
# 4 0.000000 0.000000 0.000000 0.046666 0.000000 0.002636
# 5 0.004961 0.000807 0.000232 0.000000 0.032577 0.000000
# 6 0.000000 0.000000 0.000000 0.002636 0.000000 0.035225
#
#
# Mechanical properties :
#
#
# Convention : Reuss Voigt Hill
#
# Bulk Modulus (GPa) = 41.29659 55.42522 48.36090
# Shear Modulus (GPa) = 25.29351 27.57047 26.43199
#
# Velocity S-wave (km/s) = 3.63309 3.79310 3.71396
# Velocity P-wave (km/s) = 6.25697 6.93592 6.60518
#
# Compressibility (1/GPa) = 0.02421507
#
# Stress axis : x y z
#
# Youngs Moduli (GPa) = 39.83573 82.56161 80.24410
#
# Poissons Ratio (x) = 0.30781 0.30576
# Poissons Ratio (y) = 0.14852 0.41666
# Poissons Ratio (z) = 0.15179 0.42870
#
# Static dielectric constant tensor:
#      x y z
#    x 3.613390 0.000000 -0.058820 
#    y 0.000000 3.367870 0.000000 
#    z -0.058820 0.000000 3.496660 
# 
# 
# High freq. dielectric constant tensor:
#      x y z
#    x 1.741910 0.000000 -0.019600 
#    y 0.000000 1.736590 0.000000 
#    z -0.019600 0.000000 1.742360 
# 
# From -- ./inp_files/102845.got.cif
#   From: 2010.06.25/outbox.cif.g09.slc.cpg/sg15_52_cif.got.tgz:102845.got - 2010.06.28 07:06:18.
