data_PCOD8151109
_publ_section_title
;
Structure prediction by ZEFSAII (Michael W. Deem and Ramdas Pophale) SiO2 
 PCOD8151109
Probable space group: C 2/C
;
_chemical_formula_sum "Si O2"
_cell_formula_units_Z 48
_cell_length_a 6.462796
_cell_length_b 16.860389
_cell_length_c 22.852015
_cell_angle_alpha 90.000000
_cell_angle_beta 113.717419
_cell_angle_gamma 90.000000
_cell_volume 2279.764719
_symmetry_space_group_name_H-M "C 2/C"
_symmetry_group_IT_number 15
_symmetry_cell_setting 'monoclinic'
loop_
_space_group_symop_operation_xyz
x,y,z
-x,y,1/2-z
-x,-y,-z
x,-y,1/2+z
1/2+x,1/2+y,z
1/2-x,1/2+y,1/2-z
1/2-x,1/2-y,-z
1/2+x,1/2-y,1/2+z
loop_
_atom_site_type_symbol
_atom_site_label
_atom_site_fract_x
_atom_site_fract_y
_atom_site_fract_z
Si Si1 0.469184 0.541758 0.811372
Si Si2 0.181290 0.316398 0.312325
Si Si3 0.906250 0.711633 0.100890
Si Si4 0.867722 0.440749 0.672923
Si Si5 0.465705 0.805430 0.014149
Si Si6 0.961224 0.583561 0.883272
O O1 0.500000 0.507622 0.750000
O O2 0.267914 0.606176 0.786987
O O3 0.389203 0.469019 0.843338
O O4 0.691962 0.583005 0.861545
O O5 0.388619 0.261128 0.350007
O O6 0.000000 0.271784 0.250000
O O7 0.047757 0.343105 0.354498
O O8 0.854640 0.644843 0.142817
O O9 0.683014 0.763540 0.067920
O O10 0.988720 0.676280 0.048515
O O11 0.000000 0.441211 0.750000
O O12 0.970571 0.498924 0.635240
O O13 0.434342 0.892166 0.041364
O O14 0.250000 0.750000 0.000000
#
# Coordination Sequence:
#
# PCOD8151109 Si02
#       6
#     8   8   8   8   8   8
#     4  11  19  39  67  95 133 174 220 272 332 418
#     4  11  21  37  68 102 126 171 233 279 339 408
#     4  11  26  43  64 101 138 169 224 292 334 393
#     4  11  25  42  63 103 141 171 217 279 350 406
#     4  11  24  46  71  93 130 183 235 277 326 403
#     4  11  21  41  69  94 129 177 227 266 334 408
#
# _framework density 21.054804000000001
#
# number of rings (size 3 to 8) (size 9 to 14) (size 15 to 20)
#    0.000    1.000    6.667    1.000    0.000    4.000 
#    3.000    1.667    0.000    0.000    0.000    0.000 
#    0.000    0.000    0.000    0.000    0.000    0.000 
#
# Total GULP energy -297496.587526 kJ/mol
# GULP energy per Si atom -12395.691147 kJ/mol
# Density = 2.100688 g / cm^3
# Si number density = 21.054804 Si / 1000 Ang^3
#
#
#
# Elastic Constant Matrix: (Units=GPa)
#
#
# Indices 1 2 3 4 5 6 
#
# 1 135.7843 42.9753 49.4452 0.0000 5.8922 0.0000
# 2 42.9753 94.7746 53.5912 0.0000 -4.2718 0.0000
# 3 49.4452 53.5912 92.2785 0.0000 -1.7742 0.0000
# 4 0.0000 0.0000 0.0000 36.8875 0.0000 -11.0615
# 5 5.8922 -4.2718 -1.7742 0.0000 40.2339 0.0000
# 6 0.0000 0.0000 0.0000 -11.0615 0.0000 30.8571
#
#
#
# Elastic Compliance Matrix: (Units=1/GPa)
#
#
# Indices 1 2 3 4 5 6 
#
# 1 0.009554 -0.002232 -0.003858 0.000000 -0.001806 0.000000
# 2 -0.002232 0.016297 -0.008236 0.000000 0.001694 0.000000
# 3 -0.003858 -0.008236 0.017696 0.000000 0.000471 0.000000
# 4 0.000000 0.000000 0.000000 0.030375 0.000000 0.010889
# 5 -0.001806 0.001694 0.000471 0.000000 0.025320 0.000000
# 6 0.000000 0.000000 0.000000 0.010889 0.000000 0.036311
#
#
# Mechanical properties :
#
#
# Convention : Reuss Voigt Hill
#
# Bulk Modulus (GPa) = 67.13512 68.31786 67.72649
# Shear Modulus (GPa) = 29.55619 33.38409 31.47014
#
# Velocity S-wave (km/s) = 3.75076 3.98625 3.87030
# Velocity P-wave (km/s) = 7.12129 7.32837 7.22557
#
# Compressibility (1/GPa) = 0.01489533
#
# Stress axis : x y z
#
# Youngs Moduli (GPa) = 104.66465 61.36095 56.51042
#
# Poissons Ratio (x) = 0.13698 0.21800
# Poissons Ratio (y) = 0.23366 0.46541
# Poissons Ratio (z) = 0.40376 0.50536
#
# Static dielectric constant tensor:
#      x y z
#    x 4.295730 0.000000 -0.021050 
#    y 0.000000 3.511820 0.000000 
#    z -0.021050 0.000000 3.906010 
# 
# 
# High freq. dielectric constant tensor:
#      x y z
#    x 1.849590 0.000000 -0.008350 
#    y 0.000000 1.801980 0.000000 
#    z -0.008350 0.000000 1.823390 
# 
# From -- ./inp_files/260896.got.cif
#   From: 2010.06.25/outbox.cif.g09.slc.cpg/sg15_131_cif.got.tgz:260896.got - 2010.06.28 07:06:18.
