data_PCOD8151199
_publ_section_title
;
Structure prediction by ZEFSAII (Michael W. Deem and Ramdas Pophale) SiO2 
 PCOD8151199
Probable space group: C 2/C
;
_chemical_formula_sum "Si O2"
_cell_formula_units_Z 60
_cell_length_a 5.348696
_cell_length_b 23.018564
_cell_length_c 22.942677
_cell_angle_alpha 90.000000
_cell_angle_beta 78.912967
_cell_angle_gamma 90.000000
_cell_volume 2771.967006
_symmetry_space_group_name_H-M "C 2/C"
_symmetry_group_IT_number 15
_symmetry_cell_setting 'monoclinic'
loop_
_space_group_symop_operation_xyz
x,y,z
-x,y,1/2-z
-x,-y,-z
x,-y,1/2+z
1/2+x,1/2+y,z
1/2-x,1/2+y,1/2-z
1/2-x,1/2-y,-z
1/2+x,1/2-y,1/2+z
loop_
_atom_site_type_symbol
_atom_site_label
_atom_site_fract_x
_atom_site_fract_y
_atom_site_fract_z
Si Si1 0.809426 0.748201 0.147742
Si Si2 0.906204 0.862332 0.540449
Si Si3 0.000000 0.310448 0.250000
Si Si4 0.729536 0.404868 0.195114
Si Si5 0.128678 0.621777 0.390956
Si Si6 0.990434 0.260099 0.448443
Si Si7 0.863429 0.850630 0.417694
Si Si8 0.287525 0.966195 0.714013
O O1 0.727147 0.769203 0.216323
O O2 0.902000 0.681451 0.144673
O O3 0.564890 0.752086 0.117436
O O4 0.019531 0.791345 0.112814
O O5 0.648168 0.895874 0.570388
O O6 0.991322 0.878595 0.469794
O O7 0.149301 0.874971 0.570362
O O8 0.823919 0.793723 0.543575
O O9 0.923452 0.352459 0.199726
O O10 0.500000 0.398121 0.250000
O O11 0.641180 0.399428 0.131905
O O12 0.861679 0.467219 0.195991
O O13 0.205229 0.570664 0.344558
O O14 0.750000 0.250000 0.500000
O O15 0.090369 0.325958 0.452671
O O16 0.500000 0.942983 0.750000
O O17 0.000000 0.961962 0.750000
#
# Coordination Sequence:
#
# PCOD8151199 Si02
#       8
#     8   8   4   8   8   8   8   8
#     4  11  23  35  62  95 136 168 209 270 333 397
#     4  11  23  39  65  96 136 174 220 263 328 398
#     4  12  22  40  60  96 132 162 216 278 340 386
#     4  11  24  42  67  94 125 173 226 278 326 395
#     4  11  25  44  64  99 133 177 220 272 320 394
#     4  11  20  35  58  91 131 175 217 251 320 409
#     4  12  21  38  62  97 130 175 212 269 338 394
#     4  11  25  49  74  92 126 180 232 270 327 398
#
# _framework density 21.645278999999999
#
# number of rings (size 3 to 8) (size 9 to 14) (size 15 to 20)
#    0.000    0.800    6.000    2.800    0.933    0.000 
#    2.400    1.333    0.000    0.000    0.000    0.000 
#    0.000    0.000    0.000    0.000    0.000    0.000 
#
# Total GULP energy -371832.930461 kJ/mol
# GULP energy per Si atom -12394.431015 kJ/mol
# Density = 2.159601 g / cm^3
# Si number density = 21.645279 Si / 1000 Ang^3
#
#
#
# Elastic Constant Matrix: (Units=GPa)
#
#
# Indices 1 2 3 4 5 6 
#
# 1 97.7387 22.8599 44.0032 0.0000 -0.2838 0.0000
# 2 22.8599 65.6658 53.6220 0.0000 1.9373 0.0000
# 3 44.0032 53.6220 130.0411 0.0000 7.3434 0.0000
# 4 0.0000 0.0000 0.0000 12.7272 0.0000 9.5945
# 5 -0.2838 1.9373 7.3434 0.0000 36.5279 0.0000
# 6 0.0000 0.0000 0.0000 9.5945 0.0000 18.7351
#
#
#
# Elastic Compliance Matrix: (Units=1/GPa)
#
#
# Indices 1 2 3 4 5 6 
#
# 1 0.012174 -0.001296 -0.003636 0.000000 0.000894 0.000000
# 2 -0.001296 0.023115 -0.009127 0.000000 0.000599 0.000000
# 3 -0.003636 -0.009127 0.012803 0.000000 -0.002118 0.000000
# 4 0.000000 0.000000 0.000000 0.127981 0.000000 -0.065541
# 5 0.000894 0.000599 -0.002118 0.000000 0.027777 0.000000
# 6 0.000000 0.000000 0.000000 -0.065541 0.000000 0.086940
#
#
# Mechanical properties :
#
#
# Convention : Reuss Voigt Hill
#
# Bulk Modulus (GPa) = 50.06053 59.37952 54.72002
# Shear Modulus (GPa) = 15.35796 25.12873 20.24334
#
# Velocity S-wave (km/s) = 2.66659 3.41094 3.06147
# Velocity P-wave (km/s) = 5.71479 6.55784 6.15078
#
# Compressibility (1/GPa) = 0.01997582
#
# Stress axis : x y z
#
# Youngs Moduli (GPa) = 82.14375 43.26239 78.10626
#
# Poissons Ratio (x) = 0.05605 0.28397
# Poissons Ratio (y) = 0.10642 0.71285
# Poissons Ratio (z) = 0.29864 0.39484
#
# Static dielectric constant tensor:
#      x y z
#    x 3.905830 0.000000 0.113000 
#    y 0.000000 3.837600 0.000000 
#    z 0.113000 0.000000 4.088450 
# 
# 
# High freq. dielectric constant tensor:
#      x y z
#    x 1.852840 0.000000 0.002030 
#    y 0.000000 1.817920 0.000000 
#    z 0.002030 0.000000 1.861170 
# 
# From -- ./inp_files/261658.got.cif
#   From: 2010.06.25/outbox.cif.g09.slc.cpg/sg15_131_cif.got.tgz:261658.got - 2010.06.28 07:06:18.
