data_PCOD8151004
_publ_section_title
;
Structure prediction by ZEFSAII (Michael W. Deem and Ramdas Pophale) SiO2 
 PCOD8151004
Probable space group: C 2/C
;
_chemical_formula_sum "Si O2"
_cell_formula_units_Z 60
_cell_length_a 11.201429
_cell_length_b 19.876274
_cell_length_c 14.048303
_cell_angle_alpha 90.000000
_cell_angle_beta 76.046835
_cell_angle_gamma 90.000000
_cell_volume 3035.461632
_symmetry_space_group_name_H-M "C 2/C"
_symmetry_group_IT_number 15
_symmetry_cell_setting 'monoclinic'
loop_
_space_group_symop_operation_xyz
x,y,z
-x,y,1/2-z
-x,-y,-z
x,-y,1/2+z
1/2+x,1/2+y,z
1/2-x,1/2+y,1/2-z
1/2-x,1/2-y,-z
1/2+x,1/2-y,1/2+z
loop_
_atom_site_type_symbol
_atom_site_label
_atom_site_fract_x
_atom_site_fract_y
_atom_site_fract_z
Si Si1 0.880949 0.390548 0.647576
Si Si2 0.500000 0.295096 0.750000
Si Si3 0.259226 0.972370 0.512404
Si Si4 0.743472 0.744367 0.114879
Si Si5 0.349601 0.910670 0.870502
Si Si6 0.492663 0.493402 0.358451
Si Si7 0.091552 0.127836 0.409279
Si Si8 0.115408 0.870195 0.416669
O O1 0.850274 0.448351 0.577934
O O2 0.805053 0.323330 0.641463
O O3 0.849428 0.421418 0.756788
O O4 0.027097 0.374439 0.615708
O O5 0.398411 0.250373 0.824078
O O6 0.426457 0.341600 0.690993
O O7 0.208608 0.905448 0.471935
O O8 0.336013 0.017051 0.423581
O O9 0.148075 0.014902 0.581143
O O10 0.814981 0.808165 0.147021
O O11 0.750000 0.750000 0.000000
O O12 0.232159 0.863200 0.916948
O O13 0.500000 0.520361 0.250000
O O14 0.561244 0.547343 0.413239
O O15 0.564308 0.422530 0.348999
O O16 0.998823 0.161566 0.502011
#
# Coordination Sequence:
#
# PCOD8151004 Si02
#       8
#     8   4   8   8   8   8   8   8
#     4  11  24  40  62  93 126 171 209 255 315 380
#     4  12  22  38  70  90 112 164 222 258 312 378
#     4  11  20  38  66  93 123 162 207 262 319 371
#     4  12  23  42  65  87 124 166 214 261 303 377
#     4  11  22  39  62  93 129 162 208 255 322 386
#     4  11  20  34  61  95 124 153 204 267 320 366
#     4  11  18  37  65  92 116 155 209 263 306 372
#     4  11  22  37  62  92 123 158 203 266 312 362
#
# _framework density 19.766351
#
# number of rings (size 3 to 8) (size 9 to 14) (size 15 to 20)
#    0.000    0.800    7.333    2.800    0.000    0.000 
#    2.400    3.333    0.000    0.000    0.000    0.000 
#    0.000    0.000    0.000    0.000    0.000    0.000 
#
# Total GULP energy -372016.375291 kJ/mol
# GULP energy per Si atom -12400.545843 kJ/mol
# Density = 1.972136 g / cm^3
# Si number density = 19.766351 Si / 1000 Ang^3
#
#
#
# Elastic Constant Matrix: (Units=GPa)
#
#
# Indices 1 2 3 4 5 6 
#
# 1 144.2041 44.2225 49.1523 0.0000 -12.5152 0.0000
# 2 44.2225 88.9756 36.9013 0.0000 -8.8667 0.0000
# 3 49.1523 36.9013 90.1139 0.0000 -9.5473 0.0000
# 4 0.0000 0.0000 0.0000 24.5262 0.0000 0.3492
# 5 -12.5152 -8.8667 -9.5473 0.0000 35.6252 0.0000
# 6 0.0000 0.0000 0.0000 0.3492 0.0000 27.3178
#
#
#
# Elastic Compliance Matrix: (Units=1/GPa)
#
#
# Indices 1 2 3 4 5 6 
#
# 1 0.009209 -0.002901 -0.003673 0.000000 0.001529 0.000000
# 2 -0.002901 0.014584 -0.004233 0.000000 0.001476 0.000000
# 3 -0.003673 -0.004233 0.015012 0.000000 0.001679 0.000000
# 4 0.000000 0.000000 0.000000 0.040780 0.000000 -0.000521
# 5 0.001529 0.001476 0.001679 0.000000 0.029424 0.000000
# 6 0.000000 0.000000 0.000000 -0.000521 0.000000 0.036613
#
#
# Mechanical properties :
#
#
# Convention : Reuss Voigt Hill
#
# Bulk Modulus (GPa) = 58.17422 64.87177 61.52299
# Shear Modulus (GPa) = 28.90729 30.36165 29.63447
#
# Velocity S-wave (km/s) = 3.82835 3.92347 3.87620
# Velocity P-wave (km/s) = 7.00261 7.30858 7.15723
#
# Compressibility (1/GPa) = 0.01718975
#
# Stress axis : x y z
#
# Youngs Moduli (GPa) = 108.58968 68.56937 66.61427
#
# Poissons Ratio (x) = 0.19895 0.24467
# Poissons Ratio (y) = 0.31506 0.28198
# Poissons Ratio (z) = 0.39884 0.29026
#
# Static dielectric constant tensor:
#      x y z
#    x 3.888310 0.000000 -0.105070 
#    y 0.000000 3.365670 0.000000 
#    z -0.105070 0.000000 3.600140 
# 
# 
# High freq. dielectric constant tensor:
#      x y z
#    x 1.783670 0.000000 -0.004030 
#    y 0.000000 1.738920 0.000000 
#    z -0.004030 0.000000 1.768830 
# 
# From -- ./inp_files/146721.got.cif
#   From: 2010.06.25/outbox.cif.g09.slc.cpg/sg15_74_cif.got.tgz:146721.got - 2010.06.28 07:06:18.
