data_PCOD8151907
_publ_section_title
;
Structure prediction by ZEFSAII (Michael W. Deem and Ramdas Pophale) SiO2 
 PCOD8151907
Probable space group: C 2/C
;
_chemical_formula_sum "Si O2"
_cell_formula_units_Z 48
_cell_length_a 28.619312
_cell_length_b 11.818852
_cell_length_c 14.458808
_cell_angle_alpha 90.000000
_cell_angle_beta 28.203259
_cell_angle_gamma 90.000000
_cell_volume 2311.327636
_symmetry_space_group_name_H-M "C 2/C"
_symmetry_group_IT_number 15
_symmetry_cell_setting 'monoclinic'
loop_
_space_group_symop_operation_xyz
x,y,z
-x,y,1/2-z
-x,-y,-z
x,-y,1/2+z
1/2+x,1/2+y,z
1/2-x,1/2+y,1/2-z
1/2-x,1/2-y,-z
1/2+x,1/2-y,1/2+z
loop_
_atom_site_type_symbol
_atom_site_label
_atom_site_fract_x
_atom_site_fract_y
_atom_site_fract_z
Si Si1 0.796850 0.115171 0.185872
Si Si2 0.318105 0.046401 0.291566
Si Si3 0.951826 0.743700 0.090147
Si Si4 0.405068 0.236178 0.375056
Si Si5 0.215590 0.903502 0.162163
Si Si6 0.175814 0.281743 0.208604
O O1 0.714414 0.088231 0.253230
O O2 0.776624 0.227784 0.282248
O O3 0.811317 0.015930 0.234663
O O4 0.893299 0.150229 0.958359
O O5 0.420908 0.112113 0.130950
O O6 0.240159 0.073934 0.510538
O O7 0.337124 0.914310 0.253672
O O8 0.929437 0.781559 0.232441
O O9 0.880082 0.824326 0.155512
O O10 0.067299 0.764901 0.868379
O O11 0.500000 0.167484 0.250000
O O12 0.309232 0.156514 0.546114
O O13 0.250000 0.250000 0.000000
#
# Coordination Sequence:
#
# PCOD8151907 Si02
#       6
#     8   8   8   8   8   8
#     4  12  23  42  71  95 141 175 219 279 336 397
#     4  11  23  45  72  96 133 178 228 272 336 398
#     4  11  23  44  70  96 131 180 229 277 324 405
#     4  11  21  42  69 101 127 175 233 267 325 406
#     4  11  23  44  68 101 137 172 223 283 331 403
#     4  12  26  46  65 100 139 174 222 284 342 388
#
# _framework density 20.767285999999999
#
# number of rings (size 3 to 8) (size 9 to 14) (size 15 to 20)
#    0.000    0.667    6.667    2.500    0.000    0.667 
#    3.000    0.833    0.000    0.000    0.000    0.000 
#    0.000    0.000    0.000    0.000    0.000    0.000 
#
# Total GULP energy -297341.752976 kJ/mol
# GULP energy per Si atom -12389.239707 kJ/mol
# Density = 2.072002 g / cm^3
# Si number density = 20.767286 Si / 1000 Ang^3
#
#
#
# Elastic Constant Matrix: (Units=GPa)
#
#
# Indices 1 2 3 4 5 6 
#
# 1 122.0775 44.0528 64.6296 0.0000 -3.2322 0.0000
# 2 44.0528 97.5365 60.5310 0.0000 -7.2387 0.0000
# 3 64.6296 60.5310 130.8568 0.0000 -2.5290 0.0000
# 4 0.0000 0.0000 0.0000 19.3300 0.0000 6.7537
# 5 -3.2322 -7.2387 -2.5290 0.0000 31.6476 0.0000
# 6 0.0000 0.0000 0.0000 6.7537 0.0000 32.9653
#
#
#
# Elastic Compliance Matrix: (Units=1/GPa)
#
#
# Indices 1 2 3 4 5 6 
#
# 1 0.011460 -0.002309 -0.004587 0.000000 0.000276 0.000000
# 2 -0.002309 0.015091 -0.005787 0.000000 0.002754 0.000000
# 3 -0.004587 -0.005787 0.012569 0.000000 -0.000788 0.000000
# 4 0.000000 0.000000 0.000000 0.055722 0.000000 -0.011416
# 5 0.000276 0.002754 -0.000788 0.000000 0.032193 0.000000
# 6 0.000000 0.000000 0.000000 -0.011416 0.000000 0.032674
#
#
# Mechanical properties :
#
#
# Convention : Reuss Voigt Hill
#
# Bulk Modulus (GPa) = 72.70246 76.54417 74.62331
# Shear Modulus (GPa) = 26.36294 28.87242 27.61768
#
# Velocity S-wave (km/s) = 3.56679 3.73270 3.65069
# Velocity P-wave (km/s) = 7.21435 7.45087 7.33356
#
# Compressibility (1/GPa) = 0.01375469
#
# Stress axis : x y z
#
# Youngs Moduli (GPa) = 87.25717 66.26303 79.56025
#
# Poissons Ratio (x) = 0.15301 0.36492
# Poissons Ratio (y) = 0.20149 0.46043
# Poissons Ratio (z) = 0.40023 0.38348
#
# Static dielectric constant tensor:
#      x y z
#    x 4.188380 0.000000 -0.050830 
#    y 0.000000 3.846340 0.000000 
#    z -0.050830 0.000000 3.852890 
# 
# 
# High freq. dielectric constant tensor:
#      x y z
#    x 1.829050 0.000000 0.002410 
#    y 0.000000 1.810890 0.000000 
#    z 0.002410 0.000000 1.800940 
# 
# From -- ./inp_files/151827.got.cif
#   From: 2010.06.25/outbox.cif.g09.slc.cpg/sg15_76_cif.got.tgz:151827.got - 2010.06.28 07:06:18.
