data_PCOD8151565
_publ_section_title
;
Structure prediction by ZEFSAII (Michael W. Deem and Ramdas Pophale) SiO2 
 PCOD8151565
Probable space group: C 2/C
;
_chemical_formula_sum "Si O2"
_cell_formula_units_Z 64
_cell_length_a 26.030519
_cell_length_b 13.935736
_cell_length_c 9.640296
_cell_angle_alpha 90.000000
_cell_angle_beta 79.216568
_cell_angle_gamma 90.000000
_cell_volume 3435.306976
_symmetry_space_group_name_H-M "C 2/C"
_symmetry_group_IT_number 15
_symmetry_cell_setting 'monoclinic'
loop_
_space_group_symop_operation_xyz
x,y,z
-x,y,1/2-z
-x,-y,-z
x,-y,1/2+z
1/2+x,1/2+y,z
1/2-x,1/2+y,1/2-z
1/2-x,1/2-y,-z
1/2+x,1/2-y,1/2+z
loop_
_atom_site_type_symbol
_atom_site_label
_atom_site_fract_x
_atom_site_fract_y
_atom_site_fract_z
Si Si1 0.692994 0.003177 0.470452
Si Si2 0.262326 0.486753 0.691081
Si Si3 0.555915 0.868672 0.668918
Si Si4 0.791625 0.786931 0.774414
Si Si5 0.879216 0.654112 0.608502
Si Si6 0.119509 0.332608 0.904935
Si Si7 0.444920 0.090172 0.826934
Si Si8 0.692840 0.670794 0.915309
O O1 0.711510 0.006352 0.619943
O O2 0.651230 0.919943 0.474147
O O3 0.744552 0.984411 0.354186
O O4 0.668575 0.104880 0.435745
O O5 0.279519 0.375878 0.677899
O O6 0.309594 0.558187 0.624666
O O7 0.500000 0.827507 0.750000
O O8 0.574493 0.811113 0.520326
O O9 0.600535 0.859611 0.762407
O O10 0.549069 0.980064 0.629647
O O11 0.842557 0.738812 0.680701
O O12 0.743079 0.714348 0.809038
O O13 0.803690 0.824689 0.921182
O O14 0.901987 0.597988 0.728418
O O15 0.139925 0.223050 0.892617
O O16 0.071220 0.345826 0.033690
O O17 0.500000 0.132806 0.750000
#
# Coordination Sequence:
#
# PCOD8151565 Si02
#       8
#     8   8   8   8   8   8   8   8
#     4  12  21  33  56  84 118 159 195 231 278 339
#     4  12  23  38  55  82 122 155 199 238 273 331
#     4  11  23  37  55  88 124 150 189 245 291 339
#     4  11  23  38  58  84 117 155 197 236 281 343
#     4  12  22  36  57  85 116 158 196 230 285 349
#     4  12  21  37  59  82 119 164 191 227 291 346
#     4  11  21  36  59  85 116 155 195 237 287 351
#     4  11  22  38  58  84 117 156 194 234 285 340
#
# _framework density 18.630067
#
# number of rings (size 3 to 8) (size 9 to 14) (size 15 to 20)
#    0.000    0.500    7.500    3.000    0.000    3.500 
#    0.000    0.000    0.000    0.000    0.000    5.250 
#    0.000    0.000    0.000    0.000    0.000    0.000 
#
# Total GULP energy -396827.967757 kJ/mol
# GULP energy per Si atom -12400.873992 kJ/mol
# Density = 1.858766 g / cm^3
# Si number density = 18.630067 Si / 1000 Ang^3
#
#
#
# Elastic Constant Matrix: (Units=GPa)
#
#
# Indices 1 2 3 4 5 6 
#
# 1 59.2520 25.9091 19.6411 0.0000 -12.7985 0.0000
# 2 25.9091 71.5953 23.4660 0.0000 -4.2403 0.0000
# 3 19.6411 23.4660 84.8992 0.0000 -21.6319 0.0000
# 4 0.0000 0.0000 0.0000 23.9329 0.0000 -5.2100
# 5 -12.7985 -4.2403 -21.6319 0.0000 36.9388 0.0000
# 6 0.0000 0.0000 0.0000 -5.2100 0.0000 21.4208
#
#
#
# Elastic Compliance Matrix: (Units=1/GPa)
#
#
# Indices 1 2 3 4 5 6 
#
# 1 0.021716 -0.006985 -0.001623 0.000000 0.005772 0.000000
# 2 -0.006985 0.017628 -0.003946 0.000000 -0.002708 0.000000
# 3 -0.001623 -0.003946 0.015264 0.000000 0.007923 0.000000
# 4 0.000000 0.000000 0.000000 0.044120 0.000000 0.010731
# 5 0.005772 -0.002708 0.007923 0.000000 0.033401 0.000000
# 6 0.000000 0.000000 0.000000 0.010731 0.000000 0.049293
#
#
# Mechanical properties :
#
#
# Convention : Reuss Voigt Hill
#
# Bulk Modulus (GPa) = 33.89818 39.30877 36.60347
# Shear Modulus (GPa) = 23.10929 26.24051 24.67490
#
# Velocity S-wave (km/s) = 3.52579 3.75707 3.64327
# Velocity P-wave (km/s) = 5.89999 6.32189 6.11458
#
# Compressibility (1/GPa) = 0.02950011
#
# Stress axis : x y z
#
# Youngs Moduli (GPa) = 46.04893 56.72714 65.51499
#
# Poissons Ratio (x) = 0.39624 0.10630
# Poissons Ratio (y) = 0.32165 0.25854
# Poissons Ratio (z) = 0.07472 0.22386
#
# Static dielectric constant tensor:
#      x y z
#    x 3.448430 0.000000 -0.147530 
#    y 0.000000 3.259590 0.000000 
#    z -0.147530 0.000000 3.619530 
# 
# 
# High freq. dielectric constant tensor:
#      x y z
#    x 1.707080 0.000000 -0.006380 
#    y 0.000000 1.682980 0.000000 
#    z -0.006380 0.000000 1.744770 
# 
# From -- ./inp_files/66193.got.cif
#   From: 2010.06.25/outbox.cif.g09.slc.cpg/sg15_34_cif.got.tgz:66193.got - 2010.06.28 07:06:18.
