data_PCOD8151958
_publ_section_title
;
Structure prediction by ZEFSAII (Michael W. Deem and Ramdas Pophale) SiO2 
 PCOD8151958
Probable space group: C 2/C
;
_chemical_formula_sum "Si O2"
_cell_formula_units_Z 48
_cell_length_a 9.592480
_cell_length_b 13.794415
_cell_length_c 26.922734
_cell_angle_alpha 90.000000
_cell_angle_beta 139.135349
_cell_angle_gamma 90.000000
_cell_volume 2330.844236
_symmetry_space_group_name_H-M "C 2/C"
_symmetry_group_IT_number 15
_symmetry_cell_setting 'monoclinic'
loop_
_space_group_symop_operation_xyz
x,y,z
-x,y,1/2-z
-x,-y,-z
x,-y,1/2+z
1/2+x,1/2+y,z
1/2-x,1/2+y,1/2-z
1/2-x,1/2-y,-z
1/2+x,1/2-y,1/2+z
loop_
_atom_site_type_symbol
_atom_site_label
_atom_site_fract_x
_atom_site_fract_y
_atom_site_fract_z
Si Si1 0.746947 0.312394 0.185910
Si Si2 0.970552 0.766087 0.028288
Si Si3 0.088344 0.013770 0.170898
Si Si4 0.920502 0.393934 0.829232
Si Si5 0.886769 0.925750 0.932454
Si Si6 0.868436 0.557589 0.424459
O O1 0.637331 0.334651 0.103174
O O2 0.700073 0.408522 0.204888
O O3 0.612111 0.220744 0.169814
O O4 0.000000 0.291249 0.250000
O O5 0.099997 0.668780 0.051417
O O6 0.750000 0.750000 0.000000
O O7 0.929873 0.817356 0.964668
O O8 0.232010 0.085163 0.240970
O O9 0.033637 0.055951 0.101701
O O10 0.865977 0.013929 0.138832
O O11 0.934087 0.453248 0.884615
O O12 0.132408 0.429981 0.859323
O O13 0.000000 0.000000 0.000000
O O14 0.000000 0.500000 0.500000
#
# Coordination Sequence:
#
# PCOD8151958 Si02
#       6
#     8   8   8   8   8   8
#     4  11  22  42  69  91 129 179 216 256 332 393
#     4  11  21  43  70  94 126 178 216 263 325 395
#     4  12  25  42  64 102 130 165 221 275 323 383
#     4  11  24  45  66  92 133 178 216 266 327 401
#     4  12  23  40  69  98 129 169 222 269 324 385
#     4  11  23  42  68  94 130 171 220 264 329 388
#
# _framework density 20.593397
#
# number of rings (size 3 to 8) (size 9 to 14) (size 15 to 20)
#    0.000    0.667    5.000    6.000    0.000    0.667 
#    3.000    1.667    0.000    0.000    0.000    0.000 
#    0.000    0.000    0.000    0.000    0.000    0.000 
#
# Total GULP energy -297388.440030 kJ/mol
# GULP energy per Si atom -12391.185001 kJ/mol
# Density = 2.054653 g / cm^3
# Si number density = 20.593397 Si / 1000 Ang^3
#
#
#
# Elastic Constant Matrix: (Units=GPa)
#
#
# Indices 1 2 3 4 5 6 
#
# 1 36.3774 20.7972 3.7970 0.0000 4.5754 0.0000
# 2 20.7972 72.0828 15.4015 0.0000 -1.7658 0.0000
# 3 3.7970 15.4015 121.7064 0.0000 1.2902 0.0000
# 4 0.0000 0.0000 0.0000 42.4073 0.0000 3.7380
# 5 4.5754 -1.7658 1.2902 0.0000 54.4673 0.0000
# 6 0.0000 0.0000 0.0000 3.7380 0.0000 26.9001
#
#
#
# Elastic Compliance Matrix: (Units=1/GPa)
#
#
# Indices 1 2 3 4 5 6 
#
# 1 0.033449 -0.009776 0.000227 0.000000 -0.003132 0.000000
# 2 -0.009776 0.017129 -0.001878 0.000000 0.001421 0.000000
# 3 0.000227 -0.001878 0.008450 0.000000 -0.000280 0.000000
# 4 0.000000 0.000000 0.000000 0.023873 0.000000 -0.003317
# 5 -0.003132 0.001421 -0.000280 0.000000 0.018675 0.000000
# 6 0.000000 0.000000 0.000000 -0.003317 0.000000 0.037636
#
#
# Mechanical properties :
#
#
# Convention : Reuss Voigt Hill
#
# Bulk Modulus (GPa) = 27.64365 34.46201 31.05283
# Shear Modulus (GPa) = 28.71516 37.43300 33.07408
#
# Velocity S-wave (km/s) = 3.73820 4.26810 4.01191
# Velocity P-wave (km/s) = 5.66435 6.40778 6.04750
#
# Compressibility (1/GPa) = 0.03617468
#
# Stress axis : x y z
#
# Youngs Moduli (GPa) = 29.89653 58.37908 118.34299
#
# Poissons Ratio (x) = 0.57070 -0.02684
# Poissons Ratio (y) = 0.29226 0.22222
# Poissons Ratio (z) = -0.00678 0.10962
#
# Static dielectric constant tensor:
#      x y z
#    x 3.486050 0.000000 -0.041190 
#    y 0.000000 3.998380 0.000000 
#    z -0.041190 0.000000 4.086710 
# 
# 
# High freq. dielectric constant tensor:
#      x y z
#    x 1.787990 0.000000 0.006310 
#    y 0.000000 1.806650 0.000000 
#    z 0.006310 0.000000 1.836790 
# 
# From -- ./inp_files/289069.got.cif
#   From: 2010.06.25/outbox.cif.g09.slc.cpg/sg15_145_cif.got.tgz:289069.got - 2010.06.28 07:06:18.
