data_PCOD8151187
_publ_section_title
;
Structure prediction by ZEFSAII (Michael W. Deem and Ramdas Pophale) SiO2 
 PCOD8151187
Probable space group: C 2/C
;
_chemical_formula_sum "Si O2"
_cell_formula_units_Z 64
_cell_length_a 24.480479
_cell_length_b 12.046450
_cell_length_c 12.689577
_cell_angle_alpha 90.000000
_cell_angle_beta 120.518248
_cell_angle_gamma 90.000000
_cell_volume 3223.777224
_symmetry_space_group_name_H-M "C 2/C"
_symmetry_group_IT_number 15
_symmetry_cell_setting 'monoclinic'
loop_
_space_group_symop_operation_xyz
x,y,z
-x,y,1/2-z
-x,-y,-z
x,-y,1/2+z
1/2+x,1/2+y,z
1/2-x,1/2+y,1/2-z
1/2-x,1/2-y,-z
1/2+x,1/2-y,1/2+z
loop_
_atom_site_type_symbol
_atom_site_label
_atom_site_fract_x
_atom_site_fract_y
_atom_site_fract_z
Si Si1 0.849767 0.723985 0.969407
Si Si2 0.430134 0.121258 0.879117
Si Si3 0.764835 0.071147 0.691251
Si Si4 0.783273 0.097132 0.053380
Si Si5 0.766000 0.926259 0.878097
Si Si6 0.148766 0.731125 0.286830
Si Si7 0.647270 0.189783 0.900877
Si Si8 0.575954 0.122839 0.042078
O O1 0.909026 0.704948 0.950790
O O2 0.800917 0.621155 0.915656
O O3 0.816340 0.834006 0.891499
O O4 0.873210 0.736695 0.112953
O O5 0.397566 0.146698 0.735858
O O6 0.412034 0.999565 0.901716
O O7 0.504469 0.137579 0.932917
O O8 0.822457 0.152770 0.722505
O O9 0.776216 0.941624 0.667375
O O10 0.761595 0.044063 0.811840
O O11 0.844468 0.175716 0.093472
O O12 0.718028 0.148699 0.946919
O O13 0.791557 0.972308 0.014390
O O14 0.697833 0.869570 0.821187
O O15 0.089559 0.706808 0.152068
O O16 0.621721 0.148088 0.988191
#
# Coordination Sequence:
#
# PCOD8151187 Si02
#       8
#     8   8   8   8   8   8   8   8
#     4  11  21  38  59  91 127 155 199 249 295 360
#     4  11  25  41  62  86 115 164 203 246 300 346
#     4  11  20  34  58  91 125 155 191 239 306 363
#     4  11  20  35  60  93 116 157 184 232 325 347
#     4  11  20  34  58  91 125 155 191 239 306 363
#     4  11  21  38  59  91 127 155 199 249 295 360
#     4  11  23  40  60  91 125 149 200 254 295 366
#     4  11  25  41  62  86 115 164 203 246 300 346
#
# _framework density 19.852488999999998
#
# number of rings (size 3 to 8) (size 9 to 14) (size 15 to 20)
#    0.000    1.000    2.500    6.375    1.750    4.500 
#    0.000    0.000    0.000    8.250    0.000    0.000 
#    0.000    0.000    0.000    0.000    0.000    0.000 
#
# Total GULP energy -396632.722671 kJ/mol
# GULP energy per Si atom -12394.772583 kJ/mol
# Density = 1.980730 g / cm^3
# Si number density = 19.852489 Si / 1000 Ang^3
#
#
#
# Elastic Constant Matrix: (Units=GPa)
#
#
# Indices 1 2 3 4 5 6 
#
# 1 63.4485 32.0005 30.8705 0.0000 -0.2376 0.0000
# 2 32.0005 93.0786 34.0184 0.0000 4.8757 0.0000
# 3 30.8705 34.0184 117.5075 0.0000 1.8054 0.0000
# 4 0.0000 0.0000 0.0000 33.9000 0.0000 -8.7954
# 5 -0.2376 4.8757 1.8054 0.0000 30.1051 0.0000
# 6 0.0000 0.0000 0.0000 -8.7954 0.0000 29.9509
#
#
#
# Elastic Compliance Matrix: (Units=1/GPa)
#
#
# Indices 1 2 3 4 5 6 
#
# 1 0.020482 -0.005744 -0.003738 0.000000 0.001316 0.000000
# 2 -0.005744 0.013718 -0.002430 0.000000 -0.002121 0.000000
# 3 -0.003738 -0.002430 0.010199 0.000000 -0.000248 0.000000
# 4 0.000000 0.000000 0.000000 0.031931 0.000000 0.009377
# 5 0.001316 -0.002121 -0.000248 0.000000 0.033586 0.000000
# 6 0.000000 0.000000 0.000000 0.009377 0.000000 0.036142
#
#
# Mechanical properties :
#
#
# Convention : Reuss Voigt Hill
#
# Bulk Modulus (GPa) = 48.60338 51.97926 50.29132
# Shear Modulus (GPa) = 28.29024 30.60087 29.44556
#
# Velocity S-wave (km/s) = 3.77904 3.93034 3.85543
# Velocity P-wave (km/s) = 6.60128 6.84371 6.72359
#
# Compressibility (1/GPa) = 0.02057470
#
# Stress axis : x y z
#
# Youngs Moduli (GPa) = 48.82419 72.89907 98.04632
#
# Poissons Ratio (x) = 0.41876 0.36650
# Poissons Ratio (y) = 0.28047 0.23821
# Poissons Ratio (z) = 0.18250 0.17711
#
# Static dielectric constant tensor:
#      x y z
#    x 3.380110 0.000000 -0.156450 
#    y 0.000000 3.706040 0.000000 
#    z -0.156450 0.000000 3.680410 
# 
# 
# High freq. dielectric constant tensor:
#      x y z
#    x 1.745420 0.000000 -0.022660 
#    y 0.000000 1.781640 0.000000 
#    z -0.022660 0.000000 1.790040 
# 
# From -- ./inp_files/118039.got.cif
#   From: 2010.06.25/outbox.cif.g09.slc.cpg/sg15_60_cif.got.tgz:118039.got - 2010.06.28 07:06:18.
