data_PCOD8151596
_publ_section_title
;
Structure prediction by ZEFSAII (Michael W. Deem and Ramdas Pophale) SiO2 
 PCOD8151596
Probable space group: C 2/C
;
_chemical_formula_sum "Si O2"
_cell_formula_units_Z 64
_cell_length_a 17.966321
_cell_length_b 20.939835
_cell_length_c 11.653660
_cell_angle_alpha 90.000000
_cell_angle_beta 130.463909
_cell_angle_gamma 90.000000
_cell_volume 3335.598473
_symmetry_space_group_name_H-M "C 2/C"
_symmetry_group_IT_number 15
_symmetry_cell_setting 'monoclinic'
loop_
_space_group_symop_operation_xyz
x,y,z
-x,y,1/2-z
-x,-y,-z
x,-y,1/2+z
1/2+x,1/2+y,z
1/2-x,1/2+y,1/2-z
1/2-x,1/2-y,-z
1/2+x,1/2-y,1/2+z
loop_
_atom_site_type_symbol
_atom_site_label
_atom_site_fract_x
_atom_site_fract_y
_atom_site_fract_z
Si Si1 0.793218 0.832138 0.464533
Si Si2 0.743580 0.835797 0.904218
Si Si3 0.101344 0.221187 0.795436
Si Si4 0.308566 0.714908 0.229721
Si Si5 0.952028 0.371644 0.035859
Si Si6 0.084574 0.433434 0.743290
Si Si7 0.634523 0.921787 0.329491
Si Si8 0.539669 0.724153 0.484868
O O1 0.736763 0.785801 0.317941
O O2 0.773897 0.817183 0.577833
O O3 0.745439 0.902807 0.401851
O O4 0.908787 0.824309 0.554367
O O5 0.668948 0.782575 0.872541
O O6 0.766450 0.826873 0.792332
O O7 0.689625 0.902270 0.877061
O O8 0.843643 0.834816 0.078587
O O9 0.077858 0.198159 0.644461
O O10 0.000000 0.241416 0.750000
O O11 0.424765 0.718975 0.357450
O O12 0.880101 0.411247 0.048409
O O13 0.061940 0.372177 0.194421
O O14 0.951829 0.406496 0.913905
O O15 0.921925 0.296933 0.995269
O O16 0.105647 0.508312 0.759679
O O17 0.000000 0.417333 0.750000
#
# Coordination Sequence:
#
# PCOD8151596 Si02
#       8
#     8   8   8   8   8   8   8   8
#     4  11  22  36  57  92 117 155 196 238 301 360
#     4  11  23  37  60  88 118 161 201 240 304 357
#     4  11  22  38  57  87 125 153 199 251 295 354
#     4  11  21  37  60  86 122 152 189 249 304 349
#     4  11  22  40  58  90 120 157 193 239 303 356
#     4  12  24  40  62  86 121 165 197 244 295 354
#     4  11  24  39  60  85 126 159 197 244 285 363
#     4  12  22  37  65  90 122 156 188 251 308 353
#
# _framework density 19.186961
#
# number of rings (size 3 to 8) (size 9 to 14) (size 15 to 20)
#    0.000    0.750    6.250    3.375    1.750    1.000 
#    0.000    0.000    0.000    2.250    0.000    0.000 
#    0.000    0.000    0.000    0.000    0.000    0.000 
#
# Total GULP energy -396663.858011 kJ/mol
# GULP energy per Si atom -12395.745563 kJ/mol
# Density = 1.914329 g / cm^3
# Si number density = 19.186961 Si / 1000 Ang^3
#
#
#
# Elastic Constant Matrix: (Units=GPa)
#
#
# Indices 1 2 3 4 5 6 
#
# 1 115.1010 45.9127 31.6389 0.0000 4.9310 0.0000
# 2 45.9127 60.9595 19.6487 0.0000 -4.5585 0.0000
# 3 31.6389 19.6487 85.1619 0.0000 -3.7377 0.0000
# 4 0.0000 0.0000 0.0000 18.0459 0.0000 6.3036
# 5 4.9310 -4.5585 -3.7377 0.0000 35.1087 0.0000
# 6 0.0000 0.0000 0.0000 6.3036 0.0000 26.7180
#
#
#
# Elastic Compliance Matrix: (Units=1/GPa)
#
#
# Indices 1 2 3 4 5 6 
#
# 1 0.013393 -0.009389 -0.002959 0.000000 -0.003415 0.000000
# 2 -0.009389 0.024427 -0.001960 0.000000 0.004282 0.000000
# 3 -0.002959 -0.001960 0.013364 0.000000 0.001584 0.000000
# 4 0.000000 0.000000 0.000000 0.060391 0.000000 -0.014248
# 5 -0.003415 0.004282 0.001584 0.000000 0.029687 0.000000
# 6 0.000000 0.000000 0.000000 -0.014248 0.000000 0.040790
#
#
# Mechanical properties :
#
#
# Convention : Reuss Voigt Hill
#
# Bulk Modulus (GPa) = 44.31078 50.62475 47.46776
# Shear Modulus (GPa) = 22.91578 26.90931 24.91254
#
# Velocity S-wave (km/s) = 3.45967 3.74903 3.60725
# Velocity P-wave (km/s) = 6.25328 6.72180 6.49177
#
# Compressibility (1/GPa) = 0.02256787
#
# Stress axis : x y z
#
# Youngs Moduli (GPa) = 74.66711 40.93764 74.83056
#
# Poissons Ratio (x) = 0.38434 0.22145
# Poissons Ratio (y) = 0.70101 0.14667
# Poissons Ratio (z) = 0.22097 0.08024
#
# Static dielectric constant tensor:
#      x y z
#    x 3.766330 0.000000 0.027740 
#    y 0.000000 3.238430 0.000000 
#    z 0.027740 0.000000 3.869980 
# 
# 
# High freq. dielectric constant tensor:
#      x y z
#    x 1.758860 0.000000 -0.001140 
#    y 0.000000 1.699370 0.000000 
#    z -0.001140 0.000000 1.761870 
# 
# From -- ./inp_files/107504.got.cif
#   From: 2010.06.25/outbox.cif.g09.slc.cpg/sg15_54_cif.got.tgz:107504.got - 2010.06.28 07:06:18.
