data_PCOD8151357
_publ_section_title
;
Structure prediction by ZEFSAII (Michael W. Deem and Ramdas Pophale) SiO2 
 PCOD8151357
Probable space group: C 2/C
;
_chemical_formula_sum "Si O2"
_cell_formula_units_Z 44
_cell_length_a 9.548257
_cell_length_b 16.408548
_cell_length_c 14.172296
_cell_angle_alpha 90.000000
_cell_angle_beta 61.851444
_cell_angle_gamma 90.000000
_cell_volume 1957.802124
_symmetry_space_group_name_H-M "C 2/C"
_symmetry_group_IT_number 15
_symmetry_cell_setting 'monoclinic'
loop_
_space_group_symop_operation_xyz
x,y,z
-x,y,1/2-z
-x,-y,-z
x,-y,1/2+z
1/2+x,1/2+y,z
1/2-x,1/2+y,1/2-z
1/2-x,1/2-y,-z
1/2+x,1/2-y,1/2+z
loop_
_atom_site_type_symbol
_atom_site_label
_atom_site_fract_x
_atom_site_fract_y
_atom_site_fract_z
Si Si1 0.965458 0.304484 0.106983
Si Si2 0.500000 0.946762 0.750000
Si Si3 0.902095 0.140810 0.366490
Si Si4 0.589986 0.818632 0.871541
Si Si5 0.621016 0.650256 0.785363
Si Si6 0.773046 0.422190 0.407878
O O1 0.794770 0.335318 0.189943
O O2 0.989676 0.206931 0.111738
O O3 0.100097 0.348956 0.126565
O O4 0.971314 0.332305 0.996292
O O5 0.590010 0.893382 0.799064
O O6 0.631882 0.996536 0.649354
O O7 0.764334 0.192942 0.360055
O O8 0.825669 0.073322 0.461549
O O9 0.000000 0.097543 0.250000
O O10 0.538738 0.736034 0.836440
O O11 0.500000 0.607371 0.750000
O O12 0.639756 0.593641 0.870989
#
# Coordination Sequence:
#
# PCOD8151357 Si02
#       6
#     8   4   8   8   8   8
#     4  11  20  40  74 100 131 176 242 282 331 406
#     4  12  26  46  66 100 152 176 224 278 364 410
#     4  11  20  39  74 104 129 175 247 281 326 405
#     4  11  23  39  68 105 134 181 225 284 344 407
#     4  12  22  40  69 106 135 174 236 287 336 401
#     4  11  22  44  71  96 136 189 227 277 342 413
#
# _framework density 22.474181999999999
#
# number of rings (size 3 to 8) (size 9 to 14) (size 15 to 20)
#    0.000    0.727    8.182    1.091    0.000    3.636 
#    3.273    1.818    0.000    0.000    0.000    0.000 
#    0.000    0.000    0.000    0.000    0.000    0.000 
#
# Total GULP energy -272724.527368 kJ/mol
# GULP energy per Si atom -12396.569426 kJ/mol
# Density = 2.242303 g / cm^3
# Si number density = 22.474182 Si / 1000 Ang^3
#
#
#
# Elastic Constant Matrix: (Units=GPa)
#
#
# Indices 1 2 3 4 5 6 
#
# 1 109.2835 10.3266 46.5360 0.0000 17.9132 0.0000
# 2 10.3266 58.3978 23.8183 0.0000 5.8858 0.0000
# 3 46.5360 23.8183 149.0464 0.0000 0.2791 0.0000
# 4 0.0000 0.0000 0.0000 32.3776 0.0000 5.7604
# 5 17.9132 5.8858 0.2791 0.0000 27.6245 0.0000
# 6 0.0000 0.0000 0.0000 5.7604 0.0000 20.9737
#
#
#
# Elastic Compliance Matrix: (Units=1/GPa)
#
#
# Indices 1 2 3 4 5 6 
#
# 1 0.012014 0.000198 -0.003768 0.000000 -0.007795 0.000000
# 2 0.000198 0.018745 -0.003050 0.000000 -0.004091 0.000000
# 3 -0.003768 -0.003050 0.008368 0.000000 0.003009 0.000000
# 4 0.000000 0.000000 0.000000 0.032472 0.000000 -0.008918
# 5 -0.007795 -0.004091 0.003009 0.000000 0.042096 0.000000
# 6 0.000000 0.000000 0.000000 -0.008918 0.000000 0.050128
#
#
# Mechanical properties :
#
#
# Convention : Reuss Voigt Hill
#
# Bulk Modulus (GPa) = 38.62934 53.12105 45.87519
# Shear Modulus (GPa) = 26.92638 31.93161 29.42900
#
# Velocity S-wave (km/s) = 3.46512 3.77346 3.62257
# Velocity P-wave (km/s) = 5.76498 6.53246 6.16069
#
# Compressibility (1/GPa) = 0.02588706
#
# Stress axis : x y z
#
# Youngs Moduli (GPa) = 83.23592 53.34717 119.50924
#
# Poissons Ratio (x) = -0.01056 0.45033
# Poissons Ratio (y) = -0.01648 0.36447
# Poissons Ratio (z) = 0.31364 0.16269
#
# Static dielectric constant tensor:
#      x y z
#    x 4.001640 0.000000 0.115620 
#    y 0.000000 3.564940 0.000000 
#    z 0.115620 0.000000 4.527880 
# 
# 
# High freq. dielectric constant tensor:
#      x y z
#    x 1.878990 0.000000 0.009630 
#    y 0.000000 1.845850 0.000000 
#    z 0.009630 0.000000 1.908530 
# 
# From -- ./inp_files/134727.got.cif
#   From: 2010.06.25/outbox.cif.g09.slc.cpg/sg15_68_cif.got.tgz:134727.got - 2010.06.28 07:06:18.
