data_PCOD8151665
_publ_section_title
;
Structure prediction by ZEFSAII (Michael W. Deem and Ramdas Pophale) SiO2 
 PCOD8151665
Probable space group: C 2/C
;
_chemical_formula_sum "Si O2"
_cell_formula_units_Z 64
_cell_length_a 17.479863
_cell_length_b 19.496667
_cell_length_c 9.804263
_cell_angle_alpha 90.000000
_cell_angle_beta 84.025300
_cell_angle_gamma 90.000000
_cell_volume 3323.133690
_symmetry_space_group_name_H-M "C 2/C"
_symmetry_group_IT_number 15
_symmetry_cell_setting 'monoclinic'
loop_
_space_group_symop_operation_xyz
x,y,z
-x,y,1/2-z
-x,-y,-z
x,-y,1/2+z
1/2+x,1/2+y,z
1/2-x,1/2+y,1/2-z
1/2-x,1/2-y,-z
1/2+x,1/2-y,1/2+z
loop_
_atom_site_type_symbol
_atom_site_label
_atom_site_fract_x
_atom_site_fract_y
_atom_site_fract_z
Si Si1 0.408481 0.119480 0.571644
Si Si2 0.216659 0.807380 0.697415
Si Si3 0.303646 0.327228 0.116073
Si Si4 0.334975 0.909153 0.809606
Si Si5 0.562455 0.729219 0.352400
Si Si6 0.538465 0.731121 0.885457
Si Si7 0.574485 0.117325 0.459016
Si Si8 0.316460 0.936404 0.327072
O O1 0.362517 0.130498 0.439447
O O2 0.417605 0.190611 0.648167
O O3 0.492279 0.087887 0.522078
O O4 0.363794 0.067659 0.677752
O O5 0.257229 0.733579 0.699233
O O6 0.196897 0.823233 0.546024
O O7 0.269792 0.866256 0.747343
O O8 0.140148 0.810704 0.802840
O O9 0.392894 0.323733 0.146421
O O10 0.266023 0.398745 0.172384
O O11 0.405750 0.916113 0.690578
O O12 0.303079 0.983568 0.859144
O O13 0.500000 0.714090 0.250000
O O14 0.528278 0.702470 0.502648
O O15 0.500000 0.749848 0.750000
O O16 0.573642 0.799895 0.946893
O O17 0.638709 0.099495 0.557844
#
# Coordination Sequence:
#
# PCOD8151665 Si02
#       8
#     8   8   8   8   8   8   8   8
#     4  11  24  35  58  90 127 161 205 257 295 363
#     4  11  22  40  65  89 120 165 208 257 305 370
#     4  11  21  40  66  89 119 167 205 252 315 364
#     4  12  25  39  59  88 127 169 208 252 304 360
#     4  11  21  38  63  93 118 156 209 258 312 368
#     4  11  22  38  66  96 123 156 201 266 314 361
#     4  11  21  40  59  83 129 172 203 236 310 376
#     4  12  24  40  60  88 123 171 212 246 302 373
#
# _framework density 19.258929999999999
#
# number of rings (size 3 to 8) (size 9 to 14) (size 15 to 20)
#    0.000    0.750    5.000    5.250    0.000    4.500 
#    0.000    0.000    0.000    1.500    0.000    0.000 
#    0.000    0.000    0.000    0.000    0.000    0.000 
#
# Total GULP energy -396918.124041 kJ/mol
# GULP energy per Si atom -12403.691376 kJ/mol
# Density = 1.921510 g / cm^3
# Si number density = 19.258930 Si / 1000 Ang^3
#
#
#
# Elastic Constant Matrix: (Units=GPa)
#
#
# Indices 1 2 3 4 5 6 
#
# 1 97.5171 36.2434 30.6135 0.0000 -13.5299 0.0000
# 2 36.2434 60.3765 9.7127 0.0000 -5.3559 0.0000
# 3 30.6135 9.7127 97.2037 0.0000 -4.3698 0.0000
# 4 0.0000 0.0000 0.0000 18.6450 0.0000 -2.8387
# 5 -13.5299 -5.3559 -4.3698 0.0000 38.7309 0.0000
# 6 0.0000 0.0000 0.0000 -2.8387 0.0000 13.0213
#
#
#
# Elastic Compliance Matrix: (Units=1/GPa)
#
#
# Indices 1 2 3 4 5 6 
#
# 1 0.014921 -0.008030 -0.003731 0.000000 0.003681 0.000000
# 2 -0.008030 0.021335 0.000406 0.000000 0.000191 0.000000
# 3 -0.003731 0.000406 0.011424 0.000000 0.000042 0.000000
# 4 0.000000 0.000000 0.000000 0.055475 0.000000 0.012094
# 5 0.003681 0.000191 0.000042 0.000000 0.027136 0.000000
# 6 0.000000 0.000000 0.000000 0.012094 0.000000 0.079434
#
#
# Mechanical properties :
#
#
# Convention : Reuss Voigt Hill
#
# Bulk Modulus (GPa) = 40.05038 45.35961 42.70500
# Shear Modulus (GPa) = 20.76755 25.98126 23.37441
#
# Velocity S-wave (km/s) = 3.28736 3.67693 3.48759
# Velocity P-wave (km/s) = 5.93716 6.45213 6.20000
#
# Compressibility (1/GPa) = 0.02496855
#
# Stress axis : x y z
#
# Youngs Moduli (GPa) = 67.01833 46.87160 87.53361
#
# Poissons Ratio (x) = 0.37639 0.32663
# Poissons Ratio (y) = 0.53818 -0.03552
# Poissons Ratio (z) = 0.25008 -0.01902
#
# Static dielectric constant tensor:
#      x y z
#    x 3.693730 0.000000 -0.230090 
#    y 0.000000 3.216870 0.000000 
#    z -0.230090 0.000000 3.713870 
# 
# 
# High freq. dielectric constant tensor:
#      x y z
#    x 1.749060 0.000000 -0.008520 
#    y 0.000000 1.709750 0.000000 
#    z -0.008520 0.000000 1.765980 
# 
# From -- ./inp_files/50250.got.cif
#   From: 2010.06.25/outbox.cif.g09.slc.cpg/sg15_26_cif.got.tgz:50250.got - 2010.06.28 07:06:18.
