data_PCOD8151296
_publ_section_title
;
Structure prediction by ZEFSAII (Michael W. Deem and Ramdas Pophale) SiO2 
 PCOD8151296
Probable space group: C 2/C
;
_chemical_formula_sum "Si O2"
_cell_formula_units_Z 56
_cell_length_a 14.300353
_cell_length_b 22.130213
_cell_length_c 9.948428
_cell_angle_alpha 90.000000
_cell_angle_beta 61.221655
_cell_angle_gamma 90.000000
_cell_volume 2759.517375
_symmetry_space_group_name_H-M "C 2/C"
_symmetry_group_IT_number 15
_symmetry_cell_setting 'monoclinic'
loop_
_space_group_symop_operation_xyz
x,y,z
-x,y,1/2-z
-x,-y,-z
x,-y,1/2+z
1/2+x,1/2+y,z
1/2-x,1/2+y,1/2-z
1/2-x,1/2-y,-z
1/2+x,1/2-y,1/2+z
loop_
_atom_site_type_symbol
_atom_site_label
_atom_site_fract_x
_atom_site_fract_y
_atom_site_fract_z
Si Si1 0.636550 0.618600 0.048745
Si Si2 0.598879 0.806684 0.778505
Si Si3 0.288393 0.627623 0.024536
Si Si4 0.023069 0.697235 0.880240
Si Si5 0.731858 0.315220 0.237555
Si Si6 0.076318 0.010717 0.572720
Si Si7 0.574238 0.671936 0.353685
O O1 0.711754 0.650726 0.890108
O O2 0.653276 0.546748 0.052710
O O3 0.655036 0.655146 0.175767
O O4 0.513881 0.619465 0.082591
O O5 0.500000 0.789714 0.750000
O O6 0.668068 0.860634 0.663000
O O7 0.669959 0.747385 0.758208
O O8 0.554782 0.830855 0.952915
O O9 0.362383 0.676164 0.051147
O O10 0.298270 0.639458 0.860437
O O11 0.334665 0.561544 0.022272
O O12 0.142938 0.694977 0.849731
O O13 0.002174 0.768758 0.880503
O O14 0.000000 0.666490 0.750000
O O15 0.000000 0.028755 0.750000
O O16 0.000000 0.000000 0.500000
#
# Coordination Sequence:
#
# PCOD8151296 Si02
#       7
#     8   8   8   8   8   8   8
#     4  11  22  39  61  95 132 159 217 269 322 380
#     4  12  24  41  62  93 138 175 215 263 320 395
#     4  12  25  38  61  93 133 176 213 258 330 382
#     4  12  24  40  63  95 131 171 214 264 325 393
#     4  12  25  39  65  97 131 174 216 262 327 391
#     4  12  23  40  65  95 128 168 214 270 321 380
#     4  11  20  38  62  94 127 169 208 262 326 386
#
# _framework density 20.293403999999999
#
# number of rings (size 3 to 8) (size 9 to 14) (size 15 to 20)
#    0.000    0.286    8.571    2.143    2.000    1.143 
#    0.000    0.000    0.000    1.714    0.000    0.000 
#    0.000    0.000    0.000    0.000    0.000    0.000 
#
# Total GULP energy -347035.477313 kJ/mol
# GULP energy per Si atom -12394.124190 kJ/mol
# Density = 2.024721 g / cm^3
# Si number density = 20.293404 Si / 1000 Ang^3
#
#
#
# Elastic Constant Matrix: (Units=GPa)
#
#
# Indices 1 2 3 4 5 6 
#
# 1 76.5808 14.6269 13.6764 0.0000 0.5048 0.0000
# 2 14.6269 81.6262 34.7169 0.0000 -17.2628 0.0000
# 3 13.6764 34.7169 128.2383 0.0000 -7.1139 0.0000
# 4 0.0000 0.0000 0.0000 21.8835 0.0000 -5.7800
# 5 0.5048 -17.2628 -7.1139 0.0000 34.8097 0.0000
# 6 0.0000 0.0000 0.0000 -5.7800 0.0000 19.4443
#
#
#
# Elastic Compliance Matrix: (Units=1/GPa)
#
#
# Indices 1 2 3 4 5 6 
#
# 1 0.013688 -0.002405 -0.000896 0.000000 -0.001574 0.000000
# 2 -0.002405 0.015715 -0.003604 0.000000 0.007091 0.000000
# 3 -0.000896 -0.003604 0.008871 0.000000 0.000038 0.000000
# 4 0.000000 0.000000 0.000000 0.049590 0.000000 0.014741
# 5 -0.001574 0.007091 0.000038 0.000000 0.032275 0.000000
# 6 0.000000 0.000000 0.000000 0.014741 0.000000 0.055811
#
#
# Mechanical properties :
#
#
# Convention : Reuss Voigt Hill
#
# Bulk Modulus (GPa) = 40.87698 45.83174 43.35436
# Shear Modulus (GPa) = 25.26336 30.12249 27.69293
#
# Velocity S-wave (km/s) = 3.53215 3.85690 3.69809
# Velocity P-wave (km/s) = 6.06807 6.51674 6.29640
#
# Compressibility (1/GPa) = 0.02446365
#
# Stress axis : x y z
#
# Youngs Moduli (GPa) = 73.05785 63.63499 112.72059
#
# Poissons Ratio (x) = 0.15301 0.10101
# Poissons Ratio (y) = 0.17567 0.40630
# Poissons Ratio (z) = 0.06547 0.22937
#
# Static dielectric constant tensor:
#      x y z
#    x 3.636560 0.000000 0.108300 
#    y 0.000000 3.504700 0.000000 
#    z 0.108300 0.000000 3.999620 
# 
# 
# High freq. dielectric constant tensor:
#      x y z
#    x 1.787860 0.000000 0.015210 
#    y 0.000000 1.761590 0.000000 
#    z 0.015210 0.000000 1.811380 
# 
# From -- ./inp_files/42514.got.cif
#   From: 2010.06.25/outbox.cif.g09.slc.cpg/sg15_22_cif.got.tgz:42514.got - 2010.06.28 07:06:18.
