data_PCOD8151547
_publ_section_title
;
Structure prediction by ZEFSAII (Michael W. Deem and Ramdas Pophale) SiO2 
 PCOD8151547
Probable space group: C 2/C
;
_chemical_formula_sum "Si O2"
_cell_formula_units_Z 48
_cell_length_a 19.506437
_cell_length_b 13.090457
_cell_length_c 23.594591
_cell_angle_alpha 90.000000
_cell_angle_beta 22.376734
_cell_angle_gamma 90.000000
_cell_volume 2293.624339
_symmetry_space_group_name_H-M "C 2/C"
_symmetry_group_IT_number 15
_symmetry_cell_setting 'monoclinic'
loop_
_space_group_symop_operation_xyz
x,y,z
-x,y,1/2-z
-x,-y,-z
x,-y,1/2+z
1/2+x,1/2+y,z
1/2-x,1/2+y,1/2-z
1/2-x,1/2-y,-z
1/2+x,1/2-y,1/2+z
loop_
_atom_site_type_symbol
_atom_site_label
_atom_site_fract_x
_atom_site_fract_y
_atom_site_fract_z
Si Si1 0.239305 0.336287 0.184295
Si Si2 0.523888 0.964957 0.047169
Si Si3 0.892853 0.144766 0.274216
Si Si4 0.477328 0.440744 0.597299
Si Si5 0.991018 0.829699 0.435495
Si Si6 0.331493 0.855186 0.745183
O O1 0.161087 0.262101 0.196160
O O2 0.404781 0.280202 0.089824
O O3 0.096570 0.368112 0.341720
O O4 0.335570 0.435011 0.081266
O O5 0.475778 0.053808 0.129197
O O6 0.727677 0.933312 0.902484
O O7 0.500000 0.000000 0.000000
O O8 0.000000 0.139719 0.250000
O O9 0.019796 0.106773 0.126129
O O10 0.421130 0.559461 0.645153
O O11 0.314422 0.375035 0.693972
O O12 0.779003 0.844706 0.611097
O O13 0.044195 0.747264 0.347674
#
# Coordination Sequence:
#
# PCOD8151547 Si02
#       6
#     8   8   8   8   8   8
#     4  11  21  38  61  88 135 175 211 261 324 394
#     4  12  22  41  64  94 130 173 224 268 328 387
#     4  12  27  41  64  98 137 180 219 268 332 406
#     4  11  21  40  60  92 138 171 215 271 326 384
#     4  11  21  35  61 101 128 163 217 273 333 379
#     4  11  22  35  62  98 126 163 213 282 332 383
#
# _framework density 20.927576999999999
#
# number of rings (size 3 to 8) (size 9 to 14) (size 15 to 20)
#    0.000    0.667    6.667    2.000    7.000    2.667 
#    0.000    0.000    0.000    1.000    0.000    0.000 
#    0.000    0.000    0.000    0.000    0.000    0.000 
#
# Total GULP energy -297322.171120 kJ/mol
# GULP energy per Si atom -12388.423797 kJ/mol
# Density = 2.087994 g / cm^3
# Si number density = 20.927577 Si / 1000 Ang^3
#
#
#
# Elastic Constant Matrix: (Units=GPa)
#
#
# Indices 1 2 3 4 5 6 
#
# 1 67.4791 15.1731 22.3244 0.0318 -10.4156 0.0075
# 2 15.1731 109.7294 41.4246 0.0077 -0.8364 0.0109
# 3 22.3244 41.4246 104.0350 0.0227 13.0513 -0.0018
# 4 0.0318 0.0077 0.0227 36.6067 -0.0077 8.5033
# 5 -10.4156 -0.8364 13.0513 -0.0077 24.5126 0.0033
# 6 0.0075 0.0109 -0.0018 8.5033 0.0033 23.2020
#
#
#
# Elastic Compliance Matrix: (Units=1/GPa)
#
#
# Indices 1 2 3 4 5 6 
#
# 1 0.018193 -0.000556 -0.004983 -0.000009 0.010364 -0.000004
# 2 -0.000556 0.010929 -0.004554 0.000003 0.002561 -0.000007
# 3 -0.004983 -0.004554 0.013694 -0.000007 -0.009564 0.000009
# 4 -0.000009 0.000003 -0.000007 0.029859 0.000011 -0.010943
# 5 0.010364 0.002561 -0.009564 0.000011 0.050379 -0.000016
# 6 -0.000004 -0.000007 0.000009 -0.010943 -0.000016 0.047110
#
#
# Mechanical properties :
#
#
# Convention : Reuss Voigt Hill
#
# Bulk Modulus (GPa) = 44.18618 48.78753 46.48686
# Shear Modulus (GPa) = 25.26627 30.35236 27.80931
#
# Velocity S-wave (km/s) = 3.47842 3.81248 3.64927
# Velocity P-wave (km/s) = 6.10674 6.53783 6.32595
#
# Compressibility (1/GPa) = 0.02263151
#
# Stress axis : x y z
#
# Youngs Moduli (GPa) = 54.96752 91.50148 73.02243
#
# Poissons Ratio (x) = 0.05083 0.36386
# Poissons Ratio (y) = 0.03054 0.33253
# Poissons Ratio (z) = 0.27390 0.41667
#
# Static dielectric constant tensor:
#      x y z
#    x 3.236310 0.000010 0.388130 
#    y 0.000010 3.863560 0.000140 
#    z 0.388130 0.000140 4.081390 
# 
# 
# High freq. dielectric constant tensor:
#      x y z
#    x 1.745080 0.000000 0.038210 
#    y 0.000000 1.833690 0.000020 
#    z 0.038210 0.000020 1.834830 
# 
# From -- ./inp_files/300918.got.cif
#   From: 2010.06.25/outbox.cif.g09.slc.cpg/sg15_151_cif.got.tgz:300918.got - 2010.06.28 07:06:18.
