data_PCOD8151576
_publ_section_title
;
Structure prediction by ZEFSAII (Michael W. Deem and Ramdas Pophale) SiO2 
 PCOD8151576
Probable space group: C 2/C
;
_chemical_formula_sum "Si O2"
_cell_formula_units_Z 56
_cell_length_a 30.378681
_cell_length_b 13.916319
_cell_length_c 12.191648
_cell_angle_alpha 90.000000
_cell_angle_beta 31.237558
_cell_angle_gamma 90.000000
_cell_volume 2672.869965
_symmetry_space_group_name_H-M "C 2/C"
_symmetry_group_IT_number 15
_symmetry_cell_setting 'monoclinic'
loop_
_space_group_symop_operation_xyz
x,y,z
-x,y,1/2-z
-x,-y,-z
x,-y,1/2+z
1/2+x,1/2+y,z
1/2-x,1/2+y,1/2-z
1/2-x,1/2-y,-z
1/2+x,1/2-y,1/2+z
loop_
_atom_site_type_symbol
_atom_site_label
_atom_site_fract_x
_atom_site_fract_y
_atom_site_fract_z
Si Si1 0.076008 0.374294 0.653533
Si Si2 0.896910 0.421396 0.498097
Si Si3 0.821156 0.822061 0.299744
Si Si4 0.975118 0.691107 0.009616
Si Si5 0.239569 0.160585 0.809801
Si Si6 0.741574 0.004725 0.566130
Si Si7 0.835044 0.328208 0.420371
O O1 0.072234 0.485264 0.630294
O O2 0.063027 0.371613 0.810690
O O3 0.163492 0.325590 0.433344
O O4 0.000000 0.320377 0.750000
O O5 0.974913 0.366554 0.393678
O O6 0.844594 0.356223 0.527020
O O7 0.838108 0.441394 0.728536
O O8 0.750000 0.750000 0.500000
O O9 0.916699 0.787105 0.126066
O O10 0.818515 0.826237 0.173169
O O11 0.809453 0.931244 0.368815
O O12 0.074853 0.708053 0.822491
O O13 0.221797 0.056105 0.902220
O O14 0.225358 0.235537 0.939934
O O15 0.708798 0.085370 0.551270
#
# Coordination Sequence:
#
# PCOD8151576 Si02
#       7
#     8   8   8   8   8   8   8
#     4  11  23  38  60  93 127 163 210 264 324 382
#     4  11  21  36  61  92 126 164 200 254 325 383
#     4  12  22  42  64  94 129 172 213 254 325 395
#     4  12  23  39  64  94 134 166 212 265 323 390
#     4  11  23  41  64  90 128 171 214 261 319 388
#     4  11  23  40  63  94 128 168 212 268 317 383
#     4  12  24  39  63  96 130 166 215 269 321 376
#
# _framework density 20.951263000000001
#
# number of rings (size 3 to 8) (size 9 to 14) (size 15 to 20)
#    0.000    0.571    4.286    6.000    0.000    1.714 
#    0.000    0.714    0.000    0.000    0.000    0.000 
#    0.000    0.000    0.000    0.000    0.000    0.000 
#
# Total GULP energy -347068.649530 kJ/mol
# GULP energy per Si atom -12395.308912 kJ/mol
# Density = 2.090358 g / cm^3
# Si number density = 20.951263 Si / 1000 Ang^3
#
#
#
# Elastic Constant Matrix: (Units=GPa)
#
#
# Indices 1 2 3 4 5 6 
#
# 1 83.8525 28.2071 27.8184 0.0000 16.2727 0.0000
# 2 28.2071 76.6979 68.7456 0.0000 -2.6548 0.0000
# 3 27.8184 68.7456 104.7642 0.0000 8.4538 0.0000
# 4 0.0000 0.0000 0.0000 39.8307 0.0000 8.3213
# 5 16.2727 -2.6548 8.4538 0.0000 29.7930 0.0000
# 6 0.0000 0.0000 0.0000 8.3213 0.0000 33.4953
#
#
#
# Elastic Compliance Matrix: (Units=1/GPa)
#
#
# Indices 1 2 3 4 5 6 
#
# 1 0.015847 -0.007527 0.001518 0.000000 -0.009757 0.000000
# 2 -0.007527 0.037732 -0.023911 0.000000 0.014258 0.000000
# 3 0.001518 -0.023911 0.025659 0.000000 -0.010241 0.000000
# 4 0.000000 0.000000 0.000000 0.026481 0.000000 -0.006579
# 5 -0.009757 0.014258 -0.010241 0.000000 0.043071 0.000000
# 6 0.000000 0.000000 0.000000 -0.006579 0.000000 0.031489
#
#
# Mechanical properties :
#
#
# Convention : Reuss Voigt Hill
#
# Bulk Modulus (GPa) = 51.55004 57.20630 54.37817
# Shear Modulus (GPa) = 20.27696 29.99337 25.13516
#
# Velocity S-wave (km/s) = 3.11435 3.78772 3.46742
# Velocity P-wave (km/s) = 6.13110 6.81857 6.48395
#
# Compressibility (1/GPa) = 0.01939863
#
# Stress axis : x y z
#
# Youngs Moduli (GPa) = 63.10152 26.50263 38.97278
#
# Poissons Ratio (x) = 0.19948 -0.05918
# Poissons Ratio (y) = 0.47496 0.93190
# Poissons Ratio (z) = -0.09582 0.63372
#
# Static dielectric constant tensor:
#      x y z
#    x 4.104530 0.000000 0.082540 
#    y 0.000000 3.747400 0.000000 
#    z 0.082540 0.000000 3.858780 
# 
# 
# High freq. dielectric constant tensor:
#      x y z
#    x 1.834060 0.000000 0.021440 
#    y 0.000000 1.804050 0.000000 
#    z 0.021440 0.000000 1.823860 
# 
# From -- ./inp_files/126958.got.cif
#   From: 2010.06.25/outbox.cif.g09.slc.cpg/sg15_64_cif.got.tgz:126958.got - 2010.06.28 07:06:18.
