data_PCOD8151376
_publ_section_title
;
Structure prediction by ZEFSAII (Michael W. Deem and Ramdas Pophale) SiO2 
 PCOD8151376
Probable space group: C 2/C
;
_chemical_formula_sum "Si O2"
_cell_formula_units_Z 56
_cell_length_a 14.259809
_cell_length_b 18.472179
_cell_length_c 18.528057
_cell_angle_alpha 90.000000
_cell_angle_beta 147.587273
_cell_angle_gamma 90.000000
_cell_volume 2616.002267
_symmetry_space_group_name_H-M "C 2/C"
_symmetry_group_IT_number 15
_symmetry_cell_setting 'monoclinic'
loop_
_space_group_symop_operation_xyz
x,y,z
-x,y,1/2-z
-x,-y,-z
x,-y,1/2+z
1/2+x,1/2+y,z
1/2-x,1/2+y,1/2-z
1/2-x,1/2-y,-z
1/2+x,1/2-y,1/2+z
loop_
_atom_site_type_symbol
_atom_site_label
_atom_site_fract_x
_atom_site_fract_y
_atom_site_fract_z
Si Si1 0.791823 0.358648 0.342188
Si Si2 0.647526 0.100065 0.130376
Si Si3 0.337063 0.977769 0.254606
Si Si4 0.180188 0.889019 0.036553
Si Si5 0.500000 0.407278 0.250000
Si Si6 0.101261 0.783053 0.671961
Si Si7 0.264798 0.027271 0.462018
Si Si8 0.500000 0.784923 0.250000
O O1 0.780108 0.410851 0.266912
O O2 0.604514 0.356126 0.261230
O O3 0.849130 0.279993 0.351396
O O4 0.937395 0.392208 0.491220
O O5 0.722583 0.180931 0.182420
O O6 0.714825 0.055726 0.105483
O O7 0.712139 0.054384 0.241571
O O8 0.220150 0.963266 0.107325
O O9 0.545935 0.981210 0.376517
O O10 0.333263 0.833902 0.153117
O O11 0.163967 0.911820 0.942426
O O12 0.003553 0.845146 0.940522
O O13 0.645587 0.455600 0.385339
O O14 0.983540 0.759741 0.664535
#
# Coordination Sequence:
#
# PCOD8151376 Si02
#       8
#     8   8   8   8   4   8   8   4
#     4  11  23  43  67  93 133 175 231 271 325 391
#     4  11  22  44  68  93 134 177 221 274 330 395
#     4  11  21  43  66  94 135 173 211 279 336 380
#     4  12  23  38  66 101 138 167 209 279 341 396
#     4  12  22  41  72  93 120 184 234 274 316 393
#     4  12  25  39  65 100 136 177 219 266 336 407
#     4  11  20  40  66 103 127 165 222 271 334 399
#     4  12  20  41  62  97 140 174 208 266 344 407
#
# _framework density 21.406708999999999
#
# number of rings (size 3 to 8) (size 9 to 14) (size 15 to 20)
#    0.000    0.571    5.714    4.714    0.000    0.571 
#    0.000    0.714    3.143    0.000    0.000    0.000 
#    0.000    0.000    0.000    0.000    0.000    0.000 
#
# Total GULP energy -347119.822393 kJ/mol
# GULP energy per Si atom -12397.136514 kJ/mol
# Density = 2.135799 g / cm^3
# Si number density = 21.406709 Si / 1000 Ang^3
#
#
#
# Elastic Constant Matrix: (Units=GPa)
#
#
# Indices 1 2 3 4 5 6 
#
# 1 109.1069 52.6151 47.3356 0.0001 16.7250 0.0006
# 2 52.6151 91.1525 24.9358 -0.0135 2.9292 0.0091
# 3 47.3356 24.9358 74.8362 -0.0312 5.6159 0.0189
# 4 0.0001 -0.0135 -0.0312 64.7539 -0.0038 -15.6971
# 5 16.7250 2.9292 5.6159 -0.0038 25.4111 0.0024
# 6 0.0006 0.0091 0.0189 -15.6971 0.0024 42.0548
#
#
#
# Elastic Compliance Matrix: (Units=1/GPa)
#
#
# Indices 1 2 3 4 5 6 
#
# 1 0.017755 -0.007781 -0.007960 -0.000005 -0.009030 0.000004
# 2 -0.007781 0.015487 -0.000497 0.000003 0.003446 -0.000002
# 3 -0.007960 -0.000497 0.018472 0.000008 0.001214 -0.000005
# 4 -0.000005 0.000003 0.000008 0.016979 0.000003 0.006338
# 5 -0.009030 0.003446 0.001214 0.000003 0.044631 -0.000002
# 6 0.000004 -0.000002 -0.000005 0.006338 -0.000002 0.026144
#
#
# Mechanical properties :
#
#
# Convention : Reuss Voigt Hill
#
# Bulk Modulus (GPa) = 51.98200 58.31874 55.15037
# Shear Modulus (GPa) = 28.03340 36.45791 32.24565
#
# Velocity S-wave (km/s) = 3.62271 4.13135 3.88536
# Velocity P-wave (km/s) = 6.46796 7.07529 6.77843
#
# Compressibility (1/GPa) = 0.01923743
#
# Stress axis : x y z
#
# Youngs Moduli (GPa) = 56.32122 64.56922 54.13522
#
# Poissons Ratio (x) = 0.50241 0.43094
# Poissons Ratio (y) = 0.43823 0.02693
# Poissons Ratio (z) = 0.44834 0.03212
#
# Static dielectric constant tensor:
#      x y z
#    x 3.835580 0.000000 0.008840 
#    y 0.000000 3.832560 -0.000010 
#    z 0.008840 -0.000010 4.260040 
# 
# 
# High freq. dielectric constant tensor:
#      x y z
#    x 1.824920 0.000000 0.005040 
#    y 0.000000 1.833060 0.000000 
#    z 0.005040 0.000000 1.843320 
# 
# From -- ./inp_files/245219.got.cif
#   From: 2010.06.25/outbox.cif.g09.slc.cpg/sg15_123_cif.got.tgz:245219.got - 2010.06.28 07:06:18.
