data_PCOD8151844
_publ_section_title
;
Structure prediction by ZEFSAII (Michael W. Deem and Ramdas Pophale) SiO2 
 PCOD8151844
Probable space group: C 2/C
;
_chemical_formula_sum "Si O2"
_cell_formula_units_Z 48
_cell_length_a 26.484177
_cell_length_b 18.909058
_cell_length_c 8.786160
_cell_angle_alpha 90.000000
_cell_angle_beta 148.163696
_cell_angle_gamma 90.000000
_cell_volume 2320.989491
_symmetry_space_group_name_H-M "C 2/C"
_symmetry_group_IT_number 15
_symmetry_cell_setting 'monoclinic'
loop_
_space_group_symop_operation_xyz
x,y,z
-x,y,1/2-z
-x,-y,-z
x,-y,1/2+z
1/2+x,1/2+y,z
1/2-x,1/2+y,1/2-z
1/2-x,1/2-y,-z
1/2+x,1/2-y,1/2+z
loop_
_atom_site_type_symbol
_atom_site_label
_atom_site_fract_x
_atom_site_fract_y
_atom_site_fract_z
Si Si1 0.324930 0.088751 0.318406
Si Si2 0.500000 0.819357 0.250000
Si Si3 0.000000 0.356158 0.750000
Si Si4 0.697532 0.692980 0.155642
Si Si5 0.999477 0.762956 0.032265
Si Si6 0.303901 0.329867 0.503478
Si Si7 0.326718 0.062008 0.965722
O O1 0.417311 0.132316 0.608899
O O2 0.233080 0.137416 0.119787
O O3 0.321696 0.019942 0.414412
O O4 0.333703 0.069626 0.164271
O O5 0.544844 0.769351 0.495143
O O6 0.952283 0.303048 0.503872
O O7 0.918384 0.403551 0.617701
O O8 0.723552 0.665161 0.389716
O O9 0.747824 0.769048 0.266240
O O10 0.583176 0.700219 0.843715
O O11 0.917740 0.819202 0.779426
O O12 0.271964 0.403074 0.344829
#
# Coordination Sequence:
#
# PCOD8151844 Si02
#       7
#     8   4   4   8   8   8   8
#     4  12  27  43  62  96 133 175 217 266 325 389
#     4  12  25  38  66  98 133 168 212 278 321 386
#     4  12  21  42  66  96 131 164 214 266 331 384
#     4  11  22  41  67  95 132 168 218 266 318 389
#     4  12  23  40  68 103 129 167 218 269 325 380
#     4  11  21  41  68  94 129 173 212 268 323 381
#     4  12  27  42  65  93 134 174 217 266 325 391
#
# _framework density 20.680834000000001
#
# number of rings (size 3 to 8) (size 9 to 14) (size 15 to 20)
#    0.000    0.333    6.667    2.500    4.667    2.667 
#    0.000    0.833    0.000    0.000    0.000    0.000 
#    0.000    0.000    0.000    0.000    0.000    0.000 
#
# Total GULP energy -297662.671538 kJ/mol
# GULP energy per Si atom -12402.611314 kJ/mol
# Density = 2.063376 g / cm^3
# Si number density = 20.680834 Si / 1000 Ang^3
#
#
#
# Elastic Constant Matrix: (Units=GPa)
#
#
# Indices 1 2 3 4 5 6 
#
# 1 102.7850 50.8975 31.6815 0.0000 -3.3917 0.0000
# 2 50.8975 77.6553 23.7455 0.0000 5.2133 0.0000
# 3 31.6815 23.7455 100.5592 0.0000 12.7054 0.0000
# 4 0.0000 0.0000 0.0000 25.8960 0.0000 -2.3514
# 5 -3.3917 5.2133 12.7054 0.0000 44.2272 0.0000
# 6 0.0000 0.0000 0.0000 -2.3514 0.0000 39.0948
#
#
#
# Elastic Compliance Matrix: (Units=1/GPa)
#
#
# Indices 1 2 3 4 5 6 
#
# 1 0.015420 -0.009389 -0.003041 0.000000 0.003163 0.000000
# 2 -0.009389 0.019619 -0.001340 0.000000 -0.002648 0.000000
# 3 -0.003041 -0.001340 0.011651 0.000000 -0.003422 0.000000
# 4 0.000000 0.000000 0.000000 0.038828 0.000000 0.002335
# 5 0.003163 -0.002648 -0.003422 0.000000 0.024148 0.000000
# 6 0.000000 0.000000 0.000000 0.002335 0.000000 0.025719
#
#
# Mechanical properties :
#
#
# Convention : Reuss Voigt Hill
#
# Bulk Modulus (GPa) = 52.21867 54.84984 53.53426
# Shear Modulus (GPa) = 29.53173 33.48858 31.51016
#
# Velocity S-wave (km/s) = 3.78296 4.02842 3.90762
# Velocity P-wave (km/s) = 6.66225 6.94386 6.80452
#
# Compressibility (1/GPa) = 0.01915024
#
# Stress axis : x y z
#
# Youngs Moduli (GPa) = 64.85052 50.97105 85.82820
#
# Poissons Ratio (x) = 0.47858 0.26097
# Poissons Ratio (y) = 0.60890 0.11501
# Poissons Ratio (z) = 0.19719 0.06830
#
# Static dielectric constant tensor:
#      x y z
#    x 3.835520 0.000000 -0.163170 
#    y 0.000000 3.693320 0.000000 
#    z -0.163170 0.000000 3.708890 
# 
# 
# High freq. dielectric constant tensor:
#      x y z
#    x 1.815940 0.000000 -0.012710 
#    y 0.000000 1.790980 0.000000 
#    z -0.012710 0.000000 1.813580 
# 
# From -- ./inp_files/40972.got.cif
#   From: 2010.06.25/outbox.cif.g09.slc.cpg/sg15_21_cif.got.tgz:40972.got - 2010.06.28 07:06:18.
