data_PCOD8151478
_publ_section_title
;
Structure prediction by ZEFSAII (Michael W. Deem and Ramdas Pophale) SiO2 
 PCOD8151478
Probable space group: C 2/C
;
_chemical_formula_sum "Si O2"
_cell_formula_units_Z 60
_cell_length_a 8.468003
_cell_length_b 21.852321
_cell_length_c 17.659977
_cell_angle_alpha 90.000000
_cell_angle_beta 62.737428
_cell_angle_gamma 90.000000
_cell_volume 2904.890393
_symmetry_space_group_name_H-M "C 2/C"
_symmetry_group_IT_number 15
_symmetry_cell_setting 'monoclinic'
loop_
_space_group_symop_operation_xyz
x,y,z
-x,y,1/2-z
-x,-y,-z
x,-y,1/2+z
1/2+x,1/2+y,z
1/2-x,1/2+y,1/2-z
1/2-x,1/2-y,-z
1/2+x,1/2-y,1/2+z
loop_
_atom_site_type_symbol
_atom_site_label
_atom_site_fract_x
_atom_site_fract_y
_atom_site_fract_z
Si Si1 0.255157 0.183664 0.340023
Si Si2 0.096572 0.664194 0.031001
Si Si3 0.984248 0.863064 0.396388
Si Si4 0.500000 0.709918 0.750000
Si Si5 0.075109 0.219679 0.003584
Si Si6 0.133306 0.452216 0.931600
Si Si7 0.318051 0.937609 0.752839
Si Si8 0.005350 0.003104 0.088167
O O1 0.362362 0.157152 0.388937
O O2 0.327905 0.249426 0.302589
O O3 0.288135 0.136159 0.263915
O O4 0.046601 0.194158 0.401607
O O5 0.277574 0.653684 0.946866
O O6 0.028839 0.731535 0.025462
O O7 0.948351 0.615118 0.039024
O O8 0.062103 0.832086 0.305087
O O9 0.103030 0.838553 0.441502
O O10 0.994076 0.934847 0.380889
O O11 0.250000 0.250000 0.000000
O O12 0.175718 0.463307 0.833620
O O13 0.321441 0.457205 0.930897
O O14 0.000000 0.500000 0.000000
O O15 0.500000 0.959111 0.750000
O O16 0.162394 0.964907 0.837976
O O17 0.000000 0.000000 0.000000
#
# Coordination Sequence:
#
# PCOD8151478 Si02
#       8
#     8   8   8   4   8   8   8   8
#     4  11  21  44  69  99 136 180 230 281 355 424
#     4  11  20  43  69  97 128 181 233 273 346 433
#     4  11  24  42  69  96 132 182 224 275 350 426
#     4  12  20  40  68  94 124 170 230 274 336 420
#     4  11  24  42  67 104 136 174 230 289 353 418
#     4  12  25  43  70 100 136 185 239 290 351 423
#     4  12  25  45  70 103 140 185 241 294 351 429
#     4  12  27  47  67 102 145 186 235 293 359 424
#
# _framework density 20.654824999999999
#
# number of rings (size 3 to 8) (size 9 to 14) (size 15 to 20)
#    0.000    0.533    6.000    3.600    5.600    0.000 
#    0.000    0.667    0.000    0.000    0.000    0.000 
#    0.000    0.000    0.000    0.000    0.000    0.000 
#
# Total GULP energy -371993.264435 kJ/mol
# GULP energy per Si atom -12399.775481 kJ/mol
# Density = 2.060781 g / cm^3
# Si number density = 20.654825 Si / 1000 Ang^3
#
#
#
# Elastic Constant Matrix: (Units=GPa)
#
#
# Indices 1 2 3 4 5 6 
#
# 1 135.1310 25.4650 42.6250 0.0000 -9.3425 0.0000
# 2 25.4650 92.7845 22.1511 0.0000 -1.3056 0.0000
# 3 42.6250 22.1511 127.4388 0.0000 3.8978 0.0000
# 4 0.0000 0.0000 0.0000 43.2004 0.0000 -2.7026
# 5 -9.3425 -1.3056 3.8978 0.0000 29.3536 0.0000
# 6 0.0000 0.0000 0.0000 -2.7026 0.0000 40.5761
#
#
#
# Elastic Compliance Matrix: (Units=1/GPa)
#
#
# Indices 1 2 3 4 5 6 
#
# 1 0.008802 -0.001718 -0.002740 0.000000 0.003089 0.000000
# 2 -0.001718 0.011597 -0.001446 0.000000 0.000161 0.000000
# 3 -0.002740 -0.001446 0.009080 0.000000 -0.002142 0.000000
# 4 0.000000 0.000000 0.000000 0.023245 0.000000 0.001548
# 5 0.003089 0.000161 -0.002142 0.000000 0.035342 0.000000
# 6 0.000000 0.000000 0.000000 0.001548 0.000000 0.024748
#
#
# Mechanical properties :
#
#
# Convention : Reuss Voigt Hill
#
# Bulk Modulus (GPa) = 56.59041 59.53737 58.06389
# Shear Modulus (GPa) = 38.31074 40.30023 39.30549
#
# Velocity S-wave (km/s) = 4.31142 4.42195 4.36704
# Velocity P-wave (km/s) = 7.22787 7.41344 7.32124
#
# Compressibility (1/GPa) = 0.01767084
#
# Stress axis : x y z
#
# Youngs Moduli (GPa) = 113.61346 86.23160 110.13035
#
# Poissons Ratio (x) = 0.14816 0.30174
# Poissons Ratio (y) = 0.19520 0.15924
# Poissons Ratio (z) = 0.31128 0.12469
#
# Static dielectric constant tensor:
#      x y z
#    x 3.611710 0.000000 -0.490650 
#    y 0.000000 4.203290 0.000000 
#    z -0.490650 0.000000 2.483680 
# 
# 
# High freq. dielectric constant tensor:
#      x y z
#    x 1.795420 0.000000 -0.007570 
#    y 0.000000 1.820940 0.000000 
#    z -0.007570 0.000000 1.821100 
# 
# From -- ./inp_files/192535.got.cif
#   From: 2010.06.25/outbox.cif.g09.slc.cpg/sg15_97_cif.got.tgz:192535.got - 2010.06.28 07:06:18.
