data_PCOD8151714
_publ_section_title
;
Structure prediction by ZEFSAII (Michael W. Deem and Ramdas Pophale) SiO2 
 PCOD8151714
Probable space group: C 2/C
;
_chemical_formula_sum "Si O2"
_cell_formula_units_Z 44
_cell_length_a 11.083561
_cell_length_b 19.990527
_cell_length_c 13.675481
_cell_angle_alpha 90.000000
_cell_angle_beta 139.280556
_cell_angle_gamma 90.000000
_cell_volume 1976.653731
_symmetry_space_group_name_H-M "C 2/C"
_symmetry_group_IT_number 15
_symmetry_cell_setting 'monoclinic'
loop_
_space_group_symop_operation_xyz
x,y,z
-x,y,1/2-z
-x,-y,-z
x,-y,1/2+z
1/2+x,1/2+y,z
1/2-x,1/2+y,1/2-z
1/2-x,1/2-y,-z
1/2+x,1/2-y,1/2+z
loop_
_atom_site_type_symbol
_atom_site_label
_atom_site_fract_x
_atom_site_fract_y
_atom_site_fract_z
Si Si1 0.769808 0.595011 0.800843
Si Si2 0.275678 0.674288 0.918145
Si Si3 0.820211 0.802022 0.758247
Si Si4 0.203833 0.222101 0.866781
Si Si5 0.328042 0.092449 0.473216
Si Si6 0.000000 0.997484 0.250000
O O1 0.694775 0.623617 0.653006
O O2 0.819638 0.657061 0.904853
O O3 0.606101 0.546634 0.734778
O O4 0.969404 0.557493 0.914799
O O5 0.197769 0.744932 0.834850
O O6 0.467285 0.684747 0.091426
O O7 0.138959 0.643394 0.915736
O O8 0.718320 0.781266 0.796036
O O9 0.728936 0.869684 0.661345
O O10 0.000000 0.193444 0.750000
O O11 0.250000 0.250000 0.000000
O O12 0.163561 0.040989 0.400827
#
# Coordination Sequence:
#
# PCOD8151714 Si02
#       6
#     8   8   8   8   8   4
#     4  11  25  44  71  98 135 185 228 284 342 408
#     4  11  23  43  68 106 142 172 227 291 355 410
#     4  11  22  39  69 106 139 176 226 289 353 409
#     4  11  21  39  63  99 137 174 219 277 343 402
#     4  12  24  46  67 102 136 182 234 283 341 409
#     4  12  26  48  70  94 146 184 242 272 332 428
#
# _framework density 22.259841999999999
#
# number of rings (size 3 to 8) (size 9 to 14) (size 15 to 20)
#    0.000    0.727    2.727    7.091    0.000    3.636 
#    0.000    0.000    0.000    0.000    0.000    0.000 
#    0.000    0.000    0.000    0.000    0.000    0.000 
#
# Total GULP energy -272759.054876 kJ/mol
# GULP energy per Si atom -12398.138858 kJ/mol
# Density = 2.220918 g / cm^3
# Si number density = 22.259842 Si / 1000 Ang^3
#
#
#
# Elastic Constant Matrix: (Units=GPa)
#
#
# Indices 1 2 3 4 5 6 
#
# 1 123.0906 40.1198 46.6515 0.0000 12.6593 0.0000
# 2 40.1198 85.6481 44.1047 0.0000 -0.0962 0.0000
# 3 46.6515 44.1047 116.6103 0.0000 10.3508 0.0000
# 4 0.0000 0.0000 0.0000 28.0694 0.0000 3.0249
# 5 12.6593 -0.0962 10.3508 0.0000 53.6818 0.0000
# 6 0.0000 0.0000 0.0000 3.0249 0.0000 38.1364
#
#
#
# Elastic Compliance Matrix: (Units=1/GPa)
#
#
# Indices 1 2 3 4 5 6 
#
# 1 0.010497 -0.003535 -0.002688 0.000000 -0.001963 0.000000
# 2 -0.003535 0.015755 -0.004702 0.000000 0.001768 0.000000
# 3 -0.002688 -0.004702 0.011572 0.000000 -0.001606 0.000000
# 4 0.000000 0.000000 0.000000 0.035933 0.000000 -0.002850
# 5 -0.001963 0.001768 -0.001606 0.000000 0.019404 0.000000
# 6 0.000000 0.000000 0.000000 -0.002850 0.000000 0.026448
#
#
# Mechanical properties :
#
#
# Convention : Reuss Voigt Hill
#
# Bulk Modulus (GPa) = 62.60158 65.23345 63.91751
# Shear Modulus (GPa) = 34.06405 36.94240 35.50322
#
# Velocity S-wave (km/s) = 3.91614 4.07824 3.99801
# Velocity P-wave (km/s) = 6.97369 7.17949 7.07734
#
# Compressibility (1/GPa) = 0.01597404
#
# Stress axis : x y z
#
# Youngs Moduli (GPa) = 95.26503 63.47349 86.41728
#
# Poissons Ratio (x) = 0.22438 0.23230
# Poissons Ratio (y) = 0.33676 0.40629
# Poissons Ratio (z) = 0.25609 0.29842
#
# Static dielectric constant tensor:
#      x y z
#    x 4.345950 0.000000 0.072210 
#    y 0.000000 3.967300 0.000000 
#    z 0.072210 0.000000 4.037740 
# 
# 
# High freq. dielectric constant tensor:
#      x y z
#    x 1.894920 0.000000 0.009650 
#    y 0.000000 1.857910 0.000000 
#    z 0.009650 0.000000 1.885200 
# 
# From -- ./inp_files/30930.got.cif
#   From: 2010.06.25/outbox.cif.g09.slc.cpg/sg15_16_cif.got.tgz:30930.got - 2010.06.28 07:06:18.
