data_PCOD8151954
_publ_section_title
;
Structure prediction by ZEFSAII (Michael W. Deem and Ramdas Pophale) SiO2 
 PCOD8151954
Probable space group: C 2/C
;
_chemical_formula_sum "Si O2"
_cell_formula_units_Z 32
_cell_length_a 6.980003
_cell_length_b 18.440787
_cell_length_c 12.794255
_cell_angle_alpha 90.000000
_cell_angle_beta 57.180882
_cell_angle_gamma 90.000000
_cell_volume 1383.976675
_symmetry_space_group_name_H-M "C 2/C"
_symmetry_group_IT_number 15
_symmetry_cell_setting 'monoclinic'
loop_
_space_group_symop_operation_xyz
x,y,z
-x,y,1/2-z
-x,-y,-z
x,-y,1/2+z
1/2+x,1/2+y,z
1/2-x,1/2+y,1/2-z
1/2-x,1/2-y,-z
1/2+x,1/2-y,1/2+z
loop_
_atom_site_type_symbol
_atom_site_label
_atom_site_fract_x
_atom_site_fract_y
_atom_site_fract_z
Si Si1 0.897692 0.579009 0.036896
Si Si2 0.240300 0.087646 0.860414
Si Si3 0.809504 0.833608 0.486208
Si Si4 0.255849 0.432429 0.696862
O O1 0.115252 0.631318 0.971876
O O2 0.729558 0.591179 0.185814
O O3 0.000000 0.500000 0.000000
O O4 0.731149 0.593405 0.989369
O O5 0.500000 0.104095 0.750000
O O6 0.124930 0.010570 0.859898
O O7 0.064854 0.148749 0.867141
O O8 0.750000 0.750000 0.500000
O O9 0.810879 0.865945 0.603659
O O10 0.000000 0.457584 0.750000
#
# Coordination Sequence:
#
# PCOD8151954 Si02
#       4
#     8   8   8   8
#     4  11  21  43  69  99 139 177 231 291 341 399
#     4  11  22  43  70 103 134 180 240 281 341 419
#     4  11  25  44  68  99 143 180 228 287 350 416
#     4   9  19  40  66 103 133 174 232 285 336 407
#
# _framework density 23.121776000000001
#
# number of rings (size 3 to 8) (size 9 to 14) (size 15 to 20)
#    0.000    1.500    7.500    0.750    0.000    3.000 
#   13.500    0.000    0.000    0.000    0.000    0.000 
#    0.000    0.000    0.000    0.000    0.000    0.000 
#
# Total GULP energy -198244.644938 kJ/mol
# GULP energy per Si atom -12390.290309 kJ/mol
# Density = 2.306915 g / cm^3
# Si number density = 23.121776 Si / 1000 Ang^3
#
#
#
# Elastic Constant Matrix: (Units=GPa)
#
#
# Indices 1 2 3 4 5 6 
#
# 1 102.3073 68.6188 30.9869 0.0000 -12.4136 0.0000
# 2 68.6188 193.4885 30.7997 0.0000 -22.5137 0.0000
# 3 30.9869 30.7997 84.7359 0.0000 7.3875 0.0000
# 4 0.0000 0.0000 0.0000 17.2058 0.0000 -6.2652
# 5 -12.4136 -22.5137 7.3875 0.0000 41.5880 0.0000
# 6 0.0000 0.0000 0.0000 -6.2652 0.0000 35.1163
#
#
#
# Elastic Compliance Matrix: (Units=1/GPa)
#
#
# Indices 1 2 3 4 5 6 
#
# 1 0.013976 -0.004027 -0.003881 0.000000 0.002681 0.000000
# 2 -0.004027 0.007156 -0.001383 0.000000 0.002918 0.000000
# 3 -0.003881 -0.001383 0.014108 0.000000 -0.004413 0.000000
# 4 0.000000 0.000000 0.000000 0.062158 0.000000 0.011090
# 5 0.002681 0.002918 -0.004413 0.000000 0.027209 0.000000
# 6 0.000000 0.000000 0.000000 0.011090 0.000000 0.030455
#
#
# Mechanical properties :
#
#
# Convention : Reuss Voigt Hill
#
# Bulk Modulus (GPa) = 60.02833 71.26027 65.64430
# Shear Modulus (GPa) = 27.90231 35.45710 31.67970
#
# Velocity S-wave (km/s) = 3.47761 3.92023 3.70553
# Velocity P-wave (km/s) = 6.49178 7.16781 6.83815
#
# Compressibility (1/GPa) = 0.01665880
#
# Stress axis : x y z
#
# Youngs Moduli (GPa) = 71.55095 139.74484 70.88176
#
# Poissons Ratio (x) = 0.56271 0.27509
# Poissons Ratio (y) = 0.28811 0.09802
# Poissons Ratio (z) = 0.27769 0.19325
#
# Static dielectric constant tensor:
#      x y z
#    x 3.029510 0.000000 -2.692390 
#    y 0.000000 3.515930 0.000000 
#    z -2.692390 0.000000 -0.914370 
# 
# 
# High freq. dielectric constant tensor:
#      x y z
#    x 1.933460 0.000000 -0.009810 
#    y 0.000000 1.873440 0.000000 
#    z -0.009810 0.000000 1.920100 
# 
# From -- ./inp_files/133434.got.cif
#   From: 2010.06.25/outbox.cif.g09.slc.cpg/sg15_67_cif.got.tgz:133434.got - 2010.06.28 07:06:18.
