data_PCOD8151461
_publ_section_title
;
Structure prediction by ZEFSAII (Michael W. Deem and Ramdas Pophale) SiO2 
 PCOD8151461
Probable space group: C 2/C
;
_chemical_formula_sum "Si O2"
_cell_formula_units_Z 40
_cell_length_a 13.642946
_cell_length_b 18.336928
_cell_length_c 10.048036
_cell_angle_alpha 90.000000
_cell_angle_beta 45.797894
_cell_angle_gamma 90.000000
_cell_volume 1802.044057
_symmetry_space_group_name_H-M "C 2/C"
_symmetry_group_IT_number 15
_symmetry_cell_setting 'monoclinic'
loop_
_space_group_symop_operation_xyz
x,y,z
-x,y,1/2-z
-x,-y,-z
x,-y,1/2+z
1/2+x,1/2+y,z
1/2-x,1/2+y,1/2-z
1/2-x,1/2-y,-z
1/2+x,1/2-y,1/2+z
loop_
_atom_site_type_symbol
_atom_site_label
_atom_site_fract_x
_atom_site_fract_y
_atom_site_fract_z
Si Si1 0.224457 0.548246 0.091732
Si Si2 0.000000 0.662099 0.250000
Si Si3 0.946735 0.223216 0.014426
Si Si4 0.816274 0.710658 0.065052
Si Si5 0.124820 0.455824 0.953922
Si Si6 0.000000 0.107751 0.750000
O O1 0.244633 0.529234 0.229835
O O2 0.125745 0.618302 0.192969
O O3 0.147922 0.488223 0.077338
O O4 0.366323 0.558065 0.881450
O O5 0.067819 0.707974 0.068335
O O6 0.057950 0.236158 0.022892
O O7 0.003018 0.154567 0.880609
O O8 0.797433 0.207187 0.212515
O O9 0.883957 0.629734 0.995070
O O10 0.750000 0.750000 0.000000
O O11 0.000000 0.500000 0.000000
#
# Coordination Sequence:
#
# PCOD8151461 Si02
#       6
#     8   4   8   8   8   4
#     4  12  24  44  70 103 141 189 247 296 362 440
#     4  11  20  42  76 102 133 192 248 294 353 446
#     4  11  22  43  72 103 143 182 240 296 371 444
#     4  12  26  45  70 109 146 186 236 306 377 435
#     4  12  25  47  72 103 145 196 248 294 364 455
#     4  11  24  42  70 100 137 184 232 308 363 432
#
# _framework density 22.197015
#
# number of rings (size 3 to 8) (size 9 to 14) (size 15 to 20)
#    0.000    0.400    6.000    1.800    0.000   10.400 
#    3.600    0.000    0.000    0.000    0.000    0.000 
#    0.000    0.000    0.000    0.000    0.000    0.000 
#
# Total GULP energy -247765.434790 kJ/mol
# GULP energy per Si atom -12388.271739 kJ/mol
# Density = 2.214649 g / cm^3
# Si number density = 22.197015 Si / 1000 Ang^3
#
#
#
# Elastic Constant Matrix: (Units=GPa)
#
#
# Indices 1 2 3 4 5 6 
#
# 1 88.6490 49.7355 -4.5696 -0.0002 9.1165 0.0006
# 2 49.7355 102.7729 27.2510 -0.0001 -0.9884 0.0001
# 3 -4.5696 27.2510 90.5090 0.0000 -8.3100 0.0008
# 4 -0.0002 -0.0001 0.0000 24.1157 0.0002 -6.7590
# 5 9.1165 -0.9884 -8.3100 0.0002 48.3450 -0.0009
# 6 0.0006 0.0001 0.0008 -6.7590 -0.0009 28.9251
#
#
#
# Elastic Compliance Matrix: (Units=1/GPa)
#
#
# Indices 1 2 3 4 5 6 
#
# 1 0.016810 -0.009041 0.003315 0.000000 -0.002785 0.000000
# 2 -0.009041 0.015442 -0.004999 0.000000 0.001161 0.000000
# 3 0.003315 -0.004999 0.012857 0.000000 0.001483 0.000000
# 4 0.000000 0.000000 0.000000 0.044373 0.000000 0.010369
# 5 -0.002785 0.001161 0.001483 0.000000 0.021488 0.000001
# 6 0.000000 0.000000 0.000000 0.010369 0.000001 0.036995
#
#
# Mechanical properties :
#
#
# Convention : Reuss Voigt Hill
#
# Bulk Modulus (GPa) = 42.26629 47.41829 44.84229
# Shear Modulus (GPa) = 28.20052 34.24476 31.22264
#
# Velocity S-wave (km/s) = 3.56822 3.93207 3.75455
# Velocity P-wave (km/s) = 6.00492 6.48257 6.24831
#
# Compressibility (1/GPa) = 0.02365952
#
# Stress axis : x y z
#
# Youngs Moduli (GPa) = 59.48873 64.75822 77.77668
#
# Poissons Ratio (x) = 0.58546 -0.25783
# Poissons Ratio (y) = 0.53782 0.38882
# Poissons Ratio (z) = -0.19721 0.32374
#
# Static dielectric constant tensor:
#      x y z
#    x 4.107670 0.000000 0.129330 
#    y 0.000000 4.122750 0.000000 
#    z 0.129330 0.000000 4.195800 
# 
# 
# High freq. dielectric constant tensor:
#      x y z
#    x 1.874410 0.000000 0.013380 
#    y 0.000000 1.870880 0.000000 
#    z 0.013380 0.000000 1.889190 
# 
# From -- ./inp_files/98124.got.cif
#   From: 2010.06.25/outbox.cif.g09.slc.cpg/sg15_50_cif.got.tgz:98124.got - 2010.06.28 07:06:18.
