data_PCOD8151184
_publ_section_title
;
Structure prediction by ZEFSAII (Michael W. Deem and Ramdas Pophale) SiO2 
 PCOD8151184
Probable space group: C 2/C
;
_chemical_formula_sum "Si O2"
_cell_formula_units_Z 48
_cell_length_a 11.767237
_cell_length_b 22.025462
_cell_length_c 11.080006
_cell_angle_alpha 90.000000
_cell_angle_beta 51.895843
_cell_angle_gamma 90.000000
_cell_volume 2259.715102
_symmetry_space_group_name_H-M "C 2/C"
_symmetry_group_IT_number 15
_symmetry_cell_setting 'monoclinic'
loop_
_space_group_symop_operation_xyz
x,y,z
-x,y,1/2-z
-x,-y,-z
x,-y,1/2+z
1/2+x,1/2+y,z
1/2-x,1/2+y,1/2-z
1/2-x,1/2-y,-z
1/2+x,1/2-y,1/2+z
loop_
_atom_site_type_symbol
_atom_site_label
_atom_site_fract_x
_atom_site_fract_y
_atom_site_fract_z
Si Si1 0.434574 0.899081 0.570086
Si Si2 0.823682 0.184281 0.239771
Si Si3 0.615735 0.816575 0.277131
Si Si4 0.624317 0.359197 0.534922
Si Si5 0.890534 0.503104 0.415436
Si Si6 0.422074 0.495248 0.921049
O O1 0.309310 0.858471 0.716064
O O2 0.535821 0.852905 0.432980
O O3 0.534280 0.933440 0.599766
O O4 0.363474 0.953024 0.536721
O O5 0.808254 0.255647 0.219557
O O6 0.831574 0.181529 0.380059
O O7 0.972159 0.162830 0.078210
O O8 0.500000 0.799472 0.250000
O O9 0.746639 0.858597 0.145459
O O10 0.601622 0.426078 0.598226
O O11 0.737568 0.523897 0.459236
O O12 0.000000 0.470435 0.250000
O O13 0.500000 0.524546 0.750000
O O14 0.500000 0.500000 0.000000
#
# Coordination Sequence:
#
# PCOD8151184 Si02
#       6
#     8   8   8   8   8   8
#     4  11  23  39  63  92 131 165 221 267 342 399
#     4  11  20  35  56  91 129 167 211 273 335 383
#     4  12  20  33  58  93 130 167 213 277 333 391
#     4  11  20  34  56  89 131 163 211 267 331 388
#     4  11  25  42  64  92 131 179 218 271 338 408
#     4  12  26  43  68  97 135 175 222 275 333 405
#
# _framework density 21.241614999999999
#
# number of rings (size 3 to 8) (size 9 to 14) (size 15 to 20)
#    0.000    0.667    6.667    3.000    9.333    0.000 
#    0.000    0.000    0.000    1.000    0.000    0.000 
#    0.000    0.000    0.000    0.000    0.000    0.000 
#
# Total GULP energy -297430.235082 kJ/mol
# GULP energy per Si atom -12392.926462 kJ/mol
# Density = 2.119327 g / cm^3
# Si number density = 21.241615 Si / 1000 Ang^3
#
#
#
# Elastic Constant Matrix: (Units=GPa)
#
#
# Indices 1 2 3 4 5 6 
#
# 1 122.4412 28.4116 53.3155 0.0000 -20.3592 0.0000
# 2 28.4116 94.6949 11.5085 0.0000 -10.8207 0.0000
# 3 53.3155 11.5085 95.4680 0.0000 -29.9302 0.0000
# 4 0.0000 0.0000 0.0000 -53.7870 0.0000 77.3307
# 5 -20.3592 -10.8207 -29.9302 0.0000 38.6774 0.0000
# 6 0.0000 0.0000 0.0000 77.3307 0.0000 -65.3535
#
#
#
# Elastic Compliance Matrix: (Units=1/GPa)
#
#
# Indices 1 2 3 4 5 6 
#
# 1 0.011448 -0.002637 -0.005832 0.000000 0.000775 0.000000
# 2 -0.002637 0.011533 0.000870 0.000000 0.002511 0.000000
# 3 -0.005832 0.000870 0.016822 0.000000 0.010191 0.000000
# 4 0.000000 0.000000 0.000000 0.026514 0.000000 0.031373
# 5 0.000775 0.002511 0.010191 0.000000 0.034851 0.000000
# 6 0.000000 0.000000 0.000000 0.031373 0.000000 0.021821
#
#
# Mechanical properties :
#
#
# Convention : Reuss Voigt Hill
#
# Bulk Modulus (GPa) = 40.64542 55.45283 48.04912
# Shear Modulus (GPa) = 34.15555 -1.46803 16.34376
#
# Velocity S-wave (km/s) = 4.01428 -0.83223 2.77685
# Velocity P-wave (km/s) = 6.37670 5.02384 5.74026
#
# Compressibility (1/GPa) = 0.02460302
#
# Stress axis : x y z
#
# Youngs Moduli (GPa) = 87.35489 86.70951 59.44636
#
# Poissons Ratio (x) = 0.22868 0.34671
# Poissons Ratio (y) = 0.23038 -0.05172
# Poissons Ratio (z) = 0.50948 -0.07543
#
# Static dielectric constant tensor:
#      x y z
#    x 3.879440 0.000000 -0.684480 
#    y 0.000000 3.784560 0.000000 
#    z -0.684480 0.000000 4.367360 
# 
# 
# High freq. dielectric constant tensor:
#      x y z
#    x 1.799430 0.000000 -0.043840 
#    y 0.000000 1.831180 0.000000 
#    z -0.043840 0.000000 1.833320 
# 
# From -- ./inp_files/89389.got.cif
#   From: 2010.06.25/outbox.cif.g09.slc.cpg/sg15_45_cif.got.tgz:89389.got - 2010.06.28 07:06:18.
