data_PCOD8151811
_publ_section_title
;
Structure prediction by ZEFSAII (Michael W. Deem and Ramdas Pophale) SiO2 
 PCOD8151811
Probable space group: C 2/C
;
_chemical_formula_sum "Si O2"
_cell_formula_units_Z 40
_cell_length_a 11.326881
_cell_length_b 11.908534
_cell_length_c 14.694708
_cell_angle_alpha 90.000000
_cell_angle_beta 116.834933
_cell_angle_gamma 90.000000
_cell_volume 1768.665590
_symmetry_space_group_name_H-M "C 2/C"
_symmetry_group_IT_number 15
_symmetry_cell_setting 'monoclinic'
loop_
_space_group_symop_operation_xyz
x,y,z
-x,y,1/2-z
-x,-y,-z
x,-y,1/2+z
1/2+x,1/2+y,z
1/2-x,1/2+y,1/2-z
1/2-x,1/2-y,-z
1/2+x,1/2-y,1/2+z
loop_
_atom_site_type_symbol
_atom_site_label
_atom_site_fract_x
_atom_site_fract_y
_atom_site_fract_z
Si Si1 0.623661 0.743883 0.742567
Si Si2 0.149175 0.641015 0.581032
Si Si3 0.550442 0.676481 0.530953
Si Si4 0.805701 0.023193 0.479016
Si Si5 0.373500 0.004379 0.251679
O O1 0.500000 0.684198 0.750000
O O2 0.745974 0.738116 0.855936
O O3 0.648722 0.689393 0.651962
O O4 0.584266 0.870763 0.706129
O O5 0.005259 0.701258 0.521888
O O6 0.191070 0.565023 0.508330
O O7 0.161255 0.557142 0.668386
O O8 0.422473 0.612038 0.523732
O O9 0.629483 0.603157 0.481315
O O10 0.750233 0.011700 0.358450
O O11 0.500000 0.943080 0.250000
#
# Coordination Sequence:
#
# PCOD8151811 Si02
#       5
#     8   8   8   8   8
#     4  11  21  40  70  95 129 182 228 276 345 410
#     4  12  23  44  69 100 139 178 223 295 346 398
#     4  11  23  41  68 102 137 177 233 288 342 417
#     4  11  23  42  70 101 134 180 235 282 346 424
#     4  11  25  43  66  98 135 179 229 277 348 423
#
# _framework density 22.615921
#
# number of rings (size 3 to 8) (size 9 to 14) (size 15 to 20)
#    0.000    0.800    6.000    3.000    0.000    3.200 
#    3.600    2.000    0.000    0.000    0.000    0.000 
#    0.000    0.000    0.000    0.000    0.000    0.000 
#
# Total GULP energy -247779.207211 kJ/mol
# GULP energy per Si atom -12388.960361 kJ/mol
# Density = 2.256445 g / cm^3
# Si number density = 22.615921 Si / 1000 Ang^3
#
#
#
# Elastic Constant Matrix: (Units=GPa)
#
#
# Indices 1 2 3 4 5 6 
#
# 1 40.9750 28.1436 6.4615 0.0000 -8.5888 0.0000
# 2 28.1436 89.9370 40.0632 0.0000 -17.7821 0.0000
# 3 6.4615 40.0632 112.3812 0.0000 -6.4518 0.0000
# 4 0.0000 0.0000 0.0000 24.7038 0.0000 7.4399
# 5 -8.5888 -17.7821 -6.4518 0.0000 32.4953 0.0000
# 6 0.0000 0.0000 0.0000 7.4399 0.0000 36.6525
#
#
#
# Elastic Compliance Matrix: (Units=1/GPa)
#
#
# Indices 1 2 3 4 5 6 
#
# 1 0.031765 -0.010192 0.001991 0.000000 0.003214 0.000000
# 2 -0.010192 0.017934 -0.005461 0.000000 0.006036 0.000000
# 3 0.001991 -0.005461 0.010711 0.000000 -0.000335 0.000000
# 4 0.000000 0.000000 0.000000 0.043115 0.000000 -0.008752
# 5 0.003214 0.006036 -0.000335 0.000000 0.034860 0.000000
# 6 0.000000 0.000000 0.000000 -0.008752 0.000000 0.029060
#
#
# Mechanical properties :
#
#
# Convention : Reuss Voigt Hill
#
# Bulk Modulus (GPa) = 30.22237 43.62553 36.92395
# Shear Modulus (GPa) = 24.29582 30.01197 27.15389
#
# Velocity S-wave (km/s) = 3.28118 3.64679 3.46880
# Velocity P-wave (km/s) = 5.26756 6.08800 5.69258
#
# Compressibility (1/GPa) = 0.03308807
#
# Stress axis : x y z
#
# Youngs Moduli (GPa) = 31.48127 55.75959 93.35919
#
# Poissons Ratio (x) = 0.56828 -0.18592
# Poissons Ratio (y) = 0.32085 0.50983
# Poissons Ratio (z) = -0.06269 0.30450
#
# Static dielectric constant tensor:
#      x y z
#    x 4.034420 0.000000 0.195840 
#    y 0.000000 4.213820 0.000000 
#    z 0.195840 0.000000 4.073320 
# 
# 
# High freq. dielectric constant tensor:
#      x y z
#    x 1.871150 0.000000 0.017690 
#    y 0.000000 1.893690 0.000000 
#    z 0.017690 0.000000 1.896570 
# 
# From -- ./inp_files/95155.got.cif
#   From: 2010.06.25/outbox.cif.g09.slc.cpg/sg15_48_cif.got.tgz:95155.got - 2010.06.28 07:06:18.
