data_PCOD8151389
_publ_section_title
;
Structure prediction by ZEFSAII (Michael W. Deem and Ramdas Pophale) SiO2 
 PCOD8151389
Probable space group: C 2/C
;
_chemical_formula_sum "Si O2"
_cell_formula_units_Z 60
_cell_length_a 11.626393
_cell_length_b 15.366057
_cell_length_c 24.319387
_cell_angle_alpha 90.000000
_cell_angle_beta 133.615720
_cell_angle_gamma 90.000000
_cell_volume 3145.489263
_symmetry_space_group_name_H-M "C 2/C"
_symmetry_group_IT_number 15
_symmetry_cell_setting 'monoclinic'
loop_
_space_group_symop_operation_xyz
x,y,z
-x,y,1/2-z
-x,-y,-z
x,-y,1/2+z
1/2+x,1/2+y,z
1/2-x,1/2+y,1/2-z
1/2-x,1/2-y,-z
1/2+x,1/2-y,1/2+z
loop_
_atom_site_type_symbol
_atom_site_label
_atom_site_fract_x
_atom_site_fract_y
_atom_site_fract_z
Si Si1 0.433202 0.030576 0.591266
Si Si2 0.144045 0.996660 0.186655
Si Si3 0.889985 0.629214 0.303513
Si Si4 0.796458 0.963926 0.585964
Si Si5 0.500000 0.254533 0.250000
Si Si6 0.674439 0.308958 0.826344
Si Si7 0.165841 0.609429 0.833236
Si Si8 0.235486 0.907319 0.325188
O O1 0.335585 0.026142 0.503583
O O2 0.321818 0.062033 0.604160
O O3 0.580948 0.098068 0.633640
O O4 0.496419 0.934088 0.624532
O O5 0.190958 0.922254 0.158446
O O6 0.136312 0.959055 0.246106
O O7 0.271903 0.074501 0.225085
O O8 0.969604 0.032004 0.114815
O O9 0.995255 0.694190 0.302133
O O10 0.789654 0.686780 0.312439
O O11 0.768620 0.871739 0.606246
O O12 0.773750 0.042508 0.620670
O O13 0.660325 0.311850 0.307057
O O14 0.500000 0.338944 0.750000
O O15 0.678001 0.211263 0.849521
O O16 0.000000 0.584495 0.750000
#
# Coordination Sequence:
#
# PCOD8151389 Si02
#       8
#     8   8   8   8   4   8   8   8
#     4  11  25  41  65  88 129 168 198 247 322 367
#     4  11  20  40  68  88 124 162 211 252 303 369
#     4  11  22  39  62  95 117 160 208 260 305 363
#     4  12  22  41  63  92 126 165 209 246 299 387
#     4  12  24  38  68  94 122 152 220 264 302 358
#     4  11  22  37  63  92 120 155 215 257 298 357
#     4  11  22  39  62  92 122 160 202 263 308 355
#     4  11  21  39  65  92 113 167 208 252 299 362
#
# _framework density 19.074933000000001
#
# number of rings (size 3 to 8) (size 9 to 14) (size 15 to 20)
#    0.000    0.800    8.000    2.000    1.867    1.067 
#    0.000    2.000    0.000    0.000    0.000    0.000 
#    0.000    0.000    0.000    0.000    0.000    0.000 
#
# Total GULP energy -372163.872024 kJ/mol
# GULP energy per Si atom -12405.462401 kJ/mol
# Density = 1.903152 g / cm^3
# Si number density = 19.074933 Si / 1000 Ang^3
#
#
#
# Elastic Constant Matrix: (Units=GPa)
#
#
# Indices 1 2 3 4 5 6 
#
# 1 105.1506 45.1492 47.2335 0.0000 -10.0328 0.0000
# 2 45.1492 82.5010 34.3781 0.0000 -4.6396 0.0000
# 3 47.2335 34.3781 100.9748 0.0000 -4.5552 0.0000
# 4 0.0000 0.0000 0.0000 13.4603 0.0000 -1.9493
# 5 -10.0328 -4.6396 -4.5552 0.0000 26.6942 0.0000
# 6 0.0000 0.0000 0.0000 -1.9493 0.0000 45.8228
#
#
#
# Elastic Compliance Matrix: (Units=1/GPa)
#
#
# Indices 1 2 3 4 5 6 
#
# 1 0.014399 -0.005754 -0.004613 0.000000 0.003624 0.000000
# 2 -0.005754 0.016496 -0.002916 0.000000 0.000207 0.000000
# 3 -0.004613 -0.002916 0.013053 0.000000 -0.000013 0.000000
# 4 0.000000 0.000000 0.000000 0.074753 0.000000 0.003180
# 5 0.003624 0.000207 -0.000013 0.000000 0.038857 0.000000
# 6 0.000000 0.000000 0.000000 0.003180 0.000000 0.021958
#
#
# Mechanical properties :
#
#
# Convention : Reuss Voigt Hill
#
# Bulk Modulus (GPa) = 57.52444 60.23865 58.88155
# Shear Modulus (GPa) = 23.59866 27.98649 25.79258
#
# Velocity S-wave (km/s) = 3.52114 3.83454 3.68118
# Velocity P-wave (km/s) = 6.83767 7.15916 7.00026
#
# Compressibility (1/GPa) = 0.01738392
#
# Stress axis : x y z
#
# Youngs Moduli (GPa) = 69.45125 60.61928 76.60885
#
# Poissons Ratio (x) = 0.34879 0.35339
# Poissons Ratio (y) = 0.39960 0.22336
# Poissons Ratio (z) = 0.32037 0.17674
#
# Static dielectric constant tensor:
#      x y z
#    x 3.687690 0.000000 0.047280 
#    y 0.000000 3.443910 0.000000 
#    z 0.047280 0.000000 3.250820 
# 
# 
# High freq. dielectric constant tensor:
#      x y z
#    x 1.760120 0.000000 -0.005090 
#    y 0.000000 1.740500 0.000000 
#    z -0.005090 0.000000 1.713550 
# 
# From -- ./inp_files/198268.got.cif
#   From: 2010.06.25/outbox.cif.g09.slc.cpg/sg15_100_cif.got.tgz:198268.got - 2010.06.28 07:06:18.
