data_PCOD8151717
_publ_section_title
;
Structure prediction by ZEFSAII (Michael W. Deem and Ramdas Pophale) SiO2 
 PCOD8151717
Probable space group: C 2/C
;
_chemical_formula_sum "Si O2"
_cell_formula_units_Z 56
_cell_length_a 21.631407
_cell_length_b 9.469039
_cell_length_c 13.014171
_cell_angle_alpha 90.000000
_cell_angle_beta 93.962933
_cell_angle_gamma 90.000000
_cell_volume 2659.301192
_symmetry_space_group_name_H-M "C 2/C"
_symmetry_group_IT_number 15
_symmetry_cell_setting 'monoclinic'
loop_
_space_group_symop_operation_xyz
x,y,z
-x,y,1/2-z
-x,-y,-z
x,-y,1/2+z
1/2+x,1/2+y,z
1/2-x,1/2+y,1/2-z
1/2-x,1/2-y,-z
1/2+x,1/2-y,1/2+z
loop_
_atom_site_type_symbol
_atom_site_label
_atom_site_fract_x
_atom_site_fract_y
_atom_site_fract_z
Si Si1 0.962941 0.860356 0.014288
Si Si2 0.269229 0.332166 0.604941
Si Si3 0.638983 0.437206 0.333997
Si Si4 0.370493 0.117106 0.652896
Si Si5 0.448233 0.886695 0.959203
Si Si6 0.850187 0.645137 0.276341
Si Si7 0.935119 0.169046 0.284926
O O1 0.932460 0.805034 0.905957
O O2 0.910312 0.880876 0.091143
O O3 0.014446 0.754175 0.059863
O O4 0.000000 0.000000 0.000000
O O5 0.250000 0.250000 0.500000
O O6 0.306252 0.482285 0.595776
O O7 0.311979 0.218262 0.667094
O O8 0.209963 0.378971 0.662241
O O9 0.656861 0.304028 0.266070
O O10 0.614321 0.551287 0.250629
O O11 0.395604 0.126876 0.539962
O O12 0.423950 0.177802 0.733072
O O13 0.351089 0.957900 0.677797
O O14 0.410915 0.902587 0.848243
O O15 0.500000 0.000000 0.000000
O O16 0.000000 0.110378 0.250000
#
# Coordination Sequence:
#
# PCOD8151717 Si02
#       7
#     8   8   8   8   8   8   8
#     4  12  22  38  63  98 135 171 224 268 332 412
#     4  11  24  49  72  91 132 183 232 281 346 399
#     4  11  26  41  68 104 130 179 232 285 339 403
#     4  11  24  45  65  96 131 181 226 270 350 410
#     4  12  25  40  67 100 139 179 213 277 344 410
#     4  12  26  44  70  99 138 177 232 290 335 404
#     4  11  21  39  64  90 136 183 213 269 341 410
#
# _framework density 21.058163
#
# number of rings (size 3 to 8) (size 9 to 14) (size 15 to 20)
#    0.000    0.571    4.286    4.286    2.000    1.143 
#    0.000    0.714    0.000    0.000    0.000    0.000 
#    0.000    0.000    0.000    0.000    0.000    0.000 
#
# Total GULP energy -347035.540356 kJ/mol
# GULP energy per Si atom -12394.126441 kJ/mol
# Density = 2.101023 g / cm^3
# Si number density = 21.058163 Si / 1000 Ang^3
#
#
#
# Elastic Constant Matrix: (Units=GPa)
#
#
# Indices 1 2 3 4 5 6 
#
# 1 112.7680 46.8988 33.6880 0.0000 -9.1502 0.0000
# 2 46.8988 128.6212 15.9874 0.0000 2.4547 0.0000
# 3 33.6880 15.9874 85.8074 0.0000 -2.4464 0.0000
# 4 0.0000 0.0000 0.0000 34.5608 0.0000 -3.0396
# 5 -9.1502 2.4547 -2.4464 0.0000 36.3584 0.0000
# 6 0.0000 0.0000 0.0000 -3.0396 0.0000 40.2204
#
#
#
# Elastic Compliance Matrix: (Units=1/GPa)
#
#
# Indices 1 2 3 4 5 6 
#
# 1 0.011890 -0.003914 -0.003853 0.000000 0.002997 0.000000
# 2 -0.003914 0.009262 -0.000236 0.000000 -0.001626 0.000000
# 3 -0.003853 -0.000236 0.013209 0.000000 -0.000065 0.000000
# 4 0.000000 0.000000 0.000000 0.029128 0.000000 0.002201
# 5 0.002997 -0.001626 -0.000065 0.000000 0.028364 0.000000
# 6 0.000000 0.000000 0.000000 0.002201 0.000000 0.025029
#
#
# Mechanical properties :
#
#
# Convention : Reuss Voigt Hill
#
# Bulk Modulus (GPa) = 54.47876 57.81610 56.14743
# Shear Modulus (GPa) = 35.96991 37.60275 36.78633
#
# Velocity S-wave (km/s) = 4.13743 4.23029 4.18412
# Velocity P-wave (km/s) = 6.98220 7.16767 7.07555
#
# Compressibility (1/GPa) = 0.01835578
#
# Stress axis : x y z
#
# Youngs Moduli (GPa) = 84.10660 107.96718 75.70688
#
# Poissons Ratio (x) = 0.42253 0.29172
# Poissons Ratio (y) = 0.32916 0.01784
# Poissons Ratio (z) = 0.32409 0.02544
#
# Static dielectric constant tensor:
#      x y z
#    x 4.130170 0.000000 0.171930 
#    y 0.000000 3.973450 0.000000 
#    z 0.171930 0.000000 3.795230 
# 
# 
# High freq. dielectric constant tensor:
#      x y z
#    x 1.833160 0.000000 0.002450 
#    y 0.000000 1.836040 0.000000 
#    z 0.002450 0.000000 1.823960 
# 
# From -- ./inp_files/166665.got.cif
#   From: 2010.06.25/outbox.cif.g09.slc.cpg/sg15_84_cif.got.tgz:166665.got - 2010.06.28 07:06:18.
