data_PCOD8151839
_publ_section_title
;
Structure prediction by ZEFSAII (Michael W. Deem and Ramdas Pophale) SiO2 
 PCOD8151839
Probable space group: C 2/C
;
_chemical_formula_sum "Si O2"
_cell_formula_units_Z 64
_cell_length_a 23.467519
_cell_length_b 17.182955
_cell_length_c 18.725490
_cell_angle_alpha 90.000000
_cell_angle_beta 24.024218
_cell_angle_gamma 90.000000
_cell_volume 3074.139638
_symmetry_space_group_name_H-M "C 2/C"
_symmetry_group_IT_number 15
_symmetry_cell_setting 'monoclinic'
loop_
_space_group_symop_operation_xyz
x,y,z
-x,y,1/2-z
-x,-y,-z
x,-y,1/2+z
1/2+x,1/2+y,z
1/2-x,1/2+y,1/2-z
1/2-x,1/2-y,-z
1/2+x,1/2-y,1/2+z
loop_
_atom_site_type_symbol
_atom_site_label
_atom_site_fract_x
_atom_site_fract_y
_atom_site_fract_z
Si Si1 0.962057 0.102019 0.402711
Si Si2 0.400812 0.274587 0.300981
Si Si3 0.014509 0.676582 0.038766
Si Si4 0.347631 0.292169 0.721243
Si Si5 0.239788 0.410758 0.732373
Si Si6 0.528714 0.565595 0.839122
Si Si7 0.273271 0.571134 0.752568
Si Si8 0.142200 0.232507 0.062420
O O1 0.840858 0.091044 0.599569
O O2 0.892751 0.140321 0.411012
O O3 0.074160 0.163339 0.304864
O O4 0.045826 0.022000 0.288401
O O5 0.500000 0.245358 0.250000
O O6 0.250000 0.250000 0.500000
O O7 0.448437 0.234047 0.173073
O O8 0.407113 0.368593 0.285794
O O9 0.900717 0.612104 0.147989
O O10 0.053857 0.723734 0.922221
O O11 0.151752 0.632403 0.912460
O O12 0.303482 0.341966 0.704958
O O13 0.200582 0.262083 0.920411
O O14 0.361257 0.425758 0.535719
O O15 0.208144 0.484749 0.819470
O O16 0.603956 0.572083 0.829723
O O17 0.000000 0.276048 0.250000
O O18 0.250000 0.250000 0.000000
#
# Coordination Sequence:
#
# PCOD8151839 Si02
#       8
#     8   8   8   8   8   8   8   8
#     4  11  21  41  67  98 130 176 222 272 331 405
#     4  12  26  44  66  97 136 178 225 276 329 396
#     4  12  25  39  69 101 132 170 222 285 336 387
#     4  12  22  41  70  97 128 172 223 276 331 398
#     4  11  22  39  66 104 131 163 223 281 334 392
#     4  11  22  42  69  95 132 177 223 271 336 406
#     4  11  21  41  68 101 131 168 220 284 339 393
#     4  12  26  42  64  97 135 175 220 271 331 400
#
# _framework density 20.818833000000001
#
# number of rings (size 3 to 8) (size 9 to 14) (size 15 to 20)
#    0.000    0.500    6.250    3.375    1.750    0.500 
#    0.000    0.000    2.750    0.000    0.000    0.000 
#    0.000    0.000    0.000    0.000    0.000    0.000 
#
# Total GULP energy -396713.830119 kJ/mol
# GULP energy per Si atom -12397.307191 kJ/mol
# Density = 2.077145 g / cm^3
# Si number density = 20.818833 Si / 1000 Ang^3
#
#
#
# Elastic Constant Matrix: (Units=GPa)
#
#
# Indices 1 2 3 4 5 6 
#
# 1 71.4870 25.4069 36.6315 -0.0031 -10.5453 0.0036
# 2 25.4069 109.6396 58.8792 -0.0060 0.2126 0.0076
# 3 36.6315 58.8792 141.8125 -0.0041 0.6069 0.0053
# 4 -0.0031 -0.0060 -0.0041 34.8864 0.0019 -6.2063
# 5 -10.5453 0.2126 0.6069 0.0019 35.7099 -0.0021
# 6 0.0036 0.0076 0.0053 -6.2063 -0.0021 38.9590
#
#
#
# Elastic Compliance Matrix: (Units=1/GPa)
#
#
# Indices 1 2 3 4 5 6 
#
# 1 0.017361 -0.002076 -0.003645 0.000000 0.005201 0.000000
# 2 -0.002076 0.011986 -0.004438 0.000001 -0.000609 -0.000001
# 3 -0.003645 -0.004438 0.009841 0.000000 -0.001217 0.000000
# 4 0.000000 0.000001 0.000000 0.029500 -0.000001 0.004700
# 5 0.005201 -0.000609 -0.001217 -0.000001 0.029564 0.000001
# 6 0.000000 -0.000001 0.000000 0.004700 0.000001 0.026417
#
#
# Mechanical properties :
#
#
# Convention : Reuss Voigt Hill
#
# Bulk Modulus (GPa) = 52.99068 62.75272 57.87170
# Shear Modulus (GPa) = 33.05202 35.37915 34.21559
#
# Velocity S-wave (km/s) = 3.98880 4.12683 4.05840
# Velocity P-wave (km/s) = 6.83538 7.27429 7.05825
#
# Compressibility (1/GPa) = 0.01887124
#
# Stress axis : x y z
#
# Youngs Moduli (GPa) = 57.59931 83.42937 101.61745
#
# Poissons Ratio (x) = 0.17318 0.37040
# Poissons Ratio (y) = 0.11956 0.45095
# Poissons Ratio (z) = 0.20995 0.37024
#
# Static dielectric constant tensor:
#      x y z
#    x 3.646120 0.000000 -0.055350 
#    y 0.000000 4.227230 0.000010 
#    z -0.055350 0.000010 4.063760 
# 
# 
# High freq. dielectric constant tensor:
#      x y z
#    x 1.810030 0.000000 -0.003780 
#    y 0.000000 1.822170 0.000000 
#    z -0.003780 0.000000 1.819620 
# 
# From -- ./inp_files/255966.got.cif
#   From: 2010.06.25/outbox.cif.g09.slc.cpg/sg15_128_cif.got.tgz:255966.got - 2010.06.28 07:06:18.
