data_PCOD8151810
_publ_section_title
;
Structure prediction by ZEFSAII (Michael W. Deem and Ramdas Pophale) SiO2 
 PCOD8151810
Probable space group: C 2/C
;
_chemical_formula_sum "Si O2"
_cell_formula_units_Z 64
_cell_length_a 29.802063
_cell_length_b 9.305319
_cell_length_c 18.449428
_cell_angle_alpha 90.000000
_cell_angle_beta 35.635799
_cell_angle_gamma 90.000000
_cell_volume 2980.945301
_symmetry_space_group_name_H-M "C 2/C"
_symmetry_group_IT_number 15
_symmetry_cell_setting 'monoclinic'
loop_
_space_group_symop_operation_xyz
x,y,z
-x,y,1/2-z
-x,-y,-z
x,-y,1/2+z
1/2+x,1/2+y,z
1/2-x,1/2+y,1/2-z
1/2-x,1/2-y,-z
1/2+x,1/2-y,1/2+z
loop_
_atom_site_type_symbol
_atom_site_label
_atom_site_fract_x
_atom_site_fract_y
_atom_site_fract_z
Si Si1 0.156242 0.101154 0.743028
Si Si2 0.398169 0.132406 0.679294
Si Si3 0.210319 0.384151 0.723337
Si Si4 0.230396 0.167198 0.097995
Si Si5 0.999574 0.506502 0.664684
Si Si6 0.490877 0.723948 0.930676
Si Si7 0.363209 0.505063 0.571136
Si Si8 0.357406 0.813578 0.542675
O O1 0.204300 0.249909 0.675695
O O2 0.066072 0.129607 0.848483
O O3 0.193449 0.992264 0.634918
O O4 0.165635 0.025276 0.808799
O O5 0.330521 0.246854 0.773806
O O6 0.463554 0.193151 0.539234
O O7 0.362083 0.986862 0.695738
O O8 0.433058 0.099740 0.712960
O O9 0.292650 0.461111 0.610497
O O10 0.203613 0.319614 0.812322
O O11 0.312559 0.154133 0.028167
O O12 0.250000 0.250000 0.000000
O O13 0.990902 0.339376 0.655796
O O14 0.079912 0.563623 0.528492
O O15 0.000000 0.530044 0.750000
O O16 0.427495 0.616776 0.982164
O O17 0.395705 0.654171 0.494778
#
# Coordination Sequence:
#
# PCOD8151810 Si02
#       8
#     8   8   8   8   8   8   8   8
#     4  11  24  41  68 102 137 174 233 289 344 408
#     4  12  22  46  70  99 134 177 235 283 345 417
#     4  11  21  40  70 103 130 171 227 293 337 400
#     4  12  26  44  66  97 140 185 228 279 351 416
#     4  12  27  45  65  98 139 180 222 278 353 417
#     4  12  24  44  71 103 136 180 232 295 340 413
#     4  11  23  39  69 104 133 169 228 291 345 387
#     4  11  23  42  66  97 130 173 228 275 337 407
#
# _framework density 21.469698999999999
#
# number of rings (size 3 to 8) (size 9 to 14) (size 15 to 20)
#    0.000    0.500    6.250    3.000    5.250    0.000 
#    2.250    0.625    0.000    0.000    0.000    0.000 
#    0.000    0.000    0.000    0.000    0.000    0.000 
#
# Total GULP energy -396835.293980 kJ/mol
# GULP energy per Si atom -12401.102937 kJ/mol
# Density = 2.142083 g / cm^3
# Si number density = 21.469699 Si / 1000 Ang^3
#
#
#
# Elastic Constant Matrix: (Units=GPa)
#
#
# Indices 1 2 3 4 5 6 
#
# 1 124.1615 40.9353 33.5075 0.0046 -16.2985 -0.0058
# 2 40.9353 135.6951 38.5728 0.0068 -7.7971 -0.0040
# 3 33.5075 38.5728 52.2848 0.0109 -1.7446 -0.0026
# 4 0.0046 0.0068 0.0109 36.3369 -0.0022 -10.8128
# 5 -16.2985 -7.7971 -1.7446 -0.0022 26.8586 0.0013
# 6 -0.0058 -0.0040 -0.0026 -10.8128 0.0013 41.5731
#
#
#
# Elastic Compliance Matrix: (Units=1/GPa)
#
#
# Indices 1 2 3 4 5 6 
#
# 1 0.010799 -0.001280 -0.005782 0.000001 0.005806 0.000001
# 2 -0.001280 0.009616 -0.006220 0.000000 0.001611 0.000000
# 3 -0.005782 -0.006220 0.027302 -0.000007 -0.003541 -0.000001
# 4 0.000001 0.000000 -0.000007 0.029829 0.000003 0.007758
# 5 0.005806 0.001611 -0.003541 0.000003 0.040993 0.000000
# 6 0.000001 0.000000 -0.000001 0.007758 0.000000 0.026072
#
#
# Mechanical properties :
#
#
# Convention : Reuss Voigt Hill
#
# Bulk Modulus (GPa) = 47.27685 59.79696 53.53690
# Shear Modulus (GPa) = 28.05412 34.22877 31.14144
#
# Velocity S-wave (km/s) = 3.61873 3.99718 3.81265
# Velocity P-wave (km/s) = 6.28716 7.01538 6.66123
#
# Compressibility (1/GPa) = 0.02115200
#
# Stress axis : x y z
#
# Youngs Moduli (GPa) = 92.60365 103.98886 36.62689
#
# Poissons Ratio (x) = 0.13315 0.21178
# Poissons Ratio (y) = 0.11857 0.22782
# Poissons Ratio (z) = 0.53545 0.64683
#
# Static dielectric constant tensor:
#      x y z
#    x 3.867740 -0.000010 -0.183520 
#    y -0.000010 4.215690 0.000020 
#    z -0.183520 0.000020 3.515870 
# 
# 
# High freq. dielectric constant tensor:
#      x y z
#    x 1.850350 0.000000 -0.020230 
#    y 0.000000 1.864440 0.000000 
#    z -0.020230 0.000000 1.805860 
# 
# From -- ./inp_files/224604.got.cif
#   From: 2010.06.25/outbox.cif.g09.slc.cpg/sg15_113_cif.got.tgz:224604.got - 2010.06.28 07:06:18.
