data_PCOD8151428
_publ_section_title
;
Structure prediction by ZEFSAII (Michael W. Deem and Ramdas Pophale) SiO2 
 PCOD8151428
Probable space group: C 2/C
;
_chemical_formula_sum "Si O2"
_cell_formula_units_Z 48
_cell_length_a 11.133158
_cell_length_b 19.673878
_cell_length_c 11.612349
_cell_angle_alpha 90.000000
_cell_angle_beta 75.596196
_cell_angle_gamma 90.000000
_cell_volume 2463.530460
_symmetry_space_group_name_H-M "C 2/C"
_symmetry_group_IT_number 15
_symmetry_cell_setting 'monoclinic'
loop_
_space_group_symop_operation_xyz
x,y,z
-x,y,1/2-z
-x,-y,-z
x,-y,1/2+z
1/2+x,1/2+y,z
1/2-x,1/2+y,1/2-z
1/2-x,1/2-y,-z
1/2+x,1/2-y,1/2+z
loop_
_atom_site_type_symbol
_atom_site_label
_atom_site_fract_x
_atom_site_fract_y
_atom_site_fract_z
Si Si1 0.200444 0.295840 0.248014
Si Si2 0.882229 0.673729 0.198822
Si Si3 0.680981 0.427750 0.750759
Si Si4 0.378399 0.579855 0.705075
Si Si5 0.949655 0.723501 0.939856
Si Si6 0.044248 0.881299 0.557795
O O1 0.283572 0.231001 0.257389
O O2 0.276137 0.363772 0.254935
O O3 0.158936 0.292152 0.125068
O O4 0.082513 0.296564 0.358625
O O5 0.819726 0.600211 0.236830
O O6 0.000000 0.682436 0.250000
O O7 0.923996 0.678117 0.056854
O O8 0.681669 0.508773 0.742779
O O9 0.633881 0.396314 0.642544
O O10 0.594992 0.402384 0.875918
O O11 0.500000 0.596227 0.750000
O O12 0.414325 0.575737 0.562493
O O13 0.948293 0.802212 0.976214
#
# Coordination Sequence:
#
# PCOD8151428 Si02
#       6
#     8   8   8   8   8   8
#     4  11  22  41  65  94 124 161 211 256 304 370
#     4  12  24  40  62  95 127 162 206 258 312 363
#     4  11  23  42  62  90 126 167 205 252 312 373
#     4  12  25  39  63  97 127 159 209 262 310 360
#     4  11  22  42  70  91 120 169 210 251 310 371
#     4  11  20  41  70  90 119 160 215 255 303 371
#
# _framework density 19.484231999999999
#
# number of rings (size 3 to 8) (size 9 to 14) (size 15 to 20)
#    0.000    0.667    6.667    3.500    0.000    2.000 
#    3.000    0.833    0.000    0.000    0.000    0.000 
#    0.000    0.000    0.000    0.000    0.000    0.000 
#
# Total GULP energy -297749.176790 kJ/mol
# GULP energy per Si atom -12406.215700 kJ/mol
# Density = 1.943988 g / cm^3
# Si number density = 19.484232 Si / 1000 Ang^3
#
#
#
# Elastic Constant Matrix: (Units=GPa)
#
#
# Indices 1 2 3 4 5 6 
#
# 1 130.0589 55.6833 19.8081 0.0000 -0.1200 0.0000
# 2 55.6833 99.4881 21.8926 0.0000 -2.0489 0.0000
# 3 19.8081 21.8926 53.6294 0.0000 -6.3006 0.0000
# 4 0.0000 0.0000 0.0000 24.3797 0.0000 -13.0740
# 5 -0.1200 -2.0489 -6.3006 0.0000 13.7293 0.0000
# 6 0.0000 0.0000 0.0000 -13.0740 0.0000 34.4049
#
#
#
# Elastic Compliance Matrix: (Units=1/GPa)
#
#
# Indices 1 2 3 4 5 6 
#
# 1 0.010263 -0.005386 -0.001771 0.000000 -0.001527 0.000000
# 2 -0.005386 0.013872 -0.003632 0.000000 0.000356 0.000000
# 3 -0.001771 -0.003632 0.021899 0.000000 0.009492 0.000000
# 4 0.000000 0.000000 0.000000 0.051516 0.000000 0.019576
# 5 -0.001527 0.000356 0.009492 0.000000 0.077233 0.000000
# 6 0.000000 0.000000 0.000000 0.019576 0.000000 0.036505
#
#
# Mechanical properties :
#
#
# Convention : Reuss Voigt Hill
#
# Bulk Modulus (GPa) = 40.89022 53.10493 46.99757
# Shear Modulus (GPa) = 20.74535 26.88895 23.81715
#
# Velocity S-wave (km/s) = 3.26655 3.71891 3.50005
# Velocity P-wave (km/s) = 5.93793 6.76424 6.36451
#
# Compressibility (1/GPa) = 0.02445573
#
# Stress axis : x y z
#
# Youngs Moduli (GPa) = 97.43632 72.08532 45.66509
#
# Poissons Ratio (x) = 0.38824 0.08089
# Poissons Ratio (y) = 0.52478 0.16585
# Poissons Ratio (z) = 0.17261 0.26180
#
# Static dielectric constant tensor:
#      x y z
#    x 3.617370 0.000000 -0.065750 
#    y 0.000000 3.547570 0.000000 
#    z -0.065750 0.000000 3.583860 
# 
# 
# High freq. dielectric constant tensor:
#      x y z
#    x 1.760040 0.000000 -0.007140 
#    y 0.000000 1.757150 0.000000 
#    z -0.007140 0.000000 1.766270 
# 
# From -- ./inp_files/87245.got.cif
#   From: 2010.06.25/outbox.cif.g09.slc.cpg/sg15_44_cif.got.tgz:87245.got - 2010.06.28 07:06:18.
