data_PCOD8151124
_publ_section_title
;
Structure prediction by ZEFSAII (Michael W. Deem and Ramdas Pophale) SiO2 
 PCOD8151124
Probable space group: C 2/C
;
_chemical_formula_sum "Si O2"
_cell_formula_units_Z 64
_cell_length_a 28.708219
_cell_length_b 15.054459
_cell_length_c 10.862740
_cell_angle_alpha 90.000000
_cell_angle_beta 138.216605
_cell_angle_gamma 90.000000
_cell_volume 3128.176778
_symmetry_space_group_name_H-M "C 2/C"
_symmetry_group_IT_number 15
_symmetry_cell_setting 'monoclinic'
loop_
_space_group_symop_operation_xyz
x,y,z
-x,y,1/2-z
-x,-y,-z
x,-y,1/2+z
1/2+x,1/2+y,z
1/2-x,1/2+y,1/2-z
1/2-x,1/2-y,-z
1/2+x,1/2-y,1/2+z
loop_
_atom_site_type_symbol
_atom_site_label
_atom_site_fract_x
_atom_site_fract_y
_atom_site_fract_z
Si Si1 0.933307 0.014844 0.053797
Si Si2 0.516729 0.302730 0.925414
Si Si3 0.311899 0.385217 0.456769
Si Si4 0.373126 0.764368 0.218847
Si Si5 0.341832 0.357784 0.869468
Si Si6 0.218963 0.573420 0.000648
Si Si7 0.352755 0.293653 0.160798
Si Si8 0.266604 0.878720 0.436822
O O1 0.968000 0.090647 0.033775
O O2 0.000000 0.970220 0.250000
O O3 0.878137 0.057676 0.041699
O O4 0.892718 0.933419 0.908654
O O5 0.500000 0.277120 0.750000
O O6 0.455153 0.258046 0.883279
O O7 0.584418 0.263193 0.126149
O O8 0.339609 0.286156 0.536801
O O9 0.278757 0.423767 0.514803
O O10 0.248936 0.376671 0.237766
O O11 0.342337 0.730537 0.287722
O O12 0.350352 0.867465 0.160397
O O13 0.261571 0.395695 0.708662
O O14 0.370107 0.334953 0.061423
O O15 0.194285 0.471601 0.958741
O O16 0.307459 0.369410 0.139240
O O17 0.314705 0.201054 0.070243
#
# Coordination Sequence:
#
# PCOD8151124 Si02
#       8
#     8   8   8   8   8   8   8   8
#     4  11  21  36  60  94 126 159 199 248 314 385
#     4  11  22  43  59  88 125 166 207 252 313 376
#     4  11  19  41  59  88 129 155 206 257 308 379
#     4  11  23  39  63  83 130 170 202 253 311 386
#     4  11  23  38  59  95 125 165 199 254 318 372
#     4  11  23  40  61  92 119 170 214 250 314 375
#     4  11  23  39  63  94 126 160 209 268 318 370
#     4  11  22  39  63  92 124 161 212 272 309 358
#
# _framework density 20.459201
#
# number of rings (size 3 to 8) (size 9 to 14) (size 15 to 20)
#    0.000    1.000    5.000    3.750    1.750    2.500 
#    0.000    0.625    0.000    0.000    0.000    0.000 
#    0.000    0.000    0.000    0.000    0.000    0.000 
#
# Total GULP energy -396446.852589 kJ/mol
# GULP energy per Si atom -12388.964143 kJ/mol
# Density = 2.041264 g / cm^3
# Si number density = 20.459201 Si / 1000 Ang^3
#
#
#
# Elastic Constant Matrix: (Units=GPa)
#
#
# Indices 1 2 3 4 5 6 
#
# 1 46.3600 33.2085 31.0526 0.0000 6.2332 0.0000
# 2 33.2085 113.4751 45.0901 0.0000 8.8816 0.0000
# 3 31.0526 45.0901 119.0108 0.0000 0.7965 0.0000
# 4 0.0000 0.0000 0.0000 27.9748 0.0000 6.6592
# 5 6.2332 8.8816 0.7965 0.0000 31.3338 0.0000
# 6 0.0000 0.0000 0.0000 6.6592 0.0000 20.6499
#
#
#
# Elastic Compliance Matrix: (Units=1/GPa)
#
#
# Indices 1 2 3 4 5 6 
#
# 1 0.030365 -0.006391 -0.005474 0.000000 -0.004090 0.000000
# 2 -0.006391 0.011979 -0.002857 0.000000 -0.002051 0.000000
# 3 -0.005474 -0.002857 0.010903 0.000000 0.001622 0.000000
# 4 0.000000 0.000000 0.000000 0.038719 0.000000 -0.012486
# 5 -0.004090 -0.002051 0.001622 0.000000 0.033268 0.000000
# 6 0.000000 0.000000 0.000000 -0.012486 0.000000 0.052453
#
#
# Mechanical properties :
#
#
# Convention : Reuss Voigt Hill
#
# Bulk Modulus (GPa) = 42.01399 55.28314 48.64856
# Shear Modulus (GPa) = 23.24889 27.29136 25.27012
#
# Velocity S-wave (km/s) = 3.37464 3.65628 3.51828
# Velocity P-wave (km/s) = 5.98033 6.70107 6.35093
#
# Compressibility (1/GPa) = 0.02380160
#
# Stress axis : x y z
#
# Youngs Moduli (GPa) = 32.93290 83.48166 91.72156
#
# Poissons Ratio (x) = 0.53353 0.50209
# Poissons Ratio (y) = 0.21047 0.26206
# Poissons Ratio (z) = 0.18028 0.23852
#
# Static dielectric constant tensor:
#      x y z
#    x 3.619200 0.000000 -0.067470 
#    y 0.000000 3.606690 0.000000 
#    z -0.067470 0.000000 3.933830 
# 
# 
# High freq. dielectric constant tensor:
#      x y z
#    x 1.778990 0.000000 -0.008940 
#    y 0.000000 1.785260 0.000000 
#    z -0.008940 0.000000 1.806020 
# 
# From -- ./inp_files/126902.got.cif
#   From: 2010.06.25/outbox.cif.g09.slc.cpg/sg15_64_cif.got.tgz:126902.got - 2010.06.28 07:06:18.
