data_PCOD8151647
_publ_section_title
;
Structure prediction by ZEFSAII (Michael W. Deem and Ramdas Pophale) SiO2 
 PCOD8151647
Probable space group: C 2/C
;
_chemical_formula_sum "Si O2"
_cell_formula_units_Z 64
_cell_length_a 9.900442
_cell_length_b 17.389451
_cell_length_c 31.732064
_cell_angle_alpha 90.000000
_cell_angle_beta 142.954392
_cell_angle_gamma 90.000000
_cell_volume 3291.244791
_symmetry_space_group_name_H-M "C 2/C"
_symmetry_group_IT_number 15
_symmetry_cell_setting 'monoclinic'
loop_
_space_group_symop_operation_xyz
x,y,z
-x,y,1/2-z
-x,-y,-z
x,-y,1/2+z
1/2+x,1/2+y,z
1/2-x,1/2+y,1/2-z
1/2-x,1/2-y,-z
1/2+x,1/2-y,1/2+z
loop_
_atom_site_type_symbol
_atom_site_label
_atom_site_fract_x
_atom_site_fract_y
_atom_site_fract_z
Si Si1 0.263645 0.330772 0.979710
Si Si2 0.863207 0.435669 0.329995
Si Si3 0.138364 0.617573 0.164319
Si Si4 0.782801 0.159250 0.956077
Si Si5 0.789631 0.833592 0.551325
Si Si6 0.538441 0.564431 0.821843
Si Si7 0.630336 0.080785 0.525488
Si Si8 0.511874 0.386141 0.816753
O O1 0.094457 0.335476 0.897638
O O2 0.250000 0.250000 0.000000
O O3 0.510688 0.343304 0.024055
O O4 0.191166 0.401853 0.992195
O O5 0.908100 0.526677 0.343742
O O6 0.714906 0.407070 0.252228
O O7 0.726063 0.404999 0.336292
O O8 0.102460 0.395055 0.388871
O O9 0.277151 0.645021 0.157355
O O10 0.275498 0.646454 0.239871
O O11 0.675770 0.242960 0.935832
O O12 0.850575 0.132442 0.020351
O O13 0.531295 0.852637 0.497528
O O14 0.962485 0.871205 0.627360
O O15 0.628959 0.583798 0.890887
O O16 0.515461 0.475067 0.807709
O O17 0.500000 0.000000 0.500000
#
# Coordination Sequence:
#
# PCOD8151647 Si02
#       8
#     8   8   8   8   8   8   8   8
#     4  12  24  41  59  89 124 153 201 259 308 360
#     4   9  18  35  56  88 122 153 199 246 299 350
#     4   9  18  33  60  88 115 155 198 245 296 354
#     4  11  24  38  57  86 127 159 193 252 311 360
#     4  11  21  38  60  86 118 161 199 238 303 367
#     4   9  17  32  61  90 112 152 205 251 281 357
#     4  12  20  37  68  90 112 156 211 244 289 361
#     4   9  16  34  60  87 114 149 204 245 285 357
#
# _framework density 19.445530000000002
#
# number of rings (size 3 to 8) (size 9 to 14) (size 15 to 20)
#    0.000    1.750    5.000    2.250    0.000    0.500 
#    2.250    1.250    0.000    3.000    0.000    0.000 
#    0.000    0.000    0.000    0.000    0.000    0.000 
#
# Total GULP energy -396534.932799 kJ/mol
# GULP energy per Si atom -12391.716650 kJ/mol
# Density = 1.940127 g / cm^3
# Si number density = 19.445530 Si / 1000 Ang^3
#
#
#
# Elastic Constant Matrix: (Units=GPa)
#
#
# Indices 1 2 3 4 5 6 
#
# 1 97.4929 21.2378 52.3336 -0.0001 3.7043 0.0000
# 2 21.2378 53.1872 44.1219 0.0000 7.8159 0.0000
# 3 52.3336 44.1219 188.8271 -0.0007 2.2787 0.0000
# 4 -0.0001 0.0000 -0.0007 14.5408 -0.0001 3.9719
# 5 3.7043 7.8159 2.2787 -0.0001 28.4302 0.0000
# 6 0.0000 0.0000 0.0000 3.9719 0.0000 21.6801
#
#
#
# Elastic Compliance Matrix: (Units=1/GPa)
#
#
# Indices 1 2 3 4 5 6 
#
# 1 0.012344 -0.002475 -0.002835 0.000000 -0.000701 0.000000
# 2 -0.002475 0.024881 -0.005054 0.000000 -0.006112 0.000000
# 3 -0.002835 -0.005054 0.007248 0.000000 0.001178 0.000000
# 4 0.000000 0.000000 0.000000 0.072395 0.000000 -0.013263
# 5 -0.000701 -0.006112 0.001178 0.000000 0.036851 0.000000
# 6 0.000000 0.000000 0.000000 -0.013263 0.000000 0.048555
#
#
# Mechanical properties :
#
#
# Convention : Reuss Voigt Hill
#
# Bulk Modulus (GPa) = 42.11143 63.87708 52.99426
# Shear Modulus (GPa) = 21.65286 27.71782 24.68534
#
# Velocity S-wave (km/s) = 3.34055 3.77955 3.56681
# Velocity P-wave (km/s) = 6.04832 7.20883 6.65393
#
# Compressibility (1/GPa) = 0.02374652
#
# Stress axis : x y z
#
# Youngs Moduli (GPa) = 81.00795 40.19205 137.96574
#
# Poissons Ratio (x) = 0.09947 0.39107
# Poissons Ratio (y) = 0.20047 0.69728
# Poissons Ratio (z) = 0.22962 0.20313
#
# Static dielectric constant tensor:
#      x y z
#    x 3.373680 0.000000 -0.153400 
#    y 0.000000 3.335960 0.000000 
#    z -0.153400 0.000000 3.938980 
# 
# 
# High freq. dielectric constant tensor:
#      x y z
#    x 1.722370 0.000000 -0.008140 
#    y 0.000000 1.733190 0.000000 
#    z -0.008140 0.000000 1.781650 
# 
# From -- ./inp_files/308791.got.cif
#   From: 2010.06.25/outbox.cif.g09.slc.cpg/sg15_155_cif.got.tgz:308791.got - 2010.06.28 07:06:18.
