data_PCOD8151288
_publ_section_title
;
Structure prediction by ZEFSAII (Michael W. Deem and Ramdas Pophale) SiO2 
 PCOD8151288
Probable space group: C 2/C
;
_chemical_formula_sum "Si O2"
_cell_formula_units_Z 56
_cell_length_a 17.901163
_cell_length_b 16.442222
_cell_length_c 10.011223
_cell_angle_alpha 90.000000
_cell_angle_beta 116.174987
_cell_angle_gamma 90.000000
_cell_volume 2644.476118
_symmetry_space_group_name_H-M "C 2/C"
_symmetry_group_IT_number 15
_symmetry_cell_setting 'monoclinic'
loop_
_space_group_symop_operation_xyz
x,y,z
-x,y,1/2-z
-x,-y,-z
x,-y,1/2+z
1/2+x,1/2+y,z
1/2-x,1/2+y,1/2-z
1/2-x,1/2-y,-z
1/2+x,1/2-y,1/2+z
loop_
_atom_site_type_symbol
_atom_site_label
_atom_site_fract_x
_atom_site_fract_y
_atom_site_fract_z
Si Si1 0.951230 0.535849 0.583771
Si Si2 0.729161 0.946170 0.533729
Si Si3 0.768494 0.326930 0.727210
Si Si4 0.197610 0.110297 0.902130
Si Si5 0.992784 0.289785 0.387148
Si Si6 0.196131 0.664955 0.754413
Si Si7 0.930116 0.767616 0.298612
O O1 0.857403 0.503648 0.527249
O O2 0.943664 0.633992 0.566562
O O3 0.000000 0.505229 0.750000
O O4 0.000000 0.500000 0.500000
O O5 0.737671 0.905793 0.685676
O O6 0.728268 0.883492 0.409729
O O7 0.803287 0.012756 0.571743
O O8 0.713831 0.340842 0.551621
O O9 0.731767 0.255725 0.790544
O O10 0.861324 0.303514 0.752459
O O11 0.270704 0.123571 0.853410
O O12 0.110726 0.145295 0.773320
O O13 0.021870 0.225358 0.521453
O O14 0.000000 0.243773 0.250000
O O15 0.902929 0.330398 0.337417
O O16 0.000000 0.739786 0.250000
#
# Coordination Sequence:
#
# PCOD8151288 Si02
#       7
#     8   8   8   8   8   8   8
#     4  11  23  37  57  94 134 171 209 261 342 400
#     4  12  23  40  63  94 137 172 213 276 332 399
#     4  11  23  41  63  95 125 176 227 267 334 395
#     4  11  25  40  62  96 135 174 221 269 339 401
#     4  11  20  38  60  92 129 160 221 267 325 391
#     4  11  21  41  64  92 128 175 220 274 325 401
#     4  11  22  41  67  93 125 174 224 276 325 391
#
# _framework density 21.176216
#
# number of rings (size 3 to 8) (size 9 to 14) (size 15 to 20)
#    0.000    0.857    4.286    5.571    2.000    1.714 
#    0.000    0.000    0.000   14.571    0.000    0.000 
#    0.000    0.000    0.000    0.000    0.000    0.000 
#
# Total GULP energy -347118.894577 kJ/mol
# GULP energy per Si atom -12397.103378 kJ/mol
# Density = 2.112802 g / cm^3
# Si number density = 21.176216 Si / 1000 Ang^3
#
#
#
# Elastic Constant Matrix: (Units=GPa)
#
#
# Indices 1 2 3 4 5 6 
#
# 1 61.5750 28.7617 41.1564 0.0000 -7.9316 0.0000
# 2 28.7617 97.2362 54.4012 0.0000 2.1889 0.0000
# 3 41.1564 54.4012 176.5841 0.0000 -13.1177 0.0000
# 4 0.0000 0.0000 0.0000 31.2010 0.0000 -3.0455
# 5 -7.9316 2.1889 -13.1177 0.0000 31.8072 0.0000
# 6 0.0000 0.0000 0.0000 -3.0455 0.0000 19.6937
#
#
#
# Elastic Compliance Matrix: (Units=1/GPa)
#
#
# Indices 1 2 3 4 5 6 
#
# 1 0.021037 -0.004532 -0.003192 0.000000 0.004242 0.000000
# 2 -0.004532 0.013600 -0.003391 0.000000 -0.003465 0.000000
# 3 -0.003192 -0.003391 0.007644 0.000000 0.002590 0.000000
# 4 0.000000 0.000000 0.000000 0.032541 0.000000 0.005032
# 5 0.004242 -0.003465 0.002590 0.000000 0.033804 0.000000
# 6 0.000000 0.000000 0.000000 0.005032 0.000000 0.051556
#
#
# Mechanical properties :
#
#
# Convention : Reuss Voigt Hill
#
# Bulk Modulus (GPa) = 49.87243 64.89265 57.38254
# Shear Modulus (GPa) = 26.44167 30.61211 28.52689
#
# Velocity S-wave (km/s) = 3.53746 3.80622 3.67429
# Velocity P-wave (km/s) = 6.34721 7.07298 6.71990
#
# Compressibility (1/GPa) = 0.02005116
#
# Stress axis : x y z
#
# Youngs Moduli (GPa) = 47.53497 73.52966 130.82266
#
# Poissons Ratio (x) = 0.33327 0.41755
# Poissons Ratio (y) = 0.21545 0.44359
# Poissons Ratio (z) = 0.15172 0.24933
#
# Static dielectric constant tensor:
#      x y z
#    x 3.821350 0.000000 -0.070880 
#    y 0.000000 -1.268040 0.000000 
#    z -0.070880 0.000000 4.035620 
# 
# 
# High freq. dielectric constant tensor:
#      x y z
#    x 1.821500 0.000000 -0.013090 
#    y 0.000000 1.804400 0.000000 
#    z -0.013090 0.000000 1.850250 
# 
# From -- ./inp_files/49164.got.cif
#   From: 2010.06.25/outbox.cif.g09.slc.cpg/sg15_25_cif.got.tgz:49164.got - 2010.06.28 07:06:18.
