data_PCOD8151558
_publ_section_title
;
Structure prediction by ZEFSAII (Michael W. Deem and Ramdas Pophale) SiO2 
 PCOD8151558
Probable space group: C 2/C
;
_chemical_formula_sum "Si O2"
_cell_formula_units_Z 64
_cell_length_a 17.390694
_cell_length_b 20.206778
_cell_length_c 9.572083
_cell_angle_alpha 90.000000
_cell_angle_beta 91.151110
_cell_angle_gamma 90.000000
_cell_volume 3363.045827
_symmetry_space_group_name_H-M "C 2/C"
_symmetry_group_IT_number 15
_symmetry_cell_setting 'monoclinic'
loop_
_space_group_symop_operation_xyz
x,y,z
-x,y,1/2-z
-x,-y,-z
x,-y,1/2+z
1/2+x,1/2+y,z
1/2-x,1/2+y,1/2-z
1/2-x,1/2-y,-z
1/2+x,1/2-y,1/2+z
loop_
_atom_site_type_symbol
_atom_site_label
_atom_site_fract_x
_atom_site_fract_y
_atom_site_fract_z
Si Si1 0.324178 0.706079 0.999527
Si Si2 0.963319 0.043916 0.885925
Si Si3 0.316307 0.805549 0.499987
Si Si4 0.585880 0.730313 0.214521
Si Si5 0.089155 0.744598 0.262900
Si Si6 0.081451 0.862296 0.465374
Si Si7 0.730812 0.437383 0.417225
Si Si8 0.288888 0.440375 0.399838
O O1 0.366390 0.709476 0.148673
O O2 0.250000 0.750000 0.000000
O O3 0.380919 0.738811 0.889156
O O4 0.293638 0.632445 0.966221
O O5 0.874044 0.036269 0.871434
O O6 0.000000 0.014535 0.750000
O O7 0.993723 0.118515 0.919122
O O8 0.000000 0.000000 0.000000
O O9 0.250000 0.750000 0.500000
O O10 0.373406 0.788768 0.372570
O O11 0.361880 0.810732 0.650575
O O12 0.281313 0.878150 0.481601
O O13 0.500000 0.754599 0.250000
O O14 0.581876 0.663343 0.123197
O O15 0.107593 0.807520 0.358301
O O16 0.000000 0.723601 0.250000
O O17 0.140626 0.922767 0.444189
O O18 0.752131 0.441996 0.253232
O O19 0.750983 0.507174 0.495179
#
# Coordination Sequence:
#
# PCOD8151558 Si02
#       8
#     8   8   8   8   8   8   8   8
#     4  12  24  38  60  92 121 154 204 266 305 355
#     4  12  21  34  50  77 114 162 196 231 275 351
#     4  11  21  41  65  86 124 169 209 254 317 370
#     4  11  23  37  61  91 122 157 204 259 307 361
#     4  11  21  39  64  86 120 163 205 252 309 374
#     4  11  21  36  56  78 123 167 204 231 295 364
#     4  12  24  39  58  86 119 172 208 251 300 365
#     4  12  24  39  55  85 123 164 212 250 299 366
#
# _framework density 19.030369
#
# number of rings (size 3 to 8) (size 9 to 14) (size 15 to 20)
#    0.000    0.500    6.250    4.875    1.750    1.500 
#    0.000    0.000    0.000    0.000    0.000   14.875 
#    0.000    0.000    0.000    0.000    0.000    0.000 
#
# Total GULP energy -396641.147049 kJ/mol
# GULP energy per Si atom -12395.035845 kJ/mol
# Density = 1.898706 g / cm^3
# Si number density = 19.030369 Si / 1000 Ang^3
#
#
#
# Elastic Constant Matrix: (Units=GPa)
#
#
# Indices 1 2 3 4 5 6 
#
# 1 79.3792 28.6486 32.6435 0.0000 0.6011 0.0000
# 2 28.6486 87.4596 38.0317 0.0000 1.9870 0.0000
# 3 32.6435 38.0317 142.6129 0.0000 9.5586 0.0000
# 4 0.0000 0.0000 0.0000 26.0509 0.0000 7.0121
# 5 0.6011 1.9870 9.5586 0.0000 32.8311 0.0000
# 6 0.0000 0.0000 0.0000 7.0121 0.0000 30.4420
#
#
#
# Elastic Compliance Matrix: (Units=1/GPa)
#
#
# Indices 1 2 3 4 5 6 
#
# 1 0.014993 -0.003862 -0.002447 0.000000 0.000672 0.000000
# 2 -0.003862 0.013930 -0.002834 0.000000 0.000053 0.000000
# 3 -0.002447 -0.002834 0.008479 0.000000 -0.002252 0.000000
# 4 0.000000 0.000000 0.000000 0.040924 0.000000 -0.009426
# 5 0.000672 0.000053 -0.002252 0.000000 0.031099 0.000000
# 6 0.000000 0.000000 0.000000 -0.009426 0.000000 0.035021
#
#
# Mechanical properties :
#
#
# Convention : Reuss Voigt Hill
#
# Bulk Modulus (GPa) = 52.31506 56.45546 54.38526
# Shear Modulus (GPa) = 29.56754 31.87333 30.72044
#
# Velocity S-wave (km/s) = 3.94598 4.09695 4.02218
# Velocity P-wave (km/s) = 6.95061 7.21875 7.08595
#
# Compressibility (1/GPa) = 0.01911495
#
# Stress axis : x y z
#
# Youngs Moduli (GPa) = 66.69849 71.78576 117.94022
#
# Poissons Ratio (x) = 0.27726 0.28858
# Poissons Ratio (y) = 0.25761 0.33429
# Poissons Ratio (z) = 0.16320 0.20347
#
# Static dielectric constant tensor:
#      x y z
#    x 3.412000 0.000000 -0.069760 
#    y 0.000000 2.456690 0.000000 
#    z -0.069760 0.000000 3.685880 
# 
# 
# High freq. dielectric constant tensor:
#      x y z
#    x 1.726270 0.000000 0.006990 
#    y 0.000000 1.717270 0.000000 
#    z 0.006990 0.000000 1.765620 
# 
# From -- ./inp_files/50235.got.cif
#   From: 2010.06.25/outbox.cif.g09.slc.cpg/sg15_26_cif.got.tgz:50235.got - 2010.06.28 07:06:18.
