data_PCOD8151314
_publ_section_title
;
Structure prediction by ZEFSAII (Michael W. Deem and Ramdas Pophale) SiO2 
 PCOD8151314
Probable space group: C 2/C
;
_chemical_formula_sum "Si O2"
_cell_formula_units_Z 40
_cell_length_a 20.029565
_cell_length_b 11.401733
_cell_length_c 11.710923
_cell_angle_alpha 90.000000
_cell_angle_beta 135.376189
_cell_angle_gamma 90.000000
_cell_volume 1878.660240
_symmetry_space_group_name_H-M "C 2/C"
_symmetry_group_IT_number 15
_symmetry_cell_setting 'monoclinic'
loop_
_space_group_symop_operation_xyz
x,y,z
-x,y,1/2-z
-x,-y,-z
x,-y,1/2+z
1/2+x,1/2+y,z
1/2-x,1/2+y,1/2-z
1/2-x,1/2-y,-z
1/2+x,1/2-y,1/2+z
loop_
_atom_site_type_symbol
_atom_site_label
_atom_site_fract_x
_atom_site_fract_y
_atom_site_fract_z
Si Si1 0.251618 0.434815 0.538720
Si Si2 0.203333 0.292935 0.262843
Si Si3 0.560195 0.055368 0.916537
Si Si4 0.988998 0.326030 0.926232
Si Si5 0.684050 0.320630 0.333280
O O1 0.226052 0.401046 0.376755
O O2 0.288487 0.325128 0.654825
O O3 0.160701 0.486780 0.493024
O O4 0.324143 0.544143 0.634291
O O5 0.276103 0.305166 0.246722
O O6 0.095715 0.289543 0.087179
O O7 0.500000 0.129931 0.750000
O O8 0.494085 0.941860 0.856233
O O9 0.573063 0.139518 0.038991
O O10 0.925164 0.225747 0.789306
O O11 0.750000 0.250000 0.500000
#
# Coordination Sequence:
#
# PCOD8151314 Si02
#       5
#     8   8   8   8   8
#     4  11  24  44  70 101 140 179 229 296 344 412
#     4  11  25  44  71 103 136 183 233 282 353 419
#     4  11  20  38  68  99 128 173 240 284 329 404
#     4  11  24  39  67 100 133 180 230 280 341 414
#     4  12  27  43  69 102 142 177 228 293 350 402
#
# _framework density 21.291768000000001
#
# number of rings (size 3 to 8) (size 9 to 14) (size 15 to 20)
#    0.000    0.800    6.000    1.200    5.600    0.800 
#    0.000    0.000    4.400    0.000    0.000    0.000 
#    0.000    0.000    0.000    0.000    0.000    0.000 
#
# Total GULP energy -247879.256464 kJ/mol
# GULP energy per Si atom -12393.962823 kJ/mol
# Density = 2.124331 g / cm^3
# Si number density = 21.291768 Si / 1000 Ang^3
#
#
#
# Elastic Constant Matrix: (Units=GPa)
#
#
# Indices 1 2 3 4 5 6 
#
# 1 68.5512 10.1163 22.4420 0.0000 -2.2547 0.0000
# 2 10.1163 109.6762 40.5572 0.0000 6.9248 0.0000
# 3 22.4420 40.5572 120.1580 0.0000 9.9356 0.0000
# 4 0.0000 0.0000 0.0000 22.2972 0.0000 48.3571
# 5 -2.2547 6.9248 9.9356 0.0000 35.4126 0.0000
# 6 0.0000 0.0000 0.0000 48.3571 0.0000 -57.7616
#
#
#
# Elastic Compliance Matrix: (Units=1/GPa)
#
#
# Indices 1 2 3 4 5 6 
#
# 1 0.015679 -0.000486 -0.002922 0.000000 0.001913 0.000000
# 2 -0.000486 0.010473 -0.003350 0.000000 -0.001139 0.000000
# 3 -0.002922 -0.003350 0.010197 0.000000 -0.002392 0.000000
# 4 0.000000 0.000000 0.000000 0.015928 0.000000 0.013335
# 5 0.001913 -0.001139 -0.002392 0.000000 0.029254 0.000000
# 6 0.000000 0.000000 0.000000 0.013335 0.000000 -0.006149
#
#
# Mechanical properties :
#
#
# Convention : Reuss Voigt Hill
#
# Bulk Modulus (GPa) = 43.79919 49.40183 46.60051
# Shear Modulus (GPa) = 51.80748 15.00765 33.40756
#
# Velocity S-wave (km/s) = 4.93812 2.65779 3.96540
# Velocity P-wave (km/s) = 7.28896 5.71587 6.54981
#
# Compressibility (1/GPa) = 0.02283147
#
# Stress axis : x y z
#
# Youngs Moduli (GPa) = 63.77926 95.48052 98.07060
#
# Poissons Ratio (x) = 0.04643 0.28661
# Poissons Ratio (y) = 0.03102 0.32854
# Poissons Ratio (z) = 0.18639 0.31987
#
# Static dielectric constant tensor:
#      x y z
#    x 3.941920 0.000000 -0.232610 
#    y 0.000000 3.788730 0.000000 
#    z -0.232610 0.000000 4.004510 
# 
# 
# High freq. dielectric constant tensor:
#      x y z
#    x 1.837110 0.000000 -0.015250 
#    y 0.000000 1.823140 0.000000 
#    z -0.015250 0.000000 1.853600 
# 
# From -- ./inp_files/103946.got.cif
#   From: 2010.06.25/outbox.cif.g09.slc.cpg/sg15_52_cif.got.tgz:103946.got - 2010.06.28 07:06:18.
