data_PCOD8151235
_publ_section_title
;
Structure prediction by ZEFSAII (Michael W. Deem and Ramdas Pophale) SiO2 
 PCOD8151235
Probable space group: C 2/C
;
_chemical_formula_sum "Si O2"
_cell_formula_units_Z 48
_cell_length_a 21.021837
_cell_length_b 9.637106
_cell_length_c 13.263002
_cell_angle_alpha 90.000000
_cell_angle_beta 58.403642
_cell_angle_gamma 90.000000
_cell_volume 2288.634806
_symmetry_space_group_name_H-M "C 2/C"
_symmetry_group_IT_number 15
_symmetry_cell_setting 'monoclinic'
loop_
_space_group_symop_operation_xyz
x,y,z
-x,y,1/2-z
-x,-y,-z
x,-y,1/2+z
1/2+x,1/2+y,z
1/2-x,1/2+y,1/2-z
1/2-x,1/2-y,-z
1/2+x,1/2-y,1/2+z
loop_
_atom_site_type_symbol
_atom_site_label
_atom_site_fract_x
_atom_site_fract_y
_atom_site_fract_z
Si Si1 0.314971 0.329389 0.004614
Si Si2 0.639486 0.110631 0.383138
Si Si3 0.206058 0.082084 0.342700
Si Si4 0.319349 0.858732 0.029266
Si Si5 0.347422 0.473592 0.313268
Si Si6 0.078490 0.693076 0.234369
O O1 0.368491 0.223045 0.020350
O O2 0.277393 0.441048 0.110565
O O3 0.250000 0.250000 0.000000
O O4 0.366110 0.409939 0.881076
O O5 0.718656 0.144874 0.265754
O O6 0.577687 0.126525 0.347170
O O7 0.635449 0.956118 0.430774
O O8 0.170047 0.200124 0.443370
O O9 0.150048 0.045243 0.298116
O O10 0.233657 0.906036 0.094635
O O11 0.354840 0.871933 0.888570
O O12 0.411263 0.358072 0.263708
O O13 0.000000 0.657255 0.250000
#
# Coordination Sequence:
#
# PCOD8151235 Si02
#       6
#     8   8   8   8   8   8
#     4  12  21  34  60 100 126 156 202 271 317 362
#     4  11  23  37  62  97 127 157 211 260 318 366
#     4  11  20  36  64  98 127 155 208 262 318 371
#     4  11  22  39  67  93 124 161 212 269 313 369
#     4  11  22  38  63  95 127 159 214 260 321 368
#     4  12  25  43  62  89 133 176 210 252 314 389
#
# _framework density 20.973202000000001
#
# number of rings (size 3 to 8) (size 9 to 14) (size 15 to 20)
#    0.000    0.667    8.333    2.500    0.000    0.667 
#    0.000    3.333    0.000    2.000    0.000    0.000 
#    0.000    0.000    0.000    0.000    0.000    0.000 
#
# Total GULP energy -297656.320476 kJ/mol
# GULP energy per Si atom -12402.346686 kJ/mol
# Density = 2.092547 g / cm^3
# Si number density = 20.973202 Si / 1000 Ang^3
#
#
#
# Elastic Constant Matrix: (Units=GPa)
#
#
# Indices 1 2 3 4 5 6 
#
# 1 90.5074 38.0164 25.6646 0.0000 35.9653 0.0000
# 2 38.0164 114.6321 30.2774 0.0000 19.8413 0.0000
# 3 25.6646 30.2774 72.8642 0.0000 33.7070 0.0000
# 4 0.0000 0.0000 0.0000 41.8664 0.0000 20.2730
# 5 35.9653 19.8413 33.7070 0.0000 34.8303 0.0000
# 6 0.0000 0.0000 0.0000 20.2730 0.0000 25.6463
#
#
#
# Elastic Compliance Matrix: (Units=1/GPa)
#
#
# Indices 1 2 3 4 5 6 
#
# 1 0.021147 -0.004227 0.005967 0.000000 -0.025202 0.000000
# 2 -0.004227 0.010817 -0.003937 0.000000 0.002013 0.000000
# 3 0.005967 -0.003937 0.027287 0.000000 -0.030325 0.000000
# 4 0.000000 0.000000 0.000000 0.038698 0.000000 -0.030591
# 5 -0.025202 0.002013 -0.030325 0.000000 0.082935 0.000000
# 6 0.000000 0.000000 0.000000 -0.030591 0.000000 0.063173
#
#
# Mechanical properties :
#
#
# Convention : Reuss Voigt Hill
#
# Bulk Modulus (GPa) = 18.22950 51.76894 34.99922
# Shear Modulus (GPa) = 18.74498 32.73829 25.74164
#
# Velocity S-wave (km/s) = 2.99282 3.95518 3.50717
# Velocity P-wave (km/s) = 4.54459 6.75240 5.75536
#
# Compressibility (1/GPa) = 0.05485615
#
# Stress axis : x y z
#
# Youngs Moduli (GPa) = 47.28761 92.44841 36.64751
#
# Poissons Ratio (x) = 0.39077 -0.21866
# Poissons Ratio (y) = 0.19988 0.14428
# Poissons Ratio (z) = -0.28214 0.36397
#
# Static dielectric constant tensor:
#      x y z
#    x 3.456030 0.000000 0.610280 
#    y 0.000000 4.070070 0.000000 
#    z 0.610280 0.000000 3.957620 
# 
# 
# High freq. dielectric constant tensor:
#      x y z
#    x 1.778050 0.000000 0.054220 
#    y 0.000000 1.835930 0.000000 
#    z 0.054220 0.000000 1.819040 
# 
# From -- ./inp_files/166152.got.cif
#   From: 2010.06.25/outbox.cif.g09.slc.cpg/sg15_84_cif.got.tgz:166152.got - 2010.06.28 07:06:18.
