data_PCOD8151271
_publ_section_title
;
Structure prediction by ZEFSAII (Michael W. Deem and Ramdas Pophale) SiO2 
 PCOD8151271
Probable space group: C 2/C
;
_chemical_formula_sum "Si O2"
_cell_formula_units_Z 64
_cell_length_a 32.048500
_cell_length_b 10.094631
_cell_length_c 19.181264
_cell_angle_alpha 90.000000
_cell_angle_beta 32.544788
_cell_angle_gamma 90.000000
_cell_volume 3338.292076
_symmetry_space_group_name_H-M "C 2/C"
_symmetry_group_IT_number 15
_symmetry_cell_setting 'monoclinic'
loop_
_space_group_symop_operation_xyz
x,y,z
-x,y,1/2-z
-x,-y,-z
x,-y,1/2+z
1/2+x,1/2+y,z
1/2-x,1/2+y,1/2-z
1/2-x,1/2-y,-z
1/2+x,1/2-y,1/2+z
loop_
_atom_site_type_symbol
_atom_site_label
_atom_site_fract_x
_atom_site_fract_y
_atom_site_fract_z
Si Si1 0.783685 0.621727 0.145130
Si Si2 0.399077 0.099680 0.456628
Si Si3 0.565419 0.969431 0.749861
Si Si4 0.938416 0.775264 0.742954
Si Si5 0.213201 0.127537 0.092086
Si Si6 0.277456 0.121003 0.421777
Si Si7 0.896224 0.153408 0.457661
Si Si8 0.817106 0.875918 0.579507
O O1 0.743936 0.614081 0.126283
O O2 0.715263 0.621187 0.297245
O O3 0.837586 0.493529 0.082927
O O4 0.831900 0.757170 0.086471
O O5 0.408890 0.038058 0.366460
O O6 0.481749 0.097968 0.379958
O O7 0.371314 0.249560 0.491796
O O8 0.629379 0.894718 0.706658
O O9 0.560472 0.121698 0.779556
O O10 0.879827 0.853515 0.774602
O O11 0.908475 0.787378 0.863980
O O12 0.023301 0.837998 0.613191
O O13 0.250000 0.250000 0.000000
O O14 0.233764 0.998708 0.019868
O O15 0.250000 0.250000 0.500000
O O16 0.254423 0.128070 0.373344
O O17 0.870686 0.002158 0.489984
#
# Coordination Sequence:
#
# PCOD8151271 Si02
#       8
#     8   8   8   8   8   8   8   8
#     4  12  22  42  61  88 128 164 194 242 313 367
#     4  11  21  40  61  90 121 168 193 243 311 358
#     4  11  20  38  68  87 121 154 210 254 296 352
#     4  11  20  37  67  93 114 152 215 263 284 345
#     4  12  20  37  65  91 114 153 210 251 286 348
#     4  12  22  39  59  93 122 156 204 248 295 355
#     4  11  21  38  62  91 118 157 205 253 296 350
#     4  12  26  38  59  95 130 156 197 250 306 367
#
# _framework density 19.171479000000001
#
# number of rings (size 3 to 8) (size 9 to 14) (size 15 to 20)
#    0.000    0.500    8.750    1.500    0.000    3.000 
#    0.000    2.500    0.000    0.000    0.000    0.000 
#    0.000    0.000    0.000    0.000    0.000    0.000 
#
# Total GULP energy -396941.369323 kJ/mol
# GULP energy per Si atom -12404.417791 kJ/mol
# Density = 1.912784 g / cm^3
# Si number density = 19.171479 Si / 1000 Ang^3
#
#
#
# Elastic Constant Matrix: (Units=GPa)
#
#
# Indices 1 2 3 4 5 6 
#
# 1 105.6970 42.3972 45.7423 0.0004 -36.1985 -0.0003
# 2 42.3972 131.9055 20.4401 0.0057 -16.7613 -0.0012
# 3 45.7423 20.4401 60.6628 0.0031 -15.1476 -0.0006
# 4 0.0004 0.0057 0.0031 16.9283 -0.0011 -10.7806
# 5 -36.1985 -16.7613 -15.1476 -0.0011 42.9719 0.0000
# 6 -0.0003 -0.0012 -0.0006 -10.7806 0.0000 26.4322
#
#
#
# Elastic Compliance Matrix: (Units=1/GPa)
#
#
# Indices 1 2 3 4 5 6 
#
# 1 0.019093 -0.003081 -0.010573 0.000004 0.011154 0.000002
# 2 -0.003081 0.008724 -0.000455 -0.000003 0.000647 -0.000001
# 3 -0.010573 -0.000455 0.024499 -0.000005 -0.000448 -0.000002
# 4 0.000004 -0.000003 -0.000005 0.079800 0.000002 0.032547
# 5 0.011154 0.000647 -0.000448 0.000002 0.032762 0.000001
# 6 0.000002 -0.000001 -0.000002 0.032547 0.000001 0.051107
#
#
# Mechanical properties :
#
#
# Convention : Reuss Voigt Hill
#
# Bulk Modulus (GPa) = 41.49834 57.26940 49.38387
# Shear Modulus (GPa) = 19.82280 29.91219 24.86750
#
# Velocity S-wave (km/s) = 3.21903 3.95428 3.60545
# Velocity P-wave (km/s) = 5.95895 7.12639 6.56866
#
# Compressibility (1/GPa) = 0.02409735
#
# Stress axis : x y z
#
# Youngs Moduli (GPa) = 52.37593 114.62375 40.81871
#
# Poissons Ratio (x) = 0.35315 0.43159
# Poissons Ratio (y) = 0.16137 0.01856
# Poissons Ratio (z) = 0.55379 0.05213
#
# Static dielectric constant tensor:
#      x y z
#    x 3.626310 0.000010 -0.367690 
#    y 0.000010 3.645780 0.000000 
#    z -0.367690 0.000000 3.397770 
# 
# 
# High freq. dielectric constant tensor:
#      x y z
#    x 1.746210 0.000000 -0.028960 
#    y 0.000000 1.758870 0.000000 
#    z -0.028960 0.000000 1.726920 
# 
# From -- ./inp_files/224612.got.cif
#   From: 2010.06.25/outbox.cif.g09.slc.cpg/sg15_113_cif.got.tgz:224612.got - 2010.06.28 07:06:18.
