data_PCOD8151511
_publ_section_title
;
Structure prediction by ZEFSAII (Michael W. Deem and Ramdas Pophale) SiO2 
 PCOD8151511
Probable space group: C 2/C
;
_chemical_formula_sum "Si O2"
_cell_formula_units_Z 60
_cell_length_a 25.743179
_cell_length_b 14.800932
_cell_length_c 20.321047
_cell_angle_alpha 90.000000
_cell_angle_beta 160.107513
_cell_angle_gamma 90.000000
_cell_volume 2634.531721
_symmetry_space_group_name_H-M "C 2/C"
_symmetry_group_IT_number 15
_symmetry_cell_setting 'monoclinic'
loop_
_space_group_symop_operation_xyz
x,y,z
-x,y,1/2-z
-x,-y,-z
x,-y,1/2+z
1/2+x,1/2+y,z
1/2-x,1/2+y,1/2-z
1/2-x,1/2-y,-z
1/2+x,1/2-y,1/2+z
loop_
_atom_site_type_symbol
_atom_site_label
_atom_site_fract_x
_atom_site_fract_y
_atom_site_fract_z
Si Si1 0.078492 0.203938 0.458198
Si Si2 0.000000 0.664150 0.750000
Si Si3 0.724532 0.014223 0.170126
Si Si4 0.834788 0.673361 0.063677
Si Si5 0.159478 0.006390 0.550645
Si Si6 0.423580 0.617241 0.831840
Si Si7 0.638180 0.295639 0.683813
Si Si8 0.103835 0.493745 0.284585
O O1 0.086399 0.267142 0.402394
O O2 0.243059 0.215347 0.690555
O O3 0.941889 0.232847 0.343275
O O4 0.061261 0.097638 0.425410
O O5 0.891864 0.598106 0.665691
O O6 0.726318 0.001306 0.250966
O O7 0.757239 0.115549 0.185957
O O8 0.872047 0.958797 0.321699
O O9 0.560871 0.988333 0.944892
O O10 0.856564 0.576235 0.121674
O O11 0.000000 0.716545 0.250000
O O12 0.750000 0.750000 0.000000
O O13 0.733896 0.660306 0.879024
O O14 0.032642 0.926136 0.405036
O O15 0.263575 0.003157 0.610705
O O16 0.516030 0.695562 0.979840
#
# Coordination Sequence:
#
# PCOD8151511 Si02
#       8
#     8   4   8   8   8   8   8   8
#     4  12  25  43  68 109 149 189 253 292 352 439
#     4  12  26  46  70 104 156 212 226 292 376 440
#     4  11  20  49  74  98 138 198 237 292 376 420
#     4  12  29  49  75 103 139 182 244 307 370 440
#     4  11  25  42  75 112 140 192 247 300 350 445
#     4  11  23  49  77  98 143 193 236 301 383 421
#     4  11  24  43  70 103 146 186 246 302 355 428
#     4  12  25  48  72 104 149 192 239 297 375 445
#
# _framework density 22.774445
#
# number of rings (size 3 to 8) (size 9 to 14) (size 15 to 20)
#    0.000    0.533    6.000    2.000    1.867    5.333 
#    2.400    0.000    0.000    0.000    0.000    0.000 
#    0.000    0.000    0.000    0.000    0.000    0.000 
#
# Total GULP energy -371797.561941 kJ/mol
# GULP energy per Si atom -12393.252065 kJ/mol
# Density = 2.272261 g / cm^3
# Si number density = 22.774445 Si / 1000 Ang^3
#
#
#
# Elastic Constant Matrix: (Units=GPa)
#
#
# Indices 1 2 3 4 5 6 
#
# 1 117.2005 23.0198 27.5869 -0.0006 20.4654 -0.0012
# 2 23.0198 68.8290 34.3010 0.0054 -6.6109 0.0082
# 3 27.5869 34.3010 117.9844 -0.0078 3.0564 -0.0103
# 4 -0.0006 0.0054 -0.0078 4.9118 -0.0006 -23.6287
# 5 20.4654 -6.6109 3.0564 -0.0006 39.8406 -0.0011
# 6 -0.0012 0.0082 -0.0103 -23.6287 -0.0011 4.0802
#
#
#
# Elastic Compliance Matrix: (Units=1/GPa)
#
#
# Indices 1 2 3 4 5 6 
#
# 1 0.010545 -0.003437 -0.001314 -0.000001 -0.005886 -0.000001
# 2 -0.003437 0.018529 -0.004718 0.000010 0.005202 0.000008
# 3 -0.001314 -0.004718 0.010178 -0.000007 -0.000889 -0.000006
# 4 -0.000001 0.000010 -0.000007 -0.007580 0.000001 -0.043897
# 5 -0.005886 0.005202 -0.000889 0.000001 0.029055 0.000001
# 6 -0.000001 0.000008 -0.000006 -0.043897 0.000001 -0.009125
#
#
# Mechanical properties :
#
#
# Convention : Reuss Voigt Hill
#
# Bulk Modulus (GPa) = 49.22868 52.64771 50.93820
# Shear Modulus (GPa) = 64.67443 24.37359 44.52401
#
# Velocity S-wave (km/s) = 5.33474 3.27497 4.42633
# Velocity P-wave (km/s) = 7.72066 6.12109 6.96693
#
# Compressibility (1/GPa) = 0.02031336
#
# Stress axis : x y z
#
# Youngs Moduli (GPa) = 94.83552 53.96881 98.25570
#
# Poissons Ratio (x) = 0.18551 0.12908
# Poissons Ratio (y) = 0.32598 0.46357
# Poissons Ratio (z) = 0.12459 0.25462
#
# Static dielectric constant tensor:
#      x y z
#    x 4.253930 0.000000 0.125360 
#    y 0.000000 4.188670 0.000000 
#    z 0.125360 0.000000 4.168040 
# 
# 
# High freq. dielectric constant tensor:
#      x y z
#    x 1.897220 0.000000 0.006390 
#    y 0.000000 1.897500 0.000000 
#    z 0.006390 0.000000 1.910980 
# 
# From -- ./inp_files/257902.got.cif
#   From: 2010.06.25/outbox.cif.g09.slc.cpg/sg15_129_cif.got.tgz:257902.got - 2010.06.28 07:06:18.
