data_PCOD8151023
_publ_section_title
;
Structure prediction by ZEFSAII (Michael W. Deem and Ramdas Pophale) SiO2 
 PCOD8151023
Probable space group: C 2/C
;
_chemical_formula_sum "Si O2"
_cell_formula_units_Z 56
_cell_length_a 21.448808
_cell_length_b 11.804163
_cell_length_c 12.808560
_cell_angle_alpha 90.000000
_cell_angle_beta 120.223453
_cell_angle_gamma 90.000000
_cell_volume 2802.121769
_symmetry_space_group_name_H-M "C 2/C"
_symmetry_group_IT_number 15
_symmetry_cell_setting 'monoclinic'
loop_
_space_group_symop_operation_xyz
x,y,z
-x,y,1/2-z
-x,-y,-z
x,-y,1/2+z
1/2+x,1/2+y,z
1/2-x,1/2+y,1/2-z
1/2-x,1/2-y,-z
1/2+x,1/2-y,1/2+z
loop_
_atom_site_type_symbol
_atom_site_label
_atom_site_fract_x
_atom_site_fract_y
_atom_site_fract_z
Si Si1 0.013099 0.334855 0.533747
Si Si2 0.750188 0.211302 0.119640
Si Si3 0.455149 0.017794 0.621718
Si Si4 0.148458 0.353015 0.175657
Si Si5 0.828657 0.560497 0.151043
Si Si6 0.355637 0.714029 0.798278
Si Si7 0.256273 0.448614 0.109648
O O1 0.062368 0.396853 0.487201
O O2 0.057535 0.221333 0.603628
O O3 0.009701 0.417828 0.630575
O O4 0.933023 0.319028 0.422162
O O5 0.826113 0.248139 0.233285
O O6 0.686634 0.276986 0.127594
O O7 0.745629 0.077935 0.134487
O O8 0.750000 0.250000 0.000000
O O9 0.500000 0.082507 0.750000
O O10 0.381307 0.964465 0.597873
O O11 0.159155 0.467063 0.251014
O O12 0.195956 0.367674 0.111940
O O13 0.836419 0.682428 0.206905
O O14 0.751372 0.558232 0.023877
O O15 0.333945 0.599468 0.716972
#
# Coordination Sequence:
#
# PCOD8151023 Si02
#       7
#     8   8   8   8   8   8   8
#     4  11  21  35  53  93 122 153 196 244 313 359
#     4  11  23  41  60  85 118 161 204 249 299 357
#     4  11  19  30  58  88 124 151 187 255 312 349
#     4  11  22  35  62  90 120 153 200 255 298 361
#     4  12  19  36  60  90 118 155 199 248 306 356
#     4  11  24  37  58  89 123 155 196 250 302 371
#     4  11  23  40  58  87 122 159 202 246 301 356
#
# _framework density 19.984856000000001
#
# number of rings (size 3 to 8) (size 9 to 14) (size 15 to 20)
#    0.000    0.857    7.143    2.143    0.000    0.000 
#    0.000    0.714    0.000    0.000    3.714    0.000 
#    0.000    0.000    0.000    0.000    0.000    0.000 
#
# Total GULP energy -346963.187338 kJ/mol
# GULP energy per Si atom -12391.542405 kJ/mol
# Density = 1.993937 g / cm^3
# Si number density = 19.984856 Si / 1000 Ang^3
#
#
#
# Elastic Constant Matrix: (Units=GPa)
#
#
# Indices 1 2 3 4 5 6 
#
# 1 54.1848 13.0610 25.1578 0.0000 16.7512 0.0000
# 2 13.0610 55.4962 29.0150 0.0000 17.5607 0.0000
# 3 25.1578 29.0150 110.0473 0.0000 34.1195 0.0000
# 4 0.0000 0.0000 0.0000 28.6383 0.0000 7.4192
# 5 16.7512 17.5607 34.1195 0.0000 30.6901 0.0000
# 6 0.0000 0.0000 0.0000 7.4192 0.0000 24.2248
#
#
#
# Elastic Compliance Matrix: (Units=1/GPa)
#
#
# Indices 1 2 3 4 5 6 
#
# 1 0.022576 -0.001336 -0.001870 0.000000 -0.009479 0.000000
# 2 -0.001336 0.022704 -0.002867 0.000000 -0.009074 0.000000
# 3 -0.001870 -0.002867 0.014414 0.000000 -0.013363 0.000000
# 4 0.000000 0.000000 0.000000 0.037928 0.000000 -0.011616
# 5 -0.009479 -0.009074 -0.013363 0.000000 0.057806 0.000000
# 6 0.000000 0.000000 0.000000 -0.011616 0.000000 0.044838
#
#
# Mechanical properties :
#
#
# Convention : Reuss Voigt Hill
#
# Bulk Modulus (GPa) = 21.03180 39.35508 30.19344
# Shear Modulus (GPa) = 21.90478 26.87694 24.39086
#
# Velocity S-wave (km/s) = 3.31429 3.67122 3.49731
# Velocity P-wave (km/s) = 5.01923 6.14049 5.60796
#
# Compressibility (1/GPa) = 0.04754706
#
# Stress axis : x y z
#
# Youngs Moduli (GPa) = 44.29473 44.04483 69.37904
#
# Poissons Ratio (x) = 0.05885 0.12973
# Poissons Ratio (y) = 0.05919 0.19893
# Poissons Ratio (z) = 0.08283 0.12629
#
# Static dielectric constant tensor:
#      x y z
#    x 3.676890 0.000000 0.020370 
#    y 0.000000 3.436250 0.000000 
#    z 0.020370 0.000000 4.052690 
# 
# 
# High freq. dielectric constant tensor:
#      x y z
#    x 1.763170 0.000000 -0.002770 
#    y 0.000000 1.736530 0.000000 
#    z -0.002770 0.000000 1.814800 
# 
# From -- ./inp_files/111669.got.cif
#   From: 2010.06.25/outbox.cif.g09.slc.cpg/sg15_56_cif.got.tgz:111669.got - 2010.06.28 07:06:18.
