data_PCOD8151045
_publ_section_title
;
Structure prediction by ZEFSAII (Michael W. Deem and Ramdas Pophale) SiO2 
 PCOD8151045
Probable space group: C 2/C
;
_chemical_formula_sum "Si O2"
_cell_formula_units_Z 56
_cell_length_a 24.340794
_cell_length_b 13.815005
_cell_length_c 7.491268
_cell_angle_alpha 90.000000
_cell_angle_beta 75.218175
_cell_angle_gamma 90.000000
_cell_volume 2435.704761
_symmetry_space_group_name_H-M "C 2/C"
_symmetry_group_IT_number 15
_symmetry_cell_setting 'monoclinic'
loop_
_space_group_symop_operation_xyz
x,y,z
-x,y,1/2-z
-x,-y,-z
x,-y,1/2+z
1/2+x,1/2+y,z
1/2-x,1/2+y,1/2-z
1/2-x,1/2-y,-z
1/2+x,1/2-y,1/2+z
loop_
_atom_site_type_symbol
_atom_site_label
_atom_site_fract_x
_atom_site_fract_y
_atom_site_fract_z
Si Si1 0.639807 0.251494 0.820216
Si Si2 0.261189 0.886947 0.147430
Si Si3 0.435435 0.710144 0.802203
Si Si4 0.419123 0.088510 0.218468
Si Si5 0.440039 0.885469 0.299813
Si Si6 0.202153 0.407471 0.744043
Si Si7 0.159838 0.793174 0.412159
O O1 0.697598 0.203437 0.841709
O O2 0.600863 0.160246 0.808993
O O3 0.648944 0.314521 0.631541
O O4 0.605592 0.317735 0.995291
O O5 0.202949 0.873874 0.303563
O O6 0.282887 0.996699 0.159392
O O7 0.249425 0.881392 0.943197
O O8 0.500000 0.662265 0.750000
O O9 0.446385 0.825377 0.810058
O O10 0.399545 0.693358 0.648726
O O11 0.353768 0.071612 0.332700
O O12 0.455201 0.993030 0.218879
O O13 0.412721 0.117558 0.016296
O O14 0.500000 0.828558 0.250000
O O15 0.189730 0.313036 0.875998
#
# Coordination Sequence:
#
# PCOD8151045 Si02
#       7
#     8   8   8   8   8   8   8
#     4  12  22  37  60  83 123 165 206 255 308 362
#     4  12  23  41  64  91 129 168 211 257 314 371
#     4  11  23  39  59  87 122 166 205 253 311 370
#     4  11  19  35  49  78 117 157 210 238 287 357
#     4  12  21  30  48  76 113 159 205 249 284 355
#     4  11  21  39  61  85 125 166 205 258 307 366
#     4  11  25  42  62  95 127 164 212 259 310 373
#
# _framework density 22.991292000000001
#
# number of rings (size 3 to 8) (size 9 to 14) (size 15 to 20)
#    0.000    0.571    7.143    5.143    0.000    0.000 
#    0.000    0.000    0.000    0.000    0.000    1.000 
#    0.000    0.000    0.000    0.000    0.000    0.000 
#
# Total GULP energy -346877.552072 kJ/mol
# GULP energy per Si atom -12388.484003 kJ/mol
# Density = 2.293896 g / cm^3
# Si number density = 22.991292 Si / 1000 Ang^3
#
#
#
# Elastic Constant Matrix: (Units=GPa)
#
#
# Indices 1 2 3 4 5 6 
#
# 1 52.4600 8.7188 2.7717 0.0000 -18.0577 0.0000
# 2 8.7188 26.3900 0.2187 0.0000 -5.9498 0.0000
# 3 2.7717 0.2187 128.5886 0.0000 7.7056 0.0000
# 4 0.0000 0.0000 0.0000 12.8888 0.0000 -5.2066
# 5 -18.0577 -5.9498 7.7056 0.0000 29.7453 0.0000
# 6 0.0000 0.0000 0.0000 -5.2066 0.0000 13.3733
#
#
#
# Elastic Compliance Matrix: (Units=1/GPa)
#
#
# Indices 1 2 3 4 5 6 
#
# 1 0.024960 -0.004960 -0.001400 0.000000 0.014523 0.000000
# 2 -0.004960 0.040707 -0.000274 0.000000 0.005202 0.000000
# 3 -0.001400 -0.000274 0.007986 0.000000 -0.002973 0.000000
# 4 0.000000 0.000000 0.000000 0.092066 0.000000 0.035844
# 5 0.014523 0.005202 -0.002973 0.000000 0.044246 0.000000
# 6 0.000000 0.000000 0.000000 0.035844 0.000000 0.088731
#
#
# Mechanical properties :
#
#
# Convention : Reuss Voigt Hill
#
# Bulk Modulus (GPa) = 16.56074 25.65076 21.10575
# Shear Modulus (GPa) = 15.05607 24.25011 19.65309
#
# Velocity S-wave (km/s) = 2.56180 3.25122 2.92688
# Velocity P-wave (km/s) = 3.99614 5.02741 4.54114
#
# Compressibility (1/GPa) = 0.06038376
#
# Stress axis : x y z
#
# Youngs Moduli (GPa) = 40.06482 24.56573 125.22614
#
# Poissons Ratio (x) = 0.12185 0.17529
# Poissons Ratio (y) = 0.19874 0.03432
# Poissons Ratio (z) = 0.05608 0.00673
#
# Static dielectric constant tensor:
#      x y z
#    x 4.052760 0.000000 -0.182910 
#    y 0.000000 3.560970 0.000000 
#    z -0.182910 0.000000 4.487270 
# 
# 
# High freq. dielectric constant tensor:
#      x y z
#    x 1.910000 0.000000 -0.004990 
#    y 0.000000 1.835080 0.000000 
#    z -0.004990 0.000000 1.930490 
# 
# From -- ./inp_files/66152.got.cif
#   From: 2010.06.25/outbox.cif.g09.slc.cpg/sg15_34_cif.got.tgz:66152.got - 2010.06.28 07:06:18.
