data_PCOD8151874
_publ_section_title
;
Structure prediction by ZEFSAII (Michael W. Deem and Ramdas Pophale) SiO2 
 PCOD8151874
Probable space group: C 2/C
;
_chemical_formula_sum "Si O2"
_cell_formula_units_Z 44
_cell_length_a 17.765965
_cell_length_b 5.229004
_cell_length_c 23.597154
_cell_angle_alpha 90.000000
_cell_angle_beta 110.187599
_cell_angle_gamma 90.000000
_cell_volume 2057.467692
_symmetry_space_group_name_H-M "C 2/C"
_symmetry_group_IT_number 15
_symmetry_cell_setting 'monoclinic'
loop_
_space_group_symop_operation_xyz
x,y,z
-x,y,1/2-z
-x,-y,-z
x,-y,1/2+z
1/2+x,1/2+y,z
1/2-x,1/2+y,1/2-z
1/2-x,1/2-y,-z
1/2+x,1/2-y,1/2+z
loop_
_atom_site_type_symbol
_atom_site_label
_atom_site_fract_x
_atom_site_fract_y
_atom_site_fract_z
Si Si1 0.473855 0.249841 0.960038
Si Si2 0.500000 0.917245 0.250000
Si Si3 0.808970 0.718964 0.863263
Si Si4 0.364449 0.702976 0.682175
Si Si5 0.854552 0.795232 0.309791
Si Si6 0.992969 0.080546 0.150939
O O1 0.377587 0.238421 0.928928
O O2 0.517129 0.261545 0.909736
O O3 0.500000 0.500000 0.000000
O O4 0.500000 0.000000 0.000000
O O5 0.540522 0.750547 0.210343
O O6 0.571479 0.068486 0.299585
O O7 0.721764 0.725760 0.871649
O O8 0.825511 0.472496 0.827928
O O9 0.807623 0.975727 0.826638
O O10 0.336585 0.659856 0.739223
O O11 0.407760 0.477645 0.658276
O O12 0.951275 0.829674 0.345121
#
# Coordination Sequence:
#
# PCOD8151874 Si02
#       6
#     8   4   8   8   8   8
#     4  11  25  48  70  89 128 181 236 278 325 391
#     4  12  22  40  70 102 154 166 216 260 366 410
#     4  11  26  40  68  98 133 174 229 273 331 394
#     4  12  23  38  64 103 139 173 213 275 336 412
#     4  11  21  42  62 101 140 176 208 265 343 419
#     4  11  24  40  70 101 132 184 220 270 341 409
#
# _framework density 21.385511999999999
#
# number of rings (size 3 to 8) (size 9 to 14) (size 15 to 20)
#    0.000    0.727    3.636    5.455    5.091    0.000 
#    0.000    1.818    0.000    0.000    0.000    0.000 
#    0.000    0.000    0.000    0.000    0.000    0.000 
#
# Total GULP energy -272538.838258 kJ/mol
# GULP energy per Si atom -12388.129012 kJ/mol
# Density = 2.133684 g / cm^3
# Si number density = 21.385512 Si / 1000 Ang^3
#
#
#
# Elastic Constant Matrix: (Units=GPa)
#
#
# Indices 1 2 3 4 5 6 
#
# 1 156.7492 46.9017 47.0779 0.0006 24.6886 -0.0008
# 2 46.9017 117.9253 50.0047 0.0012 3.3300 -0.0034
# 3 47.0779 50.0047 113.5898 0.0007 -2.1389 -0.0009
# 4 0.0006 0.0012 0.0007 31.5604 -0.0004 2.6743
# 5 24.6886 3.3300 -2.1389 -0.0004 33.7755 0.0010
# 6 -0.0008 -0.0034 -0.0009 2.6743 0.0010 10.2257
#
#
#
# Elastic Compliance Matrix: (Units=1/GPa)
#
#
# Indices 1 2 3 4 5 6 
#
# 1 0.008902 -0.002141 -0.002869 0.000000 -0.006478 0.000000
# 2 -0.002141 0.011000 -0.003951 -0.000001 0.000230 0.000003
# 3 -0.002869 -0.003951 0.011793 0.000000 0.003233 -0.000001
# 4 0.000000 -0.000001 0.000000 0.032403 0.000001 -0.008474
# 5 -0.006478 0.000230 0.003233 0.000001 0.034524 -0.000004
# 6 0.000000 0.000003 -0.000001 -0.008474 -0.000004 0.100009
#
#
# Mechanical properties :
#
#
# Convention : Reuss Voigt Hill
#
# Bulk Modulus (GPa) = 72.60354 75.13699 73.87026
# Shear Modulus (GPa) = 22.60961 31.39766 27.00364
#
# Velocity S-wave (km/s) = 3.25505 3.83583 3.55731
# Velocity P-wave (km/s) = 6.93907 7.40466 7.17564
#
# Compressibility (1/GPa) = 0.01377343
#
# Stress axis : x y z
#
# Youngs Moduli (GPa) = 112.33147 90.90642 84.79761
#
# Poissons Ratio (x) = 0.19465 0.24328
# Poissons Ratio (y) = 0.24052 0.33502
# Poissons Ratio (z) = 0.32228 0.35916
#
# Static dielectric constant tensor:
#      x y z
#    x 4.178580 0.000000 0.132170 
#    y 0.000000 3.944830 0.000000 
#    z 0.132170 0.000000 3.892860 
# 
# 
# High freq. dielectric constant tensor:
#      x y z
#    x 1.844270 0.000000 0.003440 
#    y 0.000000 1.852770 0.000000 
#    z 0.003440 0.000000 1.810800 
# 
# From -- ./inp_files/275733.got.cif
#   From: 2010.06.25/outbox.cif.g09.slc.cpg/sg15_138_cif.got.tgz:275733.got - 2010.06.28 07:06:18.
