data_PCOD8151674
_publ_section_title
;
Structure prediction by ZEFSAII (Michael W. Deem and Ramdas Pophale) SiO2 
 PCOD8151674
Probable space group: C 2/C
;
_chemical_formula_sum "Si O2"
_cell_formula_units_Z 56
_cell_length_a 23.851243
_cell_length_b 20.900677
_cell_length_c 11.068361
_cell_angle_alpha 90.000000
_cell_angle_beta 149.868856
_cell_angle_gamma 90.000000
_cell_volume 2769.758504
_symmetry_space_group_name_H-M "C 2/C"
_symmetry_group_IT_number 15
_symmetry_cell_setting 'monoclinic'
loop_
_space_group_symop_operation_xyz
x,y,z
-x,y,1/2-z
-x,-y,-z
x,-y,1/2+z
1/2+x,1/2+y,z
1/2-x,1/2+y,1/2-z
1/2-x,1/2-y,-z
1/2+x,1/2-y,1/2+z
loop_
_atom_site_type_symbol
_atom_site_label
_atom_site_fract_x
_atom_site_fract_y
_atom_site_fract_z
Si Si1 0.391090 0.177355 0.970351
Si Si2 0.781484 0.604064 0.559219
Si Si3 0.893978 0.887160 0.174189
Si Si4 0.871197 0.175978 0.394154
Si Si5 0.254706 0.900266 0.378627
Si Si6 0.879310 0.033061 0.064550
Si Si7 0.431937 0.997853 0.749124
O O1 0.375782 0.130898 0.826399
O O2 0.397925 0.249326 0.936478
O O3 0.282740 0.163172 0.852319
O O4 0.500000 0.158583 0.250000
O O5 0.730687 0.661568 0.385316
O O6 0.675614 0.570729 0.426508
O O7 0.842433 0.555190 0.583128
O O8 0.824924 0.876186 0.165429
O O9 0.020466 0.866195 0.437595
O O10 0.890951 0.959617 0.122845
O O11 0.837885 0.841711 0.969079
O O12 0.369465 0.930019 0.641246
O O13 0.199220 0.957373 0.197592
O O14 0.000000 0.061116 0.250000
O O15 0.500000 0.002826 0.750000
O O16 0.500000 0.000000 0.000000
#
# Coordination Sequence:
#
# PCOD8151674 Si02
#       7
#     8   8   8   8   8   8   8
#     4  11  23  47  62  88 127 179 215 261 317 390
#     4  11  24  40  69  94 128 171 214 274 326 388
#     4  11  22  38  65  96 128 165 206 271 323 393
#     4  11  23  42  63  94 129 167 219 260 325 387
#     4  11  24  39  65  92 127 169 211 261 331 387
#     4  11  21  38  65 101 132 159 203 270 341 395
#     4  12  25  42  64  98 133 173 220 273 332 396
#
# _framework density 20.218368999999999
#
# number of rings (size 3 to 8) (size 9 to 14) (size 15 to 20)
#    0.000    0.857    4.286    5.143    2.000    1.714 
#    0.000    0.000    0.000    1.714    0.000    0.000 
#    0.000    0.000    0.000    0.000    0.000    0.000 
#
# Total GULP energy -347133.266276 kJ/mol
# GULP energy per Si atom -12397.616653 kJ/mol
# Density = 2.017235 g / cm^3
# Si number density = 20.218369 Si / 1000 Ang^3
#
#
#
# Elastic Constant Matrix: (Units=GPa)
#
#
# Indices 1 2 3 4 5 6 
#
# 1 128.7307 21.6592 24.3803 0.0000 4.1674 0.0000
# 2 21.6592 85.0834 19.5679 0.0000 12.5615 0.0000
# 3 24.3803 19.5679 94.4281 0.0000 -4.9178 0.0000
# 4 0.0000 0.0000 0.0000 34.6651 0.0000 -1.2696
# 5 4.1674 12.5615 -4.9178 0.0000 23.9771 0.0000
# 6 0.0000 0.0000 0.0000 -1.2696 0.0000 16.4408
#
#
#
# Elastic Compliance Matrix: (Units=1/GPa)
#
#
# Indices 1 2 3 4 5 6 
#
# 1 0.008424 -0.001552 -0.001908 0.000000 -0.001042 0.000000
# 2 -0.001552 0.013937 -0.002884 0.000000 -0.007623 0.000000
# 3 -0.001908 -0.002884 0.011903 0.000000 0.004284 0.000000
# 4 0.000000 0.000000 0.000000 0.028929 0.000000 0.002234
# 5 -0.001042 -0.007623 0.004284 0.000000 0.046760 0.000000
# 6 0.000000 0.000000 0.000000 0.002234 0.000000 0.060997
#
#
# Mechanical properties :
#
#
# Convention : Reuss Voigt Hill
#
# Bulk Modulus (GPa) = 46.34629 48.82856 47.58742
# Shear Modulus (GPa) = 26.20109 31.19225 28.69667
#
# Velocity S-wave (km/s) = 3.60377 3.93207 3.77150
# Velocity P-wave (km/s) = 6.34735 6.69462 6.52330
#
# Compressibility (1/GPa) = 0.02157670
#
# Stress axis : x y z
#
# Youngs Moduli (GPa) = 118.70395 71.75076 84.00895
#
# Poissons Ratio (x) = 0.11135 0.16027
# Poissons Ratio (y) = 0.18421 0.24232
# Poissons Ratio (z) = 0.22646 0.20696
#
# Static dielectric constant tensor:
#      x y z
#    x 3.852860 0.000000 -0.009090 
#    y 0.000000 3.616410 0.000000 
#    z -0.009090 0.000000 3.823860 
# 
# 
# High freq. dielectric constant tensor:
#      x y z
#    x 1.794060 0.000000 -0.006510 
#    y 0.000000 1.781990 0.000000 
#    z -0.006510 0.000000 1.799590 
# 
# From -- ./inp_files/119870.got.cif
#   From: 2010.06.25/outbox.cif.g09.slc.cpg/sg15_60_cif.got.tgz:119870.got - 2010.06.28 07:06:18.
