data_PCOD8151633
_publ_section_title
;
Structure prediction by ZEFSAII (Michael W. Deem and Ramdas Pophale) SiO2 
 PCOD8151633
Probable space group: C 2/C
;
_chemical_formula_sum "Si O2"
_cell_formula_units_Z 56
_cell_length_a 17.448707
_cell_length_b 9.386796
_cell_length_c 16.776930
_cell_angle_alpha 90.000000
_cell_angle_beta 72.572873
_cell_angle_gamma 90.000000
_cell_volume 2621.720551
_symmetry_space_group_name_H-M "C 2/C"
_symmetry_group_IT_number 15
_symmetry_cell_setting 'monoclinic'
loop_
_space_group_symop_operation_xyz
x,y,z
-x,y,1/2-z
-x,-y,-z
x,-y,1/2+z
1/2+x,1/2+y,z
1/2-x,1/2+y,1/2-z
1/2-x,1/2-y,-z
1/2+x,1/2-y,1/2+z
loop_
_atom_site_type_symbol
_atom_site_label
_atom_site_fract_x
_atom_site_fract_y
_atom_site_fract_z
Si Si1 0.594977 0.774283 0.924119
Si Si2 0.742601 0.900809 0.958580
Si Si3 0.143742 0.355619 0.547377
Si Si4 0.935595 0.974979 0.159746
Si Si5 0.614989 0.425673 0.145606
Si Si6 0.010687 0.469950 0.839739
Si Si7 0.942954 0.271808 0.080332
O O1 0.671996 0.872675 0.916712
O O2 0.612537 0.610564 0.894968
O O3 0.555387 0.827157 0.853477
O O4 0.532739 0.775223 0.016504
O O5 0.827354 0.940641 0.892515
O O6 0.750000 0.750000 0.000000
O O7 0.721684 0.041177 0.018599
O O8 0.154120 0.227419 0.608410
O O9 0.076310 0.468818 0.593013
O O10 0.124002 0.287769 0.467195
O O11 0.898527 0.934975 0.256112
O O12 0.030970 0.941546 0.125352
O O13 0.923009 0.137883 0.141306
O O14 0.000000 0.473817 0.750000
O O15 0.063119 0.600458 0.854991
#
# Coordination Sequence:
#
# PCOD8151633 Si02
#       7
#     8   8   8   8   8   8   8
#     4  11  21  44  66  97 131 177 229 280 341 413
#     4  12  26  43  67 100 139 176 231 284 342 416
#     4  11  22  44  67  95 135 181 228 272 342 411
#     4  11  24  42  69  99 133 174 229 286 335 407
#     4  11  25  44  67  99 135 177 229 280 349 408
#     4  11  21  37  69 101 130 174 225 286 337 406
#     4  11  21  38  70  97 130 172 231 275 334 405
#
# _framework density 21.360019000000001
#
# number of rings (size 3 to 8) (size 9 to 14) (size 15 to 20)
#    0.000    0.857    5.714    3.429    4.000    0.000 
#    2.571    1.429    0.000    0.000    0.000    0.000 
#    0.000    0.000    0.000    0.000    0.000    0.000 
#
# Total GULP energy -347060.120626 kJ/mol
# GULP energy per Si atom -12395.004308 kJ/mol
# Density = 2.131140 g / cm^3
# Si number density = 21.360019 Si / 1000 Ang^3
#
#
#
# Elastic Constant Matrix: (Units=GPa)
#
#
# Indices 1 2 3 4 5 6 
#
# 1 64.5002 31.8567 42.3848 0.0000 -10.9451 0.0000
# 2 31.8567 130.1218 50.4995 0.0000 -3.8507 0.0000
# 3 42.3848 50.4995 97.2387 0.0000 12.8274 0.0000
# 4 0.0000 0.0000 0.0000 16.7159 0.0000 -13.8220
# 5 -10.9451 -3.8507 12.8274 0.0000 28.7393 0.0000
# 6 0.0000 0.0000 0.0000 -13.8220 0.0000 13.4610
#
#
#
# Elastic Compliance Matrix: (Units=1/GPa)
#
#
# Indices 1 2 3 4 5 6 
#
# 1 0.027934 -0.000956 -0.013883 0.000000 0.016707 0.000000
# 2 -0.000956 0.010052 -0.005242 0.000000 0.003322 0.000000
# 3 -0.013883 -0.005242 0.021090 0.000000 -0.015403 0.000000
# 4 0.000000 0.000000 0.000000 0.396339 0.000000 0.406969
# 5 0.016707 0.003322 -0.015403 0.000000 0.048478 0.000000
# 6 0.000000 0.000000 0.000000 0.406969 0.000000 0.492172
#
#
# Mechanical properties :
#
#
# Convention : Reuss Voigt Hill
#
# Bulk Modulus (GPa) = 52.87401 60.14918 56.51160
# Shear Modulus (GPa) = 4.79602 22.92456 13.86029
#
# Velocity S-wave (km/s) = 1.50007 3.27960 2.55009
# Velocity P-wave (km/s) = 5.27330 6.52394 5.93168
#
# Compressibility (1/GPa) = 0.01891288
#
# Stress axis : x y z
#
# Youngs Moduli (GPa) = 35.79809 99.48452 47.41687
#
# Poissons Ratio (x) = 0.09515 0.65831
# Poissons Ratio (y) = 0.03424 0.24854
# Poissons Ratio (z) = 0.49700 0.52146
#
# Static dielectric constant tensor:
#      x y z
#    x 3.825670 0.000000 -0.190310 
#    y 0.000000 4.095040 0.000000 
#    z -0.190310 0.000000 3.406730 
# 
# 
# High freq. dielectric constant tensor:
#      x y z
#    x 1.817930 0.000000 0.005270 
#    y 0.000000 1.862110 0.000000 
#    z 0.005270 0.000000 1.825450 
# 
# From -- ./inp_files/209517.got.cif
#   From: 2010.06.25/outbox.cif.g09.slc.cpg/sg15_105_cif.got.tgz:209517.got - 2010.06.28 07:06:18.
