data_PCOD8151499
_publ_section_title
;
Structure prediction by ZEFSAII (Michael W. Deem and Ramdas Pophale) SiO2 
 PCOD8151499
Probable space group: C 2/C
;
_chemical_formula_sum "Si O2"
_cell_formula_units_Z 40
_cell_length_a 10.113252
_cell_length_b 19.940406
_cell_length_c 9.711993
_cell_angle_alpha 90.000000
_cell_angle_beta 54.678467
_cell_angle_gamma 90.000000
_cell_volume 1598.015389
_symmetry_space_group_name_H-M "C 2/C"
_symmetry_group_IT_number 15
_symmetry_cell_setting 'monoclinic'
loop_
_space_group_symop_operation_xyz
x,y,z
-x,y,1/2-z
-x,-y,-z
x,-y,1/2+z
1/2+x,1/2+y,z
1/2-x,1/2+y,1/2-z
1/2-x,1/2-y,-z
1/2+x,1/2-y,1/2+z
loop_
_atom_site_type_symbol
_atom_site_label
_atom_site_fract_x
_atom_site_fract_y
_atom_site_fract_z
Si Si1 0.671825 0.058183 0.010788
Si Si2 0.999682 0.222730 0.975650
Si Si3 0.191743 0.793444 0.660621
Si Si4 0.500000 0.387162 0.250000
Si Si5 0.000000 0.335334 0.750000
Si Si6 0.588514 0.910817 0.064640
O O1 0.537280 0.078004 0.980995
O O2 0.848714 0.063748 0.840897
O O3 0.652874 0.112897 0.145672
O O4 0.655380 0.982700 0.076201
O O5 0.171774 0.233241 0.963317
O O6 0.019277 0.157444 0.873624
O O7 0.004773 0.291172 0.885240
O O8 0.827966 0.217836 0.159754
O O9 0.262437 0.865928 0.578768
O O10 0.000000 0.786923 0.750000
O O11 0.500000 0.876310 0.250000
#
# Coordination Sequence:
#
# PCOD8151499 Si02
#       6
#     8   8   8   4   4   8
#     4  11  24  46  72 102 135 181 234 285 341 415
#     4  11  24  42  69 103 135 178 229 293 342 392
#     4  12  25  44  67 100 141 182 227 278 344 422
#     4  11  26  42  72 108 137 166 238 304 345 382
#     4  11  20  44  74  98 137 176 238 282 341 404
#     4  11  25  46  72  97 140 192 227 270 351 434
#
# _framework density 25.031047999999998
#
# number of rings (size 3 to 8) (size 9 to 14) (size 15 to 20)
#    0.000    0.800    3.000    4.200    2.800    3.200 
#    3.600    2.000    0.000    0.000    0.000    0.000 
#    0.000    0.000    0.000    0.000    0.000    0.000 
#
# Total GULP energy -247881.592732 kJ/mol
# GULP energy per Si atom -12394.079637 kJ/mol
# Density = 2.497408 g / cm^3
# Si number density = 25.031048 Si / 1000 Ang^3
#
#
#
# Elastic Constant Matrix: (Units=GPa)
#
#
# Indices 1 2 3 4 5 6 
#
# 1 77.9367 44.6623 49.8991 0.0000 -14.8312 0.0000
# 2 44.6623 137.1521 90.5624 0.0000 -7.5328 0.0000
# 3 49.8991 90.5624 245.5262 0.0000 -22.3573 0.0000
# 4 0.0000 0.0000 0.0000 47.7779 0.0000 -0.9022
# 5 -14.8312 -7.5328 -22.3573 0.0000 31.7423 0.0000
# 6 0.0000 0.0000 0.0000 -0.9022 0.0000 16.2732
#
#
#
# Elastic Compliance Matrix: (Units=1/GPa)
#
#
# Indices 1 2 3 4 5 6 
#
# 1 0.017403 -0.004447 -0.001338 0.000000 0.006134 0.000000
# 2 -0.004447 0.010776 -0.003235 0.000000 -0.001799 0.000000
# 3 -0.001338 -0.003235 0.005782 0.000000 0.002680 0.000000
# 4 0.000000 0.000000 0.000000 0.020952 0.000000 0.001162
# 5 0.006134 -0.001799 0.002680 0.000000 0.035830 0.000000
# 6 0.000000 0.000000 0.000000 0.001162 0.000000 0.061515
#
#
# Mechanical properties :
#
#
# Convention : Reuss Voigt Hill
#
# Bulk Modulus (GPa) = 62.80637 92.31806 77.56222
# Shear Modulus (GPa) = 28.47281 37.52475 32.99878
#
# Velocity S-wave (km/s) = 3.37634 3.87606 3.63480
# Velocity P-wave (km/s) = 6.35181 7.54939 6.97634
#
# Compressibility (1/GPa) = 0.01592195
#
# Stress axis : x y z
#
# Youngs Moduli (GPa) = 57.46090 92.79468 172.94796
#
# Poissons Ratio (x) = 0.41263 0.23144
# Poissons Ratio (y) = 0.25551 0.55949
# Poissons Ratio (z) = 0.07690 0.30019
#
# Static dielectric constant tensor:
#      x y z
#    x 4.893410 0.000000 0.477710 
#    y 0.000000 4.489680 0.000000 
#    z 0.477710 0.000000 6.289710 
# 
# 
# High freq. dielectric constant tensor:
#      x y z
#    x 2.008510 0.000000 0.008710 
#    y 0.000000 1.992280 0.000000 
#    z 0.008710 0.000000 2.043620 
# 
# From -- ./inp_files/89360.got.cif
#   From: 2010.06.25/outbox.cif.g09.slc.cpg/sg15_45_cif.got.tgz:89360.got - 2010.06.28 07:06:18.
