data_PCOD8151621
_publ_section_title
;
Structure prediction by ZEFSAII (Michael W. Deem and Ramdas Pophale) SiO2 
 PCOD8151621
Probable space group: C 2/C
;
_chemical_formula_sum "Si O2"
_cell_formula_units_Z 48
_cell_length_a 12.169714
_cell_length_b 7.693761
_cell_length_c 23.761164
_cell_angle_alpha 90.000000
_cell_angle_beta 63.223419
_cell_angle_gamma 90.000000
_cell_volume 1986.215562
_symmetry_space_group_name_H-M "C 2/C"
_symmetry_group_IT_number 15
_symmetry_cell_setting 'monoclinic'
loop_
_space_group_symop_operation_xyz
x,y,z
-x,y,1/2-z
-x,-y,-z
x,-y,1/2+z
1/2+x,1/2+y,z
1/2-x,1/2+y,1/2-z
1/2-x,1/2-y,-z
1/2+x,1/2-y,1/2+z
loop_
_atom_site_type_symbol
_atom_site_label
_atom_site_fract_x
_atom_site_fract_y
_atom_site_fract_z
Si Si1 0.690300 0.095678 0.894718
Si Si2 0.047209 0.246427 0.087727
Si Si3 0.640575 0.467715 0.471377
Si Si4 0.361981 0.896821 0.968075
Si Si5 0.101106 0.241354 0.879538
Si Si6 0.464491 0.456565 0.321886
O O1 0.597644 0.255104 0.899908
O O2 0.833930 0.147638 0.856179
O O3 0.664163 0.929818 0.859514
O O4 0.651056 0.031844 0.965824
O O5 0.091584 0.444635 0.082818
O O6 0.050903 0.145092 0.145849
O O7 0.147790 0.160348 0.023077
O O8 0.500000 0.500000 0.500000
O O9 0.726085 0.640980 0.468736
O O10 0.683363 0.378200 0.402700
O O11 0.462718 0.746199 0.939083
O O12 0.076433 0.152722 0.824683
O O13 0.500000 0.489818 0.250000
#
# Coordination Sequence:
#
# PCOD8151621 Si02
#       6
#     8   8   8   8   8   8
#     4  11  22  41  66  93 129 156 200 261 314 371
#     4  11  21  39  64  94 124 159 199 253 316 371
#     4  12  20  31  61 100 127 150 195 249 321 370
#     4  11  21  37  65 100 128 151 192 261 333 370
#     4  11  23  39  63  95 124 158 202 256 315 367
#     4  12  28  44  60  86 126 175 215 248 293 362
#
# _framework density 24.166561000000002
#
# number of rings (size 3 to 8) (size 9 to 14) (size 15 to 20)
#    0.000    0.667    6.667    2.500    2.333    2.667 
#    0.000    3.333    0.000    0.000    0.000    0.000 
#    0.000    0.000    0.000    0.000    0.000    0.000 
#
# Total GULP energy -297454.967024 kJ/mol
# GULP energy per Si atom -12393.956959 kJ/mol
# Density = 2.411156 g / cm^3
# Si number density = 24.166561 Si / 1000 Ang^3
#
#
#
# Elastic Constant Matrix: (Units=GPa)
#
#
# Indices 1 2 3 4 5 6 
#
# 1 105.6726 7.2631 29.2447 0.0000 11.7099 0.0000
# 2 7.2631 58.6819 18.8926 0.0000 13.9783 0.0000
# 3 29.2447 18.8926 112.2541 0.0000 31.5439 0.0000
# 4 0.0000 0.0000 0.0000 16.3874 0.0000 -5.3163
# 5 11.7099 13.9783 31.5439 0.0000 32.9849 0.0000
# 6 0.0000 0.0000 0.0000 -5.3163 0.0000 44.7128
#
#
#
# Elastic Compliance Matrix: (Units=1/GPa)
#
#
# Indices 1 2 3 4 5 6 
#
# 1 0.010254 -0.000213 -0.002240 0.000000 -0.001408 0.000000
# 2 -0.000213 0.019093 -0.001238 0.000000 -0.006832 0.000000
# 3 -0.002240 -0.001238 0.012758 0.000000 -0.010880 0.000000
# 4 0.000000 0.000000 0.000000 0.063471 0.000000 0.007547
# 5 -0.001408 -0.006832 -0.010880 0.000000 0.044117 0.000000
# 6 0.000000 0.000000 0.000000 0.007547 0.000000 0.023262
#
#
# Mechanical properties :
#
#
# Convention : Reuss Voigt Hill
#
# Bulk Modulus (GPa) = 28.79918 43.04547 35.92232
# Shear Modulus (GPa) = 26.05378 33.56424 29.80901
#
# Velocity S-wave (km/s) = 3.28699 3.73080 3.51591
# Velocity P-wave (km/s) = 5.13309 6.03400 5.60168
#
# Compressibility (1/GPa) = 0.03472322
#
# Stress axis : x y z
#
# Youngs Moduli (GPa) = 97.52564 52.37428 78.38355
#
# Poissons Ratio (x) = 0.01113 0.17557
# Poissons Ratio (y) = 0.02073 0.09707
# Poissons Ratio (z) = 0.21845 0.06486
#
# Static dielectric constant tensor:
#      x y z
#    x 5.276900 0.000000 0.077160 
#    y 0.000000 4.466030 0.000000 
#    z 0.077160 0.000000 3.511370 
# 
# 
# High freq. dielectric constant tensor:
#      x y z
#    x 1.995510 0.000000 0.013880 
#    y 0.000000 1.973440 0.000000 
#    z 0.013880 0.000000 1.885340 
# 
# From -- ./inp_files/267774.got.cif
#   From: 2010.06.25/outbox.cif.g09.slc.cpg/sg15_134_cif.got.tgz:267774.got - 2010.06.28 07:06:18.
