data_PCOD8151303
_publ_section_title
;
Structure prediction by ZEFSAII (Michael W. Deem and Ramdas Pophale) SiO2 
 PCOD8151303
Probable space group: C 2/C
;
_chemical_formula_sum "Si O2"
_cell_formula_units_Z 48
_cell_length_a 8.775528
_cell_length_b 18.440244
_cell_length_c 15.919974
_cell_angle_alpha 90.000000
_cell_angle_beta 68.799991
_cell_angle_gamma 90.000000
_cell_volume 2401.867351
_symmetry_space_group_name_H-M "C 2/C"
_symmetry_group_IT_number 15
_symmetry_cell_setting 'monoclinic'
loop_
_space_group_symop_operation_xyz
x,y,z
-x,y,1/2-z
-x,-y,-z
x,-y,1/2+z
1/2+x,1/2+y,z
1/2-x,1/2+y,1/2-z
1/2-x,1/2-y,-z
1/2+x,1/2-y,1/2+z
loop_
_atom_site_type_symbol
_atom_site_label
_atom_site_fract_x
_atom_site_fract_y
_atom_site_fract_z
Si Si1 0.499591 0.412081 0.341223
Si Si2 0.938829 0.582587 0.007546
Si Si3 0.342683 0.562949 0.314804
Si Si4 0.749086 0.164893 0.010059
Si Si5 0.836494 0.588192 0.315216
Si Si6 0.360336 0.068018 0.841181
O O1 0.500000 0.372065 0.250000
O O2 0.411866 0.489561 0.343542
O O3 0.398186 0.367269 0.428573
O O4 0.681223 0.416367 0.341196
O O5 0.777318 0.600001 0.095261
O O6 0.077124 0.636225 0.011710
O O7 0.889470 0.607557 0.923971
O O8 0.000000 0.500000 0.000000
O O9 0.500000 0.610280 0.250000
O O10 0.250127 0.549472 0.246135
O O11 0.768988 0.141927 0.104807
O O12 0.750000 0.250000 0.000000
O O13 0.886393 0.517214 0.359132
O O14 0.000000 0.629551 0.250000
O O15 0.500000 0.096190 0.750000
#
# Coordination Sequence:
#
# PCOD8151303 Si02
#       6
#     8   8   8   8   8   8
#     4  11  22  40  64  99 129 161 214 282 337 393
#     4  12  21  39  65  96 129 168 218 281 330 384
#     4  11  21  35  65 103 127 157 216 288 336 385
#     4  12  27  43  63  93 136 183 219 266 342 423
#     4  11  20  38  65  95 128 166 216 270 337 388
#     4  11  21  36  66 101 128 158 215 287 342 378
#
# _framework density 19.984449000000001
#
# number of rings (size 3 to 8) (size 9 to 14) (size 15 to 20)
#    0.000    0.667    8.333    2.000    2.333    2.000 
#    0.000    0.833    0.000    0.000    0.000    0.000 
#    0.000    0.000    0.000    0.000    0.000    0.000 
#
# Total GULP energy -297327.924928 kJ/mol
# GULP energy per Si atom -12388.663539 kJ/mol
# Density = 1.993896 g / cm^3
# Si number density = 19.984449 Si / 1000 Ang^3
#
#
#
# Elastic Constant Matrix: (Units=GPa)
#
#
# Indices 1 2 3 4 5 6 
#
# 1 144.4543 46.8838 78.8076 0.0000 -16.1578 0.0000
# 2 46.8838 70.0629 45.4289 0.0000 -9.4680 0.0000
# 3 78.8076 45.4289 186.2533 0.0000 -23.6134 0.0000
# 4 0.0000 0.0000 0.0000 11.3256 0.0000 0.3985
# 5 -16.1578 -9.4680 -23.6134 0.0000 50.7708 0.0000
# 6 0.0000 0.0000 0.0000 0.3985 0.0000 16.3120
#
#
#
# Elastic Compliance Matrix: (Units=1/GPa)
#
#
# Indices 1 2 3 4 5 6 
#
# 1 0.010233 -0.004739 -0.003053 0.000000 0.000953 0.000000
# 2 -0.004739 0.019232 -0.002574 0.000000 0.000881 0.000000
# 3 -0.003053 -0.002574 0.007550 0.000000 0.002060 0.000000
# 4 0.000000 0.000000 0.000000 0.088371 0.000000 -0.002159
# 5 0.000953 0.000881 0.002060 0.000000 0.021122 0.000000
# 6 0.000000 0.000000 0.000000 -0.002159 0.000000 0.061357
#
#
# Mechanical properties :
#
#
# Convention : Reuss Voigt Hill
#
# Bulk Modulus (GPa) = 61.41524 82.55678 71.98601
# Shear Modulus (GPa) = 21.36524 30.99172 26.17848
#
# Velocity S-wave (km/s) = 3.27325 3.94228 3.62324
# Velocity P-wave (km/s) = 6.71444 7.88177 7.32141
#
# Compressibility (1/GPa) = 0.01628260
#
# Stress axis : x y z
#
# Youngs Moduli (GPa) = 97.72386 51.99602 132.45422
#
# Poissons Ratio (x) = 0.24642 0.40439
# Poissons Ratio (y) = 0.46313 0.34093
# Poissons Ratio (z) = 0.29835 0.13384
#
# Static dielectric constant tensor:
#      x y z
#    x 4.090930 0.000000 -0.295420 
#    y 0.000000 3.036980 0.000000 
#    z -0.295420 0.000000 4.373300 
# 
# 
# High freq. dielectric constant tensor:
#      x y z
#    x 1.800700 0.000000 -0.004040 
#    y 0.000000 1.701730 0.000000 
#    z -0.004040 0.000000 1.812910 
# 
# From -- ./inp_files/135924.got.cif
#   From: 2010.06.25/outbox.cif.g09.slc.cpg/sg15_68_cif.got.tgz:135924.got - 2010.06.28 07:06:18.
