data_PCOD8151469
_publ_section_title
;
Structure prediction by ZEFSAII (Michael W. Deem and Ramdas Pophale) SiO2 
 PCOD8151469
Probable space group: C 2/C
;
_chemical_formula_sum "Si O2"
_cell_formula_units_Z 48
_cell_length_a 11.184537
_cell_length_b 15.686586
_cell_length_c 26.038105
_cell_angle_alpha 90.000000
_cell_angle_beta 30.378506
_cell_angle_gamma 90.000000
_cell_volume 2310.242143
_symmetry_space_group_name_H-M "C 2/C"
_symmetry_group_IT_number 15
_symmetry_cell_setting 'monoclinic'
loop_
_space_group_symop_operation_xyz
x,y,z
-x,y,1/2-z
-x,-y,-z
x,-y,1/2+z
1/2+x,1/2+y,z
1/2-x,1/2+y,1/2-z
1/2-x,1/2-y,-z
1/2+x,1/2-y,1/2+z
loop_
_atom_site_type_symbol
_atom_site_label
_atom_site_fract_x
_atom_site_fract_y
_atom_site_fract_z
Si Si1 0.234346 0.774056 0.353967
Si Si2 0.058259 0.767600 0.528329
Si Si3 0.156646 0.171924 0.642299
Si Si4 0.971574 0.080478 0.906639
Si Si5 0.964234 0.662656 0.380117
Si Si6 0.738037 0.913417 0.692072
O O1 0.500000 0.741306 0.250000
O O2 0.188377 0.801504 0.429477
O O3 0.059937 0.698849 0.398938
O O4 0.194120 0.856899 0.333340
O O5 0.250000 0.750000 0.500000
O O6 0.926505 0.678884 0.562697
O O7 0.856100 0.832000 0.621995
O O8 0.122006 0.091966 0.616972
O O9 0.000000 0.157264 0.750000
O O10 0.102027 0.259970 0.632795
O O11 0.764882 0.104565 0.023714
O O12 0.060910 0.985366 0.882661
O O13 0.165247 0.606426 0.277838
O O14 0.500000 0.940110 0.750000
#
# Coordination Sequence:
#
# PCOD8151469 Si02
#       6
#     8   8   8   8   8   8
#     4  11  22  38  66  97 127 169 224 270 320 401
#     4  12  23  41  67  96 125 175 223 262 324 397
#     4  11  20  44  68  92 127 178 223 264 323 406
#     4  11  24  40  67  97 132 170 216 279 341 384
#     4  11  20  43  67  88 132 177 214 273 339 382
#     4  12  24  43  67 101 135 169 217 287 338 382
#
# _framework density 20.777042000000002
#
# number of rings (size 3 to 8) (size 9 to 14) (size 15 to 20)
#    0.000    0.667    6.667    2.500    2.333    4.000 
#    0.000    3.333    0.000    0.000    0.000    0.000 
#    0.000    0.000    0.000    0.000    0.000    0.000 
#
# Total GULP energy -297597.614296 kJ/mol
# GULP energy per Si atom -12399.900596 kJ/mol
# Density = 2.072975 g / cm^3
# Si number density = 20.777042 Si / 1000 Ang^3
#
#
#
# Elastic Constant Matrix: (Units=GPa)
#
#
# Indices 1 2 3 4 5 6 
#
# 1 140.8788 33.0681 42.6558 0.0096 -0.3853 -0.0008
# 2 33.0681 62.5686 26.9825 -0.0147 -0.6706 0.0033
# 3 42.6558 26.9825 120.2595 -0.0230 10.3560 -0.0087
# 4 0.0096 -0.0147 -0.0230 32.7446 -0.0104 -5.6919
# 5 -0.3853 -0.6706 10.3560 -0.0104 43.7873 0.0055
# 6 -0.0008 0.0033 -0.0087 -5.6919 0.0055 22.5410
#
#
#
# Elastic Compliance Matrix: (Units=1/GPa)
#
#
# Indices 1 2 3 4 5 6 
#
# 1 0.008636 -0.003561 -0.002313 -0.000006 0.000569 -0.000002
# 2 -0.003561 0.019228 -0.003138 0.000007 0.001005 -0.000003
# 3 -0.002313 -0.003138 0.010050 0.000007 -0.002445 0.000007
# 4 -0.000006 0.000007 0.000007 0.031941 0.000005 0.008066
# 5 0.000569 0.001005 -0.002445 0.000005 0.023436 -0.000006
# 6 -0.000002 -0.000003 0.000007 0.008066 -0.000006 0.046400
#
#
# Mechanical properties :
#
#
# Convention : Reuss Voigt Hill
#
# Bulk Modulus (GPa) = 50.27303 58.79108 54.53206
# Shear Modulus (GPa) = 30.42351 34.54795 32.48573
#
# Velocity S-wave (km/s) = 3.83075 4.08216 3.95845
# Velocity P-wave (km/s) = 6.61930 7.11170 6.86992
#
# Compressibility (1/GPa) = 0.01989138
#
# Stress axis : x y z
#
# Youngs Moduli (GPa) = 115.79392 52.00690 99.49758
#
# Poissons Ratio (x) = 0.18517 0.23017
# Poissons Ratio (y) = 0.41229 0.31221
# Poissons Ratio (z) = 0.26786 0.16319
#
# Static dielectric constant tensor:
#      x y z
#    x 4.044060 0.000000 0.012680 
#    y 0.000000 3.399040 0.000020 
#    z 0.012680 0.000020 3.904750 
# 
# 
# High freq. dielectric constant tensor:
#      x y z
#    x 1.826540 0.000000 0.005570 
#    y 0.000000 1.769040 0.000000 
#    z 0.005570 0.000000 1.829570 
# 
# From -- ./inp_files/292975.got.cif
#   From: 2010.06.25/outbox.cif.g09.slc.cpg/sg15_147_cif.got.tgz:292975.got - 2010.06.28 07:06:18.
