data_PCOD8151557
_publ_section_title
;
Structure prediction by ZEFSAII (Michael W. Deem and Ramdas Pophale) SiO2 
 PCOD8151557
Probable space group: C 2/C
;
_chemical_formula_sum "Si O2"
_cell_formula_units_Z 64
_cell_length_a 17.814692
_cell_length_b 29.796322
_cell_length_c 14.024197
_cell_angle_alpha 90.000000
_cell_angle_beta 150.670069
_cell_angle_gamma 90.000000
_cell_volume 3646.459623
_symmetry_space_group_name_H-M "C 2/C"
_symmetry_group_IT_number 15
_symmetry_cell_setting 'monoclinic'
loop_
_space_group_symop_operation_xyz
x,y,z
-x,y,1/2-z
-x,-y,-z
x,-y,1/2+z
1/2+x,1/2+y,z
1/2-x,1/2+y,1/2-z
1/2-x,1/2-y,-z
1/2+x,1/2-y,1/2+z
loop_
_atom_site_type_symbol
_atom_site_label
_atom_site_fract_x
_atom_site_fract_y
_atom_site_fract_z
Si Si1 0.837789 0.521351 0.848856
Si Si2 0.658337 0.553754 0.046530
Si Si3 0.769920 0.618374 0.318654
Si Si4 0.834134 0.701288 0.683159
Si Si5 0.623848 0.103634 0.733655
Si Si6 0.811803 0.710436 0.443881
Si Si7 0.824959 0.027914 0.641017
Si Si8 0.148110 0.925451 0.861096
O O1 0.707018 0.489181 0.663141
O O2 0.820054 0.571370 0.788397
O O3 0.813618 0.526941 0.935924
O O4 0.000000 0.500000 0.000000
O O5 0.726313 0.599934 0.165818
O O6 0.473614 0.554872 0.843609
O O7 0.728886 0.550763 0.017871
O O8 0.750621 0.672307 0.303157
O O9 0.652317 0.595229 0.260796
O O10 0.940591 0.603552 0.538066
O O11 0.814938 0.654212 0.717469
O O12 0.761944 0.696927 0.496751
O O13 0.754922 0.740714 0.656537
O O14 0.008538 0.714931 0.865519
O O15 0.693167 0.085787 0.909432
O O16 0.877185 0.978167 0.673755
O O17 0.000000 0.904608 0.750000
#
# Coordination Sequence:
#
# PCOD8151557 Si02
#       8
#     8   8   8   8   8   8   8   8
#     4  12  22  35  55  81 107 144 187 227 276 328
#     4  11  22  38  54  75 108 152 186 226 274 319
#     4  11  22  36  54  77 111 147 186 221 277 331
#     4   9  18  33  52  74 112 137 176 214 276 323
#     4  11  21  36  52  82 110 145 181 225 271 330
#     4   9  18  34  52  76 106 143 168 223 266 332
#     4  11  23  38  52  74 114 146 187 234 269 315
#     4  12  21  32  53  78 107 148 188 224 264 319
#
# _framework density 17.551271
#
# number of rings (size 3 to 8) (size 9 to 14) (size 15 to 20)
#    0.000    1.250    6.250    0.750    1.750    1.500 
#    0.000    0.000    0.000    0.000    0.000    0.875 
#    0.000    0.000    0.000    0.000    0.000    0.000 
#
# Total GULP energy -396751.769306 kJ/mol
# GULP energy per Si atom -12398.492791 kJ/mol
# Density = 1.751132 g / cm^3
# Si number density = 17.551271 Si / 1000 Ang^3
#
#
#
# Elastic Constant Matrix: (Units=GPa)
#
#
# Indices 1 2 3 4 5 6 
#
# 1 108.8205 38.3129 26.2910 0.0000 -8.1994 0.0000
# 2 38.3129 131.3916 32.6015 0.0000 -9.1741 0.0000
# 3 26.2910 32.6015 60.7399 0.0000 -8.3746 0.0000
# 4 0.0000 0.0000 0.0000 24.4937 0.0000 -1.5074
# 5 -8.1994 -9.1741 -8.3746 0.0000 19.4777 0.0000
# 6 0.0000 0.0000 0.0000 -1.5074 0.0000 28.4436
#
#
#
# Elastic Compliance Matrix: (Units=1/GPa)
#
#
# Indices 1 2 3 4 5 6 
#
# 1 0.010918 -0.002231 -0.003231 0.000000 0.002156 0.000000
# 2 -0.002231 0.009329 -0.003790 0.000000 0.001825 0.000000
# 3 -0.003231 -0.003790 0.020689 0.000000 0.005750 0.000000
# 4 0.000000 0.000000 0.000000 0.040960 0.000000 0.002171
# 5 0.002156 0.001825 0.005750 0.000000 0.055580 0.000000
# 6 0.000000 0.000000 0.000000 0.002171 0.000000 0.035272
#
#
# Mechanical properties :
#
#
# Convention : Reuss Voigt Hill
#
# Bulk Modulus (GPa) = 44.57890 55.04031 49.80960
# Shear Modulus (GPa) = 25.15956 28.06610 26.61283
#
# Velocity S-wave (km/s) = 3.79025 4.00320 3.89818
# Velocity P-wave (km/s) = 6.67900 7.26604 6.97870
#
# Compressibility (1/GPa) = 0.02243214
#
# Stress axis : x y z
#
# Youngs Moduli (GPa) = 91.59096 107.18893 48.33454
#
# Poissons Ratio (x) = 0.23919 0.15616
# Poissons Ratio (y) = 0.20438 0.18318
# Poissons Ratio (z) = 0.29592 0.40623
#
# Static dielectric constant tensor:
#      x y z
#    x 3.198100 0.000000 -0.008360 
#    y 0.000000 3.327480 0.000000 
#    z -0.008360 0.000000 3.208510 
# 
# 
# High freq. dielectric constant tensor:
#      x y z
#    x 1.658470 0.000000 0.015300 
#    y 0.000000 1.668200 0.000000 
#    z 0.015300 0.000000 1.670120 
# 
# From -- ./inp_files/164522.got.cif
#   From: 2010.06.25/outbox.cif.g09.slc.cpg/sg15_83_cif.got.tgz:164522.got - 2010.06.28 07:06:18.
