data_PCOD8151606
_publ_section_title
;
Structure prediction by ZEFSAII (Michael W. Deem and Ramdas Pophale) SiO2 
 PCOD8151606
Probable space group: C 2/C
;
_chemical_formula_sum "Si O2"
_cell_formula_units_Z 52
_cell_length_a 8.618821
_cell_length_b 15.371781
_cell_length_c 18.916855
_cell_angle_alpha 90.000000
_cell_angle_beta 57.030956
_cell_angle_gamma 90.000000
_cell_volume 2102.638806
_symmetry_space_group_name_H-M "C 2/C"
_symmetry_group_IT_number 15
_symmetry_cell_setting 'monoclinic'
loop_
_space_group_symop_operation_xyz
x,y,z
-x,y,1/2-z
-x,-y,-z
x,-y,1/2+z
1/2+x,1/2+y,z
1/2-x,1/2+y,1/2-z
1/2-x,1/2-y,-z
1/2+x,1/2-y,1/2+z
loop_
_atom_site_type_symbol
_atom_site_label
_atom_site_fract_x
_atom_site_fract_y
_atom_site_fract_z
Si Si1 0.723069 0.246790 0.330781
Si Si2 0.647505 0.923653 0.035766
Si Si3 0.369302 0.063935 0.126146
Si Si4 0.461133 0.244752 0.641450
Si Si5 0.500000 0.521883 0.750000
Si Si6 0.021190 0.081447 0.894291
Si Si7 0.076446 0.092949 0.439423
O O1 0.587171 0.163012 0.358746
O O2 0.874542 0.215610 0.351281
O O3 0.632921 0.332024 0.384824
O O4 0.799251 0.278878 0.236167
O O5 0.525890 0.836864 0.079273
O O6 0.540721 0.001532 0.104303
O O7 0.663839 0.943824 0.949067
O O8 0.854602 0.911888 0.011909
O O9 0.182455 0.036754 0.214467
O O10 0.376476 0.317231 0.609962
O O11 0.457073 0.583179 0.828793
O O12 0.852116 0.084825 0.995520
O O13 0.134506 0.989922 0.877228
#
# Coordination Sequence:
#
# PCOD8151606 Si02
#       7
#     8   8   8   8   4   8   8
#     4  11  21  37  62  97 119 170 204 266 304 370
#     4  11  21  39  63  97 120 162 208 268 299 380
#     4  11  23  38  67  88 129 164 212 248 320 369
#     4  11  21  37  66  92 127 152 222 264 307 348
#     4  12  22  44  62  94 124 178 196 262 316 388
#     4  11  23  37  66  88 130 159 211 249 319 368
#     4  11  21  40  64  98 119 164 207 271 304 372
#
# _framework density 24.730827999999999
#
# number of rings (size 3 to 8) (size 9 to 14) (size 15 to 20)
#    0.000    0.923    4.615    4.154    0.000    0.000 
#    0.000    0.769   16.923    0.000    0.000    0.000 
#    0.000    0.000    0.000    0.000    0.000    0.000 
#
# Total GULP energy -322143.518701 kJ/mol
# GULP energy per Si atom -12390.135335 kJ/mol
# Density = 2.467454 g / cm^3
# Si number density = 24.730828 Si / 1000 Ang^3
#
#
#
# Elastic Constant Matrix: (Units=GPa)
#
#
# Indices 1 2 3 4 5 6 
#
# 1 27.4587 3.0750 15.7213 -0.0001 10.6999 0.0002
# 2 3.0750 143.9798 21.1834 -0.0001 -7.4881 0.0001
# 3 15.7213 21.1834 90.7640 0.0000 15.5176 -0.0001
# 4 -0.0001 -0.0001 0.0000 44.8508 0.0000 5.5014
# 5 10.6999 -7.4881 15.5176 0.0000 50.2017 0.0000
# 6 0.0002 0.0001 -0.0001 5.5014 0.0000 24.3607
#
#
#
# Elastic Compliance Matrix: (Units=1/GPa)
#
#
# Indices 1 2 3 4 5 6 
#
# 1 0.042783 -0.000401 -0.006068 0.000000 -0.007303 0.000000
# 2 -0.000401 0.007333 -0.001947 0.000000 0.001781 0.000000
# 3 -0.006068 -0.001947 0.013041 0.000000 -0.003028 0.000000
# 4 0.000000 0.000000 0.000000 0.022931 0.000000 -0.005179
# 5 -0.007303 0.001781 -0.003028 0.000000 0.022678 0.000000
# 6 0.000000 0.000000 0.000000 -0.005179 0.000000 0.042219
#
#
# Mechanical properties :
#
#
# Convention : Reuss Voigt Hill
#
# Bulk Modulus (GPa) = 21.58636 38.01800 29.80218
# Shear Modulus (GPa) = 27.28387 38.69749 32.99068
#
# Velocity S-wave (km/s) = 3.32510 3.95998 3.65635
# Velocity P-wave (km/s) = 4.84656 6.02617 5.46827
#
# Compressibility (1/GPa) = 0.04632555
#
# Stress axis : x y z
#
# Youngs Moduli (GPa) = 23.37360 136.37014 76.68321
#
# Poissons Ratio (x) = 0.05464 0.46535
# Poissons Ratio (y) = 0.00937 0.14926
# Poissons Ratio (z) = 0.14184 0.26545
#
# Static dielectric constant tensor:
#      x y z
#    x 4.109680 0.000000 0.112960 
#    y 0.000000 4.463160 0.000000 
#    z 0.112960 0.000000 4.623710 
# 
# 
# High freq. dielectric constant tensor:
#      x y z
#    x 1.931730 0.000000 0.022110 
#    y 0.000000 2.000740 0.000000 
#    z 0.022110 0.000000 2.000740 
# 
# From -- ./inp_files/269710.got.cif
#   From: 2010.06.25/outbox.cif.g09.slc.cpg/sg15_135_cif.got.tgz:269710.got - 2010.06.28 07:06:18.
