data_PCOD8151014
_publ_section_title
;
Structure prediction by ZEFSAII (Michael W. Deem and Ramdas Pophale) SiO2 
 PCOD8151014
Probable space group: C 2/C
;
_chemical_formula_sum "Si O2"
_cell_formula_units_Z 64
_cell_length_a 22.888859
_cell_length_b 10.579529
_cell_length_c 12.116089
_cell_angle_alpha 90.000000
_cell_angle_beta 64.535489
_cell_angle_gamma 90.000000
_cell_volume 2648.923314
_symmetry_space_group_name_H-M "C 2/C"
_symmetry_group_IT_number 15
_symmetry_cell_setting 'monoclinic'
loop_
_space_group_symop_operation_xyz
x,y,z
-x,y,1/2-z
-x,-y,-z
x,-y,1/2+z
1/2+x,1/2+y,z
1/2-x,1/2+y,1/2-z
1/2-x,1/2-y,-z
1/2+x,1/2-y,1/2+z
loop_
_atom_site_type_symbol
_atom_site_label
_atom_site_fract_x
_atom_site_fract_y
_atom_site_fract_z
Si Si1 0.320598 0.659001 0.548555
Si Si2 0.432816 0.501862 0.349442
Si Si3 0.444631 0.846161 0.209002
Si Si4 0.187628 0.587015 0.564273
Si Si5 0.886717 0.204955 0.718381
Si Si6 0.915575 0.792192 0.531418
Si Si7 0.993208 0.602239 0.125249
Si Si8 0.316212 0.810724 0.973378
O O1 0.379093 0.606775 0.423226
O O2 0.252412 0.586473 0.588200
O O3 0.308477 0.804010 0.529228
O O4 0.340451 0.651178 0.660264
O O5 0.500000 0.562647 0.250000
O O6 0.407926 0.416636 0.269897
O O7 0.446624 0.415951 0.448658
O O8 0.500000 0.806598 0.250000
O O9 0.378385 0.899263 0.312949
O O10 0.428754 0.717081 0.152254
O O11 0.473966 0.958242 0.104180
O O12 0.188292 0.458379 0.493077
O O13 0.945465 0.286476 0.618870
O O14 0.855400 0.303927 0.827277
O O15 0.840997 0.778948 0.554458
O O16 0.937797 0.654896 0.466865
O O17 0.000000 0.591366 0.250000
O O18 0.250000 0.750000 0.000000
#
# Coordination Sequence:
#
# PCOD8151014 Si02
#       8
#     8   8   8   8   8   8   8   8
#     4  11  29  46  69  98 142 197 238 301 368 429
#     4  11  23  48  73 104 144 188 251 304 357 439
#     4  11  25  38  68 107 143 180 236 295 371 448
#     4  11  25  50  62  99 149 179 237 305 358 441
#     4  11  22  44  73  98 137 187 236 295 372 432
#     4  11  22  40  71 104 137 181 234 302 360 430
#     4  11  18  41  64 100 136 173 224 296 367 429
#     4  11  23  42  75 106 134 183 244 293 366 449
#
# _framework density 24.160758999999999
#
# number of rings (size 3 to 8) (size 9 to 14) (size 15 to 20)
#    0.000    1.000    5.000    2.625    5.250    2.000 
#    4.500    0.000    0.000    0.000    0.000    0.000 
#    0.000    0.000    0.000    0.000    0.000    0.000 
#
# Total GULP energy -396543.023940 kJ/mol
# GULP energy per Si atom -12391.969498 kJ/mol
# Density = 2.410577 g / cm^3
# Si number density = 24.160759 Si / 1000 Ang^3
#
#
#
# Elastic Constant Matrix: (Units=GPa)
#
#
# Indices 1 2 3 4 5 6 
#
# 1 153.8250 26.3664 40.3153 0.0000 1.9752 0.0000
# 2 26.3664 90.1909 12.9173 0.0000 -2.5505 0.0000
# 3 40.3153 12.9173 36.8058 0.0000 11.1008 0.0000
# 4 0.0000 0.0000 0.0000 9.3438 0.0000 -2.7896
# 5 1.9752 -2.5505 11.1008 0.0000 39.1236 0.0000
# 6 0.0000 0.0000 0.0000 -2.7896 0.0000 35.7952
#
#
#
# Elastic Compliance Matrix: (Units=1/GPa)
#
#
# Indices 1 2 3 4 5 6 
#
# 1 0.009480 -0.001165 -0.010725 0.000000 0.002489 0.000000
# 2 -0.001165 0.011978 -0.003479 0.000000 0.001827 0.000000
# 3 -0.010725 -0.003479 0.043791 0.000000 -0.012110 0.000000
# 4 0.000000 0.000000 0.000000 0.109573 0.000000 0.008539
# 5 0.002489 0.001827 -0.012110 0.000000 0.028990 0.000000
# 6 0.000000 0.000000 0.000000 0.008539 0.000000 0.028602
#
#
# Mechanical properties :
#
#
# Convention : Reuss Voigt Hill
#
# Bulk Modulus (GPa) = 28.97639 48.89105 38.93372
# Shear Modulus (GPa) = 18.20469 30.26735 24.23602
#
# Velocity S-wave (km/s) = 2.74794 3.54326 3.17064
# Velocity P-wave (km/s) = 4.69973 6.08434 5.43630
#
# Compressibility (1/GPa) = 0.03451085
#
# Stress axis : x y z
#
# Youngs Moduli (GPa) = 105.49071 83.48628 22.83571
#
# Poissons Ratio (x) = 0.09724 0.24492
# Poissons Ratio (y) = 0.12287 0.07944
# Poissons Ratio (z) = 1.13141 0.29044
#
# Static dielectric constant tensor:
#      x y z
#    x 4.677430 0.000000 0.019530 
#    y 0.000000 4.423400 0.000000 
#    z 0.019530 0.000000 4.191950 
# 
# 
# High freq. dielectric constant tensor:
#      x y z
#    x 1.975070 0.000000 0.002470 
#    y 0.000000 1.966840 0.000000 
#    z 0.002470 0.000000 1.941070 
# 
# From -- ./inp_files/118002.got.cif
#   From: 2010.06.25/outbox.cif.g09.slc.cpg/sg15_60_cif.got.tgz:118002.got - 2010.06.28 07:06:18.
