data_PCOD8151171
_publ_section_title
;
Structure prediction by ZEFSAII (Michael W. Deem and Ramdas Pophale) SiO2 
 PCOD8151171
Probable space group: C 2/C
;
_chemical_formula_sum "Si O2"
_cell_formula_units_Z 64
_cell_length_a 19.692365
_cell_length_b 13.765404
_cell_length_c 19.625053
_cell_angle_alpha 90.000000
_cell_angle_beta 41.468177
_cell_angle_gamma 90.000000
_cell_volume 3522.811888
_symmetry_space_group_name_H-M "C 2/C"
_symmetry_group_IT_number 15
_symmetry_cell_setting 'monoclinic'
loop_
_space_group_symop_operation_xyz
x,y,z
-x,y,1/2-z
-x,-y,-z
x,-y,1/2+z
1/2+x,1/2+y,z
1/2-x,1/2+y,1/2-z
1/2-x,1/2-y,-z
1/2+x,1/2-y,1/2+z
loop_
_atom_site_type_symbol
_atom_site_label
_atom_site_fract_x
_atom_site_fract_y
_atom_site_fract_z
Si Si1 0.596455 0.021035 0.008729
Si Si2 0.613970 0.095511 0.365985
Si Si3 0.613194 0.974371 0.643583
Si Si4 0.605570 0.254805 0.134364
Si Si5 0.738403 0.511800 0.848015
Si Si6 0.742116 0.674206 0.645764
Si Si7 0.124291 0.182663 0.863881
Si Si8 0.607615 0.665628 0.480006
O O1 0.492151 0.085893 0.097805
O O2 0.631069 0.978150 0.055668
O O3 0.686625 0.081966 0.908150
O O4 0.581136 0.935179 0.966779
O O5 0.653872 0.204331 0.345636
O O6 0.700898 0.032511 0.262492
O O7 0.500000 0.001712 0.750000
O O8 0.629695 0.859223 0.622380
O O9 0.687772 0.022824 0.642531
O O10 0.500000 0.280985 0.250000
O O11 0.698144 0.308099 0.103395
O O12 0.601795 0.295114 0.061309
O O13 0.692421 0.617445 0.863945
O O14 0.644927 0.444379 0.943069
O O15 0.649787 0.652212 0.767188
O O16 0.810393 0.765846 0.620304
O O17 0.004304 0.169383 0.969897
#
# Coordination Sequence:
#
# PCOD8151171 Si02
#       8
#     8   8   8   8   8   8   8   8
#     4  11  22  37  62  89 117 152 197 249 298 344
#     4  11  22  39  61  90 115 152 205 245 292 353
#     4  11  20  35  58  90 121 150 194 253 303 351
#     4  11  20  33  58  88 121 151 186 246 314 368
#     4  12  24  38  59  88 122 160 195 241 306 362
#     4  12  20  34  59  87 119 153 189 238 308 357
#     4  12  24  40  56  85 123 160 198 240 293 364
#     4  12  22  37  58  87 122 156 190 240 306 370
#
# _framework density 18.167304999999999
#
# number of rings (size 3 to 8) (size 9 to 14) (size 15 to 20)
#    0.000    0.500    8.750    1.500    0.000    0.000 
#    0.000    0.625    0.000    0.000    0.000    0.875 
#    0.000    0.000    0.000    0.000    0.000    0.000 
#
# Total GULP energy -396724.896731 kJ/mol
# GULP energy per Si atom -12397.653023 kJ/mol
# Density = 1.812596 g / cm^3
# Si number density = 18.167305 Si / 1000 Ang^3
#
#
#
# Elastic Constant Matrix: (Units=GPa)
#
#
# Indices 1 2 3 4 5 6 
#
# 1 111.0628 52.4848 26.2898 0.0000 -0.9142 0.0000
# 2 52.4848 57.5104 25.9047 0.0000 4.2453 0.0000
# 3 26.2898 25.9047 62.4128 0.0000 -8.7520 0.0000
# 4 0.0000 0.0000 0.0000 24.8452 0.0000 0.0077
# 5 -0.9142 4.2453 -8.7520 0.0000 31.9095 0.0000
# 6 0.0000 0.0000 0.0000 0.0077 0.0000 26.8981
#
#
#
# Elastic Compliance Matrix: (Units=1/GPa)
#
#
# Indices 1 2 3 4 5 6 
#
# 1 0.016022 -0.014634 -0.000351 0.000000 0.002310 0.000000
# 2 -0.014634 0.035720 -0.009762 0.000000 -0.007849 0.000000
# 3 -0.000351 -0.009762 0.021219 0.000000 0.007109 0.000000
# 4 0.000000 0.000000 0.000000 0.040249 0.000000 -0.000012
# 5 0.002310 -0.007849 0.007109 0.000000 0.034399 0.000000
# 6 0.000000 0.000000 0.000000 -0.000012 0.000000 0.037177
#
#
# Mechanical properties :
#
#
# Convention : Reuss Voigt Hill
#
# Bulk Modulus (GPa) = 42.61443 48.92718 45.77081
# Shear Modulus (GPa) = 20.65247 25.15100 22.90173
#
# Velocity S-wave (km/s) = 3.37529 3.72480 3.55435
# Velocity P-wave (km/s) = 6.22075 6.74454 6.48793
#
# Compressibility (1/GPa) = 0.02346623
#
# Stress axis : x y z
#
# Youngs Moduli (GPa) = 62.41602 27.99558 47.12791
#
# Poissons Ratio (x) = 0.40969 0.01654
# Poissons Ratio (y) = 0.91339 0.46007
# Poissons Ratio (z) = 0.02190 0.27330
#
# Static dielectric constant tensor:
#      x y z
#    x 3.408930 0.000000 -0.084310 
#    y 0.000000 3.121410 0.000000 
#    z -0.084310 0.000000 3.602330 
# 
# 
# High freq. dielectric constant tensor:
#      x y z
#    x 1.701010 0.000000 -0.007620 
#    y 0.000000 1.669440 0.000000 
#    z -0.007620 0.000000 1.725180 
# 
# From -- ./inp_files/252561.got.cif
#   From: 2010.06.25/outbox.cif.g09.slc.cpg/sg15_127_cif.got.tgz:252561.got - 2010.06.28 07:06:18.
