data_PCOD8151308
_publ_section_title
;
Structure prediction by ZEFSAII (Michael W. Deem and Ramdas Pophale) SiO2 
 PCOD8151308
Probable space group: C 2/C
;
_chemical_formula_sum "Si O2"
_cell_formula_units_Z 52
_cell_length_a 14.466522
_cell_length_b 16.531742
_cell_length_c 11.364177
_cell_angle_alpha 90.000000
_cell_angle_beta 62.306013
_cell_angle_gamma 90.000000
_cell_volume 2406.473352
_symmetry_space_group_name_H-M "C 2/C"
_symmetry_group_IT_number 15
_symmetry_cell_setting 'monoclinic'
loop_
_space_group_symop_operation_xyz
x,y,z
-x,y,1/2-z
-x,-y,-z
x,-y,1/2+z
1/2+x,1/2+y,z
1/2-x,1/2+y,1/2-z
1/2-x,1/2-y,-z
1/2+x,1/2-y,1/2+z
loop_
_atom_site_type_symbol
_atom_site_label
_atom_site_fract_x
_atom_site_fract_y
_atom_site_fract_z
Si Si1 0.319753 0.157509 0.472557
Si Si2 0.899811 0.760966 0.642920
Si Si3 0.879557 0.799229 0.298271
Si Si4 0.747556 0.853026 0.896380
Si Si5 0.625722 0.304427 0.465653
Si Si6 0.000000 0.364201 0.250000
Si Si7 0.100479 0.515279 0.518486
O O1 0.361772 0.217438 0.548400
O O2 0.194143 0.151832 0.565666
O O3 0.355566 0.202572 0.330780
O O4 0.366907 0.069152 0.444392
O O5 0.816069 0.823367 0.745502
O O6 0.002161 0.813524 0.555172
O O7 0.920985 0.690531 0.723396
O O8 0.845267 0.825030 0.186704
O O9 0.000000 0.820541 0.250000
O O10 0.655115 0.788651 0.976617
O O11 0.816444 0.862598 0.975261
O O12 0.696217 0.940332 0.892838
O O13 0.923215 0.422073 0.365629
O O14 0.000000 0.500000 0.500000
#
# Coordination Sequence:
#
# PCOD8151308 Si02
#       7
#     8   8   8   8   8   4   8
#     4  11  25  42  63  98 133 178 223 271 340 400
#     4  12  20  40  68  98 129 170 231 273 320 406
#     4  11  24  42  67  92 127 183 229 270 320 402
#     4  11  22  38  66  98 131 174 216 277 337 385
#     4  11  20  38  67  96 125 166 229 272 318 393
#     4  12  22  38  66  98 132 174 212 278 336 386
#     4  12  26  41  63  99 142 170 211 282 346 395
#
# _framework density 21.608384999999998
#
# number of rings (size 3 to 8) (size 9 to 14) (size 15 to 20)
#    0.000    0.615    7.692    0.923    1.077    0.000 
#    0.000    1.538    0.000    1.846    0.000    0.000 
#    0.000    0.000    0.000    0.000    0.000    0.000 
#
# Total GULP energy -322338.833399 kJ/mol
# GULP energy per Si atom -12397.647438 kJ/mol
# Density = 2.155920 g / cm^3
# Si number density = 21.608385 Si / 1000 Ang^3
#
#
#
# Elastic Constant Matrix: (Units=GPa)
#
#
# Indices 1 2 3 4 5 6 
#
# 1 99.2581 15.9589 24.5610 0.0000 -15.3521 0.0000
# 2 15.9589 81.3998 16.6171 0.0000 -8.0009 0.0000
# 3 24.5610 16.6171 79.4060 0.0000 -6.7283 0.0000
# 4 0.0000 0.0000 0.0000 3.8780 0.0000 17.8639
# 5 -15.3521 -8.0009 -6.7283 0.0000 38.6571 0.0000
# 6 0.0000 0.0000 0.0000 17.8639 0.0000 -10.4399
#
#
#
# Elastic Compliance Matrix: (Units=1/GPa)
#
#
# Indices 1 2 3 4 5 6 
#
# 1 0.011616 -0.001289 -0.002999 0.000000 0.003824 0.000000
# 2 -0.001289 0.013167 -0.002202 0.000000 0.001830 0.000000
# 3 -0.002999 -0.002202 0.014050 0.000000 0.000799 0.000000
# 4 0.000000 0.000000 0.000000 0.029032 0.000000 0.049677
# 5 0.003824 0.001830 0.000799 0.000000 0.027905 0.000000
# 6 0.000000 0.000000 0.000000 0.049677 0.000000 -0.010784
#
#
# Mechanical properties :
#
#
# Convention : Reuss Voigt Hill
#
# Bulk Modulus (GPa) = 38.68082 41.59310 40.13696
# Shear Modulus (GPa) = 46.91229 19.94750 33.42990
#
# Velocity S-wave (km/s) = 4.66448 3.04161 3.93756
# Velocity P-wave (km/s) = 6.85197 5.62366 6.26798
#
# Compressibility (1/GPa) = 0.02585260
#
# Stress axis : x y z
#
# Youngs Moduli (GPa) = 86.09122 75.94674 71.17681
#
# Poissons Ratio (x) = 0.09791 0.21346
# Poissons Ratio (y) = 0.11099 0.15670
# Poissons Ratio (z) = 0.25819 0.16721
#
# Static dielectric constant tensor:
#      x y z
#    x 4.442120 0.000000 -0.196210 
#    y 0.000000 3.625330 0.000000 
#    z -0.196210 0.000000 4.368680 
# 
# 
# High freq. dielectric constant tensor:
#      x y z
#    x 1.868150 0.000000 -0.006940 
#    y 0.000000 1.799770 0.000000 
#    z -0.006940 0.000000 1.862440 
# 
# From -- ./inp_files/98210.got.cif
#   From: 2010.06.25/outbox.cif.g09.slc.cpg/sg15_50_cif.got.tgz:98210.got - 2010.06.28 07:06:18.
