data_PCOD8151311
_publ_section_title
;
Structure prediction by ZEFSAII (Michael W. Deem and Ramdas Pophale) SiO2 
 PCOD8151311
Probable space group: C 2/C
;
_chemical_formula_sum "Si O2"
_cell_formula_units_Z 56
_cell_length_a 21.914742
_cell_length_b 5.285109
_cell_length_c 26.486778
_cell_angle_alpha 90.000000
_cell_angle_beta 127.298178
_cell_angle_gamma 90.000000
_cell_volume 2440.369950
_symmetry_space_group_name_H-M "C 2/C"
_symmetry_group_IT_number 15
_symmetry_cell_setting 'monoclinic'
loop_
_space_group_symop_operation_xyz
x,y,z
-x,y,1/2-z
-x,-y,-z
x,-y,1/2+z
1/2+x,1/2+y,z
1/2-x,1/2+y,1/2-z
1/2-x,1/2-y,-z
1/2+x,1/2-y,1/2+z
loop_
_atom_site_type_symbol
_atom_site_label
_atom_site_fract_x
_atom_site_fract_y
_atom_site_fract_z
Si Si1 0.885275 0.691832 0.432198
Si Si2 0.689268 0.203131 0.663281
Si Si3 0.295860 0.997216 0.038193
Si Si4 0.043730 0.358487 0.429058
Si Si5 0.725494 0.906999 0.361329
Si Si6 0.546589 0.363578 0.132750
Si Si7 0.335770 0.426149 0.748152
O O1 0.875187 0.405654 0.406633
O O2 0.949788 0.685217 0.507385
O O3 0.803435 0.762856 0.416049
O O4 0.904437 0.891425 0.396060
O O5 0.751683 0.380782 0.667498
O O6 0.641230 0.282012 0.688196
O O7 0.745760 0.981106 0.711087
O O8 0.377409 0.968368 0.053007
O O9 0.310579 0.017255 0.105811
O O10 0.250000 0.250000 0.000000
O O11 0.250000 0.750000 0.000000
O O12 0.985453 0.582030 0.387608
O O13 0.017380 0.086012 0.393595
O O14 0.659658 0.729838 0.301932
O O15 0.599311 0.356469 0.211180
#
# Coordination Sequence:
#
# PCOD8151311 Si02
#       7
#     8   8   8   8   8   8   8
#     4  11  23  40  67 109 137 178 232 290 358 409
#     4  11  20  38  68 104 139 174 232 296 343 406
#     4  12  26  50  75 100 137 177 242 300 337 408
#     4  12  27  45  69 101 141 188 229 274 357 423
#     4  11  24  40  75 101 132 184 239 298 344 399
#     4  12  26  43  68 100 152 184 217 281 352 441
#     4  11  22  39  65 101 141 180 228 280 352 408
#
# _framework density 22.947338999999999
#
# number of rings (size 3 to 8) (size 9 to 14) (size 15 to 20)
#    0.000    0.571    4.286    4.286    6.000    0.000 
#    0.000    0.714    0.000    0.000    0.000    0.000 
#    0.000    0.000    0.000    0.000    0.000    0.000 
#
# Total GULP energy -346919.980266 kJ/mol
# GULP energy per Si atom -12389.999295 kJ/mol
# Density = 2.289511 g / cm^3
# Si number density = 22.947339 Si / 1000 Ang^3
#
#
#
# Elastic Constant Matrix: (Units=GPa)
#
#
# Indices 1 2 3 4 5 6 
#
# 1 76.5819 9.5912 25.0150 -0.0124 -9.2720 0.0104
# 2 9.5912 100.4410 43.4329 -0.0194 -1.5267 0.0314
# 3 25.0150 43.4329 128.8220 -0.0181 -8.1485 0.0213
# 4 -0.0124 -0.0194 -0.0181 46.8934 0.0122 2.7052
# 5 -9.2720 -1.5267 -8.1485 0.0122 35.8223 -0.0145
# 6 0.0104 0.0314 0.0213 2.7052 -0.0145 28.8856
#
#
#
# Elastic Compliance Matrix: (Units=1/GPa)
#
#
# Indices 1 2 3 4 5 6 
#
# 1 0.014280 -0.000237 -0.002496 0.000002 0.003118 -0.000002
# 2 -0.000237 0.011665 -0.003916 0.000004 -0.000455 -0.000010
# 3 -0.002496 -0.003916 0.009655 0.000001 0.001383 -0.000001
# 4 0.000002 0.000004 0.000001 0.021441 -0.000007 -0.002008
# 5 0.003118 -0.000455 0.001383 -0.000007 0.029018 0.000014
# 6 -0.000002 -0.000010 -0.000001 -0.002008 0.000014 0.034807
#
#
# Mechanical properties :
#
#
# Convention : Reuss Voigt Hill
#
# Bulk Modulus (GPa) = 44.83621 51.32479 48.08050
# Shear Modulus (GPa) = 35.31120 37.50731 36.40925
#
# Velocity S-wave (km/s) = 3.92700 4.04727 3.98759
# Velocity P-wave (km/s) = 6.33585 6.65248 6.49609
#
# Compressibility (1/GPa) = 0.02230340
#
# Stress axis : x y z
#
# Youngs Moduli (GPa) = 70.02605 85.72624 103.57343
#
# Poissons Ratio (x) = 0.02032 0.25850
# Poissons Ratio (y) = 0.01660 0.40556
# Poissons Ratio (z) = 0.17477 0.33568
#
# Static dielectric constant tensor:
#      x y z
#    x 4.126910 -0.000050 0.057960 
#    y -0.000050 4.258310 0.000020 
#    z 0.057960 0.000020 4.314790 
# 
# 
# High freq. dielectric constant tensor:
#      x y z
#    x 1.871960 0.000000 0.011920 
#    y 0.000000 1.917820 0.000000 
#    z 0.011920 0.000000 1.921370 
# 
# From -- ./inp_files/301720.got.cif
#   From: 2010.06.25/outbox.cif.g09.slc.cpg/sg15_151_cif.got.tgz:301720.got - 2010.06.28 07:06:18.
