data_PCOD8151533
_publ_section_title
;
Structure prediction by ZEFSAII (Michael W. Deem and Ramdas Pophale) SiO2 
 PCOD8151533
Probable space group: C 2/C
;
_chemical_formula_sum "Si O2"
_cell_formula_units_Z 64
_cell_length_a 25.244424
_cell_length_b 19.779738
_cell_length_c 18.955732
_cell_angle_alpha 90.000000
_cell_angle_beta 159.896244
_cell_angle_gamma 90.000000
_cell_volume 3253.366199
_symmetry_space_group_name_H-M "C 2/C"
_symmetry_group_IT_number 15
_symmetry_cell_setting 'monoclinic'
loop_
_space_group_symop_operation_xyz
x,y,z
-x,y,1/2-z
-x,-y,-z
x,-y,1/2+z
1/2+x,1/2+y,z
1/2-x,1/2+y,1/2-z
1/2-x,1/2-y,-z
1/2+x,1/2-y,1/2+z
loop_
_atom_site_type_symbol
_atom_site_label
_atom_site_fract_x
_atom_site_fract_y
_atom_site_fract_z
Si Si1 0.371307 0.058290 0.336227
Si Si2 0.335444 0.472277 0.047516
Si Si3 0.167979 0.526145 0.479854
Si Si4 0.339679 0.476537 0.332308
Si Si5 0.454630 0.837246 0.375960
Si Si6 0.132852 0.790128 0.801988
Si Si7 0.378926 0.874256 0.046999
Si Si8 0.125033 0.890810 0.984941
O O1 0.450801 0.133161 0.439123
O O2 0.500000 0.000000 0.500000
O O3 0.244231 0.041843 0.237731
O O4 0.291872 0.060879 0.161139
O O5 0.500000 0.434446 0.250000
O O6 0.287255 0.459401 0.067138
O O7 0.365289 0.550314 0.061408
O O8 0.232237 0.554120 0.635070
O O9 0.164786 0.445865 0.476677
O O10 0.000000 0.556666 0.250000
O O11 0.500000 0.500000 0.500000
O O12 0.369060 0.420307 0.428389
O O13 0.482765 0.760414 0.385303
O O14 0.533095 0.886237 0.416119
O O15 0.272738 0.844036 0.157228
O O16 0.028222 0.844003 0.714798
O O17 0.250000 0.750000 0.000000
O O18 0.226322 0.828276 0.856813
O O19 0.500000 0.836766 0.250000
#
# Coordination Sequence:
#
# PCOD8151533 Si02
#       8
#     8   8   8   8   8   8   8   8
#     4  11  21  39  58  84 116 157 202 246 306 362
#     4  11  22  36  59  88 117 155 196 249 298 361
#     4  11  21  34  60  86 117 151 198 247 305 353
#     4  11  21  38  58  85 120 155 197 255 304 364
#     4  12  23  38  58  78 118 167 199 244 291 357
#     4  12  26  40  55  86 124 163 208 247 290 359
#     4  11  21  36  52  82 116 159 199 239 290 351
#     4  11  25  39  59  84 123 163 205 240 302 358
#
# _framework density 19.671932999999999
#
# number of rings (size 3 to 8) (size 9 to 14) (size 15 to 20)
#    0.000    0.750    5.000    6.000    1.750    0.000 
#    0.000    0.000    0.000    0.000    0.000    1.750 
#    0.000    0.000    0.000    0.000    0.000    0.000 
#
# Total GULP energy -396503.110399 kJ/mol
# GULP energy per Si atom -12390.722200 kJ/mol
# Density = 1.962716 g / cm^3
# Si number density = 19.671933 Si / 1000 Ang^3
#
#
#
# Elastic Constant Matrix: (Units=GPa)
#
#
# Indices 1 2 3 4 5 6 
#
# 1 90.7021 -1.4118 14.5892 0.0003 15.6792 0.0002
# 2 -1.4118 50.1300 16.8485 -0.0002 2.7035 -0.0001
# 3 14.5892 16.8485 91.4319 0.0006 5.9270 0.0010
# 4 0.0003 -0.0002 0.0006 36.8176 0.0010 0.0738
# 5 15.6792 2.7035 5.9270 0.0010 43.3438 0.0011
# 6 0.0002 -0.0001 0.0010 0.0738 0.0011 17.9738
#
#
#
# Elastic Compliance Matrix: (Units=1/GPa)
#
#
# Indices 1 2 3 4 5 6 
#
# 1 0.012069 0.001196 -0.001875 0.000000 -0.004184 0.000000
# 2 0.001196 0.021411 -0.004058 0.000000 -0.001213 0.000000
# 3 -0.001875 -0.004058 0.012030 0.000000 -0.000714 -0.000001
# 4 0.000000 0.000000 0.000000 0.027161 -0.000001 -0.000112
# 5 -0.004184 -0.001213 -0.000714 -0.000001 0.024758 -0.000001
# 6 0.000000 0.000000 -0.000001 -0.000112 -0.000001 0.055637
#
#
# Mechanical properties :
#
#
# Convention : Reuss Voigt Hill
#
# Bulk Modulus (GPa) = 27.74991 32.47954 30.11472
# Shear Modulus (GPa) = 28.64481 33.10957 30.87719
#
# Velocity S-wave (km/s) = 3.82006 4.10699 3.96612
# Velocity P-wave (km/s) = 5.79604 6.24790 6.02621
#
# Compressibility (1/GPa) = 0.03603615
#
# Stress axis : x y z
#
# Youngs Moduli (GPa) = 82.86022 46.70501 83.12385
#
# Poissons Ratio (x) = -0.05584 0.15584
# Poissons Ratio (y) = -0.09907 0.33729
# Poissons Ratio (z) = 0.15535 0.18951
#
# Static dielectric constant tensor:
#      x y z
#    x 3.833760 0.000000 0.153550 
#    y 0.000000 3.270520 0.000000 
#    z 0.153550 0.000000 4.205480 
# 
# 
# High freq. dielectric constant tensor:
#      x y z
#    x 1.781770 0.000000 0.018900 
#    y 0.000000 1.708690 0.000000 
#    z 0.018900 0.000000 1.780870 
# 
# From -- ./inp_files/220422.got.cif
#   From: 2010.06.25/outbox.cif.g09.slc.cpg/sg15_111_cif.got.tgz:220422.got - 2010.06.28 07:06:18.
