data_PCOD8151781
_publ_section_title
;
Structure prediction by ZEFSAII (Michael W. Deem and Ramdas Pophale) SiO2 
 PCOD8151781
Probable space group: C 2/C
;
_chemical_formula_sum "Si O2"
_cell_formula_units_Z 64
_cell_length_a 15.944696
_cell_length_b 15.083960
_cell_length_c 14.776278
_cell_angle_alpha 90.000000
_cell_angle_beta 121.384793
_cell_angle_gamma 90.000000
_cell_volume 3033.865892
_symmetry_space_group_name_H-M "C 2/C"
_symmetry_group_IT_number 15
_symmetry_cell_setting 'monoclinic'
loop_
_space_group_symop_operation_xyz
x,y,z
-x,y,1/2-z
-x,-y,-z
x,-y,1/2+z
1/2+x,1/2+y,z
1/2-x,1/2+y,1/2-z
1/2-x,1/2-y,-z
1/2+x,1/2-y,1/2+z
loop_
_atom_site_type_symbol
_atom_site_label
_atom_site_fract_x
_atom_site_fract_y
_atom_site_fract_z
Si Si1 0.549016 0.961524 0.117456
Si Si2 0.232535 0.071801 0.730311
Si Si3 0.099642 0.379801 0.776029
Si Si4 0.790889 0.727268 0.308655
Si Si5 0.870558 0.345835 0.034469
Si Si6 0.743035 0.991976 0.950980
Si Si7 0.390758 0.700094 0.182616
Si Si8 0.609026 0.503986 0.823119
O O1 0.658366 0.922328 0.165025
O O2 0.481069 0.880730 0.114334
O O3 0.557135 0.037683 0.195982
O O4 0.500000 0.000000 0.000000
O O5 0.188690 0.168808 0.689236
O O6 0.227581 0.018181 0.634138
O O7 0.165728 0.017759 0.761777
O O8 0.175603 0.317980 0.765438
O O9 0.158781 0.416876 0.896621
O O10 0.000000 0.327162 0.750000
O O11 0.857833 0.683178 0.423680
O O12 0.675047 0.709566 0.263379
O O13 0.794760 0.424237 0.013150
O O14 0.840489 0.261986 0.078896
O O15 0.834868 0.951531 0.059501
O O16 0.500000 0.738797 0.250000
O O17 0.397243 0.599306 0.154617
O O18 0.500000 0.544342 0.750000
#
# Coordination Sequence:
#
# PCOD8151781 Si02
#       8
#     8   8   8   8   8   8   8   8
#     4  11  21  40  66 103 133 168 216 276 354 402
#     4  11  25  41  66  96 133 174 218 276 335 406
#     4  11  24  38  65  98 138 177 214 273 335 419
#     4  12  23  41  60  96 135 169 217 269 338 394
#     4  12  21  36  69  99 133 162 207 287 348 391
#     4  11  22  41  68  96 130 167 216 278 340 395
#     4  11  22  37  61  96 127 160 217 279 334 383
#     4  11  25  45  64  87 127 181 229 268 318 396
#
# _framework density 21.095196999999999
#
# number of rings (size 3 to 8) (size 9 to 14) (size 15 to 20)
#    0.000    0.750    5.000    4.125    1.750    1.000 
#    0.000    3.125    0.000    0.000    0.000    0.000 
#    0.000    0.000    0.000    0.000    0.000    0.000 
#
# Total GULP energy -396743.229304 kJ/mol
# GULP energy per Si atom -12398.225916 kJ/mol
# Density = 2.104718 g / cm^3
# Si number density = 21.095197 Si / 1000 Ang^3
#
#
#
# Elastic Constant Matrix: (Units=GPa)
#
#
# Indices 1 2 3 4 5 6 
#
# 1 142.7563 31.1525 54.3385 0.0000 21.0157 0.0000
# 2 31.1525 40.6844 15.2226 0.0000 -0.0398 0.0000
# 3 54.3385 15.2226 117.8637 0.0000 12.8744 0.0000
# 4 0.0000 0.0000 0.0000 19.0412 0.0000 -5.2023
# 5 21.0157 -0.0398 12.8744 0.0000 34.0314 0.0000
# 6 0.0000 0.0000 0.0000 -5.2023 0.0000 27.3455
#
#
#
# Elastic Compliance Matrix: (Units=1/GPa)
#
#
# Indices 1 2 3 4 5 6 
#
# 1 0.010565 -0.006816 -0.003418 0.000000 -0.005239 0.000000
# 2 -0.006816 0.030284 -0.001286 0.000000 0.004731 0.000000
# 3 -0.003418 -0.001286 0.010427 0.000000 -0.001835 0.000000
# 4 0.000000 0.000000 0.000000 0.055397 0.000000 0.010539
# 5 -0.005239 0.004731 -0.001835 0.000000 0.033320 0.000000
# 6 0.000000 0.000000 0.000000 0.010539 0.000000 0.038574
#
#
# Mechanical properties :
#
#
# Convention : Reuss Voigt Hill
#
# Bulk Modulus (GPa) = 35.41546 55.85906 45.63726
# Shear Modulus (GPa) = 23.69477 29.45634 26.57555
#
# Velocity S-wave (km/s) = 3.35510 3.74083 3.55320
# Velocity P-wave (km/s) = 5.64214 6.72276 6.20601
#
# Compressibility (1/GPa) = 0.02823625
#
# Stress axis : x y z
#
# Youngs Moduli (GPa) = 94.65641 33.02076 95.90738
#
# Poissons Ratio (x) = 0.22506 0.32781
# Poissons Ratio (y) = 0.64514 0.12332
# Poissons Ratio (z) = 0.32354 0.04246
#
# Static dielectric constant tensor:
#      x y z
#    x 4.142950 0.000000 0.375630 
#    y 0.000000 3.659560 0.000000 
#    z 0.375630 0.000000 4.039800 
# 
# 
# High freq. dielectric constant tensor:
#      x y z
#    x 1.834140 0.000000 0.010050 
#    y 0.000000 1.809560 0.000000 
#    z 0.010050 0.000000 1.825100 
# 
# From -- ./inp_files/155208.got.cif
#   From: 2010.06.25/outbox.cif.g09.slc.cpg/sg15_78_cif.got.tgz:155208.got - 2010.06.28 07:06:18.
