data_PCOD8151060
_publ_section_title
;
Structure prediction by ZEFSAII (Michael W. Deem and Ramdas Pophale) SiO2 
 PCOD8151060
Probable space group: C 2/C
;
_chemical_formula_sum "Si O2"
_cell_formula_units_Z 48
_cell_length_a 31.019704
_cell_length_b 11.978404
_cell_length_c 20.570373
_cell_angle_alpha 90.000000
_cell_angle_beta 18.080047
_cell_angle_gamma 90.000000
_cell_volume 2372.051328
_symmetry_space_group_name_H-M "C 2/C"
_symmetry_group_IT_number 15
_symmetry_cell_setting 'monoclinic'
loop_
_space_group_symop_operation_xyz
x,y,z
-x,y,1/2-z
-x,-y,-z
x,-y,1/2+z
1/2+x,1/2+y,z
1/2-x,1/2+y,1/2-z
1/2-x,1/2-y,-z
1/2+x,1/2-y,1/2+z
loop_
_atom_site_type_symbol
_atom_site_label
_atom_site_fract_x
_atom_site_fract_y
_atom_site_fract_z
Si Si1 0.068444 0.465134 0.717877
Si Si2 0.395845 0.297954 0.344234
Si Si3 0.623684 0.949512 0.396121
Si Si4 0.627925 0.528173 0.731756
Si Si5 0.376302 0.157008 0.187256
Si Si6 0.120516 0.878021 0.385936
O O1 0.071329 0.330517 0.716796
O O2 0.222303 0.515654 0.506738
O O3 0.000000 0.508490 0.750000
O O4 0.974443 0.511843 0.910797
O O5 0.500000 0.344046 0.250000
O O6 0.422700 0.368613 0.240220
O O7 0.235976 0.308629 0.596869
O O8 0.530194 0.852902 0.497178
O O9 0.755112 0.895627 0.242310
O O10 0.673096 0.039518 0.272356
O O11 0.649432 0.565248 0.775231
O O12 0.519441 0.427041 0.881846
O O13 0.388838 0.246171 0.111469
#
# Coordination Sequence:
#
# PCOD8151060 Si02
#       6
#     8   8   8   8   8   8
#     4  11  19  36  60  88 117 156 199 250 295 348
#     4  11  20  35  61  89 118 155 200 248 300 348
#     4  11  23  39  62  88 126 156 199 242 305 356
#     4  11  21  35  59  89 120 151 203 249 294 348
#     4  11  23  40  61  89 121 162 195 246 300 359
#     4  11  23  39  59  93 121 157 198 251 300 352
#
# _framework density 20.23565
#
# number of rings (size 3 to 8) (size 9 to 14) (size 15 to 20)
#    0.000    1.000    5.000    3.500    0.000    2.667 
#    0.000    0.833    0.000    1.000    0.000    0.000 
#    0.000    0.000    0.000    0.000    0.000    0.000 
#
# Total GULP energy -297606.959037 kJ/mol
# GULP energy per Si atom -12400.289960 kJ/mol
# Density = 2.018959 g / cm^3
# Si number density = 20.235650 Si / 1000 Ang^3
#
#
#
# Elastic Constant Matrix: (Units=GPa)
#
#
# Indices 1 2 3 4 5 6 
#
# 1 95.4949 13.2770 17.8819 0.0004 -31.4602 -0.0003
# 2 13.2770 48.4609 16.3748 0.0004 -10.5118 -0.0004
# 3 17.8819 16.3748 75.1394 0.0005 -22.7323 -0.0005
# 4 0.0004 0.0004 0.0005 27.7607 -0.0004 4.6023
# 5 -31.4602 -10.5118 -22.7323 -0.0004 46.8482 0.0004
# 6 -0.0003 -0.0004 -0.0005 4.6023 0.0004 21.9971
#
#
#
# Elastic Compliance Matrix: (Units=1/GPa)
#
#
# Indices 1 2 3 4 5 6 
#
# 1 0.013604 -0.001775 -0.000243 0.000000 0.008619 0.000000
# 2 -0.001775 0.022897 -0.003954 0.000000 0.002027 0.000000
# 3 -0.000243 -0.003954 0.016304 0.000000 0.006861 0.000000
# 4 0.000000 0.000000 0.000000 0.037317 0.000000 -0.007807
# 5 0.008619 0.002027 0.006861 0.000000 0.030917 0.000000
# 6 0.000000 0.000000 0.000000 -0.007807 0.000000 0.047094
#
#
# Mechanical properties :
#
#
# Convention : Reuss Voigt Hill
#
# Bulk Modulus (GPa) = 24.47408 34.90696 29.69052
# Shear Modulus (GPa) = 25.81343 30.75862 28.28603
#
# Velocity S-wave (km/s) = 3.57549 3.90297 3.74281
# Velocity P-wave (km/s) = 5.40058 6.13177 5.77775
#
# Compressibility (1/GPa) = 0.04085955
#
# Stress axis : x y z
#
# Youngs Moduli (GPa) = 73.51011 43.67315 61.33553
#
# Poissons Ratio (x) = 0.07753 0.01490
# Poissons Ratio (y) = 0.13050 0.24254
# Poissons Ratio (z) = 0.01786 0.17270
#
# Static dielectric constant tensor:
#      x y z
#    x 3.955090 0.000000 -0.132200 
#    y 0.000000 3.366070 0.000000 
#    z -0.132200 0.000000 3.869650 
# 
# 
# High freq. dielectric constant tensor:
#      x y z
#    x 1.811370 0.000000 -0.014540 
#    y 0.000000 1.749040 0.000000 
#    z -0.014540 0.000000 1.794370 
# 
# From -- ./inp_files/182047.got.cif
#   From: 2010.06.25/outbox.cif.g09.slc.cpg/sg15_92_cif.got.tgz:182047.got - 2010.06.28 07:06:18.
