data_PCOD8151400
_publ_section_title
;
Structure prediction by ZEFSAII (Michael W. Deem and Ramdas Pophale) SiO2 
 PCOD8151400
Probable space group: C 2/C
;
_chemical_formula_sum "Si O2"
_cell_formula_units_Z 48
_cell_length_a 15.093172
_cell_length_b 21.152127
_cell_length_c 11.691289
_cell_angle_alpha 90.000000
_cell_angle_beta 36.547435
_cell_angle_gamma 90.000000
_cell_volume 2222.644704
_symmetry_space_group_name_H-M "C 2/C"
_symmetry_group_IT_number 15
_symmetry_cell_setting 'monoclinic'
loop_
_space_group_symop_operation_xyz
x,y,z
-x,y,1/2-z
-x,-y,-z
x,-y,1/2+z
1/2+x,1/2+y,z
1/2-x,1/2+y,1/2-z
1/2-x,1/2-y,-z
1/2+x,1/2-y,1/2+z
loop_
_atom_site_type_symbol
_atom_site_label
_atom_site_fract_x
_atom_site_fract_y
_atom_site_fract_z
Si Si1 0.816520 0.087916 0.107247
Si Si2 0.437442 0.186592 0.565925
Si Si3 0.500000 0.517385 0.750000
Si Si4 0.494113 0.064295 0.381250
Si Si5 0.000000 0.350536 0.250000
Si Si6 0.231605 0.272580 0.648766
Si Si7 0.773134 0.449973 0.564371
O O1 0.666705 0.049478 0.227639
O O2 0.814991 0.161061 0.075040
O O3 0.826028 0.080450 0.232868
O O4 0.966671 0.060273 0.895555
O O5 0.427463 0.112076 0.544562
O O6 0.472694 0.192543 0.665122
O O7 0.287782 0.221823 0.684411
O O8 0.560457 0.218955 0.358298
O O9 0.651270 0.478834 0.607037
O O10 0.500000 0.096871 0.250000
O O11 0.396705 0.000353 0.480543
O O12 0.854475 0.393442 0.415114
O O13 0.250000 0.250000 0.500000
#
# Coordination Sequence:
#
# PCOD8151400 Si02
#       7
#     8   8   4   8   4   8   8
#     4  11  24  43  63 101 132 171 223 276 338 403
#     4  11  26  42  71 100 131 181 224 281 335 402
#     4  12  26  40  65 101 140 174 212 286 352 390
#     4  11  20  40  71  97 127 176 232 272 326 398
#     4  12  24  48  67  97 138 184 234 256 336 430
#     4  11  24  46  69  98 132 169 232 290 335 385
#     4  12  24  43  66  98 138 176 222 276 334 416
#
# _framework density 21.595894000000001
#
# number of rings (size 3 to 8) (size 9 to 14) (size 15 to 20)
#    0.000    0.667    5.833    3.500    4.667    0.667 
#    3.000    0.000    0.000    0.000    0.000    0.000 
#    0.000    0.000    0.000    0.000    0.000    0.000 
#
# Total GULP energy -297536.794526 kJ/mol
# GULP energy per Si atom -12397.366439 kJ/mol
# Density = 2.154674 g / cm^3
# Si number density = 21.595894 Si / 1000 Ang^3
#
#
#
# Elastic Constant Matrix: (Units=GPa)
#
#
# Indices 1 2 3 4 5 6 
#
# 1 74.0856 35.0785 18.7828 0.0080 21.6425 -0.0054
# 2 35.0785 79.4051 34.6157 0.0012 3.4475 -0.0006
# 3 18.7828 34.6157 98.1492 0.0093 23.3645 -0.0080
# 4 0.0080 0.0012 0.0093 24.8780 -0.0066 7.2983
# 5 21.6425 3.4475 23.3645 -0.0066 46.5441 0.0048
# 6 -0.0054 -0.0006 -0.0080 7.2983 0.0048 32.5623
#
#
#
# Elastic Compliance Matrix: (Units=1/GPa)
#
#
# Indices 1 2 3 4 5 6 
#
# 1 0.020255 -0.009259 0.001667 -0.000011 -0.009570 0.000008
# 2 -0.009259 0.019240 -0.006473 0.000008 0.006130 -0.000005
# 3 0.001667 -0.006473 0.013882 -0.000009 -0.007264 0.000007
# 4 -0.000011 0.000008 -0.000009 0.043025 0.000017 -0.009643
# 5 -0.009570 0.006130 -0.007264 0.000017 0.029127 -0.000011
# 6 0.000008 -0.000005 0.000007 -0.009643 -0.000011 0.032872
#
#
# Mechanical properties :
#
#
# Convention : Reuss Voigt Hill
#
# Bulk Modulus (GPa) = 39.60882 47.62156 43.61519
# Shear Modulus (GPa) = 25.64824 31.67442 28.66133
#
# Velocity S-wave (km/s) = 3.44996 3.83389 3.64698
# Velocity P-wave (km/s) = 5.85238 6.45735 6.16229
#
# Compressibility (1/GPa) = 0.02524690
#
# Stress axis : x y z
#
# Youngs Moduli (GPa) = 49.37088 51.97584 72.03793
#
# Poissons Ratio (x) = 0.48126 -0.12012
# Poissons Ratio (y) = 0.45714 0.46628
# Poissons Ratio (z) = -0.08233 0.33643
#
# Static dielectric constant tensor:
#      x y z
#    x 3.992900 -0.000010 0.229780 
#    y -0.000010 3.793290 0.000010 
#    z 0.229780 0.000010 4.096740 
# 
# 
# High freq. dielectric constant tensor:
#      x y z
#    x 1.846060 0.000000 0.013120 
#    y 0.000000 1.835470 0.000000 
#    z 0.013120 0.000000 1.856600 
# 
# From -- ./inp_files/100018.got.cif
#   From: 2010.06.25/outbox.cif.g09.slc.cpg/sg15_51_cif.got.tgz:100018.got - 2010.06.28 07:06:18.
