data_PCOD8151956
_publ_section_title
;
Structure prediction by ZEFSAII (Michael W. Deem and Ramdas Pophale) SiO2 
 PCOD8151956
Probable space group: C 2/C
;
_chemical_formula_sum "Si O2"
_cell_formula_units_Z 48
_cell_length_a 30.571364
_cell_length_b 8.371264
_cell_length_c 17.768680
_cell_angle_alpha 90.000000
_cell_angle_beta 148.259089
_cell_angle_gamma 90.000000
_cell_volume 2392.279978
_symmetry_space_group_name_H-M "C 2/C"
_symmetry_group_IT_number 15
_symmetry_cell_setting 'monoclinic'
loop_
_space_group_symop_operation_xyz
x,y,z
-x,y,1/2-z
-x,-y,-z
x,-y,1/2+z
1/2+x,1/2+y,z
1/2-x,1/2+y,1/2-z
1/2-x,1/2-y,-z
1/2+x,1/2-y,1/2+z
loop_
_atom_site_type_symbol
_atom_site_label
_atom_site_fract_x
_atom_site_fract_y
_atom_site_fract_z
Si Si1 0.156766 0.016047 0.144424
Si Si2 0.302686 0.005142 0.103035
Si Si3 0.266600 0.701238 0.865257
Si Si4 0.984827 0.975277 0.311875
Si Si5 0.159905 0.146236 0.802345
Si Si6 0.577960 0.181048 0.821634
O O1 0.199663 0.177604 0.234326
O O2 0.218328 0.931973 0.175807
O O3 0.134954 0.902194 0.182287
O O4 0.069266 0.055177 0.979473
O O5 0.316028 0.168680 0.167057
O O6 0.268938 0.873749 0.110581
O O7 0.387506 0.940073 0.190322
O O8 0.236324 0.033881 0.939472
O O9 0.353718 0.782648 0.014372
O O10 0.954928 0.158923 0.267489
O O11 0.000000 0.911779 0.250000
O O12 0.914686 0.868697 0.247848
O O13 0.500000 0.098751 0.750000
#
# Coordination Sequence:
#
# PCOD8151956 Si02
#       6
#     8   8   8   8   8   8
#     4  12  24  41  67  99 132 173 221 285 329 389
#     4  11  23  42  67  96 131 177 215 273 336 398
#     4  12  23  44  67  98 132 175 223 273 333 397
#     4  11  22  43  68  92 131 180 224 268 332 400
#     4  11  23  40  66 100 133 168 224 273 334 393
#     4  11  21  43  70  92 126 176 223 263 326 404
#
# _framework density 20.064541999999999
#
# number of rings (size 3 to 8) (size 9 to 14) (size 15 to 20)
#    0.000    0.667    6.667    3.000    0.000    2.000 
#    3.000    1.667    0.000    0.000    0.000    0.000 
#    0.000    0.000    0.000    0.000    0.000    0.000 
#
# Total GULP energy -297724.181094 kJ/mol
# GULP energy per Si atom -12405.174212 kJ/mol
# Density = 2.001887 g / cm^3
# Si number density = 20.064542 Si / 1000 Ang^3
#
#
#
# Elastic Constant Matrix: (Units=GPa)
#
#
# Indices 1 2 3 4 5 6 
#
# 1 127.6344 20.0259 32.1061 0.0000 13.1653 0.0000
# 2 20.0259 57.3941 43.5703 0.0000 2.4269 0.0000
# 3 32.1061 43.5703 135.4261 0.0000 8.8777 0.0000
# 4 0.0000 0.0000 0.0000 31.4136 0.0000 1.8549
# 5 13.1653 2.4269 8.8777 0.0000 34.8226 0.0000
# 6 0.0000 0.0000 0.0000 1.8549 0.0000 8.3230
#
#
#
# Elastic Compliance Matrix: (Units=1/GPa)
#
#
# Indices 1 2 3 4 5 6 
#
# 1 0.008755 -0.001985 -0.001250 0.000000 -0.002853 0.000000
# 2 -0.001985 0.023507 -0.007154 0.000000 0.000936 0.000000
# 3 -0.001250 -0.007154 0.010087 0.000000 -0.001600 0.000000
# 4 0.000000 0.000000 0.000000 0.032258 0.000000 -0.007189
# 5 -0.002853 0.000936 -0.001600 0.000000 0.030138 0.000000
# 6 0.000000 0.000000 0.000000 -0.007189 0.000000 0.121751
#
#
# Mechanical properties :
#
#
# Convention : Reuss Voigt Hill
#
# Bulk Modulus (GPa) = 46.35752 56.87324 51.61538
# Shear Modulus (GPa) = 19.64909 29.89532 24.77221
#
# Velocity S-wave (km/s) = 3.13276 3.86418 3.51754
# Velocity P-wave (km/s) = 6.01996 6.95096 6.50215
#
# Compressibility (1/GPa) = 0.02157147
#
# Stress axis : x y z
#
# Youngs Moduli (GPa) = 114.21964 42.54023 99.13926
#
# Poissons Ratio (x) = 0.08446 0.12391
# Poissons Ratio (y) = 0.22677 0.70920
# Poissons Ratio (z) = 0.14275 0.30431
#
# Static dielectric constant tensor:
#      x y z
#    x 3.952370 0.000000 0.089590 
#    y 0.000000 3.497190 0.000000 
#    z 0.089590 0.000000 3.716840 
# 
# 
# High freq. dielectric constant tensor:
#      x y z
#    x 1.800900 0.000000 0.003800 
#    y 0.000000 1.774930 0.000000 
#    z 0.003800 0.000000 1.787140 
# 
# From -- ./inp_files/208911.got.cif
#   From: 2010.06.25/outbox.cif.g09.slc.cpg/sg15_105_cif.got.tgz:208911.got - 2010.06.28 07:06:18.
