data_PCOD8151289
_publ_section_title
;
Structure prediction by ZEFSAII (Michael W. Deem and Ramdas Pophale) SiO2 
 PCOD8151289
Probable space group: C 2/C
;
_chemical_formula_sum "Si O2"
_cell_formula_units_Z 60
_cell_length_a 13.334613
_cell_length_b 19.434672
_cell_length_c 15.077102
_cell_angle_alpha 90.000000
_cell_angle_beta 53.951089
_cell_angle_gamma 90.000000
_cell_volume 3159.101280
_symmetry_space_group_name_H-M "C 2/C"
_symmetry_group_IT_number 15
_symmetry_cell_setting 'monoclinic'
loop_
_space_group_symop_operation_xyz
x,y,z
-x,y,1/2-z
-x,-y,-z
x,-y,1/2+z
1/2+x,1/2+y,z
1/2-x,1/2+y,1/2-z
1/2-x,1/2-y,-z
1/2+x,1/2-y,1/2+z
loop_
_atom_site_type_symbol
_atom_site_label
_atom_site_fract_x
_atom_site_fract_y
_atom_site_fract_z
Si Si1 0.305541 0.308927 0.031939
Si Si2 0.930024 0.776838 0.591211
Si Si3 0.000000 0.792228 0.250000
Si Si4 0.827063 0.271663 0.692163
Si Si5 0.510009 0.868650 0.995472
Si Si6 0.680256 0.678905 0.519343
Si Si7 0.101055 0.422298 0.125556
Si Si8 0.101177 0.420287 0.624289
O O1 0.305920 0.291757 0.136356
O O2 0.228401 0.378911 0.061749
O O3 0.250000 0.250000 0.000000
O O4 0.449891 0.311478 0.924280
O O5 0.804457 0.797013 0.704353
O O6 0.928694 0.808794 0.493989
O O7 0.932989 0.693896 0.579828
O O8 0.927191 0.743853 0.217339
O O9 0.895763 0.840376 0.351314
O O10 0.868881 0.336896 0.612937
O O11 0.438067 0.910852 0.957527
O O12 0.543915 0.920164 0.056899
O O13 0.750000 0.750000 0.500000
O O14 0.772057 0.622029 0.432714
O O15 0.134351 0.501025 0.128703
O O16 0.000000 0.394795 0.250000
O O17 0.000000 0.394503 0.750000
#
# Coordination Sequence:
#
# PCOD8151289 Si02
#       8
#     8   8   4   8   8   8   8   8
#     4  11  22  39  57  88 123 159 213 247 303 370
#     4  11  21  34  60  95 120 159 194 269 311 360
#     4  12  20  36  60 100 126 162 204 258 332 364
#     4  11  21  33  63  95 127 154 201 263 317 363
#     4  11  20  38  60  94 123 153 211 261 306 370
#     4  12  21  35  62  94 128 152 201 262 315 378
#     4  11  24  43  63  87 126 169 213 256 309 375
#     4  11  24  40  66  94 125 165 207 263 322 378
#
# _framework density 18.992743000000001
#
# number of rings (size 3 to 8) (size 9 to 14) (size 15 to 20)
#    0.000    0.800    8.000    2.000    1.867    0.000 
#    0.000    0.667    2.933    0.000    0.000    0.000 
#    0.000    0.000    0.000    0.000    0.000    0.000 
#
# Total GULP energy -371766.230246 kJ/mol
# GULP energy per Si atom -12392.207675 kJ/mol
# Density = 1.894951 g / cm^3
# Si number density = 18.992743 Si / 1000 Ang^3
#
#
#
# Elastic Constant Matrix: (Units=GPa)
#
#
# Indices 1 2 3 4 5 6 
#
# 1 108.7445 22.8961 20.8885 0.0000 -2.9612 0.0000
# 2 22.8961 78.7824 19.6875 0.0000 -10.3935 0.0000
# 3 20.8885 19.6875 96.1909 0.0000 -17.9512 0.0000
# 4 0.0000 0.0000 0.0000 20.7526 0.0000 -1.8973
# 5 -2.9612 -10.3935 -17.9512 0.0000 38.8244 0.0000
# 6 0.0000 0.0000 0.0000 -1.8973 0.0000 27.0075
#
#
#
# Elastic Compliance Matrix: (Units=1/GPa)
#
#
# Indices 1 2 3 4 5 6 
#
# 1 0.010063 -0.002574 -0.001799 0.000000 -0.000753 0.000000
# 2 -0.002574 0.014268 -0.001844 0.000000 0.002771 0.000000
# 3 -0.001799 -0.001844 0.012090 0.000000 0.004959 0.000000
# 4 0.000000 0.000000 0.000000 0.048498 0.000000 0.003407
# 5 -0.000753 0.002771 0.004959 0.000000 0.028734 0.000000
# 6 0.000000 0.000000 0.000000 0.003407 0.000000 0.037266
#
#
# Mechanical properties :
#
#
# Convention : Reuss Voigt Hill
#
# Bulk Modulus (GPa) = 41.69217 45.62910 43.66063
# Shear Modulus (GPa) = 29.18031 31.99996 30.59014
#
# Velocity S-wave (km/s) = 3.92394 4.10915 4.01761
# Velocity P-wave (km/s) = 6.52143 6.82569 6.67529
#
# Compressibility (1/GPa) = 0.02398532
#
# Stress axis : x y z
#
# Youngs Moduli (GPa) = 99.37460 70.08835 82.71627
#
# Poissons Ratio (x) = 0.18043 0.14880
# Poissons Ratio (y) = 0.25583 0.15254
# Poissons Ratio (z) = 0.17877 0.12925
#
# Static dielectric constant tensor:
#      x y z
#    x 3.881080 0.000000 0.176150 
#    y 0.000000 3.192470 0.000000 
#    z 0.176150 0.000000 4.016960 
# 
# 
# High freq. dielectric constant tensor:
#      x y z
#    x 1.748070 0.000000 0.003630 
#    y 0.000000 1.695980 0.000000 
#    z 0.003630 0.000000 1.756860 
# 
# From -- ./inp_files/147106.got.cif
#   From: 2010.06.25/outbox.cif.g09.slc.cpg/sg15_74_cif.got.tgz:147106.got - 2010.06.28 07:06:18.
