data_PCOD8151401
_publ_section_title
;
Structure prediction by ZEFSAII (Michael W. Deem and Ramdas Pophale) SiO2 
 PCOD8151401
Probable space group: C 2/C
;
_chemical_formula_sum "Si O2"
_cell_formula_units_Z 48
_cell_length_a 11.732478
_cell_length_b 9.210224
_cell_length_c 22.977762
_cell_angle_alpha 90.000000
_cell_angle_beta 113.069489
_cell_angle_gamma 90.000000
_cell_volume 2284.387607
_symmetry_space_group_name_H-M "C 2/C"
_symmetry_group_IT_number 15
_symmetry_cell_setting 'monoclinic'
loop_
_space_group_symop_operation_xyz
x,y,z
-x,y,1/2-z
-x,-y,-z
x,-y,1/2+z
1/2+x,1/2+y,z
1/2-x,1/2+y,1/2-z
1/2-x,1/2-y,-z
1/2+x,1/2-y,1/2+z
loop_
_atom_site_type_symbol
_atom_site_label
_atom_site_fract_x
_atom_site_fract_y
_atom_site_fract_z
Si Si1 0.217871 0.410650 0.195733
Si Si2 0.917342 0.386465 0.016685
Si Si3 0.247599 0.419659 0.814447
Si Si4 0.013159 0.078511 0.063376
Si Si5 0.076141 0.405609 0.355550
Si Si6 0.808354 0.105589 0.108876
O O1 0.280067 0.494036 0.262054
O O2 0.272084 0.248981 0.203680
O O3 0.255059 0.494389 0.144731
O O4 0.071488 0.404213 0.174958
O O5 0.874390 0.452074 0.070332
O O6 0.002285 0.249795 0.050319
O O7 0.801652 0.337831 0.954786
O O8 0.000000 0.500000 0.000000
O O9 0.354455 0.453146 0.882227
O O10 0.120782 0.478169 0.817281
O O11 0.908186 0.024203 0.087725
O O12 0.000000 0.000000 0.000000
O O13 0.128752 0.246048 0.348500
#
# Coordination Sequence:
#
# PCOD8151401 Si02
#       6
#     8   8   8   8   8   8
#     4  12  26  47  67 101 137 179 232 275 332 410
#     4  11  20  40  71  99 135 172 220 276 336 398
#     4  12  25  46  69  98 137 181 225 279 336 399
#     4  11  23  42  68 102 135 173 226 277 337 401
#     4  11  23  46  67  98 139 178 225 278 337 391
#     4  11  22  44  73  98 140 180 216 284 340 396
#
# _framework density 21.012195999999999
#
# number of rings (size 3 to 8) (size 9 to 14) (size 15 to 20)
#    0.000    0.667    5.000    5.500    0.000    2.000 
#    9.000    3.333    0.000    0.000    0.000    0.000 
#    0.000    0.000    0.000    0.000    0.000    0.000 
#
# Total GULP energy -297671.522680 kJ/mol
# GULP energy per Si atom -12402.980112 kJ/mol
# Density = 2.096437 g / cm^3
# Si number density = 21.012196 Si / 1000 Ang^3
#
#
#
# Elastic Constant Matrix: (Units=GPa)
#
#
# Indices 1 2 3 4 5 6 
#
# 1 105.5559 58.0928 21.8190 0.0000 -10.9439 0.0000
# 2 58.0928 114.8105 57.8084 0.0000 -12.7815 0.0000
# 3 21.8190 57.8084 117.5603 0.0000 -12.3887 0.0000
# 4 0.0000 0.0000 0.0000 40.8422 0.0000 -10.2663
# 5 -10.9439 -12.7815 -12.3887 0.0000 33.9858 0.0000
# 6 0.0000 0.0000 0.0000 -10.2663 0.0000 35.3991
#
#
#
# Elastic Compliance Matrix: (Units=1/GPa)
#
#
# Indices 1 2 3 4 5 6 
#
# 1 0.013375 -0.007173 0.001263 0.000000 0.002070 0.000000
# 2 -0.007173 0.015610 -0.006208 0.000000 0.001298 0.000000
# 3 0.001263 -0.006208 0.011566 0.000000 0.002288 0.000000
# 4 0.000000 0.000000 0.000000 0.026410 0.000000 0.007659
# 5 0.002070 0.001298 0.002288 0.000000 0.031413 0.000000
# 6 0.000000 0.000000 0.000000 0.007659 0.000000 0.030471
#
#
# Mechanical properties :
#
#
# Convention : Reuss Voigt Hill
#
# Bulk Modulus (GPa) = 61.29536 68.15190 64.72363
# Shear Modulus (GPa) = 31.54240 35.39250 33.46745
#
# Velocity S-wave (km/s) = 3.87867 4.10857 3.99527
# Velocity P-wave (km/s) = 7.02093 7.41701 7.22168
#
# Compressibility (1/GPa) = 0.01631445
#
# Stress axis : x y z
#
# Youngs Moduli (GPa) = 74.76711 64.06310 86.46397
#
# Poissons Ratio (x) = 0.45953 -0.10920
# Poissons Ratio (y) = 0.53631 0.53674
# Poissons Ratio (z) = -0.09443 0.39768
#
# Static dielectric constant tensor:
#      x y z
#    x 3.955170 0.000000 -0.194280 
#    y 0.000000 3.941240 0.000000 
#    z -0.194280 0.000000 4.468630 
# 
# 
# High freq. dielectric constant tensor:
#      x y z
#    x 1.830510 0.000000 -0.005370 
#    y 0.000000 1.813780 0.000000 
#    z -0.005370 0.000000 1.843900 
# 
# From -- ./inp_files/268094.got.cif
#   From: 2010.06.25/outbox.cif.g09.slc.cpg/sg15_135_cif.got.tgz:268094.got - 2010.06.28 07:06:18.
