data_PCOD8151818
_publ_section_title
;
Structure prediction by ZEFSAII (Michael W. Deem and Ramdas Pophale) SiO2 
 PCOD8151818
Probable space group: C 2/C
;
_chemical_formula_sum "Si O2"
_cell_formula_units_Z 56
_cell_length_a 15.319522
_cell_length_b 13.538027
_cell_length_c 18.484128
_cell_angle_alpha 90.000000
_cell_angle_beta 43.977589
_cell_angle_gamma 90.000000
_cell_volume 2661.919110
_symmetry_space_group_name_H-M "C 2/C"
_symmetry_group_IT_number 15
_symmetry_cell_setting 'monoclinic'
loop_
_space_group_symop_operation_xyz
x,y,z
-x,y,1/2-z
-x,-y,-z
x,-y,1/2+z
1/2+x,1/2+y,z
1/2-x,1/2+y,1/2-z
1/2-x,1/2-y,-z
1/2+x,1/2-y,1/2+z
loop_
_atom_site_type_symbol
_atom_site_label
_atom_site_fract_x
_atom_site_fract_y
_atom_site_fract_z
Si Si1 0.430367 0.145318 0.216125
Si Si2 0.219547 0.666163 0.415897
Si Si3 0.308110 0.626193 0.508085
Si Si4 0.028940 0.609279 0.008116
Si Si5 0.909177 0.148128 0.181581
Si Si6 0.741400 0.182877 0.789607
Si Si7 0.287550 0.495177 0.157782
O O1 0.500000 0.155557 0.250000
O O2 0.531065 0.129536 0.092448
O O3 0.351504 0.245247 0.250755
O O4 0.348021 0.046158 0.261816
O O5 0.219921 0.602944 0.490746
O O6 0.252089 0.780146 0.414593
O O7 0.083422 0.673336 0.459841
O O8 0.323701 0.615807 0.301195
O O9 0.443223 0.650231 0.390992
O O10 0.317507 0.534428 0.557140
O O11 0.000000 0.500000 0.000000
O O12 0.169832 0.636444 0.900642
O O13 0.865101 0.258478 0.190403
O O14 0.888087 0.075132 0.125864
O O15 0.796463 0.098493 0.705299
#
# Coordination Sequence:
#
# PCOD8151818 Si02
#       7
#     8   8   8   8   8   8   8
#     4  11  26  45  68 102 131 168 232 276 319 397
#     4  11  22  39  60  94 127 163 212 266 328 391
#     4  11  23  36  63  95 126 162 213 268 329 383
#     4  12  22  42  68  91 130 178 214 262 337 396
#     4  11  21  41  62  91 129 171 213 271 327 390
#     4  11  22  42  68  91 132 176 215 267 334 392
#     4  11  22  42  65  93 127 171 222 264 329 400
#
# _framework density 21.037454
#
# number of rings (size 3 to 8) (size 9 to 14) (size 15 to 20)
#    0.000    0.857    7.143    0.857    2.000    0.571 
#    0.000    2.857    0.000    0.000    0.000    0.000 
#    0.000    0.000    0.000    0.000    0.000    0.000 
#
# Total GULP energy -347138.135979 kJ/mol
# GULP energy per Si atom -12397.790571 kJ/mol
# Density = 2.098957 g / cm^3
# Si number density = 21.037454 Si / 1000 Ang^3
#
#
#
# Elastic Constant Matrix: (Units=GPa)
#
#
# Indices 1 2 3 4 5 6 
#
# 1 85.2771 12.7249 22.6656 0.0000 18.1385 0.0000
# 2 12.7249 78.4280 18.1823 0.0000 4.6248 0.0000
# 3 22.6656 18.1823 100.8077 0.0000 15.5309 0.0000
# 4 0.0000 0.0000 0.0000 29.1559 0.0000 6.1681
# 5 18.1385 4.6248 15.5309 0.0000 29.7902 0.0000
# 6 0.0000 0.0000 0.0000 6.1681 0.0000 24.0004
#
#
#
# Elastic Compliance Matrix: (Units=1/GPa)
#
#
# Indices 1 2 3 4 5 6 
#
# 1 0.013973 -0.001427 -0.001748 0.000000 -0.007375 0.000000
# 2 -0.001427 0.013474 -0.002089 0.000000 -0.000134 0.000000
# 3 -0.001748 -0.002089 0.011391 0.000000 -0.004550 0.000000
# 4 0.000000 0.000000 0.000000 0.036270 0.000000 -0.009321
# 5 -0.007375 -0.000134 -0.004550 0.000000 0.040451 0.000000
# 6 0.000000 0.000000 0.000000 -0.009321 0.000000 0.044062
#
#
# Mechanical properties :
#
#
# Convention : Reuss Voigt Hill
#
# Bulk Modulus (GPa) = 35.32331 41.29538 38.30934
# Shear Modulus (GPa) = 27.84199 30.65196 29.24698
#
# Velocity S-wave (km/s) = 3.64187 3.82123 3.73263
# Velocity P-wave (km/s) = 5.87464 6.25629 6.06847
#
# Compressibility (1/GPa) = 0.02830992
#
# Stress axis : x y z
#
# Youngs Moduli (GPa) = 71.56853 74.21579 87.79141
#
# Poissons Ratio (x) = 0.10590 0.15346
# Poissons Ratio (y) = 0.10212 0.18338
# Poissons Ratio (z) = 0.12511 0.15502
#
# Static dielectric constant tensor:
#      x y z
#    x 3.279180 0.000000 0.655020 
#    y 0.000000 3.766380 0.000000 
#    z 0.655020 0.000000 3.457480 
# 
# 
# High freq. dielectric constant tensor:
#      x y z
#    x 1.813530 0.000000 0.010830 
#    y 0.000000 1.818760 0.000000 
#    z 0.010830 0.000000 1.833140 
# 
# From -- ./inp_files/205346.got.cif
#   From: 2010.06.25/outbox.cif.g09.slc.cpg/sg15_103_cif.got.tgz:205346.got - 2010.06.28 07:06:18.
