data_PCOD8151887
_publ_section_title
;
Structure prediction by ZEFSAII (Michael W. Deem and Ramdas Pophale) SiO2 
 PCOD8151887
Probable space group: C 2/C
;
_chemical_formula_sum "Si O2"
_cell_formula_units_Z 56
_cell_length_a 11.505053
_cell_length_b 25.828042
_cell_length_c 9.146467
_cell_angle_alpha 90.000000
_cell_angle_beta 71.299186
_cell_angle_gamma 90.000000
_cell_volume 2574.410468
_symmetry_space_group_name_H-M "C 2/C"
_symmetry_group_IT_number 15
_symmetry_cell_setting 'monoclinic'
loop_
_space_group_symop_operation_xyz
x,y,z
-x,y,1/2-z
-x,-y,-z
x,-y,1/2+z
1/2+x,1/2+y,z
1/2-x,1/2+y,1/2-z
1/2-x,1/2-y,-z
1/2+x,1/2-y,1/2+z
loop_
_atom_site_type_symbol
_atom_site_label
_atom_site_fract_x
_atom_site_fract_y
_atom_site_fract_z
Si Si1 0.055402 0.151071 0.383292
Si Si2 0.229867 0.099631 0.521338
Si Si3 0.822055 0.157742 0.669009
Si Si4 0.679397 0.244339 0.878006
Si Si5 0.909489 0.508797 0.406635
Si Si6 0.107547 0.391913 0.098391
Si Si7 0.032150 0.664833 0.077317
O O1 0.134002 0.104495 0.425195
O O2 0.142172 0.200948 0.321806
O O3 0.000000 0.132507 0.250000
O O4 0.953706 0.166040 0.543856
O O5 0.169312 0.115792 0.701433
O O6 0.289534 0.042295 0.496373
O O7 0.336956 0.139543 0.451680
O O8 0.772046 0.214049 0.734411
O O9 0.732928 0.137201 0.578761
O O10 0.750000 0.250000 0.000000
O O11 0.552382 0.212604 0.957770
O O12 0.862079 0.451952 0.382855
O O13 0.000000 0.534946 0.250000
O O14 0.000000 0.500000 0.500000
O O15 0.000000 0.373208 0.250000
O O16 0.064204 0.376856 0.951203
O O17 0.000000 0.685948 0.250000
#
# Coordination Sequence:
#
# PCOD8151887 Si02
#       7
#     8   8   8   8   8   8   8
#     4  12  29  44  67 101 139 188 240 284 344 428
#     4  11  22  44  64  96 138 181 224 285 347 408
#     4  11  25  46  68  94 141 185 225 288 354 415
#     4  11  24  42  67  96 132 182 237 277 342 420
#     4  11  22  38  69 107 137 172 232 291 353 408
#     4  11  21  42  66 102 136 175 225 293 353 412
#     4  11  23  36  65  98 137 172 220 282 353 403
#
# _framework density 21.752554
#
# number of rings (size 3 to 8) (size 9 to 14) (size 15 to 20)
#    0.000    0.857    7.143    1.714    6.000    0.571 
#    0.000    0.714    0.000    0.000    0.000    0.000 
#    0.000    0.000    0.000    0.000    0.000    0.000 
#
# Total GULP energy -347071.843088 kJ/mol
# GULP energy per Si atom -12395.422967 kJ/mol
# Density = 2.170304 g / cm^3
# Si number density = 21.752554 Si / 1000 Ang^3
#
#
#
# Elastic Constant Matrix: (Units=GPa)
#
#
# Indices 1 2 3 4 5 6 
#
# 1 114.4272 44.5403 43.9487 0.0000 21.7070 0.0000
# 2 44.5403 84.8373 27.3470 0.0000 -3.8610 0.0000
# 3 43.9487 27.3470 104.9752 0.0000 14.3093 0.0000
# 4 0.0000 0.0000 0.0000 12.3415 0.0000 3.2530
# 5 21.7070 -3.8610 14.3093 0.0000 32.3155 0.0000
# 6 0.0000 0.0000 0.0000 3.2530 0.0000 35.3228
#
#
#
# Elastic Compliance Matrix: (Units=1/GPa)
#
#
# Indices 1 2 3 4 5 6 
#
# 1 0.014323 -0.006993 -0.002926 0.000000 -0.009161 0.000000
# 2 -0.006993 0.016604 -0.002457 0.000000 0.007769 0.000000
# 3 -0.002926 -0.002457 0.011880 0.000000 -0.003589 0.000000
# 4 0.000000 0.000000 0.000000 0.083044 0.000000 -0.007648
# 5 -0.009161 0.007769 -0.003589 0.000000 0.039616 0.000000
# 6 0.000000 0.000000 0.000000 -0.007648 0.000000 0.029015
#
#
# Mechanical properties :
#
#
# Convention : Reuss Voigt Hill
#
# Bulk Modulus (GPa) = 55.38503 59.54576 57.46539
# Shear Modulus (GPa) = 22.19734 28.55620 25.37677
#
# Velocity S-wave (km/s) = 3.19791 3.62715 3.41927
# Velocity P-wave (km/s) = 6.25717 6.70636 6.48565
#
# Compressibility (1/GPa) = 0.01805542
#
# Stress axis : x y z
#
# Youngs Moduli (GPa) = 69.81800 60.22486 84.17386
#
# Poissons Ratio (x) = 0.42118 0.24628
# Poissons Ratio (y) = 0.48827 0.20680
# Poissons Ratio (z) = 0.20427 0.14796
#
# Static dielectric constant tensor:
#      x y z
#    x 4.668180 0.000000 -0.599050 
#    y 0.000000 -1.616690 0.000000 
#    z -0.599050 0.000000 4.511190 
# 
# 
# High freq. dielectric constant tensor:
#      x y z
#    x 1.850980 0.000000 0.009510 
#    y 0.000000 1.841200 0.000000 
#    z 0.009510 0.000000 1.853940 
# 
# From -- ./inp_files/34185.got.cif
#   From: 2010.06.25/outbox.cif.g09.slc.cpg/sg15_18_cif.got.tgz:34185.got - 2010.06.28 07:06:18.
