data_PCOD8151106
_publ_section_title
;
Structure prediction by ZEFSAII (Michael W. Deem and Ramdas Pophale) SiO2 
 PCOD8151106
Probable space group: C 2/C
;
_chemical_formula_sum "Si O2"
_cell_formula_units_Z 60
_cell_length_a 22.653792
_cell_length_b 13.779475
_cell_length_c 22.497867
_cell_angle_alpha 90.000000
_cell_angle_beta 26.028211
_cell_angle_gamma 90.000000
_cell_volume 3081.733226
_symmetry_space_group_name_H-M "C 2/C"
_symmetry_group_IT_number 15
_symmetry_cell_setting 'monoclinic'
loop_
_space_group_symop_operation_xyz
x,y,z
-x,y,1/2-z
-x,-y,-z
x,-y,1/2+z
1/2+x,1/2+y,z
1/2-x,1/2+y,1/2-z
1/2-x,1/2-y,-z
1/2+x,1/2-y,1/2+z
loop_
_atom_site_type_symbol
_atom_site_label
_atom_site_fract_x
_atom_site_fract_y
_atom_site_fract_z
Si Si1 0.487724 0.861392 0.056797
Si Si2 0.683162 0.152883 0.276597
Si Si3 0.000000 0.543821 0.750000
Si Si4 0.906320 0.972914 0.638073
Si Si5 0.808796 0.288126 0.386528
Si Si6 0.466907 0.042732 0.405189
Si Si7 0.769230 0.363378 0.165076
Si Si8 0.990088 0.807522 0.879966
O O1 0.355806 0.901813 0.143331
O O2 0.444023 0.772211 0.136812
O O3 0.554519 0.944429 0.036913
O O4 0.580447 0.817436 0.921222
O O5 0.792314 0.090815 0.211594
O O6 0.611354 0.089986 0.289750
O O7 0.740943 0.249127 0.193459
O O8 0.123251 0.607513 0.663793
O O9 0.047814 0.477227 0.651719
O O10 0.980803 0.914384 0.622842
O O11 0.863324 0.071329 0.710679
O O12 0.000000 0.000000 0.500000
O O13 0.750000 0.250000 0.500000
O O14 0.924831 0.214047 0.257558
O O15 0.672390 0.296292 0.471147
O O16 0.347575 0.115785 0.532425
#
# Coordination Sequence:
#
# PCOD8151106 Si02
#       8
#     8   8   4   8   8   8   8   8
#     4  11  19  39  66  94 129 168 203 254 328 408
#     4  11  22  40  63  94 130 167 212 260 326 395
#     4  12  26  44  70  90 124 170 242 266 320 386
#     4  12  25  35  58  99 137 165 200 256 326 396
#     4  12  24  44  64  96 129 174 215 275 326 384
#     4  11  23  42  67  91 123 178 218 267 317 394
#     4  11  23  40  62  95 134 167 211 260 326 393
#     4  12  25  38  69  97 138 164 211 265 334 389
#
# _framework density 19.469563000000001
#
# number of rings (size 3 to 8) (size 9 to 14) (size 15 to 20)
#    0.000    0.533    6.667    2.400    7.467    0.000 
#    0.000    0.667    0.000    0.000    0.000    0.000 
#    0.000    0.000    0.000    0.000    0.000    0.000 
#
# Total GULP energy -371888.143251 kJ/mol
# GULP energy per Si atom -12396.271442 kJ/mol
# Density = 1.942525 g / cm^3
# Si number density = 19.469563 Si / 1000 Ang^3
#
#
#
# Elastic Constant Matrix: (Units=GPa)
#
#
# Indices 1 2 3 4 5 6 
#
# 1 78.8041 23.0284 33.1679 -0.0014 14.2328 0.0006
# 2 23.0284 66.5870 24.9202 -0.0065 11.7338 0.0034
# 3 33.1679 24.9202 82.0438 -0.0056 3.3335 0.0023
# 4 -0.0014 -0.0065 -0.0056 40.6044 0.0011 1.9381
# 5 14.2328 11.7338 3.3335 0.0011 36.4297 -0.0007
# 6 0.0006 0.0034 0.0023 1.9381 -0.0007 39.5401
#
#
#
# Elastic Compliance Matrix: (Units=1/GPa)
#
#
# Indices 1 2 3 4 5 6 
#
# 1 0.016857 -0.002761 -0.005766 -0.000001 -0.005169 0.000000
# 2 -0.002761 0.018357 -0.004279 0.000002 -0.004442 -0.000001
# 3 -0.005766 -0.004279 0.015730 0.000001 0.002192 0.000000
# 4 -0.000001 0.000002 0.000001 0.024686 -0.000001 -0.001210
# 5 -0.005169 -0.004442 0.002192 -0.000001 0.030700 0.000001
# 6 0.000000 -0.000001 0.000000 -0.001210 0.000001 0.025350
#
#
# Mechanical properties :
#
#
# Convention : Reuss Voigt Hill
#
# Bulk Modulus (GPa) = 39.47578 43.29643 41.38610
# Shear Modulus (GPa) = 30.16833 33.06941 31.61887
#
# Velocity S-wave (km/s) = 3.94066 4.12578 4.03428
# Velocity P-wave (km/s) = 6.40505 6.70689 6.55771
#
# Compressibility (1/GPa) = 0.02533199
#
# Stress axis : x y z
#
# Youngs Moduli (GPa) = 59.32251 54.47480 63.57115
#
# Poissons Ratio (x) = 0.15040 0.36656
# Poissons Ratio (y) = 0.16379 0.27203
# Poissons Ratio (z) = 0.34206 0.23311
#
# Static dielectric constant tensor:
#      x y z
#    x 3.984850 -0.000420 -1.363830 
#    y -0.000420 4.218020 0.001180 
#    z -1.363830 0.001180 7.303550 
# 
# 
# High freq. dielectric constant tensor:
#      x y z
#    x 1.738730 0.000000 -0.000800 
#    y 0.000000 1.752930 0.000000 
#    z -0.000800 0.000000 1.771670 
# 
# From -- ./inp_files/253034.got.cif
#   From: 2010.06.25/outbox.cif.g09.slc.cpg/sg15_127_cif.got.tgz:253034.got - 2010.06.28 07:06:18.
