data_PCOD8151928
_publ_section_title
;
Structure prediction by ZEFSAII (Michael W. Deem and Ramdas Pophale) SiO2 
 PCOD8151928
Probable space group: C 2/C
;
_chemical_formula_sum "Si O2"
_cell_formula_units_Z 44
_cell_length_a 30.087953
_cell_length_b 12.462270
_cell_length_c 15.018430
_cell_angle_alpha 90.000000
_cell_angle_beta 18.173881
_cell_angle_gamma 90.000000
_cell_volume 1756.435697
_symmetry_space_group_name_H-M "C 2/C"
_symmetry_group_IT_number 15
_symmetry_cell_setting 'monoclinic'
loop_
_space_group_symop_operation_xyz
x,y,z
-x,y,1/2-z
-x,-y,-z
x,-y,1/2+z
1/2+x,1/2+y,z
1/2-x,1/2+y,1/2-z
1/2-x,1/2-y,-z
1/2+x,1/2-y,1/2+z
loop_
_atom_site_type_symbol
_atom_site_label
_atom_site_fract_x
_atom_site_fract_y
_atom_site_fract_z
Si Si1 0.499764 0.769957 0.895721
Si Si2 0.000000 0.252998 0.250000
Si Si3 0.490350 0.130688 0.943041
Si Si4 0.670933 0.435046 0.074906
Si Si5 0.196034 0.547491 0.004238
Si Si6 0.245208 0.895837 0.291894
O O1 0.535212 0.643065 0.812510
O O2 0.649606 0.828130 0.591315
O O3 0.451400 0.792563 0.089487
O O4 0.379712 0.820514 0.060256
O O5 0.949014 0.322690 0.264014
O O6 0.869558 0.182331 0.532524
O O7 0.563166 0.012977 0.804708
O O8 0.320427 0.123053 0.268552
O O9 0.669744 0.542133 0.017384
O O10 0.669060 0.465626 0.184986
O O11 0.222083 0.518054 0.850521
#
# Coordination Sequence:
#
# PCOD8151928 Si02
#       6
#     8   4   8   8   8   8
#     4  11  22  42  74 102 140 188 247 298 366 442
#     4  12  28  44  64  98 148 186 246 314 364 446
#     4  11  21  44  70  99 138 194 237 300 369 436
#     4  11  22  44  73 107 140 192 244 299 367 441
#     4  11  21  42  74 103 143 190 243 300 365 448
#     4  12  25  46  66 105 147 190 248 305 371 437
#
# _framework density 25.050733000000001
#
# number of rings (size 3 to 8) (size 9 to 14) (size 15 to 20)
#    0.000    0.727    3.636    7.091    0.000    0.727 
#    9.818    1.818    4.000    0.000    0.000    0.000 
#    0.000    0.000    0.000    0.000    0.000    0.000 
#
# Total GULP energy -272652.610168 kJ/mol
# GULP energy per Si atom -12393.300462 kJ/mol
# Density = 2.499372 g / cm^3
# Si number density = 25.050733 Si / 1000 Ang^3
#
#
#
# Elastic Constant Matrix: (Units=GPa)
#
#
# Indices 1 2 3 4 5 6 
#
# 1 154.6263 26.7386 29.2870 0.0000 21.5540 0.0000
# 2 26.7386 81.6567 19.9601 0.0000 -13.9315 0.0000
# 3 29.2870 19.9601 35.8243 -0.0001 -3.1525 0.0000
# 4 0.0000 0.0000 -0.0001 44.5637 0.0000 0.1899
# 5 21.5540 -13.9315 -3.1525 0.0000 27.0956 0.0000
# 6 0.0000 0.0000 0.0000 0.1899 0.0000 21.6253
#
#
#
# Elastic Compliance Matrix: (Units=1/GPa)
#
#
# Indices 1 2 3 4 5 6 
#
# 1 0.009810 -0.003226 -0.007128 0.000000 -0.010291 0.000000
# 2 -0.003226 0.016443 -0.005612 0.000000 0.010367 0.000000
# 3 -0.007128 -0.005612 0.037497 0.000000 0.007147 0.000000
# 4 0.000000 0.000000 0.000000 0.022441 0.000000 -0.000197
# 5 -0.010291 0.010367 0.007147 0.000000 0.051255 0.000000
# 6 0.000000 0.000000 0.000000 -0.000197 0.000000 0.046244
#
#
# Mechanical properties :
#
#
# Convention : Reuss Voigt Hill
#
# Bulk Modulus (GPa) = 31.42844 47.11985 39.27414
# Shear Modulus (GPa) = 22.10169 31.73171 26.91670
#
# Velocity S-wave (km/s) = 2.97354 3.56293 3.28149
# Velocity P-wave (km/s) = 4.93583 5.98135 5.48356
#
# Compressibility (1/GPa) = 0.03181831
#
# Stress axis : x y z
#
# Youngs Moduli (GPa) = 101.94132 60.81510 26.66869
#
# Poissons Ratio (x) = 0.19616 0.19009
# Poissons Ratio (y) = 0.32882 0.14967
# Poissons Ratio (z) = 0.72663 0.34132
#
# Static dielectric constant tensor:
#      x y z
#    x 4.825800 0.000000 0.160800 
#    y 0.000000 4.243750 0.000000 
#    z 0.160800 0.000000 4.026290 
# 
# 
# High freq. dielectric constant tensor:
#      x y z
#    x 2.016130 0.000000 0.016150 
#    y 0.000000 1.984020 0.000000 
#    z 0.016150 0.000000 1.976860 
# 
# From -- ./inp_files/182255.got.cif
#   From: 2010.06.25/outbox.cif.g09.slc.cpg/sg15_92_cif.got.tgz:182255.got - 2010.06.28 07:06:18.
