data_PCOD8151099
_publ_section_title
;
Structure prediction by ZEFSAII (Michael W. Deem and Ramdas Pophale) SiO2 
 PCOD8151099
Probable space group: C 2/C
;
_chemical_formula_sum "Si O2"
_cell_formula_units_Z 60
_cell_length_a 21.377477
_cell_length_b 15.286730
_cell_length_c 9.634170
_cell_angle_alpha 90.000000
_cell_angle_beta 71.892516
_cell_angle_gamma 90.000000
_cell_volume 2992.444550
_symmetry_space_group_name_H-M "C 2/C"
_symmetry_group_IT_number 15
_symmetry_cell_setting 'monoclinic'
loop_
_space_group_symop_operation_xyz
x,y,z
-x,y,1/2-z
-x,-y,-z
x,-y,1/2+z
1/2+x,1/2+y,z
1/2-x,1/2+y,1/2-z
1/2-x,1/2-y,-z
1/2+x,1/2-y,1/2+z
loop_
_atom_site_type_symbol
_atom_site_label
_atom_site_fract_x
_atom_site_fract_y
_atom_site_fract_z
Si Si1 0.564919 0.460770 0.391794
Si Si2 0.325464 0.899617 0.740943
Si Si3 0.271731 0.846517 0.508195
Si Si4 0.320770 0.098709 0.686018
Si Si5 0.884156 0.707874 0.423935
Si Si6 0.000000 0.819286 0.250000
Si Si7 0.714149 0.635499 0.534833
Si Si8 0.855855 0.035647 0.396274
O O1 0.500000 0.500000 0.500000
O O2 0.546892 0.375658 0.315684
O O3 0.598067 0.537167 0.273240
O O4 0.610612 0.427968 0.486919
O O5 0.319434 0.842199 0.607169
O O6 0.384277 0.860710 0.794887
O O7 0.339293 0.996901 0.675373
O O8 0.258466 0.892149 0.874425
O O9 0.250000 0.750000 0.500000
O O10 0.314724 0.875755 0.349178
O O11 0.211129 0.911575 0.582896
O O12 0.379019 0.153779 0.571345
O O13 0.253004 0.120272 0.652205
O O14 0.817314 0.767374 0.455371
O O15 0.952058 0.760288 0.378125
O O16 0.654354 0.567759 0.574700
#
# Coordination Sequence:
#
# PCOD8151099 Si02
#       8
#     8   8   8   8   8   4   8   8
#     4  12  23  41  62  89 124 174 214 258 301 369
#     4  11  21  38  62  92 125 157 197 255 320 382
#     4  12  23  34  56  97 130 155 190 251 322 374
#     4  11  21  39  60  93 125 157 199 254 321 383
#     4  11  24  41  66  87 121 172 216 255 304 384
#     4  12  26  44  64  86 120 170 236 254 300 374
#     4  11  19  39  62  93 129 162 196 242 316 399
#     4  12  22  37  64  92 133 163 204 251 315 383
#
# _framework density 20.050498000000001
#
# number of rings (size 3 to 8) (size 9 to 14) (size 15 to 20)
#    0.000    0.533    5.333    5.600    1.867    1.067 
#    0.000    0.667    0.000    0.000    0.000    0.000 
#    0.000    0.000    0.000    0.000    0.000    0.000 
#
# Total GULP energy -371983.000358 kJ/mol
# GULP energy per Si atom -12399.433345 kJ/mol
# Density = 2.000486 g / cm^3
# Si number density = 20.050498 Si / 1000 Ang^3
#
#
#
# Elastic Constant Matrix: (Units=GPa)
#
#
# Indices 1 2 3 4 5 6 
#
# 1 46.7893 4.3139 31.8297 0.0000 -5.4595 0.0000
# 2 4.3139 94.1997 23.1479 0.0000 -13.7812 0.0000
# 3 31.8297 23.1479 138.1673 0.0000 -3.4792 0.0000
# 4 0.0000 0.0000 0.0000 40.1896 0.0000 -6.1826
# 5 -5.4595 -13.7812 -3.4792 0.0000 28.9949 0.0000
# 6 0.0000 0.0000 0.0000 -6.1826 0.0000 31.6467
#
#
#
# Elastic Compliance Matrix: (Units=1/GPa)
#
#
# Indices 1 2 3 4 5 6 
#
# 1 0.025914 0.000967 -0.006016 0.000000 0.004617 0.000000
# 2 0.000967 0.011899 -0.002076 0.000000 0.005589 0.000000
# 3 -0.006016 -0.002076 0.008945 0.000000 -0.001046 0.000000
# 4 0.000000 0.000000 0.000000 0.025653 0.000000 0.005012
# 5 0.004617 0.005589 -0.001046 0.000000 0.037889 0.000000
# 6 0.000000 0.000000 0.000000 0.005012 0.000000 0.032578
#
#
# Mechanical properties :
#
#
# Convention : Reuss Voigt Hill
#
# Bulk Modulus (GPa) = 30.76000 44.19327 37.47663
# Shear Modulus (GPa) = 29.76844 34.82389 32.29616
#
# Velocity S-wave (km/s) = 3.85733 4.17203 4.01776
# Velocity P-wave (km/s) = 5.93407 6.73027 6.34467
#
# Compressibility (1/GPa) = 0.03250975
#
# Stress axis : x y z
#
# Youngs Moduli (GPa) = 38.58876 84.04001 111.79649
#
# Poissons Ratio (x) = -0.08126 0.67253
# Poissons Ratio (y) = -0.03731 0.23204
# Poissons Ratio (z) = 0.23214 0.17443
#
# Static dielectric constant tensor:
#      x y z
#    x 3.188210 0.000000 -0.221680 
#    y 0.000000 3.932650 0.000000 
#    z -0.221680 0.000000 3.474680 
# 
# 
# High freq. dielectric constant tensor:
#      x y z
#    x 1.748400 0.000000 0.006070 
#    y 0.000000 1.788550 0.000000 
#    z 0.006070 0.000000 1.800460 
# 
# From -- ./inp_files/61908.got.cif
#   From: 2010.06.25/outbox.cif.g09.slc.cpg/sg15_31_cif.got.tgz:61908.got - 2010.06.28 07:06:18.
