data_PCOD8151763
_publ_section_title
;
Structure prediction by ZEFSAII (Michael W. Deem and Ramdas Pophale) SiO2 
 PCOD8151763
Probable space group: C 2/C
;
_chemical_formula_sum "Si O2"
_cell_formula_units_Z 60
_cell_length_a 25.833679
_cell_length_b 14.541017
_cell_length_c 8.136257
_cell_angle_alpha 90.000000
_cell_angle_beta 110.196048
_cell_angle_gamma 90.000000
_cell_volume 2868.453195
_symmetry_space_group_name_H-M "C 2/C"
_symmetry_group_IT_number 15
_symmetry_cell_setting 'monoclinic'
loop_
_space_group_symop_operation_xyz
x,y,z
-x,y,1/2-z
-x,-y,-z
x,-y,1/2+z
1/2+x,1/2+y,z
1/2-x,1/2+y,1/2-z
1/2-x,1/2-y,-z
1/2+x,1/2-y,1/2+z
loop_
_atom_site_type_symbol
_atom_site_label
_atom_site_fract_x
_atom_site_fract_y
_atom_site_fract_z
Si Si1 0.211533 0.096118 0.542248
Si Si2 0.200578 0.284735 0.169321
Si Si3 0.878639 0.773389 0.628697
Si Si4 0.500000 0.226868 0.750000
Si Si5 0.618218 0.913033 0.930907
Si Si6 0.489468 0.897281 0.545095
Si Si7 0.256702 0.405663 0.794351
Si Si8 0.635482 0.100213 0.103191
O O1 0.247580 0.163061 0.695356
O O2 0.148195 0.131354 0.465363
O O3 0.239758 0.101542 0.397253
O O4 0.208307 0.991343 0.600219
O O5 0.152446 0.256856 0.241694
O O6 0.174475 0.354461 0.008686
O O7 0.221304 0.190439 0.103692
O O8 0.944881 0.786963 0.725399
O O9 0.865672 0.698861 0.476799
O O10 0.484876 0.167429 0.569826
O O11 0.625811 0.022739 0.956863
O O12 0.576822 0.880213 0.028953
O O13 0.593344 0.901879 0.715325
O O14 0.500000 0.876973 0.750000
O O15 0.500000 0.000000 0.500000
O O16 0.192567 0.421434 0.761891
#
# Coordination Sequence:
#
# PCOD8151763 Si02
#       8
#     8   8   8   4   8   8   8   8
#     4  11  22  40  62  88 127 156 203 258 303 380
#     4  11  21  40  60  87 125 157 199 252 303 376
#     4  11  22  42  61  88 119 163 209 251 310 369
#     4  12  24  40  68  84 122 174 214 260 318 368
#     4  12  24  35  57  86 126 160 200 251 296 368
#     4  12  24  40  56  90 127 168 214 252 305 375
#     4  11  22  37  59  89 119 160 197 243 312 360
#     4  12  22  35  57  89 126 162 199 242 306 370
#
# _framework density 20.917197000000002
#
# number of rings (size 3 to 8) (size 9 to 14) (size 15 to 20)
#    0.000    0.533    6.000    4.800    0.000    1.600 
#    0.000    0.000    0.000    3.200    1.733    0.000 
#    0.000    0.000    0.000    0.000    0.000    0.000 
#
# Total GULP energy -371833.041482 kJ/mol
# GULP energy per Si atom -12394.434716 kJ/mol
# Density = 2.086959 g / cm^3
# Si number density = 20.917197 Si / 1000 Ang^3
#
#
#
# Elastic Constant Matrix: (Units=GPa)
#
#
# Indices 1 2 3 4 5 6 
#
# 1 34.2782 -2.9194 -23.0121 0.0000 11.5684 0.0000
# 2 -2.9194 93.3695 10.4194 0.0000 3.9003 0.0000
# 3 -23.0121 10.4194 57.2940 0.0000 -0.5696 0.0000
# 4 0.0000 0.0000 0.0000 21.7098 0.0000 5.7369
# 5 11.5684 3.9003 -0.5696 0.0000 28.1718 0.0000
# 6 0.0000 0.0000 0.0000 5.7369 0.0000 26.4430
#
#
#
# Elastic Compliance Matrix: (Units=1/GPa)
#
#
# Indices 1 2 3 4 5 6 
#
# 1 0.048855 0.000186 0.019393 0.000000 -0.019695 0.000000
# 2 0.000186 0.011001 -0.001942 0.000000 -0.001639 0.000000
# 3 0.019393 -0.001942 0.025525 0.000000 -0.007179 0.000000
# 4 0.000000 0.000000 0.000000 0.048864 0.000000 -0.010601
# 5 -0.019695 -0.001639 -0.007179 0.000000 0.043666 0.000000
# 6 0.000000 0.000000 0.000000 -0.010601 0.000000 0.040117
#
#
# Mechanical properties :
#
#
# Convention : Reuss Voigt Hill
#
# Bulk Modulus (GPa) = 8.28809 17.10192 12.69501
# Shear Modulus (GPa) = 22.42433 28.62849 25.52641
#
# Velocity S-wave (km/s) = 3.27777 3.70355 3.49715
# Velocity P-wave (km/s) = 4.27738 5.14608 4.73171
#
# Compressibility (1/GPa) = 0.12065499
#
# Stress axis : x y z
#
# Youngs Moduli (GPa) = 20.46873 90.89965 39.17753
#
# Poissons Ratio (x) = -0.01693 -0.75977
# Poissons Ratio (y) = -0.00381 0.07609
# Poissons Ratio (z) = -0.39695 0.17654
#
# Static dielectric constant tensor:
#      x y z
#    x 4.325610 0.000000 0.044650 
#    y 0.000000 3.777370 0.000000 
#    z 0.044650 0.000000 3.797850 
# 
# 
# High freq. dielectric constant tensor:
#      x y z
#    x 1.837850 0.000000 -0.007840 
#    y 0.000000 1.788240 0.000000 
#    z -0.007840 0.000000 1.827320 
# 
# From -- ./inp_files/61604.got.cif
#   From: 2010.06.25/outbox.cif.g09.slc.cpg/sg15_31_cif.got.tgz:61604.got - 2010.06.28 07:06:18.
