data_PCOD8151959
_publ_section_title
;
Structure prediction by ZEFSAII (Michael W. Deem and Ramdas Pophale) SiO2 
 PCOD8151959
Probable space group: C 2/C
;
_chemical_formula_sum "Si O2"
_cell_formula_units_Z 48
_cell_length_a 15.725718
_cell_length_b 9.602343
_cell_length_c 29.172573
_cell_angle_alpha 90.000000
_cell_angle_beta 30.753882
_cell_angle_gamma 90.000000
_cell_volume 2252.588223
_symmetry_space_group_name_H-M "C 2/C"
_symmetry_group_IT_number 15
_symmetry_cell_setting 'monoclinic'
loop_
_space_group_symop_operation_xyz
x,y,z
-x,y,1/2-z
-x,-y,-z
x,-y,1/2+z
1/2+x,1/2+y,z
1/2-x,1/2+y,1/2-z
1/2-x,1/2-y,-z
1/2+x,1/2-y,1/2+z
loop_
_atom_site_type_symbol
_atom_site_label
_atom_site_fract_x
_atom_site_fract_y
_atom_site_fract_z
Si Si1 0.672620 0.698519 0.261414
Si Si2 0.447345 0.397756 0.155958
Si Si3 0.313004 0.201794 0.921806
Si Si4 0.619749 0.563466 0.482725
Si Si5 0.847575 0.814286 0.352525
Si Si6 0.801237 0.895746 0.846179
O O1 0.619841 0.555260 0.309943
O O2 0.800249 0.786350 0.233219
O O3 0.512427 0.796196 0.327713
O O4 0.766869 0.666627 0.169739
O O5 0.589538 0.367423 0.127043
O O6 0.516248 0.377478 0.073167
O O7 0.237219 0.304067 0.918248
O O8 0.253411 0.046904 0.939193
O O9 0.250000 0.250000 0.000000
O O10 0.500000 0.500000 0.500000
O O11 0.720492 0.688614 0.413575
O O12 0.000000 0.767053 0.250000
O O13 0.745435 0.943847 0.377920
O O14 0.000000 0.898060 0.750000
#
# Coordination Sequence:
#
# PCOD8151959 Si02
#       6
#     8   8   8   8   8   8
#     4  11  24  42  72  96 133 180 233 280 345 412
#     4  12  25  46  66 102 136 177 233 282 344 413
#     4  11  21  43  70  94 136 178 223 282 345 404
#     4  12  28  43  66 107 141 174 230 291 340 402
#     4  11  23  45  72  94 138 181 227 280 341 411
#     4   9  18  42  65  92 124 178 221 265 331 414
#
# _framework density 21.308820000000001
#
# number of rings (size 3 to 8) (size 9 to 14) (size 15 to 20)
#    0.000    1.000    6.667    1.500    4.667    2.000 
#    0.000    1.667    0.000    0.000    0.000    0.000 
#    0.000    0.000    0.000    0.000    0.000    0.000 
#
# Total GULP energy -297654.509345 kJ/mol
# GULP energy per Si atom -12402.271223 kJ/mol
# Density = 2.126032 g / cm^3
# Si number density = 21.308820 Si / 1000 Ang^3
#
#
#
# Elastic Constant Matrix: (Units=GPa)
#
#
# Indices 1 2 3 4 5 6 
#
# 1 70.6204 20.0899 27.5903 -0.0001 2.6419 -0.0003
# 2 20.0899 114.9994 38.0079 -0.0003 -18.9216 -0.0005
# 3 27.5903 38.0079 91.0473 0.0007 20.7783 0.0002
# 4 -0.0001 -0.0003 0.0007 42.0750 -0.0001 -1.3115
# 5 2.6419 -18.9216 20.7783 -0.0001 38.5239 -0.0002
# 6 -0.0003 -0.0005 0.0002 -1.3115 -0.0002 35.7425
#
#
#
# Elastic Compliance Matrix: (Units=1/GPa)
#
#
# Indices 1 2 3 4 5 6 
#
# 1 0.016272 -0.001187 -0.004616 0.000000 0.000791 0.000000
# 2 -0.001187 0.013143 -0.007548 0.000000 0.010608 0.000000
# 3 -0.004616 -0.007548 0.018596 0.000000 -0.013420 0.000000
# 4 0.000000 0.000000 0.000000 0.023794 0.000000 0.000873
# 5 0.000791 0.010608 -0.013420 0.000000 0.038352 0.000000
# 6 0.000000 0.000000 0.000000 0.000873 0.000000 0.028010
#
#
# Mechanical properties :
#
#
# Convention : Reuss Voigt Hill
#
# Bulk Modulus (GPa) = 46.92798 49.78261 48.35529
# Shear Modulus (GPa) = 29.07474 36.00021 32.53747
#
# Velocity S-wave (km/s) = 3.69785 4.11475 3.91186
# Velocity P-wave (km/s) = 6.34844 6.78145 6.56852
#
# Compressibility (1/GPa) = 0.02130925
#
# Stress axis : x y z
#
# Youngs Moduli (GPa) = 61.45674 76.08635 53.77623
#
# Poissons Ratio (x) = 0.09031 0.24822
# Poissons Ratio (y) = 0.07294 0.40589
# Poissons Ratio (z) = 0.28367 0.57428
#
# Static dielectric constant tensor:
#      x y z
#    x 3.927930 0.000000 0.221440 
#    y 0.000000 4.186510 0.000000 
#    z 0.221440 0.000000 3.913610 
# 
# 
# High freq. dielectric constant tensor:
#      x y z
#    x 1.832800 0.000000 0.020300 
#    y 0.000000 1.847260 0.000000 
#    z 0.020300 0.000000 1.831520 
# 
# From -- ./inp_files/315621.got.cif
#   From: 2010.06.25/outbox.cif.g09.slc.cpg/sg15_158_cif.got.tgz:315621.got - 2010.06.28 07:06:18.
