data_PCOD8151189
_publ_section_title
;
Structure prediction by ZEFSAII (Michael W. Deem and Ramdas Pophale) SiO2 
 PCOD8151189
Probable space group: C 2/C
;
_chemical_formula_sum "Si O2"
_cell_formula_units_Z 64
_cell_length_a 24.250316
_cell_length_b 24.400654
_cell_length_c 12.157595
_cell_angle_alpha 90.000000
_cell_angle_beta 25.880872
_cell_angle_gamma 90.000000
_cell_volume 3140.163283
_symmetry_space_group_name_H-M "C 2/C"
_symmetry_group_IT_number 15
_symmetry_cell_setting 'monoclinic'
loop_
_space_group_symop_operation_xyz
x,y,z
-x,y,1/2-z
-x,-y,-z
x,-y,1/2+z
1/2+x,1/2+y,z
1/2-x,1/2+y,1/2-z
1/2-x,1/2-y,-z
1/2+x,1/2-y,1/2+z
loop_
_atom_site_type_symbol
_atom_site_label
_atom_site_fract_x
_atom_site_fract_y
_atom_site_fract_z
Si Si1 0.108728 0.419833 0.641105
Si Si2 0.143321 0.465116 0.029940
Si Si3 0.773357 0.683858 0.847026
Si Si4 0.839641 0.193864 0.231714
Si Si5 0.237046 0.306993 0.381229
Si Si6 0.034669 0.604474 0.903512
Si Si7 0.885330 0.799670 0.324034
Si Si8 0.297007 0.866442 0.705280
O O1 0.195916 0.472786 0.451258
O O2 0.187593 0.364657 0.514077
O O3 0.000000 0.407471 0.750000
O O4 0.051381 0.434084 0.864315
O O5 0.138276 0.431078 0.152471
O O6 0.000000 0.473511 0.250000
O O7 0.223759 0.430183 0.796154
O O8 0.833914 0.742148 0.761850
O O9 0.713754 0.683534 0.831646
O O10 0.892106 0.643433 0.642788
O O11 0.671164 0.668102 0.125514
O O12 0.723426 0.172244 0.365134
O O13 0.969797 0.179952 0.934292
O O14 0.134763 0.256935 0.570578
O O15 0.350502 0.288934 0.258404
O O16 0.942046 0.638836 0.987095
O O17 0.801445 0.849055 0.524016
#
# Coordination Sequence:
#
# PCOD8151189 Si02
#       8
#     8   8   8   8   8   8   8   8
#     4  11  20  34  59  91 122 156 194 252 312 355
#     4   9  21  36  56  88 123 155 200 242 306 363
#     4  11  23  37  59  90 121 158 193 254 301 354
#     4  11  24  38  58  87 121 161 208 240 291 359
#     4  11  23  39  59  91 122 157 197 251 309 353
#     4  11  20  36  59  89 126 156 195 246 306 364
#     4  11  24  40  61  88 122 165 204 241 296 369
#     4  11  21  39  59  88 124 164 198 242 296 364
#
# _framework density 20.381105999999999
#
# number of rings (size 3 to 8) (size 9 to 14) (size 15 to 20)
#    0.000    1.250    5.000    1.500    1.750    0.500 
#    0.000    2.500    0.000    0.750    3.250    0.000 
#    0.000    0.000    0.000    0.000    0.000    0.000 
#
# Total GULP energy -396527.279906 kJ/mol
# GULP energy per Si atom -12391.477497 kJ/mol
# Density = 2.033472 g / cm^3
# Si number density = 20.381106 Si / 1000 Ang^3
#
#
#
# Elastic Constant Matrix: (Units=GPa)
#
#
# Indices 1 2 3 4 5 6 
#
# 1 90.6968 16.8782 10.3732 0.0010 22.9573 -0.0013
# 2 16.8782 117.9967 31.3079 0.0011 0.9352 -0.0011
# 3 10.3732 31.3079 69.9201 0.0011 18.5282 -0.0021
# 4 0.0010 0.0011 0.0011 23.8977 -0.0003 9.8426
# 5 22.9573 0.9352 18.5282 -0.0003 32.4558 0.0012
# 6 -0.0013 -0.0011 -0.0021 9.8426 0.0012 17.3535
#
#
#
# Elastic Compliance Matrix: (Units=1/GPa)
#
#
# Indices 1 2 3 4 5 6 
#
# 1 0.014028 -0.002425 0.001903 -0.000002 -0.010940 0.000003
# 2 -0.002425 0.010222 -0.005413 0.000000 0.004511 -0.000001
# 3 0.001903 -0.005413 0.019746 -0.000003 -0.012463 0.000005
# 4 -0.000002 0.000000 -0.000003 0.054600 0.000005 -0.030968
# 5 -0.010940 0.004511 -0.012463 0.000005 0.045534 -0.000008
# 6 0.000003 -0.000001 0.000005 -0.030968 -0.000008 0.075190
#
#
# Mechanical properties :
#
#
# Convention : Reuss Voigt Hill
#
# Bulk Modulus (GPa) = 31.12550 43.97026 37.54788
# Shear Modulus (GPa) = 20.66994 29.41168 25.04081
#
# Velocity S-wave (km/s) = 3.18806 3.80292 3.50898
# Velocity P-wave (km/s) = 5.37183 6.39561 5.90594
#
# Compressibility (1/GPa) = 0.03212800
#
# Stress axis : x y z
#
# Youngs Moduli (GPa) = 71.28422 97.82771 50.64373
#
# Poissons Ratio (x) = 0.23723 -0.09640
# Poissons Ratio (y) = 0.17286 0.27412
# Poissons Ratio (z) = -0.13569 0.52950
#
# Static dielectric constant tensor:
#      x y z
#    x 3.864290 0.000000 0.384890 
#    y 0.000000 3.820800 0.000010 
#    z 0.384890 0.000010 3.560760 
# 
# 
# High freq. dielectric constant tensor:
#      x y z
#    x 1.808500 0.000000 0.037040 
#    y 0.000000 1.786820 0.000000 
#    z 0.037040 0.000000 1.756900 
# 
# From -- ./inp_files/120233.got.cif
#   From: 2010.06.25/outbox.cif.g09.slc.cpg/sg15_61_cif.got.tgz:120233.got - 2010.06.28 07:06:18.
