data_PCOD8151395
_publ_section_title
;
Structure prediction by ZEFSAII (Michael W. Deem and Ramdas Pophale) SiO2 
 PCOD8151395
Probable space group: C 2/C
;
_chemical_formula_sum "Si O2"
_cell_formula_units_Z 48
_cell_length_a 13.579851
_cell_length_b 17.861334
_cell_length_c 12.212684
_cell_angle_alpha 90.000000
_cell_angle_beta 53.532108
_cell_angle_gamma 90.000000
_cell_volume 2382.202748
_symmetry_space_group_name_H-M "C 2/C"
_symmetry_group_IT_number 15
_symmetry_cell_setting 'monoclinic'
loop_
_space_group_symop_operation_xyz
x,y,z
-x,y,1/2-z
-x,-y,-z
x,-y,1/2+z
1/2+x,1/2+y,z
1/2-x,1/2+y,1/2-z
1/2-x,1/2-y,-z
1/2+x,1/2-y,1/2+z
loop_
_atom_site_type_symbol
_atom_site_label
_atom_site_fract_x
_atom_site_fract_y
_atom_site_fract_z
Si Si1 0.358288 0.087089 0.868743
Si Si2 0.380295 0.183650 0.482604
Si Si3 0.280422 0.691062 0.704711
Si Si4 0.643971 0.854070 0.888595
Si Si5 0.962581 0.846741 0.393699
Si Si6 0.770687 0.575396 0.380711
O O1 0.500000 0.074288 0.750000
O O2 0.306239 0.149818 0.823027
O O3 0.286411 0.010355 0.901087
O O4 0.333319 0.112944 0.007716
O O5 0.266881 0.179760 0.640548
O O6 0.500455 0.159483 0.468367
O O7 0.394259 0.266892 0.424874
O O8 0.357384 0.128180 0.396945
O O9 0.277630 0.778575 0.677196
O O10 0.418625 0.659759 0.607104
O O11 0.692002 0.914603 0.769990
O O12 0.871958 0.905455 0.509844
O O13 0.000000 0.876836 0.250000
#
# Coordination Sequence:
#
# PCOD8151395 Si02
#       6
#     8   8   8   8   8   8
#     4  12  27  44  66  94 134 174 213 263 326 389
#     4  11  20  40  69  99 128 166 222 271 313 379
#     4  11  23  43  69  95 129 173 221 261 315 387
#     4  11  24  43  67  97 130 168 219 271 312 379
#     4  11  22  39  68  98 132 169 212 272 321 376
#     4  12  25  40  66 103 131 165 216 270 329 379
#
# _framework density 20.149418000000001
#
# number of rings (size 3 to 8) (size 9 to 14) (size 15 to 20)
#    0.000    0.667    5.000    4.500    2.333    2.000 
#    0.000    0.833    0.000    0.000    0.000    0.000 
#    0.000    0.000    0.000    0.000    0.000    0.000 
#
# Total GULP energy -297803.280169 kJ/mol
# GULP energy per Si atom -12408.470007 kJ/mol
# Density = 2.010356 g / cm^3
# Si number density = 20.149418 Si / 1000 Ang^3
#
#
#
# Elastic Constant Matrix: (Units=GPa)
#
#
# Indices 1 2 3 4 5 6 
#
# 1 68.6260 25.1132 34.4675 0.0000 -1.0279 0.0000
# 2 25.1132 68.8339 27.9352 0.0000 1.2326 0.0000
# 3 34.4675 27.9352 114.9503 0.0000 9.6518 0.0000
# 4 0.0000 0.0000 0.0000 21.8514 0.0000 2.1888
# 5 -1.0279 1.2326 9.6518 0.0000 37.0325 0.0000
# 6 0.0000 0.0000 0.0000 2.1888 0.0000 31.9626
#
#
#
# Elastic Compliance Matrix: (Units=1/GPa)
#
#
# Indices 1 2 3 4 5 6 
#
# 1 0.018722 -0.005017 -0.004552 0.000000 0.001873 0.000000
# 2 -0.005017 0.017470 -0.002741 0.000000 -0.000006 0.000000
# 3 -0.004552 -0.002741 0.010973 0.000000 -0.002895 0.000000
# 4 0.000000 0.000000 0.000000 0.046080 0.000000 -0.003156
# 5 0.001873 -0.000006 -0.002895 0.000000 0.027810 0.000000
# 6 0.000000 0.000000 0.000000 -0.003156 0.000000 0.031503
#
#
# Mechanical properties :
#
#
# Convention : Reuss Voigt Hill
#
# Bulk Modulus (GPa) = 44.35187 47.49355 45.92271
# Shear Modulus (GPa) = 27.07202 29.16224 28.11713
#
# Velocity S-wave (km/s) = 3.66944 3.80847 3.73960
# Velocity P-wave (km/s) = 6.32553 6.55447 6.44102
#
# Compressibility (1/GPa) = 0.02254696
#
# Stress axis : x y z
#
# Youngs Moduli (GPa) = 53.41382 57.23944 91.12912
#
# Poissons Ratio (x) = 0.28715 0.41480
# Poissons Ratio (y) = 0.26796 0.24978
# Poissons Ratio (z) = 0.24313 0.15689
#
# Static dielectric constant tensor:
#      x y z
#    x 3.671160 0.000000 -0.134070 
#    y 0.000000 3.560040 0.000000 
#    z -0.134070 0.000000 3.744300 
# 
# 
# High freq. dielectric constant tensor:
#      x y z
#    x 1.792570 0.000000 -0.006340 
#    y 0.000000 1.777430 0.000000 
#    z -0.006340 0.000000 1.800070 
# 
# From -- ./inp_files/88768.got.cif
#   From: 2010.06.25/outbox.cif.g09.slc.cpg/sg15_45_cif.got.tgz:88768.got - 2010.06.28 07:06:18.
