data_PCOD8151419
_publ_section_title
;
Structure prediction by ZEFSAII (Michael W. Deem and Ramdas Pophale) SiO2 
 PCOD8151419
Probable space group: C 2/C
;
_chemical_formula_sum "Si O2"
_cell_formula_units_Z 64
_cell_length_a 15.839456
_cell_length_b 11.344150
_cell_length_c 27.307080
_cell_angle_alpha 90.000000
_cell_angle_beta 34.441109
_cell_angle_gamma 90.000000
_cell_volume 2775.014778
_symmetry_space_group_name_H-M "C 2/C"
_symmetry_group_IT_number 15
_symmetry_cell_setting 'monoclinic'
loop_
_space_group_symop_operation_xyz
x,y,z
-x,y,1/2-z
-x,-y,-z
x,-y,1/2+z
1/2+x,1/2+y,z
1/2-x,1/2+y,1/2-z
1/2-x,1/2-y,-z
1/2+x,1/2-y,1/2+z
loop_
_atom_site_type_symbol
_atom_site_label
_atom_site_fract_x
_atom_site_fract_y
_atom_site_fract_z
Si Si1 0.834002 0.637807 0.815624
Si Si2 0.149255 0.355483 0.929052
Si Si3 0.853663 0.069384 0.085071
Si Si4 0.480965 0.417655 0.629494
Si Si5 0.293653 0.009193 0.000890
Si Si6 0.815891 0.676340 0.566788
Si Si7 0.061787 0.348570 0.337308
Si Si8 0.282352 0.543118 0.802194
O O1 0.706284 0.722059 0.898457
O O2 0.793211 0.508567 0.854803
O O3 0.826863 0.630794 0.760807
O O4 0.000000 0.679145 0.750000
O O5 0.216275 0.408701 0.946413
O O6 0.205708 0.420089 0.853291
O O7 0.971541 0.366411 0.016294
O O8 0.873579 0.091469 0.133729
O O9 0.818021 0.182565 0.068306
O O10 0.000000 0.000000 0.000000
O O11 0.643440 0.473776 0.540657
O O12 0.505663 0.282731 0.634445
O O13 0.417836 0.503888 0.702574
O O14 0.307182 0.873513 0.014861
O O15 0.429946 0.052880 0.901502
O O16 0.682831 0.616382 0.663794
O O17 0.168348 0.365965 0.332197
#
# Coordination Sequence:
#
# PCOD8151419 Si02
#       8
#     8   8   8   8   8   8   8   8
#     4  12  27  42  66 100 136 176 231 298 347 404
#     4  11  20  41  68 101 130 170 223 281 354 404
#     4  12  26  44  66  92 139 191 233 280 359 427
#     4  12  25  41  67 105 135 177 232 290 347 413
#     4  11  24  41  72 103 133 175 232 294 340 421
#     4  11  22  44  70  96 139 185 226 282 357 424
#     4  12  22  42  68 100 135 177 231 285 342 413
#     4  11  21  39  67 100 134 175 221 279 349 415
#
# _framework density 23.062940999999999
#
# number of rings (size 3 to 8) (size 9 to 14) (size 15 to 20)
#    0.000    0.500    7.500    1.875    1.750    1.500 
#    2.250    1.875    0.000    0.000    0.000    0.000 
#    0.000    0.000    0.000    0.000    0.000    0.000 
#
# Total GULP energy -396550.580824 kJ/mol
# GULP energy per Si atom -12392.205651 kJ/mol
# Density = 2.301045 g / cm^3
# Si number density = 23.062941 Si / 1000 Ang^3
#
#
#
# Elastic Constant Matrix: (Units=GPa)
#
#
# Indices 1 2 3 4 5 6 
#
# 1 39.4169 7.6961 -11.4806 0.0000 -9.0742 0.0000
# 2 7.6961 140.6416 12.6849 0.0000 2.2852 0.0000
# 3 -11.4806 12.6849 52.9644 0.0000 4.2716 0.0000
# 4 0.0000 0.0000 0.0000 37.8885 0.0000 3.3235
# 5 -9.0742 2.2852 4.2716 0.0000 25.2738 0.0000
# 6 0.0000 0.0000 0.0000 3.3235 0.0000 23.8584
#
#
#
# Elastic Compliance Matrix: (Units=1/GPa)
#
#
# Indices 1 2 3 4 5 6 
#
# 1 0.029933 -0.002363 0.006256 0.000000 0.009903 0.000000
# 2 -0.002363 0.007457 -0.002205 0.000000 -0.001150 0.000000
# 3 0.006256 -0.002205 0.020852 0.000000 -0.001079 0.000000
# 4 0.000000 0.000000 0.000000 0.026720 0.000000 -0.003722
# 5 0.009903 -0.001150 -0.001079 0.000000 0.043409 0.000000
# 6 0.000000 0.000000 0.000000 -0.003722 0.000000 0.042432
#
#
# Mechanical properties :
#
#
# Convention : Reuss Voigt Hill
#
# Bulk Modulus (GPa) = 16.22955 27.86931 22.04943
# Shear Modulus (GPa) = 26.60031 32.34563 29.47297
#
# Velocity S-wave (km/s) = 3.39983 3.74905 3.57870
# Velocity P-wave (km/s) = 4.73963 5.55435 5.16308
#
# Compressibility (1/GPa) = 0.06161601
#
# Stress axis : x y z
#
# Youngs Moduli (GPa) = 33.40784 134.09884 47.95754
#
# Poissons Ratio (x) = 0.31689 -0.30000
# Poissons Ratio (y) = 0.07895 0.10577
# Poissons Ratio (z) = -0.20898 0.29575
#
# Static dielectric constant tensor:
#      x y z
#    x 3.930560 0.000000 0.232920 
#    y 0.000000 4.217860 0.000000 
#    z 0.232920 0.000000 4.256840 
# 
# 
# High freq. dielectric constant tensor:
#      x y z
#    x 1.891340 0.000000 0.014710 
#    y 0.000000 1.912330 0.000000 
#    z 0.014710 0.000000 1.913510 
# 
# From -- ./inp_files/316199.got.cif
#   From: 2010.06.25/outbox.cif.g09.slc.cpg/sg15_159_cif.got.tgz:316199.got - 2010.06.28 07:06:18.
