data_PCOD8151002
_publ_section_title
;
Structure prediction by ZEFSAII (Michael W. Deem and Ramdas Pophale) SiO2 
 PCOD8151002
Probable space group: C 2/C
;
_chemical_formula_sum "Si O2"
_cell_formula_units_Z 48
_cell_length_a 13.740297
_cell_length_b 18.997910
_cell_length_c 25.651743
_cell_angle_alpha 90.000000
_cell_angle_beta 158.235956
_cell_angle_gamma 90.000000
_cell_volume 2482.796297
_symmetry_space_group_name_H-M "C 2/C"
_symmetry_group_IT_number 15
_symmetry_cell_setting 'monoclinic'
loop_
_space_group_symop_operation_xyz
x,y,z
-x,y,1/2-z
-x,-y,-z
x,-y,1/2+z
1/2+x,1/2+y,z
1/2-x,1/2+y,1/2-z
1/2-x,1/2-y,-z
1/2+x,1/2-y,1/2+z
loop_
_atom_site_type_symbol
_atom_site_label
_atom_site_fract_x
_atom_site_fract_y
_atom_site_fract_z
Si Si1 0.897408 0.076907 0.257924
Si Si2 0.112145 0.621106 0.544941
Si Si3 0.482649 0.706709 0.369278
Si Si4 0.810814 0.222783 0.398185
Si Si5 0.593616 0.421369 0.219090
Si Si6 0.507901 0.703930 0.904212
O O1 0.029259 0.135162 0.360242
O O2 0.000000 0.078050 0.250000
O O3 0.959164 0.003474 0.318328
O O4 0.588701 0.088773 0.096695
O O5 0.050285 0.701567 0.527701
O O6 0.130669 0.581746 0.610687
O O7 0.386057 0.615451 0.652818
O O8 0.397134 0.688687 0.386240
O O9 0.750000 0.750000 0.500000
O O10 0.249121 0.748183 0.225141
O O11 0.500000 0.228496 0.250000
O O12 0.922057 0.179382 0.502432
O O13 0.579474 0.371504 0.162165
O O14 0.750000 0.750000 0.000000
#
# Coordination Sequence:
#
# PCOD8151002 Si02
#       6
#     8   8   8   8   8   8
#     4  12  25  37  59  91 131 164 194 250 324 377
#     4  11  18  37  59  89 122 150 203 254 311 354
#     4  12  26  39  60  94 134 165 205 251 315 381
#     4  12  21  40  67  92 121 160 223 264 296 368
#     4  11  22  36  62  96 120 153 202 266 309 360
#     4  12  21  40  67  93 120 164 215 259 303 369
#
# _framework density 19.333041000000001
#
# number of rings (size 3 to 8) (size 9 to 14) (size 15 to 20)
#    0.000    0.333   10.000    1.500    0.000    0.000 
#    0.000    0.833    0.000    0.000    0.000    0.000 
#    0.000    0.000    0.000    0.000    0.000    0.000 
#
# Total GULP energy -297324.213763 kJ/mol
# GULP energy per Si atom -12388.508907 kJ/mol
# Density = 1.928904 g / cm^3
# Si number density = 19.333041 Si / 1000 Ang^3
#
#
#
# Elastic Constant Matrix: (Units=GPa)
#
#
# Indices 1 2 3 4 5 6 
#
# 1 76.8215 30.0490 21.0799 0.0313 -19.6074 -0.0341
# 2 30.0490 136.2292 21.5798 0.0086 -16.9723 -0.0180
# 3 21.0799 21.5798 81.5304 0.0272 -14.2272 0.0045
# 4 0.0313 0.0086 0.0272 25.2528 0.0098 -15.7780
# 5 -19.6074 -16.9723 -14.2272 0.0098 37.1752 -0.0090
# 6 -0.0341 -0.0180 0.0045 -15.7780 -0.0090 47.0427
#
#
#
# Elastic Compliance Matrix: (Units=1/GPa)
#
#
# Indices 1 2 3 4 5 6 
#
# 1 0.016298 -0.002390 -0.002434 -0.000015 0.006573 0.000007
# 2 -0.002390 0.008319 -0.001223 0.000002 0.002069 0.000003
# 3 -0.002434 -0.001223 0.013820 -0.000018 0.003447 -0.000009
# 4 -0.000015 0.000002 -0.000018 0.050098 -0.000023 0.016803
# 5 0.006573 0.002069 0.003447 -0.000023 0.032630 0.000004
# 6 0.000007 0.000003 -0.000009 0.016803 0.000004 0.026893
#
#
# Mechanical properties :
#
#
# Convention : Reuss Voigt Hill
#
# Bulk Modulus (GPa) = 37.96174 48.88874 43.42524
# Shear Modulus (GPa) = 29.59739 36.68564 33.14151
#
# Velocity S-wave (km/s) = 3.91695 4.36083 4.14483
# Velocity P-wave (km/s) = 6.33521 7.12027 6.73918
#
# Compressibility (1/GPa) = 0.02634231
#
# Stress axis : x y z
#
# Youngs Moduli (GPa) = 61.35798 120.20140 72.35952
#
# Poissons Ratio (x) = 0.28733 0.17613
# Poissons Ratio (y) = 0.14667 0.08848
# Poissons Ratio (z) = 0.14935 0.14699
#
# Static dielectric constant tensor:
#      x y z
#    x 3.644850 -0.000030 -0.351500 
#    y -0.000030 3.452530 -0.000050 
#    z -0.351500 -0.000050 4.646580 
# 
# 
# High freq. dielectric constant tensor:
#      x y z
#    x 1.733320 0.000000 -0.007470 
#    y 0.000000 1.734320 -0.000010 
#    z -0.007470 -0.000010 1.771040 
# 
# From -- ./inp_files/296957.got.cif
#   From: 2010.06.25/outbox.cif.g09.slc.cpg/sg15_149_cif.got.tgz:296957.got - 2010.06.28 07:06:18.
