data_PCOD8151530
_publ_section_title
;
Structure prediction by ZEFSAII (Michael W. Deem and Ramdas Pophale) SiO2 
 PCOD8151530
Probable space group: C 2/C
;
_chemical_formula_sum "Si O2"
_cell_formula_units_Z 48
_cell_length_a 18.376944
_cell_length_b 6.648248
_cell_length_c 21.092601
_cell_angle_alpha 90.000000
_cell_angle_beta 86.431101
_cell_angle_gamma 90.000000
_cell_volume 2571.979961
_symmetry_space_group_name_H-M "C 2/C"
_symmetry_group_IT_number 15
_symmetry_cell_setting 'monoclinic'
loop_
_space_group_symop_operation_xyz
x,y,z
-x,y,1/2-z
-x,-y,-z
x,-y,1/2+z
1/2+x,1/2+y,z
1/2-x,1/2+y,1/2-z
1/2-x,1/2-y,-z
1/2+x,1/2-y,1/2+z
loop_
_atom_site_type_symbol
_atom_site_label
_atom_site_fract_x
_atom_site_fract_y
_atom_site_fract_z
Si Si1 0.824471 0.375334 0.803248
Si Si2 0.327300 0.811531 0.191287
Si Si3 0.084367 0.011332 0.232382
Si Si4 0.559713 0.024509 0.905892
Si Si5 0.414530 0.169626 0.874663
Si Si6 0.473080 0.276813 0.997437
O O1 0.748610 0.278517 0.829058
O O2 0.810576 0.528161 0.746627
O O3 0.880256 0.206796 0.776451
O O4 0.855655 0.497705 0.861755
O O5 0.379821 0.632023 0.211217
O O6 0.363108 0.926795 0.129774
O O7 0.000000 0.976819 0.250000
O O8 0.097095 0.136057 0.167865
O O9 0.495167 0.071688 0.858543
O O10 0.555802 0.793558 0.931547
O O11 0.545497 0.153675 0.971103
O O12 0.409018 0.244094 0.948119
O O13 0.500000 0.500000 0.000000
#
# Coordination Sequence:
#
# PCOD8151530 Si02
#       6
#     8   8   8   8   8   8
#     4  11  24  36  58  82 128 153 192 236 298 356
#     4  11  22  41  53  89 120 160 188 237 300 352
#     4  11  21  34  59  85 115 154 196 244 285 359
#     4   9  20  36  62  84 118 145 203 242 285 350
#     4   9  21  35  56  87 111 148 198 244 285 343
#     4   9  19  37  60  90 112 150 198 255 292 337
#
# _framework density 18.662665000000001
#
# number of rings (size 3 to 8) (size 9 to 14) (size 15 to 20)
#    1.000    1.000    3.333    0.000    4.667    1.333 
#    0.000    0.833    0.000    2.000    0.000    0.000 
#    0.000    0.000    0.000    0.000    0.000    0.000 
#
# Total GULP energy -297451.971631 kJ/mol
# GULP energy per Si atom -12393.832151 kJ/mol
# Density = 1.862019 g / cm^3
# Si number density = 18.662665 Si / 1000 Ang^3
#
#
#
# Elastic Constant Matrix: (Units=GPa)
#
#
# Indices 1 2 3 4 5 6 
#
# 1 125.1996 48.8013 33.3003 0.0000 -1.0548 0.0000
# 2 48.8013 114.7838 34.9807 0.0000 9.7205 0.0000
# 3 33.3003 34.9807 67.0418 0.0000 1.8858 0.0000
# 4 0.0000 0.0000 0.0000 19.4126 0.0000 4.8823
# 5 -1.0548 9.7205 1.8858 0.0000 22.2700 0.0000
# 6 0.0000 0.0000 0.0000 4.8823 0.0000 31.8810
#
#
#
# Elastic Compliance Matrix: (Units=1/GPa)
#
#
# Indices 1 2 3 4 5 6 
#
# 1 0.010274 -0.003554 -0.003314 0.000000 0.002319 0.000000
# 2 -0.003554 0.011971 -0.004339 0.000000 -0.005026 0.000000
# 3 -0.003314 -0.004339 0.018822 0.000000 0.000143 0.000000
# 4 0.000000 0.000000 0.000000 0.053576 0.000000 -0.008205
# 5 0.002319 -0.005026 0.000143 0.000000 0.047195 0.000000
# 6 0.000000 0.000000 0.000000 -0.008205 0.000000 0.032623
#
#
# Mechanical properties :
#
#
# Convention : Reuss Voigt Hill
#
# Bulk Modulus (GPa) = 53.61320 60.13221 56.87271
# Shear Modulus (GPa) = 24.61914 27.37557 25.99735
#
# Velocity S-wave (km/s) = 3.63597 3.83412 3.73636
# Velocity P-wave (km/s) = 6.81300 7.20355 7.01100
#
# Compressibility (1/GPa) = 0.01865212
#
# Stress axis : x y z
#
# Youngs Moduli (GPa) = 97.33690 83.53298 53.12895
#
# Poissons Ratio (x) = 0.29691 0.17605
# Poissons Ratio (y) = 0.34598 0.23055
# Poissons Ratio (z) = 0.32254 0.36249
#
# Static dielectric constant tensor:
#      x y z
#    x 3.268430 0.000000 0.163880 
#    y 0.000000 3.538730 0.000000 
#    z 0.163880 0.000000 3.253430 
# 
# 
# High freq. dielectric constant tensor:
#      x y z
#    x 1.704340 0.000000 0.010210 
#    y 0.000000 1.738290 0.000000 
#    z 0.010210 0.000000 1.705580 
# 
# From -- ./inp_files/275667.got.cif
#   From: 2010.06.25/outbox.cif.g09.slc.cpg/sg15_138_cif.got.tgz:275667.got - 2010.06.28 07:06:18.
