data_PCOD8151458
_publ_section_title
;
Structure prediction by ZEFSAII (Michael W. Deem and Ramdas Pophale) SiO2 
 PCOD8151458
Probable space group: C 2/C
;
_chemical_formula_sum "Si O2"
_cell_formula_units_Z 32
_cell_length_a 5.604858
_cell_length_b 13.819061
_cell_length_c 17.565100
_cell_angle_alpha 90.000000
_cell_angle_beta 102.639828
_cell_angle_gamma 90.000000
_cell_volume 1327.513546
_symmetry_space_group_name_H-M "C 2/C"
_symmetry_group_IT_number 15
_symmetry_cell_setting 'monoclinic'
loop_
_space_group_symop_operation_xyz
x,y,z
-x,y,1/2-z
-x,-y,-z
x,-y,1/2+z
1/2+x,1/2+y,z
1/2-x,1/2+y,1/2-z
1/2-x,1/2-y,-z
1/2+x,1/2-y,1/2+z
loop_
_atom_site_type_symbol
_atom_site_label
_atom_site_fract_x
_atom_site_fract_y
_atom_site_fract_z
Si Si1 0.721185 0.166168 0.706347
Si Si2 0.179981 0.327917 0.886056
Si Si3 0.079251 0.182664 0.537394
Si Si4 0.959090 0.527436 0.584538
O O1 0.500000 0.144271 0.750000
O O2 0.689688 0.280071 0.678704
O O3 0.677354 0.095746 0.630285
O O4 0.000000 0.144049 0.750000
O O5 0.054695 0.431750 0.862381
O O6 0.982000 0.244848 0.891973
O O7 0.347096 0.346612 0.971189
O O8 0.250000 0.250000 0.500000
O O9 0.205742 0.085037 0.574272
O O10 0.000000 0.500000 0.500000
#
# Coordination Sequence:
#
# PCOD8151458 Si02
#       4
#     8   8   8   8
#     4  12  29  52  73 106 159 207 258 318 387 472
#     4  11  24  44  72 104 147 197 240 308 388 444
#     4  11  20  42  72 112 147 177 240 316 372 449
#     4  12  24  46  80 115 144 197 260 323 383 454
#
# _framework density 24.105215999999999
#
# number of rings (size 3 to 8) (size 9 to 14) (size 15 to 20)
#    0.000    0.500    5.000    3.750    0.000    3.000 
#    0.000    7.500    0.000    0.000    0.000    0.000 
#    0.000    0.000    0.000    0.000    0.000    0.000 
#
# Total GULP energy -198334.603613 kJ/mol
# GULP energy per Si atom -12395.912726 kJ/mol
# Density = 2.405035 g / cm^3
# Si number density = 24.105216 Si / 1000 Ang^3
#
#
#
# Elastic Constant Matrix: (Units=GPa)
#
#
# Indices 1 2 3 4 5 6 
#
# 1 119.3673 49.9088 41.5603 0.0000 11.1303 0.0000
# 2 49.9088 183.3297 43.7303 0.0000 9.9101 0.0000
# 3 41.5603 43.7303 95.5997 0.0000 8.4428 0.0000
# 4 0.0000 0.0000 0.0000 35.5593 0.0000 -0.6878
# 5 11.1303 9.9101 8.4428 0.0000 34.4142 0.0000
# 6 0.0000 0.0000 0.0000 -0.6878 0.0000 51.3383
#
#
#
# Elastic Compliance Matrix: (Units=1/GPa)
#
#
# Indices 1 2 3 4 5 6 
#
# 1 0.010609 -0.001933 -0.003551 0.000000 -0.002003 0.000000
# 2 -0.001933 0.006516 -0.002075 0.000000 -0.000742 0.000000
# 3 -0.003551 -0.002075 0.013082 0.000000 -0.001464 0.000000
# 4 0.000000 0.000000 0.000000 0.028129 0.000000 0.000377
# 5 -0.002003 -0.000742 -0.001464 0.000000 0.030278 0.000000
# 6 0.000000 0.000000 0.000000 0.000377 0.000000 0.019484
#
#
# Mechanical properties :
#
#
# Convention : Reuss Voigt Hill
#
# Bulk Modulus (GPa) = 66.26916 74.29950 70.28433
# Shear Modulus (GPa) = 38.98776 41.80217 40.39496
#
# Velocity S-wave (km/s) = 4.02605 4.16884 4.09807
# Velocity P-wave (km/s) = 7.01167 7.35270 7.18421
#
# Compressibility (1/GPa) = 0.01508998
#
# Stress axis : x y z
#
# Youngs Moduli (GPa) = 94.26182 153.47199 76.43906
#
# Poissons Ratio (x) = 0.29662 0.27143
# Poissons Ratio (y) = 0.18219 0.15859
# Poissons Ratio (z) = 0.33472 0.31842
#
# Static dielectric constant tensor:
#      x y z
#    x 4.937990 0.000000 0.233020 
#    y 0.000000 4.683480 0.000000 
#    z 0.233020 0.000000 4.879930 
# 
# 
# High freq. dielectric constant tensor:
#      x y z
#    x 1.959620 0.000000 -0.000670 
#    y 0.000000 1.965790 0.000000 
#    z -0.000670 0.000000 1.946210 
# 
# From -- ./inp_files/183717.got.cif
#   From: 2010.06.25/outbox.cif.g09.slc.cpg/sg15_92_cif.got.tgz:183717.got - 2010.06.28 07:06:18.
