data_PCOD8151779
_publ_section_title
;
Structure prediction by ZEFSAII (Michael W. Deem and Ramdas Pophale) SiO2 
 PCOD8151779
Probable space group: C 2/C
;
_chemical_formula_sum "Si O2"
_cell_formula_units_Z 56
_cell_length_a 11.555896
_cell_length_b 13.809566
_cell_length_c 16.880292
_cell_angle_alpha 90.000000
_cell_angle_beta 96.093768
_cell_angle_gamma 90.000000
_cell_volume 2678.567948
_symmetry_space_group_name_H-M "C 2/C"
_symmetry_group_IT_number 15
_symmetry_cell_setting 'monoclinic'
loop_
_space_group_symop_operation_xyz
x,y,z
-x,y,1/2-z
-x,-y,-z
x,-y,1/2+z
1/2+x,1/2+y,z
1/2-x,1/2+y,1/2-z
1/2-x,1/2-y,-z
1/2+x,1/2-y,1/2+z
loop_
_atom_site_type_symbol
_atom_site_label
_atom_site_fract_x
_atom_site_fract_y
_atom_site_fract_z
Si Si1 0.736433 0.566717 0.286610
Si Si2 0.255854 0.556936 0.862700
Si Si3 0.113671 0.449471 0.974267
Si Si4 0.031633 0.642531 0.165493
Si Si5 0.234987 0.121758 0.874460
Si Si6 0.137651 0.722744 0.760403
Si Si7 0.014410 0.857929 0.162222
O O1 0.764940 0.531388 0.199692
O O2 0.852750 0.583154 0.347466
O O3 0.683939 0.477270 0.331415
O O4 0.658036 0.663271 0.278760
O O5 0.203200 0.527253 0.943637
O O6 0.190921 0.655392 0.832554
O O7 0.395448 0.575171 0.880336
O O8 0.071628 0.375111 0.903841
O O9 0.181017 0.388656 0.045126
O O10 0.000000 0.500000 0.000000
O O11 0.000000 0.604473 0.250000
O O12 0.073598 0.753073 0.174066
O O13 0.301967 0.191113 0.817719
O O14 0.108895 0.163330 0.890978
O O15 0.000000 0.703775 0.750000
O O16 0.000000 0.900924 0.250000
#
# Coordination Sequence:
#
# PCOD8151779 Si02
#       7
#     8   8   8   8   8   8   8
#     4  11  21  40  65  97 120 170 217 261 323 385
#     4  11  24  40  67  95 127 173 218 263 326 389
#     4  12  25  41  64  96 134 169 215 275 326 375
#     4  11  21  40  68  91 121 175 222 257 319 392
#     4  11  25  42  64  96 134 166 212 275 322 376
#     4  11  23  40  66  98 129 163 221 271 318 388
#     4  11  21  43  67  92 128 166 219 270 313 390
#
# _framework density 20.906694000000002
#
# number of rings (size 3 to 8) (size 9 to 14) (size 15 to 20)
#    0.000    0.857    7.143    1.714    4.000    1.143 
#    0.000    4.286    0.000    0.000    0.000    0.000 
#    0.000    0.000    0.000    0.000    0.000    0.000 
#
# Total GULP energy -347008.475454 kJ/mol
# GULP energy per Si atom -12393.159838 kJ/mol
# Density = 2.085911 g / cm^3
# Si number density = 20.906694 Si / 1000 Ang^3
#
#
#
# Elastic Constant Matrix: (Units=GPa)
#
#
# Indices 1 2 3 4 5 6 
#
# 1 143.2747 20.8701 27.0243 0.0000 9.1812 0.0000
# 2 20.8701 73.0716 10.3758 0.0000 -2.9328 0.0000
# 3 27.0243 10.3758 89.1147 0.0000 11.5649 0.0000
# 4 0.0000 0.0000 0.0000 12.7622 0.0000 6.6682
# 5 9.1812 -2.9328 11.5649 0.0000 38.1359 0.0000
# 6 0.0000 0.0000 0.0000 6.6682 0.0000 29.7723
#
#
#
# Elastic Compliance Matrix: (Units=1/GPa)
#
#
# Indices 1 2 3 4 5 6 
#
# 1 0.007724 -0.001990 -0.001925 0.000000 -0.001429 0.000000
# 2 -0.001990 0.014525 -0.001348 0.000000 0.002005 0.000000
# 3 -0.001925 -0.001348 0.012404 0.000000 -0.003402 0.000000
# 4 0.000000 0.000000 0.000000 0.088741 0.000000 -0.019876
# 5 -0.001429 0.002005 -0.003402 0.000000 0.027752 0.000000
# 6 0.000000 0.000000 0.000000 -0.019876 0.000000 0.038040
#
#
# Mechanical properties :
#
#
# Convention : Reuss Voigt Hill
#
# Bulk Modulus (GPa) = 41.44758 46.88904 44.16831
# Shear Modulus (GPa) = 24.06677 32.61346 28.34012
#
# Velocity S-wave (km/s) = 3.39654 3.95391 3.68578
# Velocity P-wave (km/s) = 5.93718 6.58187 6.26782
#
# Compressibility (1/GPa) = 0.02412686
#
# Stress axis : x y z
#
# Youngs Moduli (GPa) = 129.46351 68.84456 80.62104
#
# Poissons Ratio (x) = 0.13701 0.15522
# Poissons Ratio (y) = 0.25764 0.10867
# Poissons Ratio (z) = 0.24925 0.09280
#
# Static dielectric constant tensor:
#      x y z
#    x 3.948180 0.000000 0.125200 
#    y 0.000000 3.706800 0.000000 
#    z 0.125200 0.000000 3.574340 
# 
# 
# High freq. dielectric constant tensor:
#      x y z
#    x 1.833230 0.000000 0.014820 
#    y 0.000000 1.822170 0.000000 
#    z 0.014820 0.000000 1.790780 
# 
# From -- ./inp_files/197946.got.cif
#   From: 2010.06.25/outbox.cif.g09.slc.cpg/sg15_99_cif.got.tgz:197946.got - 2010.06.28 07:06:18.
