data_PCOD8151584
_publ_section_title
;
Structure prediction by ZEFSAII (Michael W. Deem and Ramdas Pophale) SiO2 
 PCOD8151584
Probable space group: C 2/C
;
_chemical_formula_sum "Si O2"
_cell_formula_units_Z 60
_cell_length_a 21.541527
_cell_length_b 11.653105
_cell_length_c 15.382066
_cell_angle_alpha 90.000000
_cell_angle_beta 127.781471
_cell_angle_gamma 90.000000
_cell_volume 3051.785610
_symmetry_space_group_name_H-M "C 2/C"
_symmetry_group_IT_number 15
_symmetry_cell_setting 'monoclinic'
loop_
_space_group_symop_operation_xyz
x,y,z
-x,y,1/2-z
-x,-y,-z
x,-y,1/2+z
1/2+x,1/2+y,z
1/2-x,1/2+y,1/2-z
1/2-x,1/2-y,-z
1/2+x,1/2-y,1/2+z
loop_
_atom_site_type_symbol
_atom_site_label
_atom_site_fract_x
_atom_site_fract_y
_atom_site_fract_z
Si Si1 0.970595 0.654113 0.860680
Si Si2 0.104812 0.615351 0.098265
Si Si3 0.171348 0.371684 0.156050
Si Si4 0.000000 0.840656 0.750000
Si Si5 0.176280 0.091729 0.405482
Si Si6 0.280750 0.130073 0.993668
Si Si7 0.775116 0.227624 0.885572
Si Si8 0.425209 0.925074 0.738266
O O1 0.902545 0.697370 0.867323
O O2 0.006711 0.761390 0.841175
O O3 0.935135 0.561406 0.763155
O O4 0.031485 0.585649 0.973669
O O5 0.161832 0.507843 0.153902
O O6 0.146165 0.716993 0.082992
O O7 0.080330 0.647002 0.176366
O O8 0.245866 0.342560 0.277896
O O9 0.181927 0.336629 0.066172
O O10 0.919309 0.914839 0.684849
O O11 0.202189 0.137834 0.521067
O O12 0.211556 0.178390 0.363641
O O13 0.211395 0.964057 0.423530
O O14 0.346712 0.082622 0.114628
O O15 0.250000 0.250000 0.000000
O O16 0.500000 0.876119 0.750000
#
# Coordination Sequence:
#
# PCOD8151584 Si02
#       8
#     8   8   8   4   8   8   8   8
#     4  11  21  36  63 101 133 166 215 281 334 393
#     4  11  21  37  60  96 135 168 218 275 335 397
#     4  11  22  37  61  94 130 169 219 272 332 396
#     4  12  22  40  68 102 138 170 218 280 348 404
#     4  11  24  42  68  96 135 173 223 276 345 400
#     4  12  26  46  66  95 134 183 224 276 337 413
#     4  11  22  38  66  98 129 174 219 281 337 399
#     4  11  22  37  65  98 132 173 220 280 338 394
#
# _framework density 19.660620000000002
#
# number of rings (size 3 to 8) (size 9 to 14) (size 15 to 20)
#    0.000    0.800    4.667    5.600    1.867    0.000 
#    1.200    0.000    0.000    1.600    0.000    0.000 
#    0.000    0.000    0.000    0.000    0.000    0.000 
#
# Total GULP energy -371939.571115 kJ/mol
# GULP energy per Si atom -12397.985704 kJ/mol
# Density = 1.961587 g / cm^3
# Si number density = 19.660620 Si / 1000 Ang^3
#
#
#
# Elastic Constant Matrix: (Units=GPa)
#
#
# Indices 1 2 3 4 5 6 
#
# 1 125.0665 31.9142 43.2668 0.0000 -13.0930 0.0000
# 2 31.9142 69.4667 34.0740 0.0000 -1.1490 0.0000
# 3 43.2668 34.0740 136.3172 0.0000 -0.8106 0.0000
# 4 0.0000 0.0000 0.0000 26.5308 0.0000 -0.3984
# 5 -13.0930 -1.1490 -0.8106 0.0000 44.9453 0.0000
# 6 0.0000 0.0000 0.0000 -0.3984 0.0000 17.7888
#
#
#
# Elastic Compliance Matrix: (Units=1/GPa)
#
#
# Indices 1 2 3 4 5 6 
#
# 1 0.009946 -0.003400 -0.002290 0.000000 0.002769 0.000000
# 2 -0.003400 0.017575 -0.003317 0.000000 -0.000601 0.000000
# 3 -0.002290 -0.003317 0.008889 0.000000 -0.000592 0.000000
# 4 0.000000 0.000000 0.000000 0.037705 0.000000 0.000844
# 5 0.002769 -0.000601 -0.000592 0.000000 0.023030 0.000000
# 6 0.000000 0.000000 0.000000 0.000844 0.000000 0.056234
#
#
# Mechanical properties :
#
#
# Convention : Reuss Voigt Hill
#
# Bulk Modulus (GPa) = 54.36771 61.04003 57.70387
# Shear Modulus (GPa) = 28.16519 32.62599 30.39559
#
# Velocity S-wave (km/s) = 3.78903 4.07806 3.93620
# Velocity P-wave (km/s) = 6.84511 7.29989 7.07615
#
# Compressibility (1/GPa) = 0.01839327
#
# Stress axis : x y z
#
# Youngs Moduli (GPa) = 100.54724 56.90013 112.50487
#
# Poissons Ratio (x) = 0.19346 0.25768
# Poissons Ratio (y) = 0.34185 0.37323
# Poissons Ratio (z) = 0.23029 0.18876
#
# Static dielectric constant tensor:
#      x y z
#    x 3.784800 0.000000 -0.033190 
#    y 0.000000 3.227750 0.000000 
#    z -0.033190 0.000000 3.624440 
# 
# 
# High freq. dielectric constant tensor:
#      x y z
#    x 1.784710 0.000000 -0.007800 
#    y 0.000000 1.728730 0.000000 
#    z -0.007800 0.000000 1.780830 
# 
# From -- ./inp_files/167695.got.cif
#   From: 2010.06.25/outbox.cif.g09.slc.cpg/sg15_84_cif.got.tgz:167695.got - 2010.06.28 07:06:18.
