data_PCOD8151807
_publ_section_title
;
Structure prediction by ZEFSAII (Michael W. Deem and Ramdas Pophale) SiO2 
 PCOD8151807
Probable space group: C 2/C
;
_chemical_formula_sum "Si O2"
_cell_formula_units_Z 48
_cell_length_a 25.405195
_cell_length_b 11.958221
_cell_length_c 19.299684
_cell_angle_alpha 90.000000
_cell_angle_beta 159.859021
_cell_angle_gamma 90.000000
_cell_volume 2018.904441
_symmetry_space_group_name_H-M "C 2/C"
_symmetry_group_IT_number 15
_symmetry_cell_setting 'monoclinic'
loop_
_space_group_symop_operation_xyz
x,y,z
-x,y,1/2-z
-x,-y,-z
x,-y,1/2+z
1/2+x,1/2+y,z
1/2-x,1/2+y,1/2-z
1/2-x,1/2-y,-z
1/2+x,1/2-y,1/2+z
loop_
_atom_site_type_symbol
_atom_site_label
_atom_site_fract_x
_atom_site_fract_y
_atom_site_fract_z
Si Si1 0.417329 0.085687 0.947506
Si Si2 0.414808 0.514578 0.715285
Si Si3 0.906726 0.841306 0.474236
Si Si4 0.696578 0.883463 0.626193
Si Si5 0.181795 0.354618 0.456623
Si Si6 0.001025 0.173453 0.563773
O O1 0.270876 0.136664 0.727512
O O2 0.370713 0.009173 0.956010
O O3 0.520722 0.192186 0.096877
O O4 0.500000 0.000000 0.000000
O O5 0.500000 0.549125 0.750000
O O6 0.239938 0.467906 0.488349
O O7 0.413991 0.620619 0.765361
O O8 0.500003 0.409678 0.854573
O O9 0.937630 0.708220 0.524355
O O10 0.929364 0.873616 0.421790
O O11 0.766950 0.859087 0.637139
O O12 0.824504 0.867756 0.844519
O O13 0.250000 0.250000 0.500000
O O14 0.000000 0.352973 0.250000
#
# Coordination Sequence:
#
# PCOD8151807 Si02
#       6
#     8   8   8   8   8   8
#     4  11  23  40  69 106 141 177 240 305 358 425
#     4  12  25  45  71 106 151 197 238 300 372 433
#     4  11  21  40  70 101 139 185 241 294 354 432
#     4  11  22  41  70 102 139 184 237 299 352 430
#     4  12  26  44  69 109 151 192 240 301 373 431
#     4  11  23  44  72 101 140 187 247 289 359 435
#
# _framework density 23.775269999999999
#
# number of rings (size 3 to 8) (size 9 to 14) (size 15 to 20)
#    0.000    0.667    5.000    4.000    0.000    1.333 
#    0.000    0.833    0.000   11.000    0.000    0.000 
#    0.000    0.000    0.000    0.000    0.000    0.000 
#
# Total GULP energy -297431.363673 kJ/mol
# GULP energy per Si atom -12392.973486 kJ/mol
# Density = 2.372116 g / cm^3
# Si number density = 23.775270 Si / 1000 Ang^3
#
#
#
# Elastic Constant Matrix: (Units=GPa)
#
#
# Indices 1 2 3 4 5 6 
#
# 1 128.8084 29.1407 22.4620 -0.0002 1.3731 -0.0001
# 2 29.1407 138.8042 36.7458 -0.0002 1.0317 0.0000
# 3 22.4620 36.7458 64.3892 -0.0003 17.2388 -0.0002
# 4 -0.0002 -0.0002 -0.0003 30.8910 -0.0002 -3.5984
# 5 1.3731 1.0317 17.2388 -0.0002 30.5273 -0.0001
# 6 -0.0001 0.0000 -0.0002 -3.5984 -0.0001 41.9257
#
#
#
# Elastic Compliance Matrix: (Units=1/GPa)
#
#
# Indices 1 2 3 4 5 6 
#
# 1 0.008457 -0.001086 -0.002637 0.000000 0.001146 0.000000
# 2 -0.001086 0.008847 -0.005423 0.000000 0.002812 0.000000
# 3 -0.002637 -0.005423 0.022931 0.000000 -0.012648 0.000000
# 4 0.000000 0.000000 0.000000 0.032699 0.000000 0.002806
# 5 0.001146 0.002812 -0.012648 0.000000 0.039753 0.000000
# 6 0.000000 0.000000 0.000000 0.002806 0.000000 0.024093
#
#
# Mechanical properties :
#
#
# Convention : Reuss Voigt Hill
#
# Bulk Modulus (GPa) = 45.57189 56.52208 51.04699
# Shear Modulus (GPa) = 30.79081 36.91236 33.85158
#
# Velocity S-wave (km/s) = 3.60262 3.94452 3.77744
# Velocity P-wave (km/s) = 6.04273 6.67613 6.36731
#
# Compressibility (1/GPa) = 0.02194335
#
# Stress axis : x y z
#
# Youngs Moduli (GPa) = 118.24831 113.03161 43.60823
#
# Poissons Ratio (x) = 0.12273 0.11500
# Poissons Ratio (y) = 0.12839 0.23649
# Poissons Ratio (z) = 0.31184 0.61297
#
# Static dielectric constant tensor:
#      x y z
#    x 4.431340 0.000000 0.319920 
#    y 0.000000 4.604790 0.000000 
#    z 0.319920 0.000000 4.332700 
# 
# 
# High freq. dielectric constant tensor:
#      x y z
#    x 1.942140 0.000000 0.026350 
#    y 0.000000 1.949370 0.000000 
#    z 0.026350 0.000000 1.922300 
# 
# From -- ./inp_files/257646.got.cif
#   From: 2010.06.25/outbox.cif.g09.slc.cpg/sg15_129_cif.got.tgz:257646.got - 2010.06.28 07:06:18.
