data_PCOD8151628
_publ_section_title
;
Structure prediction by ZEFSAII (Michael W. Deem and Ramdas Pophale) SiO2 
 PCOD8151628
Probable space group: C 2/C
;
_chemical_formula_sum "Si O2"
_cell_formula_units_Z 60
_cell_length_a 21.251624
_cell_length_b 7.964278
_cell_length_c 18.427013
_cell_angle_alpha 90.000000
_cell_angle_beta 74.044868
_cell_angle_gamma 90.000000
_cell_volume 2998.696342
_symmetry_space_group_name_H-M "C 2/C"
_symmetry_group_IT_number 15
_symmetry_cell_setting 'monoclinic'
loop_
_space_group_symop_operation_xyz
x,y,z
-x,y,1/2-z
-x,-y,-z
x,-y,1/2+z
1/2+x,1/2+y,z
1/2-x,1/2+y,1/2-z
1/2-x,1/2-y,-z
1/2+x,1/2-y,1/2+z
loop_
_atom_site_type_symbol
_atom_site_label
_atom_site_fract_x
_atom_site_fract_y
_atom_site_fract_z
Si Si1 0.910538 0.104285 0.538647
Si Si2 0.000000 0.842653 0.750000
Si Si3 0.483471 0.875478 0.441485
Si Si4 0.474035 0.580809 0.893356
Si Si5 0.171016 0.417189 0.747857
Si Si6 0.814205 0.053631 0.681319
Si Si7 0.399871 0.771036 0.179925
Si Si8 0.442873 0.094855 0.324853
O O1 0.921878 0.273657 0.490590
O O2 0.836057 0.088013 0.590832
O O3 0.952561 0.107030 0.600253
O O4 0.928765 0.959581 0.476791
O O5 0.939781 0.724115 0.743935
O O6 0.976161 0.949868 0.826600
O O7 0.548557 0.761437 0.404214
O O8 0.500000 0.000000 0.500000
O O9 0.461234 0.940135 0.370293
O O10 0.439982 0.747959 0.878457
O O11 0.175824 0.227621 0.777196
O O12 0.240164 0.494707 0.704311
O O13 0.139252 0.552055 0.814531
O O14 0.127885 0.417575 0.689164
O O15 0.855683 0.895338 0.698200
O O16 0.500000 0.128765 0.250000
#
# Coordination Sequence:
#
# PCOD8151628 Si02
#       8
#     8   4   8   8   8   8   8   8
#     4  11  22  41  62 100 136 176 219 270 349 414
#     4  12  20  36  72 104 130 172 216 288 352 388
#     4  12  23  39  69 103 140 178 216 282 360 409
#     4  11  21  37  66 100 136 172 220 281 342 400
#     4  12  26  45  68 102 131 184 237 284 339 408
#     4  12  25  47  69  95 139 185 232 278 341 420
#     4  12  23  42  71 101 137 172 225 287 336 401
#     4  12  23  40  66 105 137 167 233 298 331 396
#
# _framework density 20.008694999999999
#
# number of rings (size 3 to 8) (size 9 to 14) (size 15 to 20)
#    0.000    0.267    7.333    4.000    0.000    0.000 
#    0.000    1.333    0.000    0.000    0.000    0.000 
#    0.000    0.000    0.000    0.000    0.000    0.000 
#
# Total GULP energy -371783.290084 kJ/mol
# GULP energy per Si atom -12392.776336 kJ/mol
# Density = 1.996315 g / cm^3
# Si number density = 20.008695 Si / 1000 Ang^3
#
#
#
# Elastic Constant Matrix: (Units=GPa)
#
#
# Indices 1 2 3 4 5 6 
#
# 1 111.1732 51.8502 58.1164 0.0000 -9.1267 0.0000
# 2 51.8502 132.0336 36.3928 0.0000 -3.6533 0.0000
# 3 58.1164 36.3928 115.2209 0.0000 -4.9003 0.0000
# 4 0.0000 0.0000 0.0000 35.6191 0.0000 11.3345
# 5 -9.1267 -3.6533 -4.9003 0.0000 27.7017 0.0000
# 6 0.0000 0.0000 0.0000 11.3345 0.0000 24.6933
#
#
#
# Elastic Compliance Matrix: (Units=1/GPa)
#
#
# Indices 1 2 3 4 5 6 
#
# 1 0.014043 -0.003848 -0.005736 0.000000 0.003105 0.000000
# 2 -0.003848 0.009362 -0.001025 0.000000 -0.000214 0.000000
# 3 -0.005736 -0.001025 0.011899 0.000000 0.000080 0.000000
# 4 0.000000 0.000000 0.000000 0.032877 0.000000 -0.015091
# 5 0.003105 -0.000214 0.000080 0.000000 0.037108 0.000000
# 6 0.000000 0.000000 0.000000 -0.015091 0.000000 0.047424
#
#
# Mechanical properties :
#
#
# Convention : Reuss Voigt Hill
#
# Bulk Modulus (GPa) = 70.99160 72.34961 71.67060
# Shear Modulus (GPa) = 27.99172 31.74072 29.86622
#
# Velocity S-wave (km/s) = 3.74435 3.98722 3.86769
# Velocity P-wave (km/s) = 7.36552 7.57857 7.47281
#
# Compressibility (1/GPa) = 0.01408617
#
# Stress axis : x y z
#
# Youngs Moduli (GPa) = 71.21097 106.82016 84.03924
#
# Poissons Ratio (x) = 0.41103 0.48202
# Poissons Ratio (y) = 0.27401 0.08615
# Poissons Ratio (z) = 0.40844 0.10951
#
# Static dielectric constant tensor:
#      x y z
#    x 3.436410 0.000000 0.035260 
#    y 0.000000 4.203180 0.000000 
#    z 0.035260 0.000000 3.805620 
# 
# 
# High freq. dielectric constant tensor:
#      x y z
#    x 1.748360 0.000000 0.000670 
#    y 0.000000 1.813790 0.000000 
#    z 0.000670 0.000000 1.789730 
# 
# From -- ./inp_files/213835.got.cif
#   From: 2010.06.25/outbox.cif.g09.slc.cpg/sg15_107_cif.got.tgz:213835.got - 2010.06.28 07:06:18.
