data_PCOD8151072
_publ_section_title
;
Structure prediction by ZEFSAII (Michael W. Deem and Ramdas Pophale) SiO2 
 PCOD8151072
Probable space group: C 2/C
;
_chemical_formula_sum "Si O2"
_cell_formula_units_Z 56
_cell_length_a 16.645121
_cell_length_b 9.008848
_cell_length_c 20.321935
_cell_angle_alpha 90.000000
_cell_angle_beta 71.409191
_cell_angle_gamma 90.000000
_cell_volume 2888.330872
_symmetry_space_group_name_H-M "C 2/C"
_symmetry_group_IT_number 15
_symmetry_cell_setting 'monoclinic'
loop_
_space_group_symop_operation_xyz
x,y,z
-x,y,1/2-z
-x,-y,-z
x,-y,1/2+z
1/2+x,1/2+y,z
1/2-x,1/2+y,1/2-z
1/2-x,1/2-y,-z
1/2+x,1/2-y,1/2+z
loop_
_atom_site_type_symbol
_atom_site_label
_atom_site_fract_x
_atom_site_fract_y
_atom_site_fract_z
Si Si1 0.922447 0.281998 0.944185
Si Si2 0.848656 0.584283 0.924973
Si Si3 0.548711 0.703493 0.018894
Si Si4 0.600104 0.627776 0.347441
Si Si5 0.970702 0.929959 0.323755
Si Si6 0.906750 0.763302 0.788476
Si Si7 0.670898 0.555731 0.456944
O O1 0.911655 0.448396 0.921976
O O2 0.918006 0.182482 0.880332
O O3 0.010966 0.271771 0.961280
O O4 0.842983 0.218122 0.007014
O O5 0.870900 0.703164 0.975608
O O6 0.856421 0.650467 0.848892
O O7 0.753064 0.529061 0.960783
O O8 0.475259 0.713243 0.093323
O O9 0.584699 0.537233 0.996332
O O10 0.558635 0.474204 0.335439
O O11 0.635045 0.718146 0.273992
O O12 0.676909 0.587027 0.376719
O O13 0.000000 0.846826 0.250000
O O14 0.914761 0.077458 0.322856
O O15 0.000000 0.698264 0.750000
#
# Coordination Sequence:
#
# PCOD8151072 Si02
#       7
#     8   8   8   8   8   8   8
#     4  11  21  36  56  85 117 150 195 234 285 336
#     4  12  23  34  54  93 120 147 175 252 303 324
#     4  11  19  37  61  83 110 154 198 228 274 353
#     4   9  16  36  63  79 100 155 205 220 266 340
#     4   9  16  33  59  82  99 150 208 233 255 341
#     4   9  18  36  62  76 111 150 202 228 279 346
#     4  11  21  36  61  84 120 148 196 232 285 345
#
# _framework density 19.388361
#
# number of rings (size 3 to 8) (size 9 to 14) (size 15 to 20)
#    0.000    2.000    5.714    2.143    0.000    0.571 
#    0.000    2.857    3.143    1.714    0.000    0.000 
#    0.000    0.000    0.000    0.000    0.000    0.000 
#
# Total GULP energy -346904.564539 kJ/mol
# GULP energy per Si atom -12389.448734 kJ/mol
# Density = 1.934423 g / cm^3
# Si number density = 19.388361 Si / 1000 Ang^3
#
#
#
# Elastic Constant Matrix: (Units=GPa)
#
#
# Indices 1 2 3 4 5 6 
#
# 1 66.4587 4.8927 20.2640 0.0000 14.0629 0.0000
# 2 4.8927 58.7151 39.4249 0.0000 10.4493 0.0000
# 3 20.2640 39.4249 112.0380 0.0000 22.5243 0.0000
# 4 0.0000 0.0000 0.0000 27.0266 0.0000 1.2042
# 5 14.0629 10.4493 22.5243 0.0000 21.8222 0.0000
# 6 0.0000 0.0000 0.0000 1.2042 0.0000 28.2889
#
#
#
# Elastic Compliance Matrix: (Units=1/GPa)
#
#
# Indices 1 2 3 4 5 6 
#
# 1 0.017631 0.001465 -0.001614 0.000000 -0.010398 0.000000
# 2 0.001465 0.022607 -0.007387 0.000000 -0.004145 0.000000
# 3 -0.001614 -0.007387 0.013750 0.000000 -0.009615 0.000000
# 4 0.000000 0.000000 0.000000 0.037071 0.000000 -0.001578
# 5 -0.010398 -0.004145 -0.009615 0.000000 0.064434 0.000000
# 6 0.000000 0.000000 0.000000 -0.001578 0.000000 0.035417
#
#
# Mechanical properties :
#
#
# Convention : Reuss Voigt Hill
#
# Bulk Modulus (GPa) = 25.69614 40.70832 33.20223
# Shear Modulus (GPa) = 22.83584 26.93623 24.88604
#
# Velocity S-wave (km/s) = 3.43565 3.73137 3.58656
# Velocity P-wave (km/s) = 5.38706 6.29333 5.85775
#
# Compressibility (1/GPa) = 0.03891635
#
# Stress axis : x y z
#
# Youngs Moduli (GPa) = 56.71682 44.23428 72.72815
#
# Poissons Ratio (x) = -0.06480 0.11739
# Poissons Ratio (y) = -0.08309 0.53723
# Poissons Ratio (z) = 0.09155 0.32675
#
# Static dielectric constant tensor:
#      x y z
#    x 3.228430 0.000000 0.370540 
#    y 0.000000 3.347070 0.000000 
#    z 0.370540 0.000000 3.878480 
# 
# 
# High freq. dielectric constant tensor:
#      x y z
#    x 1.722860 0.000000 0.026750 
#    y 0.000000 1.734830 0.000000 
#    z 0.026750 0.000000 1.766520 
# 
# From -- ./inp_files/246932.got.cif
#   From: 2010.06.25/outbox.cif.g09.slc.cpg/sg15_124_cif.got.tgz:246932.got - 2010.06.28 07:06:18.
