data_PCOD8151553
_publ_section_title
;
Structure prediction by ZEFSAII (Michael W. Deem and Ramdas Pophale) SiO2 
 PCOD8151553
Probable space group: C 2/C
;
_chemical_formula_sum "Si O2"
_cell_formula_units_Z 48
_cell_length_a 22.291823
_cell_length_b 10.875531
_cell_length_c 23.734643
_cell_angle_alpha 90.000000
_cell_angle_beta 155.216717
_cell_angle_gamma 90.000000
_cell_volume 2412.052625
_symmetry_space_group_name_H-M "C 2/C"
_symmetry_group_IT_number 15
_symmetry_cell_setting 'monoclinic'
loop_
_space_group_symop_operation_xyz
x,y,z
-x,y,1/2-z
-x,-y,-z
x,-y,1/2+z
1/2+x,1/2+y,z
1/2-x,1/2+y,1/2-z
1/2-x,1/2-y,-z
1/2+x,1/2-y,1/2+z
loop_
_atom_site_type_symbol
_atom_site_label
_atom_site_fract_x
_atom_site_fract_y
_atom_site_fract_z
Si Si1 0.304535 0.047319 0.840113
Si Si2 0.521607 0.625988 0.549384
Si Si3 0.319421 0.769836 0.447589
Si Si4 0.670105 0.788475 0.593107
Si Si5 0.571136 0.895923 0.172696
Si Si6 0.531086 0.865708 0.712913
O O1 0.162477 0.124121 0.707019
O O2 0.360863 0.111442 0.944972
O O3 0.409205 0.055769 0.875256
O O4 0.266399 0.905994 0.820089
O O5 0.500000 0.500000 0.500000
O O6 0.387583 0.650985 0.475250
O O7 0.540914 0.731272 0.519409
O O8 0.390915 0.799385 0.568485
O O9 0.154389 0.737851 0.315643
O O10 0.585600 0.827790 0.463019
O O11 0.801620 0.693894 0.696810
O O12 0.572940 0.010059 0.216242
O O13 0.500000 0.904850 0.750000
#
# Coordination Sequence:
#
# PCOD8151553 Si02
#       6
#     8   8   8   8   8   8
#     4  11  21  35  64  97 129 159 200 257 333 372
#     4  11  22  34  59  99 132 158 196 249 326 389
#     4  12  22  42  67  92 125 163 208 269 316 374
#     4  11  21  36  59  92 132 161 196 251 322 379
#     4  11  23  38  64  93 131 167 203 257 317 382
#     4  12  27  46  64  89 125 175 220 257 305 375
#
# _framework density 19.900062999999999
#
# number of rings (size 3 to 8) (size 9 to 14) (size 15 to 20)
#    0.000    0.667    5.000    5.000    4.667    0.000 
#    0.000    0.833    0.000    0.000    0.000    0.000 
#    0.000    0.000    0.000    0.000    0.000    0.000 
#
# Total GULP energy -297557.386961 kJ/mol
# GULP energy per Si atom -12398.224457 kJ/mol
# Density = 1.985477 g / cm^3
# Si number density = 19.900063 Si / 1000 Ang^3
#
#
#
# Elastic Constant Matrix: (Units=GPa)
#
#
# Indices 1 2 3 4 5 6 
#
# 1 87.5243 44.2756 33.8344 0.0000 -17.3916 0.0000
# 2 44.2756 116.4457 37.7597 -0.0004 -10.1183 -0.0001
# 3 33.8344 37.7597 101.3150 -0.0003 -11.3444 0.0000
# 4 0.0000 -0.0004 -0.0003 30.4684 0.0000 -0.9629
# 5 -17.3916 -10.1183 -11.3444 0.0000 23.1814 0.0001
# 6 0.0000 -0.0001 0.0000 -0.9629 0.0001 23.4711
#
#
#
# Elastic Compliance Matrix: (Units=1/GPa)
#
#
# Indices 1 2 3 4 5 6 
#
# 1 0.016668 -0.004632 -0.002821 0.000000 0.009103 0.000000
# 2 -0.004632 0.011209 -0.002615 0.000000 0.000138 0.000000
# 3 -0.002821 -0.002615 0.012084 0.000000 0.002656 0.000000
# 4 0.000000 0.000000 0.000000 0.032863 0.000000 0.001348
# 5 0.009103 0.000138 0.002656 0.000000 0.051327 0.000000
# 6 0.000000 0.000000 0.000000 0.001348 0.000000 0.042661
#
#
# Mechanical properties :
#
#
# Convention : Reuss Voigt Hill
#
# Bulk Modulus (GPa) = 50.44095 59.66937 55.05516
# Shear Modulus (GPa) = 25.83229 28.05186 26.94208
#
# Velocity S-wave (km/s) = 3.60683 3.75859 3.68349
# Velocity P-wave (km/s) = 6.53818 6.99182 6.76880
#
# Compressibility (1/GPa) = 0.01982516
#
# Stress axis : x y z
#
# Youngs Moduli (GPa) = 59.99650 89.21526 82.75209
#
# Poissons Ratio (x) = 0.41323 0.23342
# Poissons Ratio (y) = 0.27789 0.21642
# Poissons Ratio (z) = 0.16923 0.23332
#
# Static dielectric constant tensor:
#      x y z
#    x 3.222250 0.000000 -0.034150 
#    y 0.000000 3.653200 0.000000 
#    z -0.034150 0.000000 3.704970 
# 
# 
# High freq. dielectric constant tensor:
#      x y z
#    x 1.724520 0.000000 0.004600 
#    y 0.000000 1.791490 0.000000 
#    z 0.004600 0.000000 1.801840 
# 
# From -- ./inp_files/252615.got.cif
#   From: 2010.06.25/outbox.cif.g09.slc.cpg/sg15_127_cif.got.tgz:252615.got - 2010.06.28 07:06:18.
