data_PCOD8151462
_publ_section_title
;
Structure prediction by ZEFSAII (Michael W. Deem and Ramdas Pophale) SiO2 
 PCOD8151462
Probable space group: C 2/C
;
_chemical_formula_sum "Si O2"
_cell_formula_units_Z 36
_cell_length_a 13.641045
_cell_length_b 6.509140
_cell_length_c 23.220059
_cell_angle_alpha 90.000000
_cell_angle_beta 129.276033
_cell_angle_gamma 90.000000
_cell_volume 1596.005908
_symmetry_space_group_name_H-M "C 2/C"
_symmetry_group_IT_number 15
_symmetry_cell_setting 'monoclinic'
loop_
_space_group_symop_operation_xyz
x,y,z
-x,y,1/2-z
-x,-y,-z
x,-y,1/2+z
1/2+x,1/2+y,z
1/2-x,1/2+y,1/2-z
1/2-x,1/2-y,-z
1/2+x,1/2-y,1/2+z
loop_
_atom_site_type_symbol
_atom_site_label
_atom_site_fract_x
_atom_site_fract_y
_atom_site_fract_z
Si Si1 0.000000 0.813738 0.250000
Si Si2 0.435385 0.575663 0.418303
Si Si3 0.226887 0.566622 0.636242
Si Si4 0.960745 0.670285 0.358843
Si Si5 0.858324 0.606003 0.515769
O O1 0.121551 0.960843 0.306148
O O2 0.029584 0.669209 0.206397
O O3 0.500000 0.500000 0.500000
O O4 0.298888 0.685405 0.377973
O O5 0.431639 0.401389 0.368995
O O6 0.514921 0.768451 0.426623
O O7 0.160281 0.466240 0.667381
O O8 0.170057 0.444315 0.560739
O O9 0.100864 0.602181 0.435111
O O10 0.750000 0.750000 0.500000
#
# Coordination Sequence:
#
# PCOD8151462 Si02
#       5
#     4   8   8   8   8
#     4  12  30  44  70 104 148 200 224 270 368 448
#     4  11  20  42  78  98 130 178 234 307 345 397
#     4  11  25  47  68 107 139 184 243 288 353 424
#     4  11  25  48  70 102 145 182 237 296 353 418
#     4  11  23  42  73 108 133 177 246 298 350 412
#
# _framework density 22.556305999999999
#
# number of rings (size 3 to 8) (size 9 to 14) (size 15 to 20)
#    0.000    0.889    4.444    2.667    6.222    1.778 
#    0.000    5.556    0.000    0.000    0.000    0.000 
#    0.000    0.000    0.000    0.000    0.000    0.000 
#
# Total GULP energy -223070.824277 kJ/mol
# GULP energy per Si atom -12392.823571 kJ/mol
# Density = 2.250497 g / cm^3
# Si number density = 22.556306 Si / 1000 Ang^3
#
#
#
# Elastic Constant Matrix: (Units=GPa)
#
#
# Indices 1 2 3 4 5 6 
#
# 1 132.3458 48.9524 61.7804 0.0000 -5.1179 0.0000
# 2 48.9524 114.9207 37.4521 0.0000 3.7422 0.0000
# 3 61.7804 37.4521 98.3730 0.0000 4.7073 0.0000
# 4 0.0000 0.0000 0.0000 14.3660 0.0000 3.3513
# 5 -5.1179 3.7422 4.7073 0.0000 53.1409 0.0000
# 6 0.0000 0.0000 0.0000 3.3513 0.0000 35.5938
#
#
#
# Elastic Compliance Matrix: (Units=1/GPa)
#
#
# Indices 1 2 3 4 5 6 
#
# 1 0.011664 -0.002983 -0.006280 0.000000 0.001890 0.000000
# 2 -0.002983 0.010704 -0.002161 0.000000 -0.000850 0.000000
# 3 -0.006280 -0.002161 0.015017 0.000000 -0.001783 0.000000
# 4 0.000000 0.000000 0.000000 0.071172 0.000000 -0.006701
# 5 0.001890 -0.000850 -0.001783 0.000000 0.019218 0.000000
# 6 0.000000 0.000000 0.000000 -0.006701 0.000000 0.028726
#
#
# Mechanical properties :
#
#
# Convention : Reuss Voigt Hill
#
# Bulk Modulus (GPa) = 68.78917 71.33436 70.06177
# Shear Modulus (GPa) = 27.14504 33.78378 30.46441
#
# Velocity S-wave (km/s) = 3.47282 3.87428 3.67903
# Velocity P-wave (km/s) = 6.82960 7.19076 7.01251
#
# Compressibility (1/GPa) = 0.01453717
#
# Stress axis : x y z
#
# Youngs Moduli (GPa) = 85.73328 93.41921 66.58976
#
# Poissons Ratio (x) = 0.27871 0.41818
# Poissons Ratio (y) = 0.25578 0.14390
# Poissons Ratio (z) = 0.53839 0.20188
#
# Static dielectric constant tensor:
#      x y z
#    x 4.163040 0.000000 0.055010 
#    y 0.000000 4.716040 0.000000 
#    z 0.055010 0.000000 3.856810 
# 
# 
# High freq. dielectric constant tensor:
#      x y z
#    x 1.892190 0.000000 0.005250 
#    y 0.000000 1.890440 0.000000 
#    z 0.005250 0.000000 1.886980 
# 
# From -- ./inp_files/294345.got.cif
#   From: 2010.06.25/outbox.cif.g09.slc.cpg/sg15_148_cif.got.tgz:294345.got - 2010.06.28 07:06:18.
