data_PCOD8151843
_publ_section_title
;
Structure prediction by ZEFSAII (Michael W. Deem and Ramdas Pophale) SiO2 
 PCOD8151843
Probable space group: C 2/C
;
_chemical_formula_sum "Si O2"
_cell_formula_units_Z 40
_cell_length_a 8.992355
_cell_length_b 22.547394
_cell_length_c 10.764529
_cell_angle_alpha 90.000000
_cell_angle_beta 62.960722
_cell_angle_gamma 90.000000
_cell_volume 1943.989380
_symmetry_space_group_name_H-M "C 2/C"
_symmetry_group_IT_number 15
_symmetry_cell_setting 'monoclinic'
loop_
_space_group_symop_operation_xyz
x,y,z
-x,y,1/2-z
-x,-y,-z
x,-y,1/2+z
1/2+x,1/2+y,z
1/2-x,1/2+y,1/2-z
1/2-x,1/2-y,-z
1/2+x,1/2-y,1/2+z
loop_
_atom_site_type_symbol
_atom_site_label
_atom_site_fract_x
_atom_site_fract_y
_atom_site_fract_z
Si Si1 0.677689 0.437617 0.624991
Si Si2 0.438995 0.389227 0.086433
Si Si3 0.247072 0.931411 0.102184
Si Si4 0.052779 0.236968 0.589839
Si Si5 0.953578 0.363314 0.624110
O O1 0.500000 0.450413 0.750000
O O2 0.661652 0.416651 0.489683
O O3 0.780477 0.498584 0.601605
O O4 0.768032 0.387164 0.671529
O O5 0.613285 0.423459 0.041843
O O6 0.319608 0.398308 0.249999
O O7 0.488496 0.320544 0.039055
O O8 0.421851 0.901658 0.005658
O O9 0.250000 0.250000 0.500000
O O10 0.000000 0.223247 0.750000
O O11 0.957137 0.295179 0.577400
O O12 0.000000 0.367625 0.750000
#
# Coordination Sequence:
#
# PCOD8151843 Si02
#       5
#     8   8   8   8   8
#     4  12  26  40  63  98 131 164 210 269 317 373
#     4  11  22  41  70  90 126 170 214 255 320 378
#     4  11  22  44  64  92 127 175 210 253 325 384
#     4  11  21  41  68  94 124 170 215 261 316 386
#     4  11  25  41  67  95 127 168 215 263 318 376
#
# _framework density 20.576243000000002
#
# number of rings (size 3 to 8) (size 9 to 14) (size 15 to 20)
#    0.000    0.800    6.000    2.400    5.600    1.600 
#    0.000    0.000    0.000    0.000    0.000    0.000 
#    0.000    0.000    0.000    0.000    0.000    0.000 
#
# Total GULP energy -248022.430566 kJ/mol
# GULP energy per Si atom -12401.121528 kJ/mol
# Density = 2.052941 g / cm^3
# Si number density = 20.576243 Si / 1000 Ang^3
#
#
#
# Elastic Constant Matrix: (Units=GPa)
#
#
# Indices 1 2 3 4 5 6 
#
# 1 48.5865 27.7932 15.7878 0.0000 17.0098 0.0000
# 2 27.7932 171.0165 27.7526 0.0000 2.8236 0.0000
# 3 15.7878 27.7526 75.2153 0.0000 -1.7246 0.0000
# 4 0.0000 0.0000 0.0000 27.7100 0.0000 -5.8498
# 5 17.0098 2.8236 -1.7246 0.0000 25.0996 0.0000
# 6 0.0000 0.0000 0.0000 -5.8498 0.0000 28.8938
#
#
#
# Elastic Compliance Matrix: (Units=1/GPa)
#
#
# Indices 1 2 3 4 5 6 
#
# 1 0.032424 -0.003958 -0.005848 0.000000 -0.021930 0.000000
# 2 -0.003958 0.006722 -0.001608 0.000000 0.001816 0.000000
# 3 -0.005848 -0.001608 0.015235 0.000000 0.005191 0.000000
# 4 0.000000 0.000000 0.000000 0.037699 0.000000 0.007633
# 5 -0.021930 0.001816 0.005191 0.000000 0.054855 0.000000
# 6 0.000000 0.000000 0.000000 0.007633 0.000000 0.036155
#
#
# Mechanical properties :
#
#
# Convention : Reuss Voigt Hill
#
# Bulk Modulus (GPa) = 31.69342 48.60952 40.15147
# Shear Modulus (GPa) = 23.10154 31.23964 27.17059
#
# Velocity S-wave (km/s) = 3.35435 3.90068 3.63779
# Velocity P-wave (km/s) = 5.51712 6.63042 6.09922
#
# Compressibility (1/GPa) = 0.03155229
#
# Stress axis : x y z
#
# Youngs Moduli (GPa) = 30.84131 148.77419 65.63879
#
# Poissons Ratio (x) = 0.58890 0.38387
# Poissons Ratio (y) = 0.12208 0.10552
# Poissons Ratio (z) = 0.18036 0.23917
#
# Static dielectric constant tensor:
#      x y z
#    x 3.320380 0.000000 0.006340 
#    y 0.000000 4.139170 0.000000 
#    z 0.006340 0.000000 3.640730 
# 
# 
# High freq. dielectric constant tensor:
#      x y z
#    x 1.781220 0.000000 -0.014580 
#    y 0.000000 1.828770 0.000000 
#    z -0.014580 0.000000 1.806660 
# 
# From -- ./inp_files/77935.got.cif
#   From: 2010.06.25/outbox.cif.g09.slc.cpg/sg15_39_cif.got.tgz:77935.got - 2010.06.28 07:06:18.
