data_PCOD8151132
_publ_section_title
;
Structure prediction by ZEFSAII (Michael W. Deem and Ramdas Pophale) SiO2 
 PCOD8151132
Probable space group: C 2/C
;
_chemical_formula_sum "Si O2"
_cell_formula_units_Z 64
_cell_length_a 11.744331
_cell_length_b 14.477680
_cell_length_c 27.238054
_cell_angle_alpha 90.000000
_cell_angle_beta 138.759671
_cell_angle_gamma 90.000000
_cell_volume 3053.043443
_symmetry_space_group_name_H-M "C 2/C"
_symmetry_group_IT_number 15
_symmetry_cell_setting 'monoclinic'
loop_
_space_group_symop_operation_xyz
x,y,z
-x,y,1/2-z
-x,-y,-z
x,-y,1/2+z
1/2+x,1/2+y,z
1/2-x,1/2+y,1/2-z
1/2-x,1/2-y,-z
1/2+x,1/2-y,1/2+z
loop_
_atom_site_type_symbol
_atom_site_label
_atom_site_fract_x
_atom_site_fract_y
_atom_site_fract_z
Si Si1 0.817002 0.115319 0.600210
Si Si2 0.113342 0.928738 0.833934
Si Si3 0.976845 0.813762 0.604919
Si Si4 0.029168 0.834368 0.447138
Si Si5 0.004052 0.625430 0.061686
Si Si6 0.756142 0.146367 0.938081
Si Si7 0.172854 0.287909 0.830968
Si Si8 0.663928 0.061430 0.402803
O O1 0.966825 0.126951 0.607364
O O2 0.635751 0.075307 0.519091
O O3 0.775705 0.213638 0.611236
O O4 0.875215 0.039730 0.659145
O O5 0.025040 0.893461 0.855004
O O6 0.301269 0.880485 0.893825
O O7 0.000000 0.900579 0.750000
O O8 0.891730 0.851262 0.527033
O O9 0.888875 0.722129 0.597975
O O10 0.175836 0.791342 0.659782
O O11 0.156912 0.897531 0.519695
O O12 0.079235 0.727259 0.461942
O O13 0.843874 0.836567 0.413704
O O14 0.997316 0.583179 0.113946
O O15 0.667186 0.048247 0.902040
O O16 0.134638 0.389909 0.840839
O O17 0.000000 0.250752 0.750000
#
# Coordination Sequence:
#
# PCOD8151132 Si02
#       8
#     8   8   8   8   8   8   8   8
#     4  11  23  43  70  98 125 177 226 273 325 393
#     4  12  28  44  64  96 137 179 216 274 337 395
#     4  11  25  44  66  98 136 172 221 272 337 388
#     4  11  19  41  69 101 129 166 218 276 331 376
#     4  11  21  42  70  95 129 171 226 273 322 390
#     4  11  23  41  71 102 129 169 222 285 325 388
#     4  12  26  43  65  96 138 175 217 275 333 398
#     4  11  22  39  66 100 129 168 219 273 329 388
#
# _framework density 20.962689000000001
#
# number of rings (size 3 to 8) (size 9 to 14) (size 15 to 20)
#    0.000    0.750    5.000    3.375    7.000    0.000 
#    0.000    0.625    0.000    0.000    0.000    0.000 
#    0.000    0.000    0.000    0.000    0.000    0.000 
#
# Total GULP energy -396778.207553 kJ/mol
# GULP energy per Si atom -12399.318986 kJ/mol
# Density = 2.091498 g / cm^3
# Si number density = 20.962689 Si / 1000 Ang^3
#
#
#
# Elastic Constant Matrix: (Units=GPa)
#
#
# Indices 1 2 3 4 5 6 
#
# 1 153.4687 23.8156 45.2899 0.0000 8.3872 0.0000
# 2 23.8156 99.7687 19.4917 0.0000 -2.7931 0.0000
# 3 45.2899 19.4917 71.2007 0.0000 6.4632 0.0000
# 4 0.0000 0.0000 0.0000 16.4716 0.0000 -3.2404
# 5 8.3872 -2.7931 6.4632 0.0000 17.6135 0.0000
# 6 0.0000 0.0000 0.0000 -3.2404 0.0000 29.8126
#
#
#
# Elastic Compliance Matrix: (Units=1/GPa)
#
#
# Indices 1 2 3 4 5 6 
#
# 1 0.008204 -0.001106 -0.004702 0.000000 -0.002357 0.000000
# 2 -0.001106 0.010877 -0.002564 0.000000 0.003192 0.000000
# 3 -0.004702 -0.002564 0.018177 0.000000 -0.004838 0.000000
# 4 0.000000 0.000000 0.000000 0.062037 0.000000 0.006743
# 5 -0.002357 0.003192 -0.004838 0.000000 0.060178 0.000000
# 6 0.000000 0.000000 0.000000 0.006743 0.000000 0.034276
#
#
# Mechanical properties :
#
#
# Convention : Reuss Voigt Hill
#
# Bulk Modulus (GPa) = 48.74590 55.73694 52.24142
# Shear Modulus (GPa) = 23.00645 28.50229 25.75437
#
# Velocity S-wave (km/s) = 3.31644 3.69137 3.50892
# Velocity P-wave (km/s) = 6.16191 6.69437 6.43365
#
# Compressibility (1/GPa) = 0.02051455
#
# Stress axis : x y z
#
# Youngs Moduli (GPa) = 121.89322 91.93311 55.01565
#
# Poissons Ratio (x) = 0.10165 0.25867
# Poissons Ratio (y) = 0.13478 0.14107
# Poissons Ratio (z) = 0.57312 0.23574
#
# Static dielectric constant tensor:
#      x y z
#    x 4.029230 0.000000 -0.159810 
#    y 0.000000 3.862970 0.000000 
#    z -0.159810 0.000000 3.431410 
# 
# 
# High freq. dielectric constant tensor:
#      x y z
#    x 1.839850 0.000000 -0.006510 
#    y 0.000000 1.828290 0.000000 
#    z -0.006510 0.000000 1.783460 
# 
# From -- ./inp_files/293105.got.cif
#   From: 2010.06.25/outbox.cif.g09.slc.cpg/sg15_147_cif.got.tgz:293105.got - 2010.06.28 07:06:18.
