data_PCOD8151782
_publ_section_title
;
Structure prediction by ZEFSAII (Michael W. Deem and Ramdas Pophale) SiO2 
 PCOD8151782
Probable space group: C 2/C
;
_chemical_formula_sum "Si O2"
_cell_formula_units_Z 56
_cell_length_a 14.905185
_cell_length_b 17.974130
_cell_length_c 10.960084
_cell_angle_alpha 90.000000
_cell_angle_beta 66.300661
_cell_angle_gamma 90.000000
_cell_volume 2688.665682
_symmetry_space_group_name_H-M "C 2/C"
_symmetry_group_IT_number 15
_symmetry_cell_setting 'monoclinic'
loop_
_space_group_symop_operation_xyz
x,y,z
-x,y,1/2-z
-x,-y,-z
x,-y,1/2+z
1/2+x,1/2+y,z
1/2-x,1/2+y,1/2-z
1/2-x,1/2-y,-z
1/2+x,1/2-y,1/2+z
loop_
_atom_site_type_symbol
_atom_site_label
_atom_site_fract_x
_atom_site_fract_y
_atom_site_fract_z
Si Si1 0.390085 0.638917 0.603722
Si Si2 0.260406 0.441531 0.523216
Si Si3 0.754656 0.233500 0.267632
Si Si4 0.889128 0.331306 0.819378
Si Si5 0.678650 0.495496 0.755830
Si Si6 0.896544 0.193376 0.977755
Si Si7 0.106526 0.856706 0.670393
O O1 0.292022 0.685808 0.687144
O O2 0.392742 0.566550 0.688536
O O3 0.486780 0.689050 0.565822
O O4 0.383596 0.609240 0.469116
O O5 0.163057 0.391415 0.565849
O O6 0.258425 0.487315 0.653087
O O7 0.258211 0.493061 0.403257
O O8 0.355784 0.388230 0.469641
O O9 0.669974 0.173318 0.276676
O O10 0.807617 0.204579 0.361426
O O11 0.841428 0.233111 0.119816
O O12 0.879271 0.246846 0.872423
O O13 0.000000 0.358207 0.750000
O O14 0.615140 0.421118 0.769072
O O15 0.000000 0.819744 0.750000
#
# Coordination Sequence:
#
# PCOD8151782 Si02
#       7
#     8   8   8   8   8   8   8
#     4  12  24  40  67  98 132 175 215 270 333 394
#     4  11  24  41  64  95 134 172 218 269 329 393
#     4  11  22  42  64  93 131 172 219 273 326 381
#     4  11  21  40  66  92 125 168 226 280 315 376
#     4  12  24  41  66  96 137 175 210 270 336 395
#     4  11  22  39  64  98 127 168 219 278 324 384
#     4  12  24  42  64  95 140 171 212 268 337 398
#
# _framework density 20.828175000000002
#
# number of rings (size 3 to 8) (size 9 to 14) (size 15 to 20)
#    0.000    0.571    7.143    3.857    2.000    1.143 
#    0.000    0.714    0.000    0.857    0.000    0.000 
#    0.000    0.000    0.000    0.000    0.000    0.000 
#
# Total GULP energy -347111.254744 kJ/mol
# GULP energy per Si atom -12396.830527 kJ/mol
# Density = 2.078077 g / cm^3
# Si number density = 20.828175 Si / 1000 Ang^3
#
#
#
# Elastic Constant Matrix: (Units=GPa)
#
#
# Indices 1 2 3 4 5 6 
#
# 1 111.3751 42.4766 43.2764 0.0000 -8.9883 0.0000
# 2 42.4766 73.3957 30.9230 0.0000 -11.6309 0.0000
# 3 43.2764 30.9230 96.0529 0.0000 10.4910 0.0000
# 4 0.0000 0.0000 0.0000 36.0357 0.0000 5.7693
# 5 -8.9883 -11.6309 10.4910 0.0000 36.9209 0.0000
# 6 0.0000 0.0000 0.0000 5.7693 0.0000 22.6753
#
#
#
# Elastic Compliance Matrix: (Units=1/GPa)
#
#
# Indices 1 2 3 4 5 6 
#
# 1 0.012898 -0.005144 -0.004460 0.000000 0.002787 0.000000
# 2 -0.005144 0.019551 -0.004657 0.000000 0.006230 0.000000
# 3 -0.004460 -0.004657 0.014653 0.000000 -0.006716 0.000000
# 4 0.000000 0.000000 0.000000 0.028929 0.000000 -0.007360
# 5 0.002787 0.006230 -0.006716 0.000000 0.031634 0.000000
# 6 0.000000 0.000000 0.000000 -0.007360 0.000000 0.045974
#
#
# Mechanical properties :
#
#
# Convention : Reuss Voigt Hill
#
# Bulk Modulus (GPa) = 53.81837 57.13064 55.47450
# Shear Modulus (GPa) = 26.54570 30.06955 28.30763
#
# Velocity S-wave (km/s) = 3.57390 3.80372 3.69060
# Velocity P-wave (km/s) = 6.55177 6.83960 6.69723
#
# Compressibility (1/GPa) = 0.01858102
#
# Stress axis : x y z
#
# Youngs Moduli (GPa) = 77.52965 51.14766 68.24537
#
# Poissons Ratio (x) = 0.26311 0.30434
# Poissons Ratio (y) = 0.39883 0.31782
# Poissons Ratio (z) = 0.34575 0.23820
#
# Static dielectric constant tensor:
#      x y z
#    x 3.816630 0.000000 0.137250 
#    y 0.000000 3.630060 0.000000 
#    z 0.137250 0.000000 3.901960 
# 
# 
# High freq. dielectric constant tensor:
#      x y z
#    x 1.805120 0.000000 0.012230 
#    y 0.000000 1.798980 0.000000 
#    z 0.012230 0.000000 1.822070 
# 
# From -- ./inp_files/98650.got.cif
#   From: 2010.06.25/outbox.cif.g09.slc.cpg/sg15_50_cif.got.tgz:98650.got - 2010.06.28 07:06:18.
