data_PCOD8151743
_publ_section_title
;
Structure prediction by ZEFSAII (Michael W. Deem and Ramdas Pophale) SiO2 
 PCOD8151743
Probable space group: C 2/C
;
_chemical_formula_sum "Si O2"
_cell_formula_units_Z 52
_cell_length_a 15.315695
_cell_length_b 8.956155
_cell_length_c 30.261086
_cell_angle_alpha 90.000000
_cell_angle_beta 142.717541
_cell_angle_gamma 90.000000
_cell_volume 2514.389432
_symmetry_space_group_name_H-M "C 2/C"
_symmetry_group_IT_number 15
_symmetry_cell_setting 'monoclinic'
loop_
_space_group_symop_operation_xyz
x,y,z
-x,y,1/2-z
-x,-y,-z
x,-y,1/2+z
1/2+x,1/2+y,z
1/2-x,1/2+y,1/2-z
1/2-x,1/2-y,-z
1/2+x,1/2-y,1/2+z
loop_
_atom_site_type_symbol
_atom_site_label
_atom_site_fract_x
_atom_site_fract_y
_atom_site_fract_z
Si Si1 0.241472 0.889750 0.624715
Si Si2 0.517698 0.917363 0.140464
Si Si3 0.265561 0.597866 0.480310
Si Si4 0.500000 0.330894 0.250000
Si Si5 0.527981 0.601390 0.113483
Si Si6 0.185828 0.027435 0.261373
Si Si7 0.371727 0.839870 0.225962
O O1 0.194704 0.885818 0.555054
O O2 0.372239 0.774082 0.681554
O O3 0.102497 0.845482 0.597888
O O4 0.277564 0.058069 0.655324
O O5 0.467845 0.747268 0.113958
O O6 0.558299 0.945698 0.208058
O O7 0.387571 0.020796 0.073881
O O8 0.660274 0.949752 0.168778
O O9 0.250000 0.750000 0.500000
O O10 0.393509 0.505788 0.553581
O O11 0.560293 0.437746 0.235844
O O12 0.645560 0.522450 0.192959
O O13 0.212138 0.198709 0.287362
O O14 0.500000 0.765615 0.250000
#
# Coordination Sequence:
#
# PCOD8151743 Si02
#       7
#     8   8   8   4   8   8   8
#     4  12  23  41  67  94 130 168 217 266 320 385
#     4  11  23  44  67  94 129 171 211 271 322 385
#     4  12  27  44  64  92 133 177 221 265 319 385
#     4  12  22  40  66 100 128 164 216 276 332 374
#     4  11  25  43  66  96 131 173 214 266 327 388
#     4  11  24  40  69  98 131 161 218 270 329 389
#     4  11  21  39  67  99 124 165 207 269 321 381
#
# _framework density 20.680966000000002
#
# number of rings (size 3 to 8) (size 9 to 14) (size 15 to 20)
#    0.000    0.615    6.154    1.846    2.154    0.000 
#    0.000    0.769    0.000    0.000    0.000    0.000 
#    0.000    0.000    0.000    0.000    0.000    0.000 
#
# Total GULP energy -322417.762209 kJ/mol
# GULP energy per Si atom -12400.683162 kJ/mol
# Density = 2.063390 g / cm^3
# Si number density = 20.680966 Si / 1000 Ang^3
#
#
#
# Elastic Constant Matrix: (Units=GPa)
#
#
# Indices 1 2 3 4 5 6 
#
# 1 116.0494 33.9030 46.0765 0.0000 -0.1809 0.0000
# 2 33.9030 115.3736 62.6470 0.0000 -2.0530 0.0000
# 3 46.0765 62.6470 104.1624 0.0000 0.2036 0.0000
# 4 0.0000 0.0000 0.0000 34.8733 0.0000 1.6480
# 5 -0.1809 -2.0530 0.2036 0.0000 39.6404 0.0000
# 6 0.0000 0.0000 0.0000 1.6480 0.0000 33.7434
#
#
#
# Elastic Compliance Matrix: (Units=1/GPa)
#
#
# Indices 1 2 3 4 5 6 
#
# 1 0.010507 -0.000837 -0.004145 0.000000 0.000026 0.000000
# 2 -0.000837 0.012957 -0.007424 0.000000 0.000705 0.000000
# 3 -0.004145 -0.007424 0.015900 0.000000 -0.000485 0.000000
# 4 0.000000 0.000000 0.000000 0.028742 0.000000 -0.001404
# 5 0.000026 0.000705 -0.000485 0.000000 0.025266 0.000000
# 6 0.000000 0.000000 0.000000 -0.001404 0.000000 0.029704
#
#
# Mechanical properties :
#
#
# Convention : Reuss Voigt Hill
#
# Bulk Modulus (GPa) = 68.71351 68.98207 68.84779
# Shear Modulus (GPa) = 32.73582 34.51535 33.62559
#
# Velocity S-wave (km/s) = 3.98288 4.08970 4.03664
# Velocity P-wave (km/s) = 7.37894 7.46516 7.42217
#
# Compressibility (1/GPa) = 0.01455318
#
# Stress axis : x y z
#
# Youngs Moduli (GPa) = 95.17378 77.17729 62.89302
#
# Poissons Ratio (x) = 0.06456 0.26068
# Poissons Ratio (y) = 0.07961 0.46693
# Poissons Ratio (z) = 0.39448 0.57298
#
# Static dielectric constant tensor:
#      x y z
#    x 3.893320 0.000000 -0.062300 
#    y 0.000000 3.703470 0.000000 
#    z -0.062300 0.000000 3.613380 
# 
# 
# High freq. dielectric constant tensor:
#      x y z
#    x 1.825210 0.000000 0.001160 
#    y 0.000000 1.817450 0.000000 
#    z 0.001160 0.000000 1.793210 
# 
# From -- ./inp_files/242521.got.cif
#   From: 2010.06.25/outbox.cif.g09.slc.cpg/sg15_122_cif.got.tgz:242521.got - 2010.06.28 07:06:18.
