data_PCOD8151924
_publ_section_title
;
Structure prediction by ZEFSAII (Michael W. Deem and Ramdas Pophale) SiO2 
 PCOD8151924
Probable space group: C 2/C
;
_chemical_formula_sum "Si O2"
_cell_formula_units_Z 44
_cell_length_a 13.589781
_cell_length_b 16.496563
_cell_length_c 9.816046
_cell_angle_alpha 90.000000
_cell_angle_beta 68.434307
_cell_angle_gamma 90.000000
_cell_volume 2046.557446
_symmetry_space_group_name_H-M "C 2/C"
_symmetry_group_IT_number 15
_symmetry_cell_setting 'monoclinic'
loop_
_space_group_symop_operation_xyz
x,y,z
-x,y,1/2-z
-x,-y,-z
x,-y,1/2+z
1/2+x,1/2+y,z
1/2-x,1/2+y,1/2-z
1/2-x,1/2-y,-z
1/2+x,1/2-y,1/2+z
loop_
_atom_site_type_symbol
_atom_site_label
_atom_site_fract_x
_atom_site_fract_y
_atom_site_fract_z
Si Si1 0.313685 0.261705 0.105106
Si Si2 0.500000 0.943493 0.250000
Si Si3 0.034225 0.205219 0.378553
Si Si4 0.222646 0.904013 0.726672
Si Si5 0.798587 0.481366 0.956906
Si Si6 0.338814 0.850127 0.143522
O O1 0.302992 0.173934 0.186407
O O2 0.262641 0.336347 0.210700
O O3 0.250000 0.250000 0.000000
O O4 0.430757 0.297549 0.024719
O O5 0.431673 0.893627 0.177927
O O6 0.421583 0.996019 0.382501
O O7 0.099553 0.122306 0.313132
O O8 0.114870 0.262504 0.419952
O O9 0.000000 0.242952 0.250000
O O10 0.233934 0.950861 0.576027
O O11 0.251197 0.968435 0.830194
O O12 0.796846 0.395413 0.032780
#
# Coordination Sequence:
#
# PCOD8151924 Si02
#       6
#     8   4   8   8   8   8
#     4  11  21  42  71  96 130 172 229 274 331 394
#     4  12  22  40  68 100 126 172 220 276 352 388
#     4  11  22  40  70  99 127 180 226 267 335 397
#     4  11  26  44  69  99 139 176 225 275 333 399
#     4  12  26  43  64 103 139 175 217 283 338 399
#     4  11  22  40  69  96 129 169 226 281 323 400
#
# _framework density 21.499518999999999
#
# number of rings (size 3 to 8) (size 9 to 14) (size 15 to 20)
#    0.000    0.727    6.364    2.727    2.545    2.909 
#    0.000    6.364    0.000    0.000    0.000    0.000 
#    0.000    0.000    0.000    0.000    0.000    0.000 
#
# Total GULP energy -272629.385174 kJ/mol
# GULP energy per Si atom -12392.244781 kJ/mol
# Density = 2.145059 g / cm^3
# Si number density = 21.499519 Si / 1000 Ang^3
#
#
#
# Elastic Constant Matrix: (Units=GPa)
#
#
# Indices 1 2 3 4 5 6 
#
# 1 81.1332 34.2271 58.6058 0.0000 -42.3515 0.0000
# 2 34.2271 84.8101 49.5872 0.0000 -14.5372 0.0000
# 3 58.6058 49.5872 127.8908 0.0000 -30.6150 0.0000
# 4 0.0000 0.0000 0.0000 42.6779 0.0000 1.1021
# 5 -42.3515 -14.5372 -30.6150 0.0000 50.9349 0.0000
# 6 0.0000 0.0000 0.0000 1.1021 0.0000 32.6268
#
#
#
# Elastic Compliance Matrix: (Units=1/GPa)
#
#
# Indices 1 2 3 4 5 6 
#
# 1 0.029051 -0.004339 -0.007177 0.000000 0.018603 0.000000
# 2 -0.004339 0.015934 -0.004631 0.000000 -0.001844 0.000000
# 3 -0.007177 -0.004631 0.013034 0.000000 0.000545 0.000000
# 4 0.000000 0.000000 0.000000 0.023452 0.000000 -0.000792
# 5 0.018603 -0.001844 0.000545 0.000000 0.034903 0.000000
# 6 0.000000 0.000000 0.000000 -0.000792 0.000000 0.030676
#
#
# Mechanical properties :
#
#
# Convention : Reuss Voigt Hill
#
# Bulk Modulus (GPa) = 38.87311 64.29715 51.58513
# Shear Modulus (GPa) = 26.60728 35.34218 30.97473
#
# Velocity S-wave (km/s) = 3.52174 4.05885 3.79980
# Velocity P-wave (km/s) = 5.88702 7.20673 6.58004
#
# Compressibility (1/GPa) = 0.02572472
#
# Stress axis : x y z
#
# Youngs Moduli (GPa) = 34.42234 62.75940 76.72248
#
# Poissons Ratio (x) = 0.27233 0.55062
# Poissons Ratio (y) = 0.14937 0.35530
# Poissons Ratio (z) = 0.24704 0.29064
#
# Static dielectric constant tensor:
#      x y z
#    x 3.831520 0.000000 -0.388160 
#    y 0.000000 4.061800 0.000000 
#    z -0.388160 0.000000 4.323140 
# 
# 
# High freq. dielectric constant tensor:
#      x y z
#    x 1.822620 0.000000 -0.019480 
#    y 0.000000 1.846010 0.000000 
#    z -0.019480 0.000000 1.849740 
# 
# From -- ./inp_files/39537.got.cif
#   From: 2010.06.25/outbox.cif.g09.slc.cpg/sg15_20_cif.got.tgz:39537.got - 2010.06.28 07:06:18.
