data_PCOD8151699
_publ_section_title
;
Structure prediction by ZEFSAII (Michael W. Deem and Ramdas Pophale) SiO2 
 PCOD8151699
Probable space group: C 2/C
;
_chemical_formula_sum "Si O2"
_cell_formula_units_Z 52
_cell_length_a 9.285519
_cell_length_b 15.306727
_cell_length_c 19.580433
_cell_angle_alpha 90.000000
_cell_angle_beta 79.184871
_cell_angle_gamma 90.000000
_cell_volume 2733.552549
_symmetry_space_group_name_H-M "C 2/C"
_symmetry_group_IT_number 15
_symmetry_cell_setting 'monoclinic'
loop_
_space_group_symop_operation_xyz
x,y,z
-x,y,1/2-z
-x,-y,-z
x,-y,1/2+z
1/2+x,1/2+y,z
1/2-x,1/2+y,1/2-z
1/2-x,1/2-y,-z
1/2+x,1/2-y,1/2+z
loop_
_atom_site_type_symbol
_atom_site_label
_atom_site_fract_x
_atom_site_fract_y
_atom_site_fract_z
Si Si1 0.093271 0.524139 0.425890
Si Si2 0.426269 0.536396 0.394016
Si Si3 0.444985 0.273268 0.920956
Si Si4 0.528351 0.887479 0.166971
Si Si5 0.500000 0.527674 0.750000
Si Si6 0.399066 0.217935 0.070028
Si Si7 0.633479 0.390193 0.358310
O O1 0.262308 0.520797 0.436027
O O2 0.053203 0.623165 0.405927
O O3 0.000000 0.500000 0.500000
O O4 0.063765 0.461090 0.364423
O O5 0.502986 0.627803 0.407813
O O6 0.415245 0.533084 0.311876
O O7 0.464816 0.540478 0.589332
O O8 0.515617 0.208400 0.858079
O O9 0.272273 0.280882 0.928548
O O10 0.486239 0.236767 0.991963
O O11 0.500000 0.892156 0.250000
O O12 0.699080 0.901930 0.134137
O O13 0.383208 0.589994 0.721014
O O14 0.432002 0.293785 0.121917
#
# Coordination Sequence:
#
# PCOD8151699 Si02
#       7
#     8   8   8   8   4   8   8
#     4  11  21  39  58  83 119 152 183 240 295 331
#     4   9  20  36  61  79 114 151 188 231 281 341
#     4   9  18  34  58  83 109 144 195 226 273 345
#     4  11  22  36  59  87 111 147 195 241 282 342
#     4   8  18  38  58  80 112 146 192 230 288 322
#     4   9  18  36  56  81 110 152 181 229 289 336
#     4   9  20  38  60  78 113 149 194 229 281 346
#
# _framework density 19.022866
#
# number of rings (size 3 to 8) (size 9 to 14) (size 15 to 20)
#    0.923    1.538    1.538    0.923    3.231    0.615 
#    1.385    2.308    0.000    0.000    0.000    0.000 
#    0.000    0.000    0.000    0.000    0.000    0.000 
#
# Total GULP energy -322162.904377 kJ/mol
# GULP energy per Si atom -12390.880938 kJ/mol
# Density = 1.897957 g / cm^3
# Si number density = 19.022866 Si / 1000 Ang^3
#
#
#
# Elastic Constant Matrix: (Units=GPa)
#
#
# Indices 1 2 3 4 5 6 
#
# 1 51.0804 36.3797 1.2658 0.0000 -9.4658 0.0000
# 2 36.3797 163.4628 26.7344 0.0000 -10.7945 0.0000
# 3 1.2658 26.7344 67.5123 0.0000 -16.7437 0.0000
# 4 0.0000 0.0000 0.0000 38.1536 0.0000 3.8828
# 5 -9.4658 -10.7945 -16.7437 0.0000 22.3575 0.0000
# 6 0.0000 0.0000 0.0000 3.8828 0.0000 25.7791
#
#
#
# Elastic Compliance Matrix: (Units=1/GPa)
#
#
# Indices 1 2 3 4 5 6 
#
# 1 0.025679 -0.005710 0.004657 0.000000 0.011603 0.000000
# 2 -0.005710 0.007852 -0.003269 0.000000 -0.001075 0.000000
# 3 0.004657 -0.003269 0.019793 0.000000 0.015217 0.000000
# 4 0.000000 0.000000 0.000000 0.026618 0.000000 -0.004009
# 5 0.011603 -0.001075 0.015217 0.000000 0.060517 0.000000
# 6 0.000000 0.000000 0.000000 -0.004009 0.000000 0.039395
#
#
# Mechanical properties :
#
#
# Convention : Reuss Voigt Hill
#
# Bulk Modulus (GPa) = 22.38121 45.64614 34.01367
# Shear Modulus (GPa) = 24.58314 31.76974 28.17644
#
# Velocity S-wave (km/s) = 3.59875 4.09110 3.85280
# Velocity P-wave (km/s) = 5.39064 6.80908 6.14095
#
# Compressibility (1/GPa) = 0.04468035
#
# Stress axis : x y z
#
# Youngs Moduli (GPa) = 38.94273 127.35340 50.52243
#
# Poissons Ratio (x) = 0.72725 -0.23531
# Poissons Ratio (y) = 0.22238 0.16515
# Poissons Ratio (z) = -0.18138 0.41630
#
# Static dielectric constant tensor:
#      x y z
#    x 3.128580 0.000000 -0.066620 
#    y 0.000000 3.827580 0.000000 
#    z -0.066620 0.000000 3.375260 
# 
# 
# High freq. dielectric constant tensor:
#      x y z
#    x 1.704640 0.000000 -0.008970 
#    y 0.000000 1.752080 0.000000 
#    z -0.008970 0.000000 1.732600 
# 
# From -- ./inp_files/197276.got.cif
#   From: 2010.06.25/outbox.cif.g09.slc.cpg/sg15_99_cif.got.tgz:197276.got - 2010.06.28 07:06:18.
