data_PCOD8151123
_publ_section_title
;
Structure prediction by ZEFSAII (Michael W. Deem and Ramdas Pophale) SiO2 
 PCOD8151123
Probable space group: C 2/C
;
_chemical_formula_sum "Si O2"
_cell_formula_units_Z 40
_cell_length_a 21.813885
_cell_length_b 8.821363
_cell_length_c 17.861446
_cell_angle_alpha 90.000000
_cell_angle_beta 149.763020
_cell_angle_gamma 90.000000
_cell_volume 1730.819531
_symmetry_space_group_name_H-M "C 2/C"
_symmetry_group_IT_number 15
_symmetry_cell_setting 'monoclinic'
loop_
_space_group_symop_operation_xyz
x,y,z
-x,y,1/2-z
-x,-y,-z
x,-y,1/2+z
1/2+x,1/2+y,z
1/2-x,1/2+y,1/2-z
1/2-x,1/2-y,-z
1/2+x,1/2-y,1/2+z
loop_
_atom_site_type_symbol
_atom_site_label
_atom_site_fract_x
_atom_site_fract_y
_atom_site_fract_z
Si Si1 0.131788 0.160866 0.904366
Si Si2 0.195253 0.332359 0.627771
Si Si3 0.760421 0.012772 0.349547
Si Si4 0.847628 0.846472 0.650824
Si Si5 0.476419 0.931859 0.306712
O O1 0.000000 0.243762 0.750000
O O2 0.123043 0.006201 0.850942
O O3 0.250000 0.250000 0.000000
O O4 0.143573 0.119398 0.004871
O O5 0.218596 0.389221 0.735386
O O6 0.308084 0.371765 0.694613
O O7 0.086703 0.439247 0.481445
O O8 0.179046 0.148206 0.610097
O O9 0.646604 0.994285 0.286228
O O10 0.750000 0.750000 0.500000
O O11 0.969369 0.748001 0.782809
O O12 0.500000 0.012158 0.250000
#
# Coordination Sequence:
#
# PCOD8151123 Si02
#       5
#     8   8   8   8   8
#     4  12  27  49  71 105 144 190 250 304 360 429
#     4  11  23  41  68 100 146 176 234 286 361 429
#     4  11  25  45  65 105 138 184 230 294 365 423
#     4  11  20  42  72  98 131 188 242 292 343 433
#     4  11  19  40  75  99 130 183 243 291 344 432
#
# _framework density 23.110439
#
# number of rings (size 3 to 8) (size 9 to 14) (size 15 to 20)
#    0.000    0.800    6.000    2.400    2.800    2.400 
#    7.200    5.000    0.000    0.000    0.000    0.000 
#    0.000    0.000    0.000    0.000    0.000    0.000 
#
# Total GULP energy -247778.617334 kJ/mol
# GULP energy per Si atom -12388.930867 kJ/mol
# Density = 2.305784 g / cm^3
# Si number density = 23.110439 Si / 1000 Ang^3
#
#
#
# Elastic Constant Matrix: (Units=GPa)
#
#
# Indices 1 2 3 4 5 6 
#
# 1 120.1350 28.2074 56.6935 0.0000 -20.9858 0.0000
# 2 28.2074 74.5237 30.9759 0.0000 -9.6335 0.0000
# 3 56.6935 30.9759 153.1362 0.0000 -22.5798 0.0000
# 4 0.0000 0.0000 0.0000 30.9926 0.0000 -7.3878
# 5 -20.9858 -9.6335 -22.5798 0.0000 51.6953 0.0000
# 6 0.0000 0.0000 0.0000 -7.3878 0.0000 34.2076
#
#
#
# Elastic Compliance Matrix: (Units=1/GPa)
#
#
# Indices 1 2 3 4 5 6 
#
# 1 0.010829 -0.002465 -0.003132 0.000000 0.002569 0.000000
# 2 -0.002465 0.015326 -0.002046 0.000000 0.000962 0.000000
# 3 -0.003132 -0.002046 0.008401 0.000000 0.002017 0.000000
# 4 0.000000 0.000000 0.000000 0.034017 0.000000 0.007347
# 5 0.002569 0.000962 0.002017 0.000000 0.021447 0.000000
# 6 0.000000 0.000000 0.000000 0.007347 0.000000 0.030820
#
#
# Mechanical properties :
#
#
# Convention : Reuss Voigt Hill
#
# Bulk Modulus (GPa) = 51.89102 64.39425 58.14263
# Shear Modulus (GPa) = 35.07553 38.84030 36.95792
#
# Velocity S-wave (km/s) = 3.90004 4.10401 4.00332
# Velocity P-wave (km/s) = 6.54084 7.09798 6.82510
#
# Compressibility (1/GPa) = 0.01927116
#
# Stress axis : x y z
#
# Youngs Moduli (GPa) = 92.34051 65.24757 119.03700
#
# Poissons Ratio (x) = 0.16085 0.37280
# Poissons Ratio (y) = 0.22763 0.24351
# Poissons Ratio (z) = 0.28919 0.13348
#
# Static dielectric constant tensor:
#      x y z
#    x 4.287910 0.000000 0.081260 
#    y 0.000000 4.029950 0.000000 
#    z 0.081260 0.000000 4.685770 
# 
# 
# High freq. dielectric constant tensor:
#      x y z
#    x 1.913910 0.000000 -0.004220 
#    y 0.000000 1.917440 0.000000 
#    z -0.004220 0.000000 1.916730 
# 
# From -- ./inp_files/218813.got.cif
#   From: 2010.06.25/outbox.cif.g09.slc.cpg/sg15_110_cif.got.tgz:218813.got - 2010.06.28 07:06:18.
