data_PCOD8151208
_publ_section_title
;
Structure prediction by ZEFSAII (Michael W. Deem and Ramdas Pophale) SiO2 
 PCOD8151208
Probable space group: C 2/C
;
_chemical_formula_sum "Si O2"
_cell_formula_units_Z 60
_cell_length_a 21.774179
_cell_length_b 17.312035
_cell_length_c 9.120285
_cell_angle_alpha 90.000000
_cell_angle_beta 61.914027
_cell_angle_gamma 90.000000
_cell_volume 3033.095772
_symmetry_space_group_name_H-M "C 2/C"
_symmetry_group_IT_number 15
_symmetry_cell_setting 'monoclinic'
loop_
_space_group_symop_operation_xyz
x,y,z
-x,y,1/2-z
-x,-y,-z
x,-y,1/2+z
1/2+x,1/2+y,z
1/2-x,1/2+y,1/2-z
1/2-x,1/2-y,-z
1/2+x,1/2-y,1/2+z
loop_
_atom_site_type_symbol
_atom_site_label
_atom_site_fract_x
_atom_site_fract_y
_atom_site_fract_z
Si Si1 0.881954 0.010402 0.143486
Si Si2 0.500000 0.130580 0.750000
Si Si3 0.654253 0.087493 0.107627
Si Si4 0.989249 0.252555 0.006636
Si Si5 0.313658 0.579240 0.961323
Si Si6 0.112335 0.757127 0.136293
Si Si7 0.423750 0.019633 0.022708
Si Si8 0.486092 0.407646 0.921137
O O1 0.854618 0.990584 0.335064
O O2 0.952989 0.059613 0.042893
O O3 0.906731 0.926317 0.056294
O O4 0.823070 0.057178 0.121373
O O5 0.477490 0.175567 0.628129
O O6 0.433786 0.079315 0.875638
O O7 0.658148 0.180262 0.096025
O O8 0.622119 0.056672 0.296459
O O9 0.613206 0.054563 0.011091
O O10 0.734502 0.065079 0.006314
O O11 0.920252 0.238619 0.989249
O O12 0.053999 0.257622 0.824208
O O13 0.004610 0.183357 0.099298
O O14 0.341936 0.665291 0.890783
O O15 0.500000 0.000000 0.000000
O O16 0.500000 0.446372 0.750000
#
# Coordination Sequence:
#
# PCOD8151208 Si02
#       8
#     8   4   8   8   8   8   8   8
#     4  11  23  37  61  92 123 169 213 259 297 369
#     4  12  22  38  68  96 124 148 204 276 320 364
#     4  12  26  43  66  92 128 168 207 260 327 380
#     4  11  22  36  65  95 124 160 208 266 310 358
#     4  12  24  43  61  91 134 172 209 250 315 393
#     4  11  24  40  63  93 122 169 214 254 309 372
#     4  12  24  44  69  96 119 156 213 273 321 369
#     4  11  20  35  62  90 125 163 213 254 311 352
#
# _framework density 19.781769000000001
#
# number of rings (size 3 to 8) (size 9 to 14) (size 15 to 20)
#    0.000    0.533    7.333    2.000    1.867    0.000 
#    0.000    0.000    0.000    0.800    0.000    0.000 
#    0.000    0.000    0.000    0.000    0.000    0.000 
#
# Total GULP energy -371681.074133 kJ/mol
# GULP energy per Si atom -12389.369138 kJ/mol
# Density = 1.973675 g / cm^3
# Si number density = 19.781769 Si / 1000 Ang^3
#
#
#
# Elastic Constant Matrix: (Units=GPa)
#
#
# Indices 1 2 3 4 5 6 
#
# 1 104.2447 27.1305 23.2626 0.0000 -0.2413 0.0000
# 2 27.1305 98.5802 26.8454 0.0000 4.0606 0.0000
# 3 23.2626 26.8454 81.1369 0.0000 7.6241 0.0000
# 4 0.0000 0.0000 0.0000 35.9506 0.0000 6.1493
# 5 -0.2413 4.0606 7.6241 0.0000 28.7310 0.0000
# 6 0.0000 0.0000 0.0000 6.1493 0.0000 25.7100
#
#
#
# Elastic Compliance Matrix: (Units=1/GPa)
#
#
# Indices 1 2 3 4 5 6 
#
# 1 0.010742 -0.002345 -0.002403 0.000000 0.001059 0.000000
# 2 -0.002345 0.011671 -0.003110 0.000000 -0.000844 0.000000
# 3 -0.002403 -0.003110 0.014362 0.000000 -0.003392 0.000000
# 4 0.000000 0.000000 0.000000 0.029002 0.000000 -0.006937
# 5 0.001059 -0.000844 -0.003392 0.000000 0.035834 0.000000
# 6 0.000000 0.000000 0.000000 -0.006937 0.000000 0.040555
#
#
# Mechanical properties :
#
#
# Convention : Reuss Voigt Hill
#
# Bulk Modulus (GPa) = 47.48915 48.71541 48.10228
# Shear Modulus (GPa) = 30.32105 31.85988 31.09046
#
# Velocity S-wave (km/s) = 3.91932 4.01754 3.96873
# Velocity P-wave (km/s) = 6.67383 6.79711 6.73575
#
# Compressibility (1/GPa) = 0.02105744
#
# Stress axis : x y z
#
# Youngs Moduli (GPa) = 93.09240 85.68128 69.63043
#
# Poissons Ratio (x) = 0.20097 0.16734
# Poissons Ratio (y) = 0.21835 0.21654
# Poissons Ratio (z) = 0.22373 0.26645
#
# Static dielectric constant tensor:
#      x y z
#    x 3.419390 0.000000 0.055670 
#    y 0.000000 3.772860 0.000000 
#    z 0.055670 0.000000 3.620570 
# 
# 
# High freq. dielectric constant tensor:
#      x y z
#    x 1.754860 0.000000 0.010030 
#    y 0.000000 1.781770 0.000000 
#    z 0.010030 0.000000 1.777780 
# 
# From -- ./inp_files/56556.got.cif
#   From: 2010.06.25/outbox.cif.g09.slc.cpg/sg15_29_cif.got.tgz:56556.got - 2010.06.28 07:06:18.
