data_PCOD8151770
_publ_section_title
;
Structure prediction by ZEFSAII (Michael W. Deem and Ramdas Pophale) SiO2 
 PCOD8151770
Probable space group: C 2/C
;
_chemical_formula_sum "Si O2"
_cell_formula_units_Z 64
_cell_length_a 18.284816
_cell_length_b 9.251146
_cell_length_c 26.751050
_cell_angle_alpha 90.000000
_cell_angle_beta 39.976661
_cell_angle_gamma 90.000000
_cell_volume 2907.257790
_symmetry_space_group_name_H-M "C 2/C"
_symmetry_group_IT_number 15
_symmetry_cell_setting 'monoclinic'
loop_
_space_group_symop_operation_xyz
x,y,z
-x,y,1/2-z
-x,-y,-z
x,-y,1/2+z
1/2+x,1/2+y,z
1/2-x,1/2+y,1/2-z
1/2-x,1/2-y,-z
1/2+x,1/2-y,1/2+z
loop_
_atom_site_type_symbol
_atom_site_label
_atom_site_fract_x
_atom_site_fract_y
_atom_site_fract_z
Si Si1 0.243125 0.341710 0.426477
Si Si2 0.426911 0.115355 0.568329
Si Si3 0.640650 0.950570 0.797048
Si Si4 0.626927 0.613811 0.177037
Si Si5 0.104419 0.364799 0.596592
Si Si6 0.284598 0.846530 0.436012
Si Si7 0.248818 0.771363 0.304394
Si Si8 0.079706 0.131591 0.973304
O O1 0.178366 0.316419 0.408123
O O2 0.295408 0.502091 0.394837
O O3 0.150865 0.312655 0.518460
O O4 0.348154 0.232558 0.382377
O O5 0.384582 0.038205 0.639733
O O6 0.506700 0.249045 0.541087
O O7 0.500000 0.000000 0.500000
O O8 0.695031 0.069868 0.731635
O O9 0.531875 0.871166 0.829705
O O10 0.723111 0.813763 0.766002
O O11 0.500000 0.552235 0.250000
O O12 0.628714 0.761050 0.144869
O O13 0.674027 0.654943 0.206787
O O14 0.143958 0.526589 0.579173
O O15 0.250000 0.750000 0.500000
O O16 0.178650 0.912644 0.460186
O O17 0.131889 0.797709 0.395878
O O18 0.000000 0.000000 0.000000
#
# Coordination Sequence:
#
# PCOD8151770 Si02
#       8
#     8   8   8   8   8   8   8   8
#     4  11  22  41  67  96 131 167 224 280 330 417
#     4  12  20  43  71  95 128 181 222 283 357 398
#     4  12  25  44  70  97 137 181 231 291 348 419
#     4  11  23  44  64  91 132 178 214 267 344 412
#     4  11  23  40  66 101 129 169 223 283 340 393
#     4  11  21  40  63  97 129 167 220 271 332 401
#     4  11  26  46  65  98 137 179 234 278 349 425
#     4  11  24  41  66  97 131 173 229 282 337 416
#
# _framework density 22.013871000000002
#
# number of rings (size 3 to 8) (size 9 to 14) (size 15 to 20)
#    0.000    0.750    5.000    3.000    1.750    2.000 
#    0.000    0.625    0.000    0.000    0.000    0.000 
#    0.000    0.000    0.000    0.000    0.000    0.000 
#
# Total GULP energy -396720.008597 kJ/mol
# GULP energy per Si atom -12397.500269 kJ/mol
# Density = 2.196377 g / cm^3
# Si number density = 22.013871 Si / 1000 Ang^3
#
#
#
# Elastic Constant Matrix: (Units=GPa)
#
#
# Indices 1 2 3 4 5 6 
#
# 1 94.3396 21.9466 23.3871 0.0000 -14.0056 -0.0005
# 2 21.9466 76.5819 13.2496 0.0000 -13.0890 -0.0006
# 3 23.3871 13.2496 59.9986 0.0001 -16.0271 -0.0001
# 4 0.0000 0.0000 0.0001 37.9691 0.0000 -2.2633
# 5 -14.0056 -13.0890 -16.0271 0.0000 30.8656 0.0000
# 6 -0.0005 -0.0006 -0.0001 -2.2633 0.0000 47.1761
#
#
#
# Elastic Compliance Matrix: (Units=1/GPa)
#
#
# Indices 1 2 3 4 5 6 
#
# 1 0.012473 -0.002486 -0.003579 0.000000 0.002747 0.000000
# 2 -0.002486 0.014735 -0.001065 0.000000 0.004568 0.000000
# 3 -0.003579 -0.001065 0.020600 0.000000 0.008621 0.000000
# 4 0.000000 0.000000 0.000000 0.026413 0.000000 0.001267
# 5 0.002747 0.004568 0.008621 0.000000 0.040059 0.000000
# 6 0.000000 0.000000 0.000000 0.001267 0.000000 0.021258
#
#
# Mechanical properties :
#
#
# Convention : Reuss Voigt Hill
#
# Bulk Modulus (GPa) = 29.80709 38.67630 34.24169
# Shear Modulus (GPa) = 31.05949 34.69128 32.87538
#
# Velocity S-wave (km/s) = 3.76028 3.97405 3.86864
# Velocity P-wave (km/s) = 5.69407 6.21809 5.96184
#
# Compressibility (1/GPa) = 0.03354907
#
# Stress axis : x y z
#
# Youngs Moduli (GPa) = 80.17022 67.86459 48.54295
#
# Poissons Ratio (x) = 0.16870 0.17375
# Poissons Ratio (y) = 0.19929 0.05169
# Poissons Ratio (z) = 0.28695 0.07227
#
# Static dielectric constant tensor:
#      x y z
#    x 4.171470 -0.000040 -0.039250 
#    y -0.000040 3.877640 0.000040 
#    z -0.039250 0.000040 3.980180 
# 
# 
# High freq. dielectric constant tensor:
#      x y z
#    x 1.873880 0.000000 -0.008770 
#    y 0.000000 1.872220 0.000000 
#    z -0.008770 0.000000 1.850950 
# 
# From -- ./inp_files/315673.got.cif
#   From: 2010.06.25/outbox.cif.g09.slc.cpg/sg15_158_cif.got.tgz:315673.got - 2010.06.28 07:06:18.
