data_PCOD8151028
_publ_section_title
;
Structure prediction by ZEFSAII (Michael W. Deem and Ramdas Pophale) SiO2 
 PCOD8151028
Probable space group: C 2/C
;
_chemical_formula_sum "Si O2"
_cell_formula_units_Z 64
_cell_length_a 9.017311
_cell_length_b 17.986543
_cell_length_c 31.707622
_cell_angle_alpha 90.000000
_cell_angle_beta 39.797331
_cell_angle_gamma 90.000000
_cell_volume 3291.687105
_symmetry_space_group_name_H-M "C 2/C"
_symmetry_group_IT_number 15
_symmetry_cell_setting 'monoclinic'
loop_
_space_group_symop_operation_xyz
x,y,z
-x,y,1/2-z
-x,-y,-z
x,-y,1/2+z
1/2+x,1/2+y,z
1/2-x,1/2+y,1/2-z
1/2-x,1/2-y,-z
1/2+x,1/2-y,1/2+z
loop_
_atom_site_type_symbol
_atom_site_label
_atom_site_fract_x
_atom_site_fract_y
_atom_site_fract_z
Si Si1 0.533177 0.397232 0.564790
Si Si2 0.921065 0.746163 0.104799
Si Si3 0.258842 0.051633 0.507443
Si Si4 0.612617 0.604790 0.849754
Si Si5 0.773500 0.103941 0.388122
Si Si6 0.098001 0.984490 0.272832
Si Si7 0.399991 0.677790 0.014666
Si Si8 0.918952 0.525660 0.312568
O O1 0.698030 0.465332 0.515000
O O2 0.615225 0.367605 0.592308
O O3 0.540828 0.332199 0.527846
O O4 0.262869 0.420315 0.625609
O O5 0.816113 0.809138 0.158569
O O6 0.759184 0.673728 0.136252
O O7 0.167854 0.725643 0.071220
O O8 0.940355 0.778914 0.053376
O O9 0.534037 0.062227 0.451377
O O10 0.162798 0.095395 0.487960
O O11 0.139520 0.086085 0.575406
O O12 0.607278 0.587194 0.801218
O O13 0.804582 0.554875 0.830642
O O14 0.945958 0.047803 0.327901
O O15 0.355054 0.016560 0.207551
O O16 0.000000 0.957341 0.250000
O O17 0.000000 0.559345 0.250000
#
# Coordination Sequence:
#
# PCOD8151028 Si02
#       8
#     8   8   8   8   8   8   8   8
#     4  11  19  32  59  89 118 153 196 242 296 341
#     4   9  20  38  55  83 123 156 187 227 304 360
#     4   9  18  34  56  91 120 147 188 239 298 349
#     4   9  18  40  63  79 116 159 185 236 300 352
#     4  11  21  36  59  92 123 149 190 248 301 348
#     4  11  23  38  60  90 111 149 205 254 290 334
#     4   9  19  34  55  83 121 159 187 228 289 371
#     4   9  18  37  58  80 111 149 194 245 290 340
#
# _framework density 19.442917000000001
#
# number of rings (size 3 to 8) (size 9 to 14) (size 15 to 20)
#    0.000    2.250    3.750    1.500    3.500    0.500 
#    0.000    3.125    0.000    0.750    0.000    0.000 
#    0.000    0.000    0.000    0.000    0.000    0.000 
#
# Total GULP energy -396723.083643 kJ/mol
# GULP energy per Si atom -12397.596364 kJ/mol
# Density = 1.939866 g / cm^3
# Si number density = 19.442917 Si / 1000 Ang^3
#
#
#
# Elastic Constant Matrix: (Units=GPa)
#
#
# Indices 1 2 3 4 5 6 
#
# 1 112.8824 27.5414 43.5501 -0.0102 2.9015 0.0088
# 2 27.5414 78.7011 22.3213 -0.0082 4.4595 0.0032
# 3 43.5501 22.3213 63.7447 -0.0170 -12.3884 0.0179
# 4 -0.0102 -0.0082 -0.0170 19.3543 0.0136 6.8421
# 5 2.9015 4.4595 -12.3884 0.0136 31.8678 -0.0132
# 6 0.0088 0.0032 0.0179 6.8421 -0.0132 22.9718
#
#
#
# Elastic Compliance Matrix: (Units=1/GPa)
#
#
# Indices 1 2 3 4 5 6 
#
# 1 0.012889 -0.001680 -0.009086 0.000001 -0.004471 -0.000001
# 2 -0.001680 0.014869 -0.004796 0.000004 -0.003792 -0.000001
# 3 -0.009086 -0.004796 0.025816 0.000012 0.011534 -0.000013
# 4 0.000001 0.000004 0.000012 0.057749 -0.000028 -0.017200
# 5 -0.004471 -0.003792 0.011534 -0.000028 0.036801 0.000023
# 6 -0.000001 -0.000001 -0.000013 -0.017200 0.000023 0.048655
#
#
# Mechanical properties :
#
#
# Convention : Reuss Voigt Hill
#
# Bulk Modulus (GPa) = 44.54319 49.12820 46.83570
# Shear Modulus (GPa) = 21.24156 25.63314 23.43735
#
# Velocity S-wave (km/s) = 3.30890 3.63489 3.47572
# Velocity P-wave (km/s) = 6.12845 6.55281 6.34418
#
# Compressibility (1/GPa) = 0.02245012
#
# Stress axis : x y z
#
# Youngs Moduli (GPa) = 77.58475 67.25238 38.73525
#
# Poissons Ratio (x) = 0.11299 0.35196
# Poissons Ratio (y) = 0.13035 0.18577
# Poissons Ratio (z) = 0.70496 0.32253
#
# Static dielectric constant tensor:
#      x y z
#    x 3.554260 -0.000010 -0.067780 
#    y -0.000010 3.442950 0.000020 
#    z -0.067780 0.000020 3.642120 
# 
# 
# High freq. dielectric constant tensor:
#      x y z
#    x 1.753790 0.000000 -0.005640 
#    y 0.000000 1.737120 0.000000 
#    z -0.005640 0.000000 1.747630 
# 
# From -- ./inp_files/308761.got.cif
#   From: 2010.06.25/outbox.cif.g09.slc.cpg/sg15_155_cif.got.tgz:308761.got - 2010.06.28 07:06:18.
