data_PCOD8151587
_publ_section_title
;
Structure prediction by ZEFSAII (Michael W. Deem and Ramdas Pophale) SiO2 
 PCOD8151587
Probable space group: C 2/C
;
_chemical_formula_sum "Si O2"
_cell_formula_units_Z 60
_cell_length_a 7.764483
_cell_length_b 17.270162
_cell_length_c 24.806437
_cell_angle_alpha 90.000000
_cell_angle_beta 121.787427
_cell_angle_gamma 90.000000
_cell_volume 2827.460298
_symmetry_space_group_name_H-M "C 2/C"
_symmetry_group_IT_number 15
_symmetry_cell_setting 'monoclinic'
loop_
_space_group_symop_operation_xyz
x,y,z
-x,y,1/2-z
-x,-y,-z
x,-y,1/2+z
1/2+x,1/2+y,z
1/2-x,1/2+y,1/2-z
1/2-x,1/2-y,-z
1/2+x,1/2-y,1/2+z
loop_
_atom_site_type_symbol
_atom_site_label
_atom_site_fract_x
_atom_site_fract_y
_atom_site_fract_z
Si Si1 0.274064 0.050634 0.074994
Si Si2 0.787351 0.710531 0.125068
Si Si3 0.647118 0.736576 0.623747
Si Si4 0.471754 0.572835 0.568698
Si Si5 0.730163 0.332078 0.294270
Si Si6 0.000000 0.709508 0.750000
Si Si7 0.939411 0.291972 0.004916
Si Si8 0.896386 0.436122 0.413197
O O1 0.310035 0.118231 0.124882
O O2 0.479101 0.012751 0.083815
O O3 0.154841 0.089410 0.006037
O O4 0.135707 0.992927 0.085857
O O5 0.735004 0.744565 0.175700
O O6 0.640507 0.745945 0.055074
O O7 0.008863 0.744547 0.151703
O O8 0.608145 0.647490 0.602652
O O9 0.591561 0.792161 0.564535
O O10 0.877283 0.754469 0.682106
O O11 0.312747 0.546763 0.589082
O O12 0.500000 0.356847 0.250000
O O13 0.830283 0.341070 0.252073
O O14 0.843484 0.392795 0.350109
O O15 0.955738 0.381480 0.026271
O O16 0.750000 0.250000 0.000000
#
# Coordination Sequence:
#
# PCOD8151587 Si02
#       8
#     8   8   8   8   8   4   8   8
#     4  11  24  38  63 101 142 167 206 269 342 395
#     4  11  22  42  67  96 134 168 213 283 331 383
#     4  12  21  41  68  94 130 175 225 274 328 392
#     4  11  21  40  62  96 138 171 208 263 334 399
#     4  11  22  44  71  94 127 171 233 277 320 395
#     4  12  24  40  68 100 122 168 232 280 322 390
#     4  11  21  36  65 101 130 166 221 268 329 392
#     4  11  23  41  66 100 132 175 220 269 333 402
#
# _framework density 21.220455999999999
#
# number of rings (size 3 to 8) (size 9 to 14) (size 15 to 20)
#    0.000    0.800    5.333    4.800    1.867    0.000 
#    2.400    0.000   10.267    0.000    0.000    0.000 
#    0.000    0.000    0.000    0.000    0.000    0.000 
#
# Total GULP energy -371822.201485 kJ/mol
# GULP energy per Si atom -12394.073383 kJ/mol
# Density = 2.117216 g / cm^3
# Si number density = 21.220456 Si / 1000 Ang^3
#
#
#
# Elastic Constant Matrix: (Units=GPa)
#
#
# Indices 1 2 3 4 5 6 
#
# 1 113.5858 11.7737 28.2955 0.0000 -1.7625 0.0000
# 2 11.7737 90.8500 27.4597 0.0000 1.5499 0.0000
# 3 28.2955 27.4597 97.5755 0.0000 9.0773 0.0000
# 4 0.0000 0.0000 0.0000 12.1311 0.0000 1.9483
# 5 -1.7625 1.5499 9.0773 0.0000 42.2602 0.0000
# 6 0.0000 0.0000 0.0000 1.9483 0.0000 10.2532
#
#
#
# Elastic Compliance Matrix: (Units=1/GPa)
#
#
# Indices 1 2 3 4 5 6 
#
# 1 0.009547 -0.000426 -0.002742 0.000000 0.001003 0.000000
# 2 -0.000426 0.012053 -0.003292 0.000000 0.000247 0.000000
# 3 -0.002742 -0.003292 0.012213 0.000000 -0.002617 0.000000
# 4 0.000000 0.000000 0.000000 0.085027 0.000000 -0.016156
# 5 0.001003 0.000247 -0.002617 0.000000 0.024258 0.000000
# 6 0.000000 0.000000 0.000000 -0.016156 0.000000 0.100600
#
#
# Mechanical properties :
#
#
# Convention : Reuss Voigt Hill
#
# Bulk Modulus (GPa) = 47.85848 48.56324 48.21086
# Shear Modulus (GPa) = 18.96949 28.56106 23.76527
#
# Velocity S-wave (km/s) = 2.99310 3.67266 3.35016
# Velocity P-wave (km/s) = 5.87765 6.39682 6.14273
#
# Compressibility (1/GPa) = 0.02089494
#
# Stress axis : x y z
#
# Youngs Moduli (GPa) = 104.74905 82.96716 81.87760
#
# Poissons Ratio (x) = 0.03531 0.22450
# Poissons Ratio (y) = 0.04458 0.26950
# Poissons Ratio (z) = 0.28721 0.27309
#
# Static dielectric constant tensor:
#      x y z
#    x 3.921600 0.000000 -0.170290 
#    y 0.000000 3.616850 0.000000 
#    z -0.170290 0.000000 3.977150 
# 
# 
# High freq. dielectric constant tensor:
#      x y z
#    x 1.856190 0.000000 -0.000690 
#    y 0.000000 1.801890 0.000000 
#    z -0.000690 0.000000 1.829510 
# 
# From -- ./inp_files/265565.got.cif
#   From: 2010.06.25/outbox.cif.g09.slc.cpg/sg15_133_cif.got.tgz:265565.got - 2010.06.28 07:06:18.
