data_PCOD8151241
_publ_section_title
;
Structure prediction by ZEFSAII (Michael W. Deem and Ramdas Pophale) SiO2 
 PCOD8151241
Probable space group: C 2/C
;
_chemical_formula_sum "Si O2"
_cell_formula_units_Z 44
_cell_length_a 19.575983
_cell_length_b 12.176316
_cell_length_c 11.335058
_cell_angle_alpha 90.000000
_cell_angle_beta 127.049722
_cell_angle_gamma 90.000000
_cell_volume 2156.391405
_symmetry_space_group_name_H-M "C 2/C"
_symmetry_group_IT_number 15
_symmetry_cell_setting 'monoclinic'
loop_
_space_group_symop_operation_xyz
x,y,z
-x,y,1/2-z
-x,-y,-z
x,-y,1/2+z
1/2+x,1/2+y,z
1/2-x,1/2+y,1/2-z
1/2-x,1/2-y,-z
1/2+x,1/2-y,1/2+z
loop_
_atom_site_type_symbol
_atom_site_label
_atom_site_fract_x
_atom_site_fract_y
_atom_site_fract_z
Si Si1 0.557293 0.342978 0.577157
Si Si2 0.260290 0.277679 0.817746
Si Si3 0.758386 0.082514 0.539050
Si Si4 0.000000 0.273878 0.250000
Si Si5 0.941995 0.947765 0.289202
Si Si6 0.688779 0.837246 0.502439
O O1 0.644113 0.285150 0.632272
O O2 0.510817 0.294402 0.642445
O O3 0.490377 0.343108 0.398405
O O4 0.583389 0.468446 0.633683
O O5 0.262593 0.152526 0.865894
O O6 0.192907 0.301453 0.643484
O O7 0.227924 0.360475 0.886447
O O8 0.859983 0.089615 0.632159
O O9 0.723827 0.959544 0.516318
O O10 0.089336 0.340951 0.357879
O O11 0.000000 0.005407 0.250000
O O12 0.750000 0.750000 0.500000
#
# Coordination Sequence:
#
# PCOD8151241 Si02
#       6
#     8   8   8   4   8   8
#     4  11  22  37  65  99 131 168 222 280 337 385
#     4  11  24  44  67  99 139 176 223 284 335 403
#     4  11  25  44  66 101 136 179 225 272 345 397
#     4  12  24  44  62 102 128 176 226 266 334 406
#     4  11  20  36  66  97 132 168 224 286 328 386
#     4  12  26  44  74  97 136 183 224 278 335 410
#
# _framework density 20.404458999999999
#
# number of rings (size 3 to 8) (size 9 to 14) (size 15 to 20)
#    0.000    0.727    6.364    1.091    2.545    0.000 
#    0.000    7.273    0.000    0.000    0.000    0.000 
#    0.000    0.000    0.000    0.000    0.000    0.000 
#
# Total GULP energy -272623.936266 kJ/mol
# GULP energy per Si atom -12391.997103 kJ/mol
# Density = 2.035802 g / cm^3
# Si number density = 20.404459 Si / 1000 Ang^3
#
#
#
# Elastic Constant Matrix: (Units=GPa)
#
#
# Indices 1 2 3 4 5 6 
#
# 1 114.7234 49.6382 39.7846 0.0000 10.5882 0.0000
# 2 49.6382 122.9750 45.2716 0.0000 -3.8532 0.0000
# 3 39.7846 45.2716 135.6336 0.0000 10.4470 0.0000
# 4 0.0000 0.0000 0.0000 23.7727 0.0000 -10.0985
# 5 10.5882 -3.8532 10.4470 0.0000 43.0414 0.0000
# 6 0.0000 0.0000 0.0000 -10.0985 0.0000 16.0717
#
#
#
# Elastic Compliance Matrix: (Units=1/GPa)
#
#
# Indices 1 2 3 4 5 6 
#
# 1 0.011312 -0.003997 -0.001775 0.000000 -0.002710 0.000000
# 2 -0.003997 0.010794 -0.002630 0.000000 0.002588 0.000000
# 3 -0.001775 -0.002630 0.008923 0.000000 -0.001964 0.000000
# 4 0.000000 0.000000 0.000000 0.057381 0.000000 0.036055
# 5 -0.002710 0.002588 -0.001964 0.000000 0.024609 0.000000
# 6 0.000000 0.000000 0.000000 0.036055 0.000000 0.084876
#
#
# Mechanical properties :
#
#
# Convention : Reuss Voigt Hill
#
# Bulk Modulus (GPa) = 70.30185 71.41341 70.85763
# Shear Modulus (GPa) = 22.78527 32.48633 27.63580
#
# Velocity S-wave (km/s) = 3.34530 3.99447 3.68421
# Velocity P-wave (km/s) = 7.03209 7.50661 7.27322
#
# Compressibility (1/GPa) = 0.01422438
#
# Stress axis : x y z
#
# Youngs Moduli (GPa) = 88.40278 92.64005 112.07562
#
# Poissons Ratio (x) = 0.37032 0.19894
# Poissons Ratio (y) = 0.35338 0.29473
# Poissons Ratio (z) = 0.15692 0.24362
#
# Static dielectric constant tensor:
#      x y z
#    x 3.674510 0.000000 -0.047040 
#    y 0.000000 3.521630 0.000000 
#    z -0.047040 0.000000 4.048830 
# 
# 
# High freq. dielectric constant tensor:
#      x y z
#    x 1.805920 0.000000 -0.009730 
#    y 0.000000 1.774890 0.000000 
#    z -0.009730 0.000000 1.817060 
# 
# From -- ./inp_files/104323.got.cif
#   From: 2010.06.25/outbox.cif.g09.slc.cpg/sg15_53_cif.got.tgz:104323.got - 2010.06.28 07:06:18.
