data_PCOD8151968
_publ_section_title
;
Structure prediction by ZEFSAII (Michael W. Deem and Ramdas Pophale) SiO2 
 PCOD8151968
Probable space group: C 2/C
;
_chemical_formula_sum "Si O2"
_cell_formula_units_Z 56
_cell_length_a 9.341179
_cell_length_b 19.025203
_cell_length_c 14.036373
_cell_angle_alpha 90.000000
_cell_angle_beta 99.175130
_cell_angle_gamma 90.000000
_cell_volume 2462.597825
_symmetry_space_group_name_H-M "C 2/C"
_symmetry_group_IT_number 15
_symmetry_cell_setting 'monoclinic'
loop_
_space_group_symop_operation_xyz
x,y,z
-x,y,1/2-z
-x,-y,-z
x,-y,1/2+z
1/2+x,1/2+y,z
1/2-x,1/2+y,1/2-z
1/2-x,1/2-y,-z
1/2+x,1/2-y,1/2+z
loop_
_atom_site_type_symbol
_atom_site_label
_atom_site_fract_x
_atom_site_fract_y
_atom_site_fract_z
Si Si1 0.221667 0.645488 0.670489
Si Si2 0.007136 0.187818 0.602136
Si Si3 0.672397 0.007157 0.772436
Si Si4 0.232084 0.388324 0.635322
Si Si5 0.637004 0.547254 0.532802
Si Si6 0.687705 0.761782 0.330499
Si Si7 0.010990 0.684799 0.986131
O O1 0.381093 0.672988 0.663620
O O2 0.244293 0.570432 0.721113
O O3 0.129375 0.701029 0.727540
O O4 0.122732 0.638516 0.566281
O O5 0.074669 0.117580 0.569274
O O6 0.139799 0.228476 0.665130
O O7 0.948716 0.239585 0.512722
O O8 0.500000 0.018223 0.750000
O O9 0.741430 0.011051 0.885744
O O10 0.711875 0.932129 0.730207
O O11 0.293724 0.440293 0.562615
O O12 0.340841 0.322242 0.668133
O O13 0.078691 0.359160 0.580234
O O14 0.500000 0.500000 0.500000
O O15 0.635491 0.802314 0.419694
#
# Coordination Sequence:
#
# PCOD8151968 Si02
#       7
#     8   8   8   8   8   8   8
#     4  12  24  39  69 104 140 181 242 296 363 431
#     4  11  22  41  66  98 138 177 238 293 360 423
#     4  12  28  47  69 104 146 192 245 296 370 444
#     4  11  24  45  72  98 141 193 242 295 361 432
#     4  12  25  45  71 100 146 194 236 301 369 431
#     4  11  21  43  72  95 138 189 235 295 362 429
#     4  11  22  43  70 100 138 189 233 298 363 426
#
# _framework density 22.740212
#
# number of rings (size 3 to 8) (size 9 to 14) (size 15 to 20)
#    0.000    0.571    4.286    4.714    0.000    8.571 
#    2.571    0.000    0.000    0.000    0.000    0.000 
#    0.000    0.000    0.000    0.000    0.000    0.000 
#
# Total GULP energy -347127.500266 kJ/mol
# GULP energy per Si atom -12397.410724 kJ/mol
# Density = 2.268845 g / cm^3
# Si number density = 22.740212 Si / 1000 Ang^3
#
#
#
# Elastic Constant Matrix: (Units=GPa)
#
#
# Indices 1 2 3 4 5 6 
#
# 1 87.9701 20.6719 17.3385 0.0000 -0.9108 0.0000
# 2 20.6719 93.6416 26.8997 0.0000 1.5937 0.0000
# 3 17.3385 26.8997 56.7467 0.0000 2.3950 0.0000
# 4 0.0000 0.0000 0.0000 36.7186 0.0000 -9.0100
# 5 -0.9108 1.5937 2.3950 0.0000 45.6907 0.0000
# 6 0.0000 0.0000 0.0000 -9.0100 0.0000 30.2283
#
#
#
# Elastic Compliance Matrix: (Units=1/GPa)
#
#
# Indices 1 2 3 4 5 6 
#
# 1 0.012393 -0.001911 -0.002901 0.000000 0.000466 0.000000
# 2 -0.001911 0.012658 -0.005408 0.000000 -0.000196 0.000000
# 3 -0.002901 -0.005408 0.021113 0.000000 -0.000976 0.000000
# 4 0.000000 0.000000 0.000000 0.029383 0.000000 0.008758
# 5 0.000466 -0.000196 -0.000976 0.000000 0.021954 0.000000
# 6 0.000000 0.000000 0.000000 0.008758 0.000000 0.035692
#
#
# Mechanical properties :
#
#
# Convention : Reuss Voigt Hill
#
# Bulk Modulus (GPa) = 38.87204 40.90874 39.89039
# Shear Modulus (GPa) = 30.82497 34.09074 32.45785
#
# Velocity S-wave (km/s) = 3.68574 3.87607 3.78210
# Velocity P-wave (km/s) = 5.93667 6.16932 6.05411
#
# Compressibility (1/GPa) = 0.02572543
#
# Stress axis : x y z
#
# Youngs Moduli (GPa) = 80.69099 79.00366 47.36375
#
# Poissons Ratio (x) = 0.15094 0.13738
# Poissons Ratio (y) = 0.15416 0.25615
# Poissons Ratio (z) = 0.23405 0.42726
#
# Static dielectric constant tensor:
#      x y z
#    x 3.832570 0.000000 0.128830 
#    y 0.000000 3.990310 0.000000 
#    z 0.128830 0.000000 4.323530 
# 
# 
# High freq. dielectric constant tensor:
#      x y z
#    x 1.896440 0.000000 0.003610 
#    y 0.000000 1.901460 0.000000 
#    z 0.003610 0.000000 1.899400 
# 
# From -- ./inp_files/136426.got.cif
#   From: 2010.06.25/outbox.cif.g09.slc.cpg/sg15_69_cif.got.tgz:136426.got - 2010.06.28 07:06:18.
