data_PCOD8151878
_publ_section_title
;
Structure prediction by ZEFSAII (Michael W. Deem and Ramdas Pophale) SiO2 
 PCOD8151878
Probable space group: C 2/C
;
_chemical_formula_sum "Si O2"
_cell_formula_units_Z 64
_cell_length_a 19.026567
_cell_length_b 13.444966
_cell_length_c 15.129570
_cell_angle_alpha 90.000000
_cell_angle_beta 52.895748
_cell_angle_gamma 90.000000
_cell_volume 3086.730730
_symmetry_space_group_name_H-M "C 2/C"
_symmetry_group_IT_number 15
_symmetry_cell_setting 'monoclinic'
loop_
_space_group_symop_operation_xyz
x,y,z
-x,y,1/2-z
-x,-y,-z
x,-y,1/2+z
1/2+x,1/2+y,z
1/2-x,1/2+y,1/2-z
1/2-x,1/2-y,-z
1/2+x,1/2-y,1/2+z
loop_
_atom_site_type_symbol
_atom_site_label
_atom_site_fract_x
_atom_site_fract_y
_atom_site_fract_z
Si Si1 0.326782 0.904292 0.947773
Si Si2 0.328923 0.380563 0.714833
Si Si3 0.985741 0.220396 0.010527
Si Si4 0.217113 0.488234 0.187648
Si Si5 0.806438 0.199120 0.661641
Si Si6 0.571362 0.284328 0.140780
Si Si7 0.164835 0.923231 0.183624
Si Si8 0.415772 0.936153 0.058291
O O1 0.343225 0.786138 0.925168
O O2 0.341760 0.969358 0.847643
O O3 0.227107 0.916392 0.051538
O O4 0.387283 0.948060 0.978841
O O5 0.429982 0.347445 0.620635
O O6 0.292427 0.430907 0.653030
O O7 0.257247 0.295421 0.795458
O O8 0.340605 0.462480 0.782752
O O9 0.942951 0.325885 0.062836
O O10 0.964173 0.184050 0.928093
O O11 0.091976 0.220626 0.944946
O O12 0.264066 0.383221 0.127664
O O13 0.158679 0.476234 0.319943
O O14 0.803545 0.150014 0.761472
O O15 0.500000 0.218062 0.250000
O O16 0.578369 0.380304 0.201480
O O17 0.500000 0.000000 0.000000
#
# Coordination Sequence:
#
# PCOD8151878 Si02
#       8
#     8   8   8   8   8   8   8   8
#     4  11  23  40  66  99 127 177 215 281 340 385
#     4  11  22  41  66  94 132 179 222 272 336 402
#     4  11  23  40  70  92 137 175 217 285 341 391
#     4  11  23  40  69  93 135 174 225 272 334 413
#     4  11  21  42  63  96 131 179 221 265 341 399
#     4  11  22  38  62 101 130 160 220 288 338 394
#     4  11  22  41  63  94 135 167 221 276 328 405
#     4  11  23  41  67 101 132 173 227 286 335 397
#
# _framework density 20.733910000000002
#
# number of rings (size 3 to 8) (size 9 to 14) (size 15 to 20)
#    0.000    1.000    5.000    3.375    3.500    2.000 
#    2.250    0.625    0.000    0.000    0.000    0.000 
#    0.000    0.000    0.000    0.000    0.000    0.000 
#
# Total GULP energy -396440.658795 kJ/mol
# GULP energy per Si atom -12388.770587 kJ/mol
# Density = 2.068672 g / cm^3
# Si number density = 20.733910 Si / 1000 Ang^3
#
#
#
# Elastic Constant Matrix: (Units=GPa)
#
#
# Indices 1 2 3 4 5 6 
#
# 1 87.3612 43.7268 40.9946 0.0000 -2.6405 0.0000
# 2 43.7268 92.8343 42.4922 0.0000 2.5167 0.0000
# 3 40.9946 42.4922 95.2014 0.0000 -19.8879 0.0000
# 4 0.0000 0.0000 0.0000 32.2333 0.0000 -2.0616
# 5 -2.6405 2.5167 -19.8879 0.0000 24.0410 0.0000
# 6 0.0000 0.0000 0.0000 -2.0616 0.0000 17.2346
#
#
#
# Elastic Compliance Matrix: (Units=1/GPa)
#
#
# Indices 1 2 3 4 5 6 
#
# 1 0.016465 -0.005388 -0.005065 0.000000 -0.001818 0.000000
# 2 -0.005388 0.016613 -0.006748 0.000000 -0.007913 0.000000
# 3 -0.005065 -0.006748 0.019014 0.000000 0.015880 0.000000
# 4 0.000000 0.000000 0.000000 0.031263 0.000000 0.003740
# 5 -0.001818 -0.007913 0.015880 0.000000 0.055361 0.000000
# 6 0.000000 0.000000 0.000000 0.003740 0.000000 0.058470
#
#
# Mechanical properties :
#
#
# Convention : Reuss Voigt Hill
#
# Bulk Modulus (GPa) = 56.52661 58.86933 57.69797
# Shear Modulus (GPa) = 21.05394 24.58067 22.81730
#
# Velocity S-wave (km/s) = 3.19005 3.44689 3.32095
# Velocity P-wave (km/s) = 6.39458 6.65551 6.52635
#
# Compressibility (1/GPa) = 0.01769078
#
# Stress axis : x y z
#
# Youngs Moduli (GPa) = 60.73354 60.19420 52.59185
#
# Poissons Ratio (x) = 0.32432 0.26638
# Poissons Ratio (y) = 0.32722 0.35489
# Poissons Ratio (z) = 0.30762 0.40619
#
# Static dielectric constant tensor:
#      x y z
#    x 3.829110 0.000000 -0.263720 
#    y 0.000000 3.858120 0.000000 
#    z -0.263720 0.000000 3.820770 
# 
# 
# High freq. dielectric constant tensor:
#      x y z
#    x 1.803540 0.000000 -0.020810 
#    y 0.000000 1.811460 0.000000 
#    z -0.020810 0.000000 1.817420 
# 
# From -- ./inp_files/215043.got.cif
#   From: 2010.06.25/outbox.cif.g09.slc.cpg/sg15_108_cif.got.tgz:215043.got - 2010.06.28 07:06:18.
