data_PCOD8151003
_publ_section_title
;
Structure prediction by ZEFSAII (Michael W. Deem and Ramdas Pophale) SiO2 
 PCOD8151003
Probable space group: C 2/C
;
_chemical_formula_sum "Si O2"
_cell_formula_units_Z 48
_cell_length_a 13.207040
_cell_length_b 13.660214
_cell_length_c 12.275677
_cell_angle_alpha 90.000000
_cell_angle_beta 112.764071
_cell_angle_gamma 90.000000
_cell_volume 2042.157738
_symmetry_space_group_name_H-M "C 2/C"
_symmetry_group_IT_number 15
_symmetry_cell_setting 'monoclinic'
loop_
_space_group_symop_operation_xyz
x,y,z
-x,y,1/2-z
-x,-y,-z
x,-y,1/2+z
1/2+x,1/2+y,z
1/2-x,1/2+y,1/2-z
1/2-x,1/2-y,-z
1/2+x,1/2-y,1/2+z
loop_
_atom_site_type_symbol
_atom_site_label
_atom_site_fract_x
_atom_site_fract_y
_atom_site_fract_z
Si Si1 0.990238 0.466629 0.620837
Si Si2 0.532189 0.819558 0.101579
Si Si3 0.752742 0.498421 0.485327
Si Si4 0.316452 0.185272 0.638979
Si Si5 0.823395 0.182717 0.455704
Si Si6 0.291507 0.135406 0.318467
O O1 0.010894 0.566636 0.554235
O O2 0.076783 0.377649 0.639481
O O3 0.000000 0.505801 0.750000
O O4 0.864661 0.433557 0.547857
O O5 0.640269 0.829720 0.220900
O O6 0.421992 0.781797 0.112369
O O7 0.563140 0.740661 0.020769
O O8 0.756549 0.587845 0.572623
O O9 0.655344 0.420995 0.472088
O O10 0.741255 0.538845 0.357241
O O11 0.228388 0.274357 0.605358
O O12 0.750000 0.250000 0.500000
O O13 0.764546 0.151668 0.319235
#
# Coordination Sequence:
#
# PCOD8151003 Si02
#       6
#     8   8   8   8   8   8
#     4  11  18  37  62  92 122 156 201 256 315 361
#     4   9  17  36  61  84 118 164 206 248 301 370
#     4  11  21  38  60  90 124 161 202 256 315 367
#     4   9  18  36  59  85 115 165 210 243 301 370
#     4  11  23  37  58  92 124 157 208 261 309 355
#     4  11  22  35  59  90 124 159 205 255 313 366
#
# _framework density 23.504550999999999
#
# number of rings (size 3 to 8) (size 9 to 14) (size 15 to 20)
#    0.000    1.667    5.000    2.000    0.000    2.667 
#    0.000    0.833    0.000    2.000    4.333    0.000 
#    0.000    0.000    0.000    0.000    0.000    0.000 
#
# Total GULP energy -297459.878786 kJ/mol
# GULP energy per Si atom -12394.161616 kJ/mol
# Density = 2.345105 g / cm^3
# Si number density = 23.504551 Si / 1000 Ang^3
#
#
#
# Elastic Constant Matrix: (Units=GPa)
#
#
# Indices 1 2 3 4 5 6 
#
# 1 85.2983 75.0989 16.3709 0.0000 -20.9694 0.0000
# 2 75.0989 154.5291 36.5009 0.0000 -20.1322 0.0000
# 3 16.3709 36.5009 92.1056 0.0000 -14.2481 0.0000
# 4 0.0000 0.0000 0.0000 38.6307 0.0000 -8.3710
# 5 -20.9694 -20.1322 -14.2481 0.0000 33.0796 0.0000
# 6 0.0000 0.0000 0.0000 -8.3710 0.0000 58.5780
#
#
#
# Elastic Compliance Matrix: (Units=1/GPa)
#
#
# Indices 1 2 3 4 5 6 
#
# 1 0.022522 -0.010133 0.001358 0.000000 0.008695 0.000000
# 2 -0.010133 0.012063 -0.003040 0.000000 -0.000391 0.000000
# 3 0.001358 -0.003040 0.012500 0.000000 0.004395 0.000000
# 4 0.000000 0.000000 0.000000 0.026713 0.000000 0.003817
# 5 0.008695 -0.000391 0.004395 0.000000 0.037396 0.000000
# 6 0.000000 0.000000 0.000000 0.003817 0.000000 0.017617
#
#
# Mechanical properties :
#
#
# Convention : Reuss Voigt Hill
#
# Bulk Modulus (GPa) = 42.63633 65.31937 53.97785
# Shear Modulus (GPa) = 31.19907 39.65513 35.42710
#
# Velocity S-wave (km/s) = 3.64725 4.11192 3.88654
# Velocity P-wave (km/s) = 5.99296 7.09889 6.56924
#
# Compressibility (1/GPa) = 0.02345417
#
# Stress axis : x y z
#
# Youngs Moduli (GPa) = 44.40086 82.89804 79.99793
#
# Poissons Ratio (x) = 0.84004 -0.10861
# Poissons Ratio (y) = 0.44993 0.24319
# Poissons Ratio (z) = -0.06028 0.25201
#
# Static dielectric constant tensor:
#      x y z
#    x 4.417490 0.000000 -0.428110 
#    y 0.000000 4.547630 0.000000 
#    z -0.428110 0.000000 4.662510 
# 
# 
# High freq. dielectric constant tensor:
#      x y z
#    x 1.906640 0.000000 -0.036840 
#    y 0.000000 1.932980 0.000000 
#    z -0.036840 0.000000 1.952360 
# 
# From -- ./inp_files/152190.got.cif
#   From: 2010.06.25/outbox.cif.g09.slc.cpg/sg15_77_cif.got.tgz:152190.got - 2010.06.28 07:06:18.
