data_PCOD8151449
_publ_section_title
;
Structure prediction by ZEFSAII (Michael W. Deem and Ramdas Pophale) SiO2 
 PCOD8151449
Probable space group: C 2/C
;
_chemical_formula_sum "Si O2"
_cell_formula_units_Z 48
_cell_length_a 15.257742
_cell_length_b 10.989036
_cell_length_c 28.347541
_cell_angle_alpha 90.000000
_cell_angle_beta 25.731893
_cell_angle_gamma 90.000000
_cell_volume 2063.553129
_symmetry_space_group_name_H-M "C 2/C"
_symmetry_group_IT_number 15
_symmetry_cell_setting 'monoclinic'
loop_
_space_group_symop_operation_xyz
x,y,z
-x,y,1/2-z
-x,-y,-z
x,-y,1/2+z
1/2+x,1/2+y,z
1/2-x,1/2+y,1/2-z
1/2-x,1/2-y,-z
1/2+x,1/2-y,1/2+z
loop_
_atom_site_type_symbol
_atom_site_label
_atom_site_fract_x
_atom_site_fract_y
_atom_site_fract_z
Si Si1 0.942964 0.730488 0.085049
Si Si2 0.394144 0.203741 0.891034
Si Si3 0.206472 0.835244 0.252623
Si Si4 0.735034 0.061366 0.629119
Si Si5 0.905905 0.061751 0.248161
Si Si6 0.262520 0.207668 0.359628
O O1 0.948849 0.756017 0.139140
O O2 0.818203 0.844889 0.126352
O O3 0.825484 0.604592 0.131954
O O4 0.157758 0.717872 0.953761
O O5 0.589694 0.134649 0.817145
O O6 0.249880 0.113863 0.931059
O O7 0.461431 0.321226 0.828571
O O8 0.250000 0.250000 0.000000
O O9 0.284482 0.760974 0.168984
O O10 0.092659 0.958846 0.292928
O O11 0.500000 0.042505 0.750000
O O12 0.836084 0.928097 0.587698
O O13 0.000000 0.002903 0.250000
O O14 0.500000 0.210558 0.250000
#
# Coordination Sequence:
#
# PCOD8151449 Si02
#       6
#     8   8   8   8   8   8
#     4  11  23  44  70  98 135 185 225 286 342 406
#     4  11  23  42  71 104 132 182 238 281 342 420
#     4  11  26  42  69 106 135 177 234 283 342 416
#     4  11  20  42  68  97 135 174 223 286 343 410
#     4  11  23  45  68  97 143 177 229 284 350 414
#     4  11  27  44  65  98 144 179 228 283 353 409
#
# _framework density 23.260850999999999
#
# number of rings (size 3 to 8) (size 9 to 14) (size 15 to 20)
#    0.000    1.000    5.000    2.000    7.000    1.333 
#    3.000    0.000    0.000    0.000    0.000    0.000 
#    0.000    0.000    0.000    0.000    0.000    0.000 
#
# Total GULP energy -297490.673177 kJ/mol
# GULP energy per Si atom -12395.444716 kJ/mol
# Density = 2.320791 g / cm^3
# Si number density = 23.260851 Si / 1000 Ang^3
#
#
#
# Elastic Constant Matrix: (Units=GPa)
#
#
# Indices 1 2 3 4 5 6 
#
# 1 106.6605 42.0556 32.5678 0.0006 21.5346 0.0000
# 2 42.0556 85.3802 16.9392 -0.0020 7.1530 0.0000
# 3 32.5678 16.9392 123.3676 -0.0170 38.9610 0.0001
# 4 0.0006 -0.0020 -0.0170 24.2993 -0.0039 1.6622
# 5 21.5346 7.1530 38.9610 -0.0039 32.1297 0.0009
# 6 0.0000 0.0000 0.0001 1.6622 0.0009 47.9198
#
#
#
# Elastic Compliance Matrix: (Units=1/GPa)
#
#
# Indices 1 2 3 4 5 6 
#
# 1 0.013236 -0.005838 -0.000488 -0.000002 -0.006979 0.000000
# 2 -0.005838 0.014639 -0.001095 0.000001 0.001981 0.000000
# 3 -0.000488 -0.001095 0.013297 0.000007 -0.015553 0.000000
# 4 -0.000002 0.000001 0.000007 0.041251 -0.000002 -0.001431
# 5 -0.006979 0.001981 -0.015553 -0.000002 0.054220 -0.000001
# 6 0.000000 0.000000 0.000000 -0.001431 -0.000001 0.020918
#
#
# Mechanical properties :
#
#
# Convention : Reuss Voigt Hill
#
# Bulk Modulus (GPa) = 37.97943 55.39260 46.68602
# Shear Modulus (GPa) = 27.59700 35.79280 31.69490
#
# Velocity S-wave (km/s) = 3.44817 3.92696 3.69533
# Velocity P-wave (km/s) = 5.67594 6.66533 6.19043
#
# Compressibility (1/GPa) = 0.02633004
#
# Stress axis : x y z
#
# Youngs Moduli (GPa) = 75.55405 68.31049 75.20548
#
# Poissons Ratio (x) = 0.39878 0.03673
# Poissons Ratio (y) = 0.44107 0.08231
# Poissons Ratio (z) = 0.03690 0.07477
#
# Static dielectric constant tensor:
#      x y z
#    x 3.637450 -0.000170 1.125400 
#    y -0.000170 4.318720 0.000320 
#    z 1.125400 0.000320 3.135720 
# 
# 
# High freq. dielectric constant tensor:
#      x y z
#    x 1.922680 0.000000 0.008870 
#    y 0.000000 1.909910 0.000000 
#    z 0.008870 0.000000 1.927770 
# 
# From -- ./inp_files/296029.got.cif
#   From: 2010.06.25/outbox.cif.g09.slc.cpg/sg15_149_cif.got.tgz:296029.got - 2010.06.28 07:06:18.
