data_PCOD8151349
_publ_section_title
;
Structure prediction by ZEFSAII (Michael W. Deem and Ramdas Pophale) SiO2 
 PCOD8151349
Probable space group: C 2/C
;
_chemical_formula_sum "Si O2"
_cell_formula_units_Z 40
_cell_length_a 11.608708
_cell_length_b 14.891273
_cell_length_c 11.784323
_cell_angle_alpha 90.000000
_cell_angle_beta 80.618526
_cell_angle_gamma 90.000000
_cell_volume 2009.890656
_symmetry_space_group_name_H-M "C 2/C"
_symmetry_group_IT_number 15
_symmetry_cell_setting 'monoclinic'
loop_
_space_group_symop_operation_xyz
x,y,z
-x,y,1/2-z
-x,-y,-z
x,-y,1/2+z
1/2+x,1/2+y,z
1/2-x,1/2+y,1/2-z
1/2-x,1/2-y,-z
1/2+x,1/2-y,1/2+z
loop_
_atom_site_type_symbol
_atom_site_label
_atom_site_fract_x
_atom_site_fract_y
_atom_site_fract_z
Si Si1 0.805115 0.282322 0.610266
Si Si2 0.247849 0.831020 0.159441
Si Si3 0.700628 0.464921 0.701210
Si Si4 0.060996 0.239646 0.517570
Si Si5 0.471554 0.565308 0.103072
O O1 0.750000 0.250000 0.500000
O O2 0.753333 0.219510 0.718981
O O3 0.780822 0.386952 0.638260
O O4 0.945321 0.283761 0.587771
O O5 0.131605 0.804748 0.109837
O O6 0.256850 0.937905 0.174573
O O7 0.361112 0.809266 0.065881
O O8 0.665382 0.451042 0.839506
O O9 0.570321 0.455632 0.677365
O O10 0.014745 0.167281 0.436364
O O11 0.500000 0.500000 0.000000
#
# Coordination Sequence:
#
# PCOD8151349 Si02
#       5
#     8   8   8   8   8
#     4  12  25  42  67  98 135 174 219 271 333 392
#     4  11  25  43  65  98 130 171 221 276 329 391
#     4  11  24  38  66  97 130 168 222 269 328 396
#     4  11  23  43  68  91 135 168 216 277 333 381
#     4  11  20  39  67  96 122 169 225 276 320 380
#
# _framework density 19.901579000000002
#
# number of rings (size 3 to 8) (size 9 to 14) (size 15 to 20)
#    0.000    0.800    6.000    1.800    2.800    1.600 
#    0.000    0.000    4.400    0.000    0.000    0.000 
#    0.000    0.000    0.000    0.000    0.000    0.000 
#
# Total GULP energy -247838.628762 kJ/mol
# GULP energy per Si atom -12391.931438 kJ/mol
# Density = 1.985628 g / cm^3
# Si number density = 19.901579 Si / 1000 Ang^3
#
#
#
# Elastic Constant Matrix: (Units=GPa)
#
#
# Indices 1 2 3 4 5 6 
#
# 1 71.4266 37.3087 28.6202 0.0000 -23.0815 0.0000
# 2 37.3087 176.9249 58.5146 0.0000 -19.4726 0.0000
# 3 28.6202 58.5146 106.4682 0.0000 -16.7554 0.0000
# 4 0.0000 0.0000 0.0000 36.8997 0.0000 -5.9320
# 5 -23.0815 -19.4726 -16.7554 0.0000 38.5258 0.0000
# 6 0.0000 0.0000 0.0000 -5.9320 0.0000 28.2085
#
#
#
# Elastic Compliance Matrix: (Units=1/GPa)
#
#
# Indices 1 2 3 4 5 6 
#
# 1 0.019138 -0.002195 -0.002478 0.000000 0.009279 0.000000
# 2 -0.002195 0.007302 -0.003273 0.000000 0.000952 0.000000
# 3 -0.002478 -0.003273 0.012199 0.000000 0.002166 0.000000
# 4 0.000000 0.000000 0.000000 0.028049 0.000000 0.005898
# 5 0.009279 0.000952 0.002166 0.000000 0.032939 0.000000
# 6 0.000000 0.000000 0.000000 0.005898 0.000000 0.036691
#
#
# Mechanical properties :
#
#
# Convention : Reuss Voigt Hill
#
# Bulk Modulus (GPa) = 43.96302 67.07851 55.52076
# Shear Modulus (GPa) = 31.29045 36.08521 33.68783
#
# Velocity S-wave (km/s) = 3.96947 4.26277 4.11873
# Velocity P-wave (km/s) = 6.56865 7.61620 7.11174
#
# Compressibility (1/GPa) = 0.02274639
#
# Stress axis : x y z
#
# Youngs Moduli (GPa) = 52.25116 136.94092 81.97651
#
# Poissons Ratio (x) = 0.30058 0.20314
# Poissons Ratio (y) = 0.11469 0.26835
# Poissons Ratio (z) = 0.12948 0.44828
#
# Static dielectric constant tensor:
#      x y z
#    x 3.529780 0.000000 -0.021070 
#    y 0.000000 3.519070 0.000000 
#    z -0.021070 0.000000 3.601510 
# 
# 
# High freq. dielectric constant tensor:
#      x y z
#    x 1.763700 0.000000 -0.010660 
#    y 0.000000 1.777110 0.000000 
#    z -0.010660 0.000000 1.804280 
# 
# From -- ./inp_files/85489.got.cif
#   From: 2010.06.25/outbox.cif.g09.slc.cpg/sg15_43_cif.got.tgz:85489.got - 2010.06.28 07:06:18.
