data_PCOD8151459
_publ_section_title
;
Structure prediction by ZEFSAII (Michael W. Deem and Ramdas Pophale) SiO2 
 PCOD8151459
Probable space group: C 2/C
;
_chemical_formula_sum "Si O2"
_cell_formula_units_Z 32
_cell_length_a 13.814190
_cell_length_b 5.593703
_cell_length_c 17.993559
_cell_angle_alpha 90.000000
_cell_angle_beta 107.765093
_cell_angle_gamma 90.000000
_cell_volume 1324.105943
_symmetry_space_group_name_H-M "C 2/C"
_symmetry_group_IT_number 15
_symmetry_cell_setting 'monoclinic'
loop_
_space_group_symop_operation_xyz
x,y,z
-x,y,1/2-z
-x,-y,-z
x,-y,1/2+z
1/2+x,1/2+y,z
1/2-x,1/2+y,1/2-z
1/2-x,1/2-y,-z
1/2+x,1/2-y,1/2+z
loop_
_atom_site_type_symbol
_atom_site_label
_atom_site_fract_x
_atom_site_fract_y
_atom_site_fract_z
Si Si1 0.873077 0.260733 0.613583
Si Si2 0.439188 0.597389 0.915122
Si Si3 0.302440 0.946274 0.962184
Si Si4 0.750584 0.931980 0.793967
O O1 0.859628 0.367362 0.528241
O O2 0.850611 0.442085 0.676494
O O3 0.986329 0.149902 0.637944
O O4 0.787317 0.059941 0.607718
O O5 0.384446 0.843332 0.924461
O O6 0.353419 0.408748 0.868310
O O7 0.500000 0.500000 0.000000
O O8 0.250000 0.750000 0.000000
O O9 0.745444 0.693103 0.743103
#
# Coordination Sequence:
#
# PCOD8151459 Si02
#       4
#     8   8   8   8
#     4  11  24  44  72 107 150 196 243 309 376 441
#     4  12  24  46  80 112 138 195 253 309 374 444
#     4  11  20  42  72 113 149 176 240 323 372 426
#     4  12  29  52  73 106 159 204 247 307 377 450
#
# _framework density 24.167249999999999
#
# number of rings (size 3 to 8) (size 9 to 14) (size 15 to 20)
#    0.000    0.500    5.000    3.750    0.000    3.000 
#    0.000    7.500    0.000    0.000    0.000    0.000 
#    0.000    0.000    0.000    0.000    0.000    0.000 
#
# Total GULP energy -198331.600400 kJ/mol
# GULP energy per Si atom -12395.725025 kJ/mol
# Density = 2.411224 g / cm^3
# Si number density = 24.167250 Si / 1000 Ang^3
#
#
#
# Elastic Constant Matrix: (Units=GPa)
#
#
# Indices 1 2 3 4 5 6 
#
# 1 195.7177 44.5758 39.3721 0.0000 -24.6760 0.0000
# 2 44.5758 108.7342 29.8541 0.0000 -2.0219 0.0000
# 3 39.3721 29.8541 86.0773 0.0000 -2.5101 0.0000
# 4 0.0000 0.0000 0.0000 35.4044 0.0000 -6.4027
# 5 -24.6760 -2.0219 -2.5101 0.0000 36.1932 0.0000
# 6 0.0000 0.0000 0.0000 -6.4027 0.0000 52.5394
#
#
#
# Elastic Compliance Matrix: (Units=1/GPa)
#
#
# Indices 1 2 3 4 5 6 
#
# 1 0.006531 -0.002003 -0.002170 0.000000 0.004190 0.000000
# 2 -0.002003 0.010783 -0.002852 0.000000 -0.000961 0.000000
# 3 -0.002170 -0.002852 0.013579 0.000000 -0.000697 0.000000
# 4 0.000000 0.000000 0.000000 0.028882 0.000000 0.003520
# 5 0.004190 -0.000961 -0.000697 0.000000 0.030384 0.000000
# 6 0.000000 0.000000 0.000000 0.003520 0.000000 0.019462
#
#
# Mechanical properties :
#
#
# Convention : Reuss Voigt Hill
#
# Bulk Modulus (GPa) = 59.37448 68.68146 64.02797
# Shear Modulus (GPa) = 38.67439 43.27588 40.97514
#
# Velocity S-wave (km/s) = 4.00469 4.23624 4.12209
# Velocity P-wave (km/s) = 6.78269 7.23937 7.01475
#
# Compressibility (1/GPa) = 0.01684225
#
# Stress axis : x y z
#
# Youngs Moduli (GPa) = 153.12721 92.73757 73.64462
#
# Poissons Ratio (x) = 0.18580 0.15981
# Poissons Ratio (y) = 0.30679 0.21000
# Poissons Ratio (z) = 0.33229 0.26444
#
# Static dielectric constant tensor:
#      x y z
#    x 4.764850 0.000000 0.044230 
#    y 0.000000 4.874510 0.000000 
#    z 0.044230 0.000000 4.700790 
# 
# 
# High freq. dielectric constant tensor:
#      x y z
#    x 1.972040 0.000000 -0.012260 
#    y 0.000000 1.961690 0.000000 
#    z -0.012260 0.000000 1.946930 
# 
# From -- ./inp_files/201800.got.cif
#   From: 2010.06.25/outbox.cif.g09.slc.cpg/sg15_101_cif.got.tgz:201800.got - 2010.06.28 07:06:18.
