data_PCOD8151853
_publ_section_title
;
Structure prediction by ZEFSAII (Michael W. Deem and Ramdas Pophale) SiO2 
 PCOD8151853
Probable space group: C 2/C
;
_chemical_formula_sum "Si O2"
_cell_formula_units_Z 60
_cell_length_a 12.086204
_cell_length_b 18.980143
_cell_length_c 20.128759
_cell_angle_alpha 90.000000
_cell_angle_beta 37.385543
_cell_angle_gamma 90.000000
_cell_volume 2803.629029
_symmetry_space_group_name_H-M "C 2/C"
_symmetry_group_IT_number 15
_symmetry_cell_setting 'monoclinic'
loop_
_space_group_symop_operation_xyz
x,y,z
-x,y,1/2-z
-x,-y,-z
x,-y,1/2+z
1/2+x,1/2+y,z
1/2-x,1/2+y,1/2-z
1/2-x,1/2-y,-z
1/2+x,1/2-y,1/2+z
loop_
_atom_site_type_symbol
_atom_site_label
_atom_site_fract_x
_atom_site_fract_y
_atom_site_fract_z
Si Si1 0.686724 0.539629 0.485527
Si Si2 0.223873 0.549721 0.435372
Si Si3 0.500000 0.656430 0.250000
Si Si4 0.824165 0.445427 0.153767
Si Si5 0.733738 0.321044 0.759314
Si Si6 0.701573 0.473274 0.830495
Si Si7 0.699778 0.305255 0.180703
Si Si8 0.841653 0.323052 0.974407
O O1 0.772717 0.483708 0.493791
O O2 0.472462 0.524438 0.585797
O O3 0.777665 0.531445 0.369126
O O4 0.725546 0.618287 0.491671
O O5 0.364146 0.612954 0.361685
O O6 0.276636 0.495394 0.351592
O O7 0.016893 0.576791 0.529297
O O8 0.376510 0.699967 0.255802
O O9 0.845502 0.489240 0.212378
O O10 0.699860 0.375729 0.226393
O O11 0.657881 0.394570 0.824580
O O12 0.705606 0.259249 0.826213
O O13 0.947765 0.328409 0.644305
O O14 0.500000 0.283496 0.250000
O O15 0.827446 0.330581 0.059854
O O16 0.750000 0.250000 0.000000
#
# Coordination Sequence:
#
# PCOD8151853 Si02
#       8
#     8   8   4   8   8   8   8   8
#     4  11  23  41  69 102 139 178 223 294 345 419
#     4  11  21  41  69  96 128 172 234 280 343 408
#     4  12  24  46  68  94 132 196 234 278 342 428
#     4  11  23  40  67 102 132 171 226 290 338 416
#     4  12  26  45  67 102 140 188 233 284 351 422
#     4  11  24  41  67 102 142 179 227 282 353 411
#     4  12  25  43  69 103 136 174 231 292 352 410
#     4  12  24  43  70 103 140 181 228 289 360 413
#
# _framework density 21.400835000000001
#
# number of rings (size 3 to 8) (size 9 to 14) (size 15 to 20)
#    0.000    0.533    5.333    3.200    0.933    1.600 
#    0.000    4.000    0.000    0.000    0.000    0.000 
#    0.000    0.000    0.000    0.000    0.000    0.000 
#
# Total GULP energy -371906.153193 kJ/mol
# GULP energy per Si atom -12396.871773 kJ/mol
# Density = 2.135213 g / cm^3
# Si number density = 21.400835 Si / 1000 Ang^3
#
#
#
# Elastic Constant Matrix: (Units=GPa)
#
#
# Indices 1 2 3 4 5 6 
#
# 1 136.5652 69.5900 44.7893 -0.0016 22.7969 0.0001
# 2 69.5900 117.4839 28.0099 0.0218 8.6945 -0.0033
# 3 44.7893 28.0099 86.3701 0.0224 12.5042 -0.0068
# 4 -0.0016 0.0218 0.0224 22.7690 -0.0074 6.9028
# 5 22.7969 8.6945 12.5042 -0.0074 41.8633 0.0031
# 6 0.0001 -0.0033 -0.0068 6.9028 0.0031 38.9567
#
#
#
# Elastic Compliance Matrix: (Units=1/GPa)
#
#
# Indices 1 2 3 4 5 6 
#
# 1 0.012425 -0.006126 -0.003827 0.000010 -0.004351 -0.000003
# 2 -0.006126 0.012291 -0.000964 -0.000012 0.001071 0.000003
# 3 -0.003827 -0.000964 0.014157 -0.000015 -0.001944 0.000005
# 4 0.000010 -0.000012 -0.000015 0.046413 0.000011 -0.008224
# 5 -0.004351 0.001071 -0.001944 0.000011 0.026615 -0.000004
# 6 -0.000003 0.000003 0.000005 -0.008224 -0.000004 0.027127
#
#
# Mechanical properties :
#
#
# Convention : Reuss Voigt Hill
#
# Bulk Modulus (GPa) = 58.68865 69.46641 64.07753
# Shear Modulus (GPa) = 30.02258 33.91980 31.97119
#
# Velocity S-wave (km/s) = 3.74955 3.98549 3.86932
# Velocity P-wave (km/s) = 6.79916 7.32864 7.06886
#
# Compressibility (1/GPa) = 0.01703907
#
# Stress axis : x y z
#
# Youngs Moduli (GPa) = 80.48010 81.36112 70.63676
#
# Poissons Ratio (x) = 0.49839 0.27033
# Poissons Ratio (y) = 0.49299 0.06812
# Poissons Ratio (z) = 0.30800 0.07847
#
# Static dielectric constant tensor:
#      x y z
#    x 4.051540 -0.000110 0.598590 
#    y -0.000110 3.950660 -0.000190 
#    z 0.598590 -0.000190 4.153340 
# 
# 
# High freq. dielectric constant tensor:
#      x y z
#    x 1.847370 0.000000 0.006830 
#    y 0.000000 1.828880 0.000000 
#    z 0.006830 0.000000 1.845190 
# 
# From -- ./inp_files/239947.got.cif
#   From: 2010.06.25/outbox.cif.g09.slc.cpg/sg15_120_cif.got.tgz:239947.got - 2010.06.28 07:06:18.
