data_PCOD8151021
_publ_section_title
;
Structure prediction by ZEFSAII (Michael W. Deem and Ramdas Pophale) SiO2 
 PCOD8151021
Probable space group: C 2/C
;
_chemical_formula_sum "Si O2"
_cell_formula_units_Z 60
_cell_length_a 28.844029
_cell_length_b 17.244819
_cell_length_c 11.639477
_cell_angle_alpha 90.000000
_cell_angle_beta 141.133340
_cell_angle_gamma 90.000000
_cell_volume 3633.028032
_symmetry_space_group_name_H-M "C 2/C"
_symmetry_group_IT_number 15
_symmetry_cell_setting 'monoclinic'
loop_
_space_group_symop_operation_xyz
x,y,z
-x,y,1/2-z
-x,-y,-z
x,-y,1/2+z
1/2+x,1/2+y,z
1/2-x,1/2+y,1/2-z
1/2-x,1/2-y,-z
1/2+x,1/2-y,1/2+z
loop_
_atom_site_type_symbol
_atom_site_label
_atom_site_fract_x
_atom_site_fract_y
_atom_site_fract_z
Si Si1 0.643681 0.226955 0.139124
Si Si2 0.687711 0.007046 0.677578
Si Si3 0.121504 0.753886 0.346586
Si Si4 0.500000 0.167838 0.250000
Si Si5 0.251843 0.357628 0.158054
Si Si6 0.441643 0.063736 0.929412
Si Si7 0.776097 0.114030 0.457963
Si Si8 0.422438 0.106607 0.647669
O O1 0.596690 0.246078 0.164774
O O2 0.679830 0.306721 0.159748
O O3 0.705278 0.164525 0.288439
O O4 0.591655 0.189196 0.941558
O O5 0.714089 0.088720 0.679077
O O6 0.634461 0.021330 0.683787
O O7 0.763815 0.965442 0.864238
O O8 0.641480 0.957195 0.496069
O O9 0.060618 0.726181 0.318009
O O10 0.193775 0.702984 0.498267
O O11 0.147127 0.842259 0.426057
O O12 0.529520 0.113302 0.407842
O O13 0.278595 0.406052 0.098664
O O14 0.426513 0.120562 0.792441
O O15 0.500000 0.000000 0.000000
O O16 0.500000 0.072172 0.750000
#
# Coordination Sequence:
#
# PCOD8151021 Si02
#       8
#     8   8   8   4   8   8   8   8
#     4   8  17  32  51  67  93 131 168 201 238 285
#     4  11  19  30  49  72 101 131 161 199 247 293
#     4   9  17  32  49  73  93 128 169 205 238 284
#     4  12  22  32  52  72 102 132 166 202 242 296
#     4   9  16  31  49  70  95 126 168 204 236 288
#     4  12  23  31  43  73 110 135 154 194 249 304
#     4   8  17  30  50  68  95 128 169 203 238 287
#     4  11  20  31  46  70 101 132 161 193 239 295
#
# _framework density 16.515149000000001
#
# number of rings (size 3 to 8) (size 9 to 14) (size 15 to 20)
#    0.000    2.133    2.667    4.000    3.733    0.000 
#    0.000    0.667    2.933    0.000    1.733    1.867 
#    0.000    0.000    0.000    0.000    0.000    0.000 
#
# Total GULP energy -371748.782109 kJ/mol
# GULP energy per Si atom -12391.626070 kJ/mol
# Density = 1.647756 g / cm^3
# Si number density = 16.515149 Si / 1000 Ang^3
#
#
#
# Elastic Constant Matrix: (Units=GPa)
#
#
# Indices 1 2 3 4 5 6 
#
# 1 97.8835 40.5760 41.2832 0.0000 -9.5857 0.0000
# 2 40.5760 64.4856 37.9496 0.0000 -4.8846 0.0000
# 3 41.2832 37.9496 68.6286 0.0000 -17.7726 0.0000
# 4 0.0000 0.0000 0.0000 13.8253 0.0000 7.3909
# 5 -9.5857 -4.8846 -17.7726 0.0000 23.5736 0.0000
# 6 0.0000 0.0000 0.0000 7.3909 0.0000 26.2226
#
#
#
# Elastic Compliance Matrix: (Units=1/GPa)
#
#
# Indices 1 2 3 4 5 6 
#
# 1 0.015206 -0.006289 -0.005474 0.000000 0.000753 0.000000
# 2 -0.006289 0.026291 -0.012434 0.000000 -0.006484 0.000000
# 3 -0.005474 -0.012434 0.029196 0.000000 0.017209 0.000000
# 4 0.000000 0.000000 0.000000 0.085163 0.000000 -0.024004
# 5 0.000753 -0.006484 0.017209 0.000000 0.054357 0.000000
# 6 0.000000 0.000000 0.000000 -0.024004 0.000000 0.044901
#
#
# Mechanical properties :
#
#
# Convention : Reuss Voigt Hill
#
# Bulk Modulus (GPa) = 44.84652 52.29058 48.56855
# Shear Modulus (GPa) = 16.08014 20.13690 18.10852
#
# Velocity S-wave (km/s) = 3.12374 3.49563 3.31491
# Velocity P-wave (km/s) = 6.34224 6.92990 6.64257
#
# Compressibility (1/GPa) = 0.02229827
#
# Stress axis : x y z
#
# Youngs Moduli (GPa) = 65.76388 38.03598 34.25070
#
# Poissons Ratio (x) = 0.23922 0.18750
# Poissons Ratio (y) = 0.41361 0.42587
# Poissons Ratio (z) = 0.36001 0.47294
#
# Static dielectric constant tensor:
#      x y z
#    x 3.542960 0.000000 0.059660 
#    y 0.000000 3.110620 0.000000 
#    z 0.059660 0.000000 3.220320 
# 
# 
# High freq. dielectric constant tensor:
#      x y z
#    x 1.629800 0.000000 -0.013390 
#    y 0.000000 1.615130 0.000000 
#    z -0.013390 0.000000 1.615060 
# 
# From -- ./inp_files/123811.got.cif
#   From: 2010.06.25/outbox.cif.g09.slc.cpg/sg15_62_cif.got.tgz:123811.got - 2010.06.28 07:06:18.
