data_PCOD8151084
_publ_section_title
;
Structure prediction by ZEFSAII (Michael W. Deem and Ramdas Pophale) SiO2 
 PCOD8151084
Probable space group: C 2/C
;
_chemical_formula_sum "Si O2"
_cell_formula_units_Z 56
_cell_length_a 30.505183
_cell_length_b 9.120573
_cell_length_c 16.992402
_cell_angle_alpha 90.000000
_cell_angle_beta 141.184811
_cell_angle_gamma 90.000000
_cell_volume 2963.375727
_symmetry_space_group_name_H-M "C 2/C"
_symmetry_group_IT_number 15
_symmetry_cell_setting 'monoclinic'
loop_
_space_group_symop_operation_xyz
x,y,z
-x,y,1/2-z
-x,-y,-z
x,-y,1/2+z
1/2+x,1/2+y,z
1/2-x,1/2+y,1/2-z
1/2-x,1/2-y,-z
1/2+x,1/2-y,1/2+z
loop_
_atom_site_type_symbol
_atom_site_label
_atom_site_fract_x
_atom_site_fract_y
_atom_site_fract_z
Si Si1 0.674576 0.829427 0.571022
Si Si2 0.306969 0.466050 0.486590
Si Si3 0.766342 0.455349 0.462696
Si Si4 0.925423 0.817359 0.144632
Si Si5 0.794780 0.682274 0.213523
Si Si6 0.539400 0.015910 0.381911
Si Si7 0.597878 0.880549 0.752321
O O1 0.670476 0.698043 0.502821
O O2 0.727831 0.945437 0.607019
O O3 0.706464 0.768907 0.697568
O O4 0.599393 0.900275 0.488061
O O5 0.293200 0.482007 0.561411
O O6 0.368077 0.568328 0.538153
O O7 0.239411 0.521191 0.343840
O O8 0.746315 0.292576 0.403361
O O9 0.840977 0.462657 0.611744
O O10 0.925311 0.674315 0.087149
O O11 0.914734 0.770307 0.219818
O O12 0.000000 0.898646 0.250000
O O13 0.874861 0.661038 0.296395
O O14 0.500000 0.956479 0.250000
O O15 0.476022 0.030059 0.357590
#
# Coordination Sequence:
#
# PCOD8151084 Si02
#       7
#     8   8   8   8   8   8   8
#     4  12  23  33  52  91 119 142 175 247 302 318
#     4  11  21  35  56  83 109 150 190 231 276 335
#     4  11  19  38  57  78 113 150 196 228 268 349
#     4   9  16  33  59  81  95 143 202 226 251 334
#     4  11  21  35  59  81 115 149 189 231 282 340
#     4   9  18  35  59  79 112 144 194 231 268 337
#     4   9  16  35  63  77  98 153 201 220 260 331
#
# _framework density 18.897369000000001
#
# number of rings (size 3 to 8) (size 9 to 14) (size 15 to 20)
#    0.000    2.000    5.714    2.143    0.000    1.143 
#    0.000    0.000    0.000    3.429    0.000    0.000 
#    0.000    0.000    0.000    0.000    0.000    0.000 
#
# Total GULP energy -346871.608064 kJ/mol
# GULP energy per Si atom -12388.271717 kJ/mol
# Density = 1.885436 g / cm^3
# Si number density = 18.897369 Si / 1000 Ang^3
#
#
#
# Elastic Constant Matrix: (Units=GPa)
#
#
# Indices 1 2 3 4 5 6 
#
# 1 124.0820 45.2242 41.3119 0.0000 9.3320 0.0000
# 2 45.2242 75.8692 25.0062 0.0000 12.4903 0.0000
# 3 41.3119 25.0062 50.4119 0.0000 4.5083 0.0000
# 4 0.0000 0.0000 0.0000 19.9512 0.0000 -1.7857
# 5 9.3320 12.4903 4.5083 0.0000 35.4083 0.0000
# 6 0.0000 0.0000 0.0000 -1.7857 0.0000 19.8628
#
#
#
# Elastic Compliance Matrix: (Units=1/GPa)
#
#
# Indices 1 2 3 4 5 6 
#
# 1 0.012421 -0.004742 -0.007772 0.000000 -0.000611 0.000000
# 2 -0.004742 0.018350 -0.004804 0.000000 -0.004611 0.000000
# 3 -0.007772 -0.004804 0.028579 0.000000 0.000104 0.000000
# 4 0.000000 0.000000 0.000000 0.050529 0.000000 0.004543
# 5 -0.000611 -0.004611 0.000104 0.000000 0.030017 0.000000
# 6 0.000000 0.000000 0.000000 0.004543 0.000000 0.050754
#
#
# Mechanical properties :
#
#
# Convention : Reuss Voigt Hill
#
# Bulk Modulus (GPa) = 40.46214 52.60530 46.53372
# Shear Modulus (GPa) = 21.41119 24.29918 22.85519
#
# Velocity S-wave (km/s) = 3.36970 3.58977 3.48147
# Velocity P-wave (km/s) = 6.04961 6.71414 6.39052
#
# Compressibility (1/GPa) = 0.02471446
#
# Stress axis : x y z
#
# Youngs Moduli (GPa) = 80.50875 54.49740 34.99029
#
# Poissons Ratio (x) = 0.25841 0.27195
# Poissons Ratio (y) = 0.38174 0.16809
# Poissons Ratio (z) = 0.62573 0.26180
#
# Static dielectric constant tensor:
#      x y z
#    x 3.850830 0.000000 0.339650 
#    y 0.000000 3.192820 0.000000 
#    z 0.339650 0.000000 3.178070 
# 
# 
# High freq. dielectric constant tensor:
#      x y z
#    x 1.752870 0.000000 0.021240 
#    y 0.000000 1.707600 0.000000 
#    z 0.021240 0.000000 1.702270 
# 
# From -- ./inp_files/224440.got.cif
#   From: 2010.06.25/outbox.cif.g09.slc.cpg/sg15_113_cif.got.tgz:224440.got - 2010.06.28 07:06:18.
