data_PCOD8151528
_publ_section_title
;
Structure prediction by ZEFSAII (Michael W. Deem and Ramdas Pophale) SiO2 
 PCOD8151528
Probable space group: C 2/C
;
_chemical_formula_sum "Si O2"
_cell_formula_units_Z 64
_cell_length_a 18.050433
_cell_length_b 22.359295
_cell_length_c 17.889449
_cell_angle_alpha 90.000000
_cell_angle_beta 152.598176
_cell_angle_gamma 90.000000
_cell_volume 3322.888566
_symmetry_space_group_name_H-M "C 2/C"
_symmetry_group_IT_number 15
_symmetry_cell_setting 'monoclinic'
loop_
_space_group_symop_operation_xyz
x,y,z
-x,y,1/2-z
-x,-y,-z
x,-y,1/2+z
1/2+x,1/2+y,z
1/2-x,1/2+y,1/2-z
1/2-x,1/2-y,-z
1/2+x,1/2-y,1/2+z
loop_
_atom_site_type_symbol
_atom_site_label
_atom_site_fract_x
_atom_site_fract_y
_atom_site_fract_z
Si Si1 0.849524 0.979939 0.320138
Si Si2 0.199187 0.174522 0.087909
Si Si3 0.120191 0.436211 0.684136
Si Si4 0.473432 0.952979 0.139466
Si Si5 0.340000 0.482974 0.146206
Si Si6 0.177149 0.794835 0.253035
Si Si7 0.876953 0.617167 0.852704
Si Si8 0.810368 0.144694 0.583016
O O1 0.711010 0.030653 0.197583
O O2 0.899378 0.963875 0.281313
O O3 0.785034 0.920812 0.301935
O O4 0.000000 0.000000 0.500000
O O5 0.253504 0.109777 0.165972
O O6 0.305252 0.223259 0.227602
O O7 0.250841 0.177899 0.046628
O O8 0.007559 0.185653 0.928130
O O9 0.065768 0.486495 0.695736
O O10 0.969075 0.403770 0.510687
O O11 0.500000 0.938319 0.250000
O O12 0.520982 0.894274 0.131849
O O13 0.282797 0.962212 0.960658
O O14 0.500000 0.506215 0.250000
O O15 0.252455 0.424645 0.031607
O O16 0.303772 0.816585 0.301807
O O17 0.244970 0.820062 0.392871
O O18 0.000000 0.140778 0.750000
#
# Coordination Sequence:
#
# PCOD8151528 Si02
#       8
#     8   8   8   8   8   8   8   8
#     4  11  21  34  56  82 113 154 196 235 291 352
#     4  11  23  36  58  87 115 161 200 244 291 345
#     4  11  21  37  57  81 115 154 191 243 295 344
#     4  11  22  37  56  85 117 154 194 240 299 354
#     4  11  21  35  54  84 120 154 191 240 291 354
#     4  11  21  38  56  82 116 156 205 241 288 344
#     4  11  21  39  57  79 118 156 195 251 288 346
#     4   9  19  33  53  78 119 155 191 234 280 342
#
# _framework density 19.260351
#
# number of rings (size 3 to 8) (size 9 to 14) (size 15 to 20)
#    0.000    1.250    3.750    3.375    7.000    0.000 
#    0.000    4.375    0.000    0.000    0.000    4.375 
#    0.000    0.000    0.000    0.000    0.000    0.000 
#
# Total GULP energy -396569.097283 kJ/mol
# GULP energy per Si atom -12392.784290 kJ/mol
# Density = 1.921651 g / cm^3
# Si number density = 19.260351 Si / 1000 Ang^3
#
#
#
# Elastic Constant Matrix: (Units=GPa)
#
#
# Indices 1 2 3 4 5 6 
#
# 1 108.5111 36.4039 19.4679 0.0002 4.5300 0.0000
# 2 36.4039 68.5819 17.3552 0.0000 2.5036 -0.0001
# 3 19.4679 17.3552 59.7043 0.0016 2.8654 0.0003
# 4 0.0002 0.0000 0.0016 26.3265 0.0009 -2.3513
# 5 4.5300 2.5036 2.8654 0.0009 28.3153 0.0001
# 6 0.0000 -0.0001 0.0003 -2.3513 0.0001 28.2216
#
#
#
# Elastic Compliance Matrix: (Units=1/GPa)
#
#
# Indices 1 2 3 4 5 6 
#
# 1 0.011493 -0.005531 -0.002085 0.000000 -0.001139 0.000000
# 2 -0.005531 0.018426 -0.003534 0.000000 -0.000387 0.000000
# 3 -0.002085 -0.003534 0.018515 -0.000001 -0.001228 0.000000
# 4 0.000000 0.000000 -0.000001 0.038269 -0.000001 0.003188
# 5 -0.001139 -0.000387 -0.001228 -0.000001 0.035657 0.000000
# 6 0.000000 0.000000 0.000000 0.003188 0.000000 0.035700
#
#
# Mechanical properties :
#
#
# Convention : Reuss Voigt Hill
#
# Bulk Modulus (GPa) = 38.26535 42.58348 40.42441
# Shear Modulus (GPa) = 26.44504 27.47736 26.96120
#
# Velocity S-wave (km/s) = 3.70946 3.78117 3.74549
# Velocity P-wave (km/s) = 6.18525 6.42031 6.30388
#
# Compressibility (1/GPa) = 0.02613330
#
# Stress axis : x y z
#
# Youngs Moduli (GPa) = 87.00995 54.27231 54.00951
#
# Poissons Ratio (x) = 0.30020 0.11261
# Poissons Ratio (y) = 0.48128 0.19086
# Poissons Ratio (z) = 0.18141 0.19179
#
# Static dielectric constant tensor:
#      x y z
#    x 3.763970 0.000000 0.021060 
#    y 0.000000 3.548120 -0.000020 
#    z 0.021060 -0.000020 3.409450 
# 
# 
# High freq. dielectric constant tensor:
#      x y z
#    x 1.743330 0.000000 0.012600 
#    y 0.000000 1.718750 0.000000 
#    z 0.012600 0.000000 1.748960 
# 
# From -- ./inp_files/212003.got.cif
#   From: 2010.06.25/outbox.cif.g09.slc.cpg/sg15_107_cif.got.tgz:212003.got - 2010.06.28 07:06:18.
