data_PCOD8151642
_publ_section_title
;
Structure prediction by ZEFSAII (Michael W. Deem and Ramdas Pophale) SiO2 
 PCOD8151642
Probable space group: C 2/C
;
_chemical_formula_sum "Si O2"
_cell_formula_units_Z 32
_cell_length_a 8.401272
_cell_length_b 19.427703
_cell_length_c 9.174560
_cell_angle_alpha 90.000000
_cell_angle_beta 65.943640
_cell_angle_gamma 90.000000
_cell_volume 1367.387026
_symmetry_space_group_name_H-M "C 2/C"
_symmetry_group_IT_number 15
_symmetry_cell_setting 'monoclinic'
loop_
_space_group_symop_operation_xyz
x,y,z
-x,y,1/2-z
-x,-y,-z
x,-y,1/2+z
1/2+x,1/2+y,z
1/2-x,1/2+y,1/2-z
1/2-x,1/2-y,-z
1/2+x,1/2-y,1/2+z
loop_
_atom_site_type_symbol
_atom_site_label
_atom_site_fract_x
_atom_site_fract_y
_atom_site_fract_z
Si Si1 0.699739 0.072087 0.313217
Si Si2 0.405492 0.780232 0.631394
Si Si3 0.356468 0.170191 0.691124
Si Si4 0.703279 0.049531 0.995999
O O1 0.711842 0.151814 0.356275
O O2 0.500458 0.046442 0.390063
O O3 0.787019 0.021095 0.400014
O O4 0.791830 0.063767 0.120241
O O5 0.500000 0.790002 0.750000
O O6 0.552606 0.775147 0.452132
O O7 0.289843 0.711869 0.665454
O O8 0.500000 0.139466 0.750000
O O9 0.263378 0.109614 0.635479
#
# Coordination Sequence:
#
# PCOD8151642 Si02
#       4
#     8   8   8   8
#     4   9  17  31  52  80 105 137 183 232 265 311
#     4  11  21  38  58  82 111 148 184 225 274 328
#     4  11  23  36  56  85 114 145 182 227 276 325
#     4   9  18  30  52  79 107 137 182 230 269 310
#
# _framework density 23.402301000000001
#
# number of rings (size 3 to 8) (size 9 to 14) (size 15 to 20)
#    0.000    2.000    5.000    1.500   10.500    0.000 
#    0.000    0.000    0.000    3.000    0.000    0.000 
#    0.000    0.000    0.000    0.000    0.000    0.000 
#
# Total GULP energy -198284.912488 kJ/mol
# GULP energy per Si atom -12392.807030 kJ/mol
# Density = 2.334904 g / cm^3
# Si number density = 23.402301 Si / 1000 Ang^3
#
#
#
# Elastic Constant Matrix: (Units=GPa)
#
#
# Indices 1 2 3 4 5 6 
#
# 1 15.6512 9.4763 -0.9813 0.0000 1.4487 0.0000
# 2 9.4763 113.3450 8.3810 0.0000 -2.3178 0.0000
# 3 -0.9813 8.3810 59.2709 0.0000 10.6426 0.0000
# 4 0.0000 0.0000 0.0000 37.3619 0.0000 6.1369
# 5 1.4487 -2.3178 10.6426 0.0000 14.1591 0.0000
# 6 0.0000 0.0000 0.0000 6.1369 0.0000 12.6666
#
#
#
# Elastic Compliance Matrix: (Units=1/GPa)
#
#
# Indices 1 2 3 4 5 6 
#
# 1 0.068984 -0.006293 0.004028 0.000000 -0.011116 0.000000
# 2 -0.006293 0.009586 -0.002147 0.000000 0.003827 0.000000
# 3 0.004028 -0.002147 0.020091 0.000000 -0.015864 0.000000
# 4 0.000000 0.000000 0.000000 0.029079 0.000000 -0.014089
# 5 -0.011116 0.003827 -0.015864 0.000000 0.084314 0.000000
# 6 0.000000 0.000000 0.000000 -0.014089 0.000000 0.085774
#
#
# Mechanical properties :
#
#
# Convention : Reuss Voigt Hill
#
# Bulk Modulus (GPa) = 11.13118 24.66878 17.89998
# Shear Modulus (GPa) = 14.85456 24.26359 19.55907
#
# Velocity S-wave (km/s) = 2.52215 3.22344 2.89411
# Velocity P-wave (km/s) = 3.63984 4.94147 4.33973
#
# Compressibility (1/GPa) = 0.08983771
#
# Stress axis : x y z
#
# Youngs Moduli (GPa) = 14.49605 104.32209 49.77468
#
# Poissons Ratio (x) = 0.65646 -0.20049
# Poissons Ratio (y) = 0.09122 0.10685
# Poissons Ratio (z) = -0.05839 0.22395
#
# Static dielectric constant tensor:
#      x y z
#    x 3.468210 0.000000 0.420670 
#    y 0.000000 4.159170 0.000000 
#    z 0.420670 0.000000 4.824490 
# 
# 
# High freq. dielectric constant tensor:
#      x y z
#    x 1.847100 0.000000 0.024870 
#    y 0.000000 1.921720 0.000000 
#    z 0.024870 0.000000 1.947230 
# 
# From -- ./inp_files/28618.got.cif
#   From: 2010.06.25/outbox.cif.g09.slc.cpg/sg15_15_cif.got.tgz:28618.got - 2010.06.28 07:06:18.
