data_PCOD8151514
_publ_section_title
;
Structure prediction by ZEFSAII (Michael W. Deem and Ramdas Pophale) SiO2 
 PCOD8151514
Probable space group: C 2/C
;
_chemical_formula_sum "Si O2"
_cell_formula_units_Z 64
_cell_length_a 22.959146
_cell_length_b 19.111493
_cell_length_c 8.976518
_cell_angle_alpha 90.000000
_cell_angle_beta 90.000273
_cell_angle_gamma 90.000000
_cell_volume 3938.748507
_symmetry_space_group_name_H-M "C 2/C"
_symmetry_group_IT_number 15
_symmetry_cell_setting 'monoclinic'
loop_
_space_group_symop_operation_xyz
x,y,z
-x,y,1/2-z
-x,-y,-z
x,-y,1/2+z
1/2+x,1/2+y,z
1/2-x,1/2+y,1/2-z
1/2-x,1/2-y,-z
1/2+x,1/2-y,1/2+z
loop_
_atom_site_type_symbol
_atom_site_label
_atom_site_fract_x
_atom_site_fract_y
_atom_site_fract_z
Si Si1 0.762664 0.144098 0.584606
Si Si2 0.332208 0.212074 0.085600
Si Si3 0.864389 0.072633 0.073143
Si Si4 0.762663 0.144097 0.915386
Si Si5 0.933106 0.194445 0.924452
Si Si6 0.135611 0.927364 0.573151
Si Si7 0.167794 0.712076 0.085595
Si Si8 0.566894 0.305552 0.424454
O O1 0.697027 0.154552 0.521979
O O2 0.793629 0.218434 0.589938
O O3 0.758393 0.111534 0.749996
O O4 0.799222 0.092175 0.479979
O O5 0.335301 0.178623 0.250004
O O6 0.396655 0.235629 0.031129
O O7 0.865131 0.066674 0.249996
O O8 0.799222 0.092174 0.020009
O O9 0.911716 0.129229 0.021251
O O10 0.883637 0.999997 0.000001
O O11 0.793624 0.218435 0.910058
O O12 0.697027 0.154552 0.978015
O O13 0.896652 0.264365 0.968879
O O14 0.922559 0.177054 0.749998
O O15 1.000000 0.209886 0.960778
O O16 0.088286 0.870764 0.521263
#
# Coordination Sequence:
#
# PCOD8151514 Si02
#       8
#     8   8   8   8   8   8   8   8
#     4   9  16  27  43  62  83 107 137 174 216 258
#     4   8  14  25  42  63  84 107 136 172 215 256
#     4  11  21  32  45  61  84 114 148 183 217 255
#     4   9  16  27  43  62  83 107 137 174 216 258
#     4   9  18  32  47  63  86 116 149 182 213 248
#     4  11  21  32  45  61  84 114 148 183 217 255
#     4   8  14  25  42  63  84 107 136 172 215 256
#     4   9  18  32  47  63  86 116 149 182 213 248
#
# _framework density 16.248816000000001
#
# number of rings (size 3 to 8) (size 9 to 14) (size 15 to 20)
#    0.000    2.750    0.000    4.500    0.000    7.000 
#    0.000    0.000    0.000    0.000    0.000    0.000 
#    0.000    1.000    0.000    2.750    0.000    4.500 
#
# Total GULP energy -396642.828793 kJ/mol
# GULP energy per Si atom -12395.088400 kJ/mol
# Density = 1.621183 g / cm^3
# Si number density = 16.248816 Si / 1000 Ang^3
#
#
#
# Elastic Constant Matrix: (Units=GPa)
#
#
# Indices 1 2 3 4 5 6 
#
# 1 126.6957 31.2388 50.3049 0.0000 -0.0011 0.0000
# 2 31.2388 10.5030 14.8821 0.0000 0.0002 0.0000
# 3 50.3049 14.8821 104.9857 0.0000 0.0004 0.0000
# 4 0.0000 0.0000 0.0000 19.4057 0.0000 -0.0007
# 5 -0.0011 0.0002 0.0004 0.0000 22.8743 0.0000
# 6 0.0000 0.0000 0.0000 -0.0007 0.0000 11.6564
#
#
#
# Elastic Compliance Matrix: (Units=1/GPa)
#
#
# Indices 1 2 3 4 5 6 
#
# 1 0.029987 -0.086129 -0.002159 0.000000 0.000002 0.000000
# 2 -0.086129 0.366525 -0.010687 0.000000 -0.000006 0.000000
# 3 -0.002159 -0.010687 0.012075 0.000000 0.000000 0.000000
# 4 0.000000 0.000000 0.000000 0.051531 0.000000 0.000003
# 5 0.000002 -0.000006 0.000000 0.000000 0.043717 0.000000
# 6 0.000000 0.000000 0.000000 0.000003 0.000000 0.085790
#
#
# Mechanical properties :
#
#
# Convention : Reuss Voigt Hill
#
# Bulk Modulus (GPa) = 4.74753 48.33732 26.54242
# Shear Modulus (GPa) = 5.82895 20.50451 13.16673
#
# Velocity S-wave (km/s) = 1.89607 3.55619 2.84970
# Velocity P-wave (km/s) = 2.77877 6.83189 5.21519
#
# Compressibility (1/GPa) = 0.21063600
#
# Stress axis : x y z
#
# Youngs Moduli (GPa) = 33.34800 2.72833 82.81829
#
# Poissons Ratio (x) = 0.23499 0.17883
# Poissons Ratio (y) = 2.87224 0.88505
# Poissons Ratio (z) = 0.07201 0.02916
#
# Static dielectric constant tensor:
#      x y z
#    x 3.230770 0.000000 -0.000020 
#    y 0.000000 2.761850 0.000000 
#    z -0.000020 0.000000 3.246470 
# 
# 
# High freq. dielectric constant tensor:
#      x y z
#    x 1.614330 0.000000 0.000000 
#    y 0.000000 1.574620 0.000000 
#    z 0.000000 0.000000 1.634070 
# 
# From -- ./inp_files/57536.got.cif
#   From: 2010.06.25/outbox.cif.g09.slc.cpg/sg15_29_cif.got.tgz:57536.got - 2010.06.28 07:06:18.
