data_PCOD8151138
_publ_section_title
;
Structure prediction by ZEFSAII (Michael W. Deem and Ramdas Pophale) SiO2 
 PCOD8151138
Probable space group: C 2/C
;
_chemical_formula_sum "Si O2"
_cell_formula_units_Z 56
_cell_length_a 9.356170
_cell_length_b 18.974087
_cell_length_c 18.166917
_cell_angle_alpha 90.000000
_cell_angle_beta 50.933032
_cell_angle_gamma 90.000000
_cell_volume 2503.982409
_symmetry_space_group_name_H-M "C 2/C"
_symmetry_group_IT_number 15
_symmetry_cell_setting 'monoclinic'
loop_
_space_group_symop_operation_xyz
x,y,z
-x,y,1/2-z
-x,-y,-z
x,-y,1/2+z
1/2+x,1/2+y,z
1/2-x,1/2+y,1/2-z
1/2-x,1/2-y,-z
1/2+x,1/2-y,1/2+z
loop_
_atom_site_type_symbol
_atom_site_label
_atom_site_fract_x
_atom_site_fract_y
_atom_site_fract_z
Si Si1 0.155883 0.564324 0.074370
Si Si2 0.003995 0.661139 0.004110
Si Si3 0.731802 0.994433 0.304449
Si Si4 0.212958 0.057388 0.056553
Si Si5 0.708232 0.329133 0.204799
Si Si6 0.289117 0.280639 0.794491
Si Si7 0.161495 0.897782 0.836238
O O1 0.129720 0.628307 0.026760
O O2 0.227759 0.601688 0.124317
O O3 0.974864 0.518391 0.146234
O O4 0.300770 0.508823 0.993979
O O5 0.908921 0.597765 0.988539
O O6 0.846532 0.710961 0.091168
O O7 0.144441 0.701795 0.903300
O O8 0.809597 0.030696 0.352533
O O9 0.843655 0.024266 0.198592
O O10 0.760291 0.911745 0.298808
O O11 0.057699 0.114853 0.083124
O O12 0.500000 0.310795 0.250000
O O13 0.750630 0.294528 0.269866
O O14 0.500000 0.286398 0.750000
O O15 0.243824 0.341467 0.749214
#
# Coordination Sequence:
#
# PCOD8151138 Si02
#       7
#     8   8   8   8   8   8   8
#     4  11  22  37  71 106 139 176 233 285 344 409
#     4  11  23  47  72  96 140 189 227 286 353 419
#     4  11  21  41  69  98 138 181 224 290 347 404
#     4  11  19  42  70 101 139 179 230 277 357 413
#     4  12  28  47  71 101 139 185 242 289 350 412
#     4  12  27  49  71 101 139 193 230 283 355 427
#     4  12  23  39  69 108 141 177 233 284 338 423
#
# _framework density 22.364374000000002
#
# number of rings (size 3 to 8) (size 9 to 14) (size 15 to 20)
#    0.000    0.571    7.143    3.000    2.000    2.286 
#    0.000    0.000    0.000    0.000    0.000    0.000 
#    0.000    0.000    0.000    0.000    0.000    0.000 
#
# Total GULP energy -347163.251678 kJ/mol
# GULP energy per Si atom -12398.687560 kJ/mol
# Density = 2.231347 g / cm^3
# Si number density = 22.364374 Si / 1000 Ang^3
#
#
#
# Elastic Constant Matrix: (Units=GPa)
#
#
# Indices 1 2 3 4 5 6 
#
# 1 111.9623 22.1579 29.6328 -0.0001 4.7783 -0.0001
# 2 22.1579 31.6776 19.4931 0.0000 -5.7724 0.0000
# 3 29.6328 19.4931 92.0575 0.0000 -10.0005 0.0000
# 4 -0.0001 0.0000 0.0000 30.0770 0.0000 2.7546
# 5 4.7783 -5.7724 -10.0005 0.0000 28.4698 0.0000
# 6 -0.0001 0.0000 0.0000 2.7546 0.0000 12.0164
#
#
#
# Elastic Compliance Matrix: (Units=1/GPa)
#
#
# Indices 1 2 3 4 5 6 
#
# 1 0.011177 -0.007001 -0.002571 0.000000 -0.004199 0.000000
# 2 -0.007001 0.041337 -0.005678 0.000000 0.007562 0.000000
# 3 -0.002571 -0.005678 0.013323 0.000000 0.003960 0.000000
# 4 0.000000 0.000000 0.000000 0.033961 0.000000 -0.007785
# 5 -0.004199 0.007562 0.003960 0.000000 0.038754 0.000000
# 6 0.000000 0.000000 0.000000 -0.007785 0.000000 0.085004
#
#
# Mechanical properties :
#
#
# Convention : Reuss Voigt Hill
#
# Bulk Modulus (GPa) = 28.29955 42.02945 35.16450
# Shear Modulus (GPa) = 18.80865 25.07356 21.94110
#
# Velocity S-wave (km/s) = 2.90316 3.35197 3.13561
# Velocity P-wave (km/s) = 4.89072 5.81505 5.37280
#
# Compressibility (1/GPa) = 0.03533625
#
# Stress axis : x y z
#
# Youngs Moduli (GPa) = 89.47086 24.19145 75.05777
#
# Poissons Ratio (x) = 0.16936 0.19301
# Poissons Ratio (y) = 0.62636 0.42619
# Poissons Ratio (z) = 0.23007 0.13736
#
# Static dielectric constant tensor:
#      x y z
#    x 3.977540 0.000000 -0.160070 
#    y 0.000000 3.893590 0.000000 
#    z -0.160070 0.000000 4.329130 
# 
# 
# High freq. dielectric constant tensor:
#      x y z
#    x 1.887770 0.000000 -0.013900 
#    y 0.000000 1.858700 0.000000 
#    z -0.013900 0.000000 1.884800 
# 
# From -- ./inp_files/192028.got.cif
#   From: 2010.06.25/outbox.cif.g09.slc.cpg/sg15_97_cif.got.tgz:192028.got - 2010.06.28 07:06:18.
