data_PCOD8151649
_publ_section_title
;
Structure prediction by ZEFSAII (Michael W. Deem and Ramdas Pophale) SiO2 
 PCOD8151649
Probable space group: C 2/C
;
_chemical_formula_sum "Si O2"
_cell_formula_units_Z 36
_cell_length_a 22.566325
_cell_length_b 6.799209
_cell_length_c 21.771407
_cell_angle_alpha 90.000000
_cell_angle_beta 36.444234
_cell_angle_gamma 90.000000
_cell_volume 1984.364719
_symmetry_space_group_name_H-M "C 2/C"
_symmetry_group_IT_number 15
_symmetry_cell_setting 'monoclinic'
loop_
_space_group_symop_operation_xyz
x,y,z
-x,y,1/2-z
-x,-y,-z
x,-y,1/2+z
1/2+x,1/2+y,z
1/2-x,1/2+y,1/2-z
1/2-x,1/2-y,-z
1/2+x,1/2-y,1/2+z
loop_
_atom_site_type_symbol
_atom_site_label
_atom_site_fract_x
_atom_site_fract_y
_atom_site_fract_z
Si Si1 0.985793 0.769222 0.891372
Si Si2 0.804374 0.279596 0.627036
Si Si3 0.000000 0.099864 0.250000
Si Si4 0.638153 0.559562 0.727766
Si Si5 0.141761 0.543396 0.290975
O O1 0.961055 0.763312 0.838702
O O2 0.036859 0.565270 0.868599
O O3 0.886515 0.806372 0.012505
O O4 0.062642 0.951300 0.839194
O O5 0.744372 0.450383 0.641866
O O6 0.858722 0.367392 0.640926
O O7 0.734799 0.100571 0.705232
O O8 0.091445 0.963150 0.198147
O O9 0.651453 0.786710 0.732196
#
# Coordination Sequence:
#
# PCOD8151649 Si02
#       5
#     8   8   4   8   8
#     4   9  22  39  61  84 117 156 188 239 290 336
#     4  11  21  38  61  89 116 151 190 242 294 338
#     4   8  20  44  52  86 120 146 208 228 268 360
#     4   9  21  39  56  85 118 149 197 234 279 344
#     4  11  21  38  60  88 120 146 190 246 284 346
#
# _framework density 18.141825999999998
#
# number of rings (size 3 to 8) (size 9 to 14) (size 15 to 20)
#    1.333    0.889    2.222    0.667    0.000    4.444 
#    0.000    1.111    0.000    0.000    0.000    0.000 
#    0.000    0.000    0.000    0.000    0.000    0.000 
#
# Total GULP energy -223103.317241 kJ/mol
# GULP energy per Si atom -12394.628736 kJ/mol
# Density = 1.810053 g / cm^3
# Si number density = 18.141826 Si / 1000 Ang^3
#
#
#
# Elastic Constant Matrix: (Units=GPa)
#
#
# Indices 1 2 3 4 5 6 
#
# 1 132.6431 29.5803 15.8025 -0.0080 11.6884 0.0037
# 2 29.5803 75.0495 3.3174 -0.0013 5.5419 0.0075
# 3 15.8025 3.3174 86.4834 0.0095 14.9723 -0.0006
# 4 -0.0080 -0.0013 0.0095 15.2794 0.0076 -2.8577
# 5 11.6884 5.5419 14.9723 0.0076 23.7495 -0.0039
# 6 0.0037 0.0075 -0.0006 -2.8577 -0.0039 39.3054
#
#
#
# Elastic Compliance Matrix: (Units=1/GPa)
#
#
# Indices 1 2 3 4 5 6 
#
# 1 0.008608 -0.003136 -0.000949 0.000006 -0.002906 0.000000
# 2 -0.003136 0.014701 0.000377 0.000000 -0.002125 -0.000003
# 3 -0.000949 0.000377 0.013084 -0.000005 -0.007869 -0.000001
# 4 0.000006 0.000000 -0.000005 0.066350 -0.000021 0.004824
# 5 -0.002906 -0.002125 -0.007869 -0.000021 0.048993 0.000004
# 6 0.000000 -0.000003 -0.000001 0.004824 0.000004 0.025793
#
#
# Mechanical properties :
#
#
# Convention : Reuss Voigt Hill
#
# Bulk Modulus (GPa) = 34.51177 43.50850 39.01013
# Shear Modulus (GPa) = 25.69320 32.03190 28.86255
#
# Velocity S-wave (km/s) = 3.76738 4.20651 3.99299
# Velocity P-wave (km/s) = 6.16351 6.90126 6.54279
#
# Compressibility (1/GPa) = 0.02897562
#
# Stress axis : x y z
#
# Youngs Moduli (GPa) = 116.17689 68.02339 76.42739
#
# Poissons Ratio (x) = 0.21333 0.07256
# Poissons Ratio (y) = 0.36434 -0.02881
# Poissons Ratio (z) = 0.11030 -0.02564
#
# Static dielectric constant tensor:
#      x y z
#    x 3.398980 -0.000030 -0.135430 
#    y -0.000030 3.228760 0.000030 
#    z -0.135430 0.000030 3.043350 
# 
# 
# High freq. dielectric constant tensor:
#      x y z
#    x 1.710210 0.000000 -0.010820 
#    y 0.000000 1.697700 0.000000 
#    z -0.010820 0.000000 1.683390 
# 
# From -- ./inp_files/124861.got.cif
#   From: 2010.06.25/outbox.cif.g09.slc.cpg/sg15_63_cif.got.tgz:124861.got - 2010.06.28 07:06:18.
