data_PCOD8151345
_publ_section_title
;
Structure prediction by ZEFSAII (Michael W. Deem and Ramdas Pophale) SiO2 
 PCOD8151345
Probable space group: C 2/C
;
_chemical_formula_sum "Si O2"
_cell_formula_units_Z 48
_cell_length_a 19.360652
_cell_length_b 11.851263
_cell_length_c 25.338335
_cell_angle_alpha 90.000000
_cell_angle_beta 20.589143
_cell_angle_gamma 90.000000
_cell_volume 2044.517964
_symmetry_space_group_name_H-M "C 2/C"
_symmetry_group_IT_number 15
_symmetry_cell_setting 'monoclinic'
loop_
_space_group_symop_operation_xyz
x,y,z
-x,y,1/2-z
-x,-y,-z
x,-y,1/2+z
1/2+x,1/2+y,z
1/2-x,1/2+y,1/2-z
1/2-x,1/2-y,-z
1/2+x,1/2-y,1/2+z
loop_
_atom_site_type_symbol
_atom_site_label
_atom_site_fract_x
_atom_site_fract_y
_atom_site_fract_z
Si Si1 0.500000 0.154613 0.750000
Si Si2 0.133782 0.868544 0.246885
Si Si3 0.348651 0.232833 0.061180
Si Si4 0.066189 0.487453 0.529976
Si Si5 0.753808 0.309314 0.749122
Si Si6 0.000000 0.716767 0.250000
Si Si7 0.767622 0.532481 0.476685
O O1 0.348395 0.234233 0.828404
O O2 0.624525 0.079520 0.620364
O O3 0.143926 0.791505 0.291249
O O4 0.117609 0.790617 0.207329
O O5 0.964256 0.964508 0.370926
O O6 0.337330 0.936739 0.092800
O O7 0.285462 0.222007 0.166204
O O8 0.523681 0.324307 0.928776
O O9 0.447378 0.121364 0.965566
O O10 0.203979 0.457354 0.481184
O O11 0.853044 0.430468 0.691350
O O12 0.154481 0.643170 0.107599
#
# Coordination Sequence:
#
# PCOD8151345 Si02
#       7
#     4   8   8   8   8   4   8
#     4  11  30  51  72 102 144 197 252 303 356 440
#     4  12  23  41  75 111 150 187 239 303 363 435
#     4  12  30  51  75 103 150 198 248 300 364 440
#     4  12  25  46  75 110 143 195 246 292 369 440
#     4  12  27  48  75 111 148 192 240 307 367 432
#     4  11  20  39  66 110 152 187 236 293 366 428
#     4  11  24  42  74 112 143 191 245 299 361 427
#
# _framework density 23.477416000000002
#
# number of rings (size 3 to 8) (size 9 to 14) (size 15 to 20)
#    0.000    0.333    5.000    3.000    4.667    1.333 
#    0.000    2.500    0.000    0.000    0.000    0.000 
#    0.000    0.000    0.000    0.000    0.000    0.000 
#
# Total GULP energy -297691.102005 kJ/mol
# GULP energy per Si atom -12403.795917 kJ/mol
# Density = 2.342398 g / cm^3
# Si number density = 23.477416 Si / 1000 Ang^3
#
#
#
# Elastic Constant Matrix: (Units=GPa)
#
#
# Indices 1 2 3 4 5 6 
#
# 1 121.5844 40.9886 33.6844 -0.0139 -6.0265 -0.0057
# 2 40.9886 117.6037 39.2050 0.0593 -9.6788 0.0131
# 3 33.6844 39.2050 72.7312 -0.1169 -8.4391 -0.0501
# 4 -0.0139 0.0593 -0.1169 28.2103 -0.0060 3.7972
# 5 -6.0265 -9.6788 -8.4391 -0.0060 40.9760 0.0178
# 6 -0.0057 0.0131 -0.0501 3.7972 0.0178 1.7746
#
#
#
# Elastic Compliance Matrix: (Units=1/GPa)
#
#
# Indices 1 2 3 4 5 6 
#
# 1 0.009944 -0.002341 -0.003317 0.000003 0.000226 -0.000054
# 2 -0.002341 0.010988 -0.004690 -0.000017 0.001285 -0.000198
# 3 -0.003317 -0.004690 0.018060 0.000021 0.002124 0.000468
# 4 0.000003 -0.000017 0.000021 0.049788 0.000054 -0.106532
# 5 0.000226 0.001285 0.002124 0.000054 0.025179 -0.000318
# 6 -0.000054 -0.000198 0.000468 -0.106532 -0.000318 0.791476
#
#
# Mechanical properties :
#
#
# Convention : Reuss Voigt Hill
#
# Bulk Modulus (GPa) = 54.65620 59.96390 57.31005
# Shear Modulus (GPa) = 5.36347 27.39493 16.37920
#
# Velocity S-wave (km/s) = 1.51310 3.41964 2.64419
# Velocity P-wave (km/s) = 5.13649 6.41783 5.81257
#
# Compressibility (1/GPa) = 0.01829619
#
# Stress axis : x y z
#
# Youngs Moduli (GPa) = 100.55992 91.00478 55.36988
#
# Poissons Ratio (x) = 0.21308 0.18367
# Poissons Ratio (y) = 0.23545 0.25967
# Poissons Ratio (z) = 0.33358 0.42680
#
# Static dielectric constant tensor:
#      x y z
#    x 4.464420 0.000000 -0.027310 
#    y 0.000000 4.241320 0.000170 
#    z -0.027310 0.000170 4.379550 
# 
# 
# High freq. dielectric constant tensor:
#      x y z
#    x 1.946970 0.000000 -0.000730 
#    y 0.000000 1.924800 0.000020 
#    z -0.000730 0.000020 1.939180 
# 
# From -- ./inp_files/300933.got.cif
#   From: 2010.06.25/outbox.cif.g09.slc.cpg/sg15_151_cif.got.tgz:300933.got - 2010.06.28 07:06:18.
