data_PCOD8151784
_publ_section_title
;
Structure prediction by ZEFSAII (Michael W. Deem and Ramdas Pophale) SiO2 
 PCOD8151784
Probable space group: C 2/C
;
_chemical_formula_sum "Si O2"
_cell_formula_units_Z 36
_cell_length_a 7.155398
_cell_length_b 23.469969
_cell_length_c 10.827219
_cell_angle_alpha 90.000000
_cell_angle_beta 69.790986
_cell_angle_gamma 90.000000
_cell_volume 1706.354004
_symmetry_space_group_name_H-M "C 2/C"
_symmetry_group_IT_number 15
_symmetry_cell_setting 'monoclinic'
loop_
_space_group_symop_operation_xyz
x,y,z
-x,y,1/2-z
-x,-y,-z
x,-y,1/2+z
1/2+x,1/2+y,z
1/2-x,1/2+y,1/2-z
1/2-x,1/2-y,-z
1/2+x,1/2-y,1/2+z
loop_
_atom_site_type_symbol
_atom_site_label
_atom_site_fract_x
_atom_site_fract_y
_atom_site_fract_z
Si Si1 0.500000 0.666812 0.250000
Si Si2 0.798924 0.067684 0.443509
Si Si3 0.422053 0.908778 0.898566
Si Si4 0.970460 0.948265 0.387049
Si Si5 0.681676 0.216123 0.136300
O O1 0.365498 0.626658 0.366123
O O2 0.364423 0.705450 0.190112
O O3 0.563406 0.064517 0.471660
O O4 0.826186 0.065181 0.585615
O O5 0.925971 0.014091 0.364134
O O6 0.500000 0.934047 0.750000
O O7 0.421228 0.840873 0.892198
O O8 0.199248 0.926544 0.981482
O O9 0.000000 0.915646 0.250000
O O10 0.500000 0.248503 0.250000
O O11 0.750000 0.250000 0.000000
#
# Coordination Sequence:
#
# PCOD8151784 Si02
#       5
#     4   8   8   8   8
#     4  12  20  46  74  90 132 180 212 260 352 394
#     4  11  21  40  66  93 135 180 212 253 334 388
#     4  11  22  42  66  94 133 175 216 264 326 397
#     4  11  24  37  63 101 135 172 221 263 302 388
#     4  11  25  45  72  99 124 169 228 281 333 396
#
# _framework density 21.097615000000001
#
# number of rings (size 3 to 8) (size 9 to 14) (size 15 to 20)
#    0.000    0.889    7.778    0.667    3.111    2.667 
#    0.000    0.000    0.000    0.000    0.000    0.000 
#    0.000    0.000    0.000    0.000    0.000    0.000 
#
# Total GULP energy -222996.037793 kJ/mol
# GULP energy per Si atom -12388.668766 kJ/mol
# Density = 2.104960 g / cm^3
# Si number density = 21.097615 Si / 1000 Ang^3
#
#
#
# Elastic Constant Matrix: (Units=GPa)
#
#
# Indices 1 2 3 4 5 6 
#
# 1 119.8858 32.9535 42.9972 0.0000 25.7711 0.0000
# 2 32.9535 54.9982 45.7491 0.0000 10.6898 0.0000
# 3 42.9972 45.7491 151.4148 0.0000 -3.7576 0.0000
# 4 0.0000 0.0000 0.0000 18.3150 0.0000 3.6936
# 5 25.7711 10.6898 -3.7576 0.0000 38.5638 0.0000
# 6 0.0000 0.0000 0.0000 3.6936 0.0000 29.1742
#
#
#
# Elastic Compliance Matrix: (Units=1/GPa)
#
#
# Indices 1 2 3 4 5 6 
#
# 1 0.011724 -0.003658 -0.002399 0.000000 -0.007054 0.000000
# 2 -0.003658 0.027779 -0.007503 0.000000 -0.005987 0.000000
# 3 -0.002399 -0.007503 0.009667 0.000000 0.004625 0.000000
# 4 0.000000 0.000000 0.000000 0.056031 0.000000 -0.007094
# 5 -0.007054 -0.005987 0.004625 0.000000 0.032755 0.000000
# 6 0.000000 0.000000 0.000000 -0.007094 0.000000 0.035175
#
#
# Mechanical properties :
#
#
# Convention : Reuss Voigt Hill
#
# Bulk Modulus (GPa) = 45.35112 63.29982 54.32547
# Shear Modulus (GPa) = 24.08464 30.85053 27.46758
#
# Velocity S-wave (km/s) = 3.38239 3.82812 3.61214
# Velocity P-wave (km/s) = 6.06602 7.04328 6.57284
#
# Compressibility (1/GPa) = 0.02205017
#
# Stress axis : x y z
#
# Youngs Moduli (GPa) = 85.29866 35.99835 103.43994
#
# Poissons Ratio (x) = 0.13167 0.24816
# Poissons Ratio (y) = 0.31200 0.77613
# Poissons Ratio (z) = 0.20463 0.27010
#
# Static dielectric constant tensor:
#      x y z
#    x 4.097560 0.000000 0.202610 
#    y 0.000000 3.530900 0.000000 
#    z 0.202610 0.000000 4.140400 
# 
# 
# High freq. dielectric constant tensor:
#      x y z
#    x 1.841880 0.000000 0.011340 
#    y 0.000000 1.791310 0.000000 
#    z 0.011340 0.000000 1.833180 
# 
# From -- ./inp_files/24365.got.cif
#   From: 2010.06.25/outbox.cif.g09.slc.cpg/sg15_13_cif.got.tgz:24365.got - 2010.06.28 07:06:18.
