data_PCOD8151087
_publ_section_title
;
Structure prediction by ZEFSAII (Michael W. Deem and Ramdas Pophale) SiO2 
 PCOD8151087
Probable space group: C 2/C
;
_chemical_formula_sum "Si O2"
_cell_formula_units_Z 60
_cell_length_a 18.103634
_cell_length_b 9.225821
_cell_length_c 16.978468
_cell_angle_alpha 90.000000
_cell_angle_beta 87.700451
_cell_angle_gamma 90.000000
_cell_volume 2833.475175
_symmetry_space_group_name_H-M "C 2/C"
_symmetry_group_IT_number 15
_symmetry_cell_setting 'monoclinic'
loop_
_space_group_symop_operation_xyz
x,y,z
-x,y,1/2-z
-x,-y,-z
x,-y,1/2+z
1/2+x,1/2+y,z
1/2-x,1/2+y,1/2-z
1/2-x,1/2-y,-z
1/2+x,1/2-y,1/2+z
loop_
_atom_site_type_symbol
_atom_site_label
_atom_site_fract_x
_atom_site_fract_y
_atom_site_fract_z
Si Si1 0.838967 0.033117 0.986868
Si Si2 0.895563 0.233164 0.402333
Si Si3 0.700339 0.006484 0.589320
Si Si4 0.233893 0.036923 0.760668
Si Si5 0.948983 0.103346 0.116790
Si Si6 0.151612 0.253989 0.268396
Si Si7 0.000000 0.887287 0.250000
Si Si8 0.632206 0.274105 0.158487
O O1 0.861394 0.164193 0.929735
O O2 0.838442 0.886186 0.936252
O O3 0.901547 0.024259 0.051456
O O4 0.753816 0.056088 0.019088
O O5 0.864851 0.386060 0.439457
O O6 0.897381 0.245762 0.308038
O O7 0.977883 0.179643 0.422865
O O8 0.756201 0.088619 0.647868
O O9 0.662513 0.887305 0.647956
O O10 0.311369 0.088545 0.717584
O O11 0.170142 0.125812 0.721806
O O12 0.217356 0.865962 0.758112
O O13 0.898775 0.231807 0.153392
O O14 0.960477 0.990303 0.187403
O O15 0.049245 0.778431 0.195231
#
# Coordination Sequence:
#
# PCOD8151087 Si02
#       8
#     8   8   8   8   8   8   4   8
#     4  12  22  39  70  87 124 166 213 251 313 380
#     4  11  23  39  63  90 129 161 207 256 316 371
#     4  11  25  41  60  96 130 160 207 263 317 369
#     4  11  19  38  61  89 118 156 210 257 304 358
#     4  12  20  41  64  95 115 168 216 255 304 389
#     4  11  20  37  63  87 122 161 206 265 300 368
#     4  12  22  40  66  86 122 156 218 256 306 372
#     4  12  23  41  62  93 123 164 204 261 311 372
#
# _framework density 21.175411
#
# number of rings (size 3 to 8) (size 9 to 14) (size 15 to 20)
#    0.000    0.533    8.000    1.200    0.000    0.000 
#    4.800    0.667    0.000    0.000    0.000    0.000 
#    0.000    0.000    0.000    0.000    0.000    0.000 
#
# Total GULP energy -371656.823749 kJ/mol
# GULP energy per Si atom -12388.560792 kJ/mol
# Density = 2.112721 g / cm^3
# Si number density = 21.175411 Si / 1000 Ang^3
#
#
#
# Elastic Constant Matrix: (Units=GPa)
#
#
# Indices 1 2 3 4 5 6 
#
# 1 102.2867 41.9722 30.4736 0.0000 -32.0093 0.0000
# 2 41.9722 66.3217 21.4650 0.0000 -9.4857 0.0000
# 3 30.4736 21.4650 61.0478 0.0000 -19.7582 0.0000
# 4 0.0000 0.0000 0.0000 19.1433 0.0000 -2.7836
# 5 -32.0093 -9.4857 -19.7582 0.0000 40.1709 0.0000
# 6 0.0000 0.0000 0.0000 -2.7836 0.0000 30.9936
#
#
#
# Elastic Compliance Matrix: (Units=1/GPa)
#
#
# Indices 1 2 3 4 5 6 
#
# 1 0.017359 -0.008769 -0.002112 0.000000 0.010723 0.000000
# 2 -0.008769 0.021499 -0.004520 0.000000 -0.004134 0.000000
# 3 -0.002112 -0.004520 0.021567 0.000000 0.007858 0.000000
# 4 0.000000 0.000000 0.000000 0.052929 0.000000 0.004754
# 5 0.010723 -0.004134 0.007858 0.000000 0.036327 0.000000
# 6 0.000000 0.000000 0.000000 0.004754 0.000000 0.032692
#
#
# Mechanical properties :
#
#
# Convention : Reuss Voigt Hill
#
# Bulk Modulus (GPa) = 33.75557 46.38643 40.07100
# Shear Modulus (GPa) = 22.41658 27.11127 24.76392
#
# Velocity S-wave (km/s) = 3.25716 3.58204 3.42346
# Velocity P-wave (km/s) = 5.48826 6.24991 5.88143
#
# Compressibility (1/GPa) = 0.02962474
#
# Stress axis : x y z
#
# Youngs Moduli (GPa) = 57.60542 46.51347 46.36678
#
# Poissons Ratio (x) = 0.40787 0.09791
# Poissons Ratio (y) = 0.50514 0.20958
# Poissons Ratio (z) = 0.12164 0.21024
#
# Static dielectric constant tensor:
#      x y z
#    x 3.991900 0.000000 -0.035140 
#    y 0.000000 3.751680 0.000000 
#    z -0.035140 0.000000 3.856880 
# 
# 
# High freq. dielectric constant tensor:
#      x y z
#    x 1.831350 0.000000 -0.003050 
#    y 0.000000 1.811230 0.000000 
#    z -0.003050 0.000000 1.829360 
# 
# From -- ./inp_files/209576.got.cif
#   From: 2010.06.25/outbox.cif.g09.slc.cpg/sg15_105_cif.got.tgz:209576.got - 2010.06.28 07:06:18.
