data_PCOD8151662
_publ_section_title
;
Structure prediction by ZEFSAII (Michael W. Deem and Ramdas Pophale) SiO2 
 PCOD8151662
Probable space group: C 2/C
;
_chemical_formula_sum "Si O2"
_cell_formula_units_Z 56
_cell_length_a 11.839718
_cell_length_b 29.945374
_cell_length_c 14.964556
_cell_angle_alpha 90.000000
_cell_angle_beta 30.431746
_cell_angle_gamma 90.000000
_cell_volume 2687.350514
_symmetry_space_group_name_H-M "C 2/C"
_symmetry_group_IT_number 15
_symmetry_cell_setting 'monoclinic'
loop_
_space_group_symop_operation_xyz
x,y,z
-x,y,1/2-z
-x,-y,-z
x,-y,1/2+z
1/2+x,1/2+y,z
1/2-x,1/2+y,1/2-z
1/2-x,1/2-y,-z
1/2+x,1/2-y,1/2+z
loop_
_atom_site_type_symbol
_atom_site_label
_atom_site_fract_x
_atom_site_fract_y
_atom_site_fract_z
Si Si1 0.000000 0.069899 0.750000
Si Si2 0.500000 0.588408 0.250000
Si Si3 0.698878 0.702329 0.684158
Si Si4 0.961915 0.557409 0.877688
Si Si5 0.665895 0.613601 0.319384
Si Si6 0.098013 0.301115 0.781415
Si Si7 0.978426 0.457263 0.868097
Si Si8 0.828155 0.116027 0.697505
O O1 0.964845 0.101264 0.690032
O O2 0.223861 0.042004 0.577069
O O3 0.300496 0.556992 0.420771
O O4 0.585084 0.619658 0.272781
O O5 0.500000 0.696591 0.750000
O O6 0.706910 0.752439 0.716693
O O7 0.691842 0.669600 0.775089
O O8 0.917556 0.691120 0.480171
O O9 0.063912 0.507891 0.824519
O O10 0.000000 0.572213 0.750000
O O11 0.085887 0.592750 0.857652
O O12 0.721003 0.661232 0.324596
O O13 0.457164 0.598452 0.521923
O O14 0.866329 0.577371 0.183938
O O15 0.000000 0.307935 0.750000
O O16 0.000000 0.443456 0.750000
#
# Coordination Sequence:
#
# PCOD8151662 Si02
#       8
#     4   4   8   8   8   8   8   8
#     4  12  23  40  66  98 130 170 212 268 337 392
#     4  12  25  46  68  90 126 180 228 264 323 378
#     4  11  21  38  63 100 130 168 205 262 333 392
#     4  11  25  45  66  93 128 177 225 271 318 385
#     4  12  25  43  67  94 132 175 217 270 320 385
#     4  11  22  38  65  98 134 164 210 263 330 393
#     4  11  24  42  66  97 131 168 221 272 332 386
#     4  12  24  42  67  95 134 169 217 268 329 387
#
# _framework density 20.838367999999999
#
# number of rings (size 3 to 8) (size 9 to 14) (size 15 to 20)
#    0.000    0.571    3.571    6.857    0.000    4.000 
#    0.000    0.000    1.571    2.571    0.000    0.000 
#    0.000    0.000    0.000    0.000    0.000    0.000 
#
# Total GULP energy -347208.314062 kJ/mol
# GULP energy per Si atom -12400.296931 kJ/mol
# Density = 2.079094 g / cm^3
# Si number density = 20.838368 Si / 1000 Ang^3
#
#
#
# Elastic Constant Matrix: (Units=GPa)
#
#
# Indices 1 2 3 4 5 6 
#
# 1 121.3295 62.6721 28.3128 0.0000 7.6621 0.0000
# 2 62.6721 136.7402 14.2263 0.0000 -8.3862 0.0000
# 3 28.3128 14.2263 126.9113 0.0001 4.1230 0.0000
# 4 0.0000 0.0000 0.0001 22.2327 0.0000 -0.1583
# 5 7.6621 -8.3862 4.1230 0.0000 33.8106 0.0000
# 6 0.0000 0.0000 0.0000 -0.1583 0.0000 26.6532
#
#
#
# Elastic Compliance Matrix: (Units=1/GPa)
#
#
# Indices 1 2 3 4 5 6 
#
# 1 0.011710 -0.005402 -0.001885 0.000000 -0.003764 0.000000
# 2 -0.005402 0.010021 -0.000039 0.000000 0.003714 0.000000
# 3 -0.001885 -0.000039 0.008324 0.000000 -0.000598 0.000000
# 4 0.000000 0.000000 0.000000 0.044981 0.000000 0.000267
# 5 -0.003764 0.003714 -0.000598 0.000000 0.031424 0.000000
# 6 0.000000 0.000000 0.000000 0.000267 0.000000 0.037520
#
#
# Mechanical properties :
#
#
# Convention : Reuss Voigt Hill
#
# Bulk Modulus (GPa) = 64.91852 66.15593 65.53722
# Shear Modulus (GPa) = 30.53181 35.19063 32.86122
#
# Velocity S-wave (km/s) = 3.83191 4.11389 3.97540
# Velocity P-wave (km/s) = 7.12734 7.37438 7.25192
#
# Compressibility (1/GPa) = 0.01540393
#
# Stress axis : x y z
#
# Youngs Moduli (GPa) = 85.39978 99.79337 120.13857
#
# Poissons Ratio (x) = 0.53905 0.22641
# Poissons Ratio (y) = 0.46130 0.00467
# Poissons Ratio (z) = 0.16094 0.00388
#
# Static dielectric constant tensor:
#      x y z
#    x 3.640720 0.000000 0.137330 
#    y 0.000000 3.731260 0.000000 
#    z 0.137330 0.000000 4.068520 
# 
# 
# High freq. dielectric constant tensor:
#      x y z
#    x 1.798100 0.000000 0.011250 
#    y 0.000000 1.809860 0.000000 
#    z 0.011250 0.000000 1.840780 
# 
# From -- ./inp_files/149291.got.cif
#   From: 2010.06.25/outbox.cif.g09.slc.cpg/sg15_75_cif.got.tgz:149291.got - 2010.06.28 07:06:18.
