data_PCOD8151858
_publ_section_title
;
Structure prediction by ZEFSAII (Michael W. Deem and Ramdas Pophale) SiO2 
 PCOD8151858
Probable space group: C 2/C
;
_chemical_formula_sum "Si O2"
_cell_formula_units_Z 52
_cell_length_a 8.197584
_cell_length_b 21.830644
_cell_length_c 14.810570
_cell_angle_alpha 90.000000
_cell_angle_beta 101.668779
_cell_angle_gamma 90.000000
_cell_volume 2595.700965
_symmetry_space_group_name_H-M "C 2/C"
_symmetry_group_IT_number 15
_symmetry_cell_setting 'monoclinic'
loop_
_space_group_symop_operation_xyz
x,y,z
-x,y,1/2-z
-x,-y,-z
x,-y,1/2+z
1/2+x,1/2+y,z
1/2-x,1/2+y,1/2-z
1/2-x,1/2-y,-z
1/2+x,1/2-y,1/2+z
loop_
_atom_site_type_symbol
_atom_site_label
_atom_site_fract_x
_atom_site_fract_y
_atom_site_fract_z
Si Si1 0.864784 0.383586 0.395233
Si Si2 0.723582 0.248946 0.103642
Si Si3 0.846817 0.956476 0.459873
Si Si4 0.998215 0.143744 0.857019
Si Si5 0.500000 0.811058 0.250000
Si Si6 0.006552 0.494330 0.855662
Si Si7 0.138853 0.381562 0.567959
O O1 0.685543 0.365881 0.415364
O O2 0.883352 0.353863 0.298279
O O3 0.884464 0.457249 0.391398
O O4 0.009568 0.359025 0.476683
O O5 0.568058 0.291401 0.114097
O O6 0.691141 0.178749 0.129067
O O7 0.888310 0.268932 0.174193
O O8 0.750000 0.250000 0.000000
O O9 0.798891 0.914235 0.540292
O O10 0.885266 0.911571 0.380743
O O11 0.692768 0.998712 0.413960
O O12 0.000000 0.000000 0.500000
O O13 0.000000 0.141155 0.750000
O O14 0.000000 0.506735 0.750000
O O15 0.946578 0.426308 0.870109
#
# Coordination Sequence:
#
# PCOD8151858 Si02
#       7
#     8   8   8   8   4   8   8
#     4  11  21  41  70  97 125 168 223 267 325 389
#     4  12  24  46  65  91 137 172 218 273 333 388
#     4  11  22  41  66  96 133 168 219 272 330 396
#     4  12  23  38  68 103 123 168 231 273 309 398
#     4  12  22  44  70  92 124 178 218 268 324 388
#     4  11  22  41  65  96 134 171 211 269 336 392
#     4  11  24  43  65  92 136 177 207 271 341 387
#
# _framework density 20.033124999999998
#
# number of rings (size 3 to 8) (size 9 to 14) (size 15 to 20)
#    0.000    0.615    5.385    5.538    0.000    1.231 
#    2.769    0.000    0.000    0.000    0.000    0.000 
#    0.000    0.000    0.000    0.000    0.000    0.000 
#
# Total GULP energy -322522.570477 kJ/mol
# GULP energy per Si atom -12404.714249 kJ/mol
# Density = 1.998753 g / cm^3
# Si number density = 20.033125 Si / 1000 Ang^3
#
#
#
# Elastic Constant Matrix: (Units=GPa)
#
#
# Indices 1 2 3 4 5 6 
#
# 1 132.9147 66.0182 26.8176 0.0000 2.9454 0.0000
# 2 66.0182 151.9433 30.4579 0.0000 4.8547 0.0000
# 3 26.8176 30.4579 65.1063 0.0000 6.1364 0.0000
# 4 0.0000 0.0000 0.0000 36.1071 0.0000 -0.0123
# 5 2.9454 4.8547 6.1364 0.0000 30.0459 0.0000
# 6 0.0000 0.0000 0.0000 -0.0123 0.0000 29.2094
#
#
#
# Elastic Compliance Matrix: (Units=1/GPa)
#
#
# Indices 1 2 3 4 5 6 
#
# 1 0.009891 -0.003843 -0.002288 0.000000 0.000119 0.000000
# 2 -0.003843 0.008763 -0.002466 0.000000 -0.000535 0.000000
# 3 -0.002288 -0.002466 0.017738 0.000000 -0.003000 0.000000
# 4 0.000000 0.000000 0.000000 0.027695 0.000000 0.000012
# 5 0.000119 -0.000535 -0.003000 0.000000 0.033970 0.000000
# 6 0.000000 0.000000 0.000000 0.000012 0.000000 0.034236
#
#
# Mechanical properties :
#
#
# Convention : Reuss Voigt Hill
#
# Bulk Modulus (GPa) = 52.08586 66.28353 59.18469
# Shear Modulus (GPa) = 32.07480 34.18385 33.12933
#
# Velocity S-wave (km/s) = 4.00570 4.13530 4.07102
# Velocity P-wave (km/s) = 6.88843 7.48062 7.19063
#
# Compressibility (1/GPa) = 0.01919907
#
# Stress axis : x y z
#
# Youngs Moduli (GPa) = 101.09860 114.12229 56.37565
#
# Poissons Ratio (x) = 0.43856 0.12897
# Poissons Ratio (y) = 0.38851 0.13902
# Poissons Ratio (z) = 0.23128 0.28141
#
# Static dielectric constant tensor:
#      x y z
#    x 3.815960 0.000000 -0.045690 
#    y 0.000000 3.874840 0.000000 
#    z -0.045690 0.000000 3.613710 
# 
# 
# High freq. dielectric constant tensor:
#      x y z
#    x 1.789390 0.000000 -0.003580 
#    y 0.000000 1.787270 0.000000 
#    z -0.003580 0.000000 1.776170 
# 
# From -- ./inp_files/136107.got.cif
#   From: 2010.06.25/outbox.cif.g09.slc.cpg/sg15_69_cif.got.tgz:136107.got - 2010.06.28 07:06:18.
