data_PCOD8151688
_publ_section_title
;
Structure prediction by ZEFSAII (Michael W. Deem and Ramdas Pophale) SiO2 
 PCOD8151688
Probable space group: C 2/C
;
_chemical_formula_sum "Si O2"
_cell_formula_units_Z 56
_cell_length_a 9.531862
_cell_length_b 12.404136
_cell_length_c 23.580152
_cell_angle_alpha 90.000000
_cell_angle_beta 114.698878
_cell_angle_gamma 90.000000
_cell_volume 2532.932509
_symmetry_space_group_name_H-M "C 2/C"
_symmetry_group_IT_number 15
_symmetry_cell_setting 'monoclinic'
loop_
_space_group_symop_operation_xyz
x,y,z
-x,y,1/2-z
-x,-y,-z
x,-y,1/2+z
1/2+x,1/2+y,z
1/2-x,1/2+y,1/2-z
1/2-x,1/2-y,-z
1/2+x,1/2-y,1/2+z
loop_
_atom_site_type_symbol
_atom_site_label
_atom_site_fract_x
_atom_site_fract_y
_atom_site_fract_z
Si Si1 0.166014 0.017091 0.765036
Si Si2 0.844177 0.888950 0.349449
Si Si3 0.131820 0.000444 0.933292
Si Si4 0.110844 0.425869 0.105710
Si Si5 0.659915 0.280163 0.756804
Si Si6 0.386018 0.315520 0.881187
Si Si7 0.787267 0.513392 0.077408
O O1 0.164510 0.895928 0.788126
O O2 0.000000 0.072445 0.750000
O O3 0.194060 0.015751 0.702192
O O4 0.301619 0.081693 0.819117
O O5 0.806597 0.779805 0.309428
O O6 0.739677 0.909066 0.386993
O O7 0.023614 0.897657 0.397839
O O8 0.041442 0.888339 0.906022
O O9 0.286850 0.011190 0.923166
O O10 0.169036 0.007336 0.005585
O O11 0.075096 0.301023 0.082869
O O12 0.961798 0.502962 0.085446
O O13 0.500000 0.222745 0.750000
O O14 0.675162 0.290744 0.692125
O O15 0.252041 0.376762 0.894719
#
# Coordination Sequence:
#
# PCOD8151688 Si02
#       7
#     8   8   8   8   8   8   8
#     4  11  21  41  66  98 143 177 228 293 355 417
#     4  11  21  40  71 100 134 185 228 284 357 411
#     4  11  24  49  72  96 149 189 229 289 349 422
#     4  12  25  43  72 104 137 184 239 290 351 414
#     4  11  21  38  68 103 139 177 231 292 358 418
#     4  11  23  45  71 101 140 183 231 292 351 412
#     4  11  26  46  69 106 142 185 241 288 337 426
#
# _framework density 22.108761999999999
#
# number of rings (size 3 to 8) (size 9 to 14) (size 15 to 20)
#    0.000    0.857    5.714    3.857    0.000    2.286 
#    0.000    7.143    0.000    0.000    0.000    0.000 
#    0.000    0.000    0.000    0.000    0.000    0.000 
#
# Total GULP energy -347049.897317 kJ/mol
# GULP energy per Si atom -12394.639190 kJ/mol
# Density = 2.205844 g / cm^3
# Si number density = 22.108762 Si / 1000 Ang^3
#
#
#
# Elastic Constant Matrix: (Units=GPa)
#
#
# Indices 1 2 3 4 5 6 
#
# 1 145.9950 65.2736 41.6412 0.0000 3.8803 0.0000
# 2 65.2736 117.5955 43.3361 0.0000 6.0075 0.0000
# 3 41.6412 43.3361 154.8808 0.0000 -2.1930 0.0000
# 4 0.0000 0.0000 0.0000 31.5244 0.0000 2.8777
# 5 3.8803 6.0075 -2.1930 0.0000 30.5851 0.0000
# 6 0.0000 0.0000 0.0000 2.8777 0.0000 24.3400
#
#
#
# Elastic Compliance Matrix: (Units=1/GPa)
#
#
# Indices 1 2 3 4 5 6 
#
# 1 0.009303 -0.004708 -0.001189 0.000000 -0.000341 0.000000
# 2 -0.004708 0.011995 -0.002117 0.000000 -0.001911 0.000000
# 3 -0.001189 -0.002117 0.007384 0.000000 0.001096 0.000000
# 4 0.000000 0.000000 0.000000 0.032068 0.000000 -0.003791
# 5 -0.000341 -0.001911 0.001096 0.000000 0.033193 0.000000
# 6 0.000000 0.000000 0.000000 -0.003791 0.000000 0.041533
#
#
# Mechanical properties :
#
#
# Convention : Reuss Voigt Hill
#
# Bulk Modulus (GPa) = 79.03034 79.88590 79.45812
# Shear Modulus (GPa) = 32.10871 35.17128 33.63999
#
# Velocity S-wave (km/s) = 3.81505 3.99285 3.90496
# Velocity P-wave (km/s) = 7.43168 7.58081 7.50662
#
# Compressibility (1/GPa) = 0.01265337
#
# Stress axis : x y z
#
# Youngs Moduli (GPa) = 107.49664 83.36792 135.42572
#
# Poissons Ratio (x) = 0.39251 0.16096
# Poissons Ratio (y) = 0.50611 0.28676
# Poissons Ratio (z) = 0.12777 0.17653
#
# Static dielectric constant tensor:
#      x y z
#    x 3.955840 0.000000 -0.074950 
#    y 0.000000 4.020300 0.000000 
#    z -0.074950 0.000000 3.986290 
# 
# 
# High freq. dielectric constant tensor:
#      x y z
#    x 1.870120 0.000000 -0.011480 
#    y 0.000000 1.858520 0.000000 
#    z -0.011480 0.000000 1.873950 
# 
# From -- ./inp_files/264788.got.cif
#   From: 2010.06.25/outbox.cif.g09.slc.cpg/sg15_133_cif.got.tgz:264788.got - 2010.06.28 07:06:18.
