data_PCOD8151236
_publ_section_title
;
Structure prediction by ZEFSAII (Michael W. Deem and Ramdas Pophale) SiO2 
 PCOD8151236
Probable space group: C 2/C
;
_chemical_formula_sum "Si O2"
_cell_formula_units_Z 56
_cell_length_a 18.981345
_cell_length_b 21.683858
_cell_length_c 9.660790
_cell_angle_alpha 90.000000
_cell_angle_beta 136.587488
_cell_angle_gamma 90.000000
_cell_volume 2732.678259
_symmetry_space_group_name_H-M "C 2/C"
_symmetry_group_IT_number 15
_symmetry_cell_setting 'monoclinic'
loop_
_space_group_symop_operation_xyz
x,y,z
-x,y,1/2-z
-x,-y,-z
x,-y,1/2+z
1/2+x,1/2+y,z
1/2-x,1/2+y,1/2-z
1/2-x,1/2-y,-z
1/2+x,1/2-y,1/2+z
loop_
_atom_site_type_symbol
_atom_site_label
_atom_site_fract_x
_atom_site_fract_y
_atom_site_fract_z
Si Si1 0.819039 0.361799 0.156595
Si Si2 0.271660 0.688030 0.246710
Si Si3 0.423121 0.008026 0.766406
Si Si4 0.500582 0.823003 0.599099
Si Si5 0.497477 0.685656 0.898906
Si Si6 0.204456 0.175424 0.736837
Si Si7 0.190487 0.612558 0.360400
O O1 0.863614 0.427736 0.181984
O O2 0.718348 0.362064 0.111631
O O3 0.897254 0.322797 0.363309
O O4 0.797055 0.324609 0.985735
O O5 0.390807 0.688368 0.370901
O O6 0.230468 0.751629 0.255618
O O7 0.271175 0.630799 0.355965
O O8 0.500000 0.000236 0.750000
O O9 0.328121 0.959572 0.635440
O O10 0.500000 0.000000 0.000000
O O11 0.500000 0.855769 0.750000
O O12 0.542557 0.754686 0.682671
O O13 0.585885 0.861882 0.639696
O O14 0.500000 0.653039 0.750000
O O15 0.411117 0.658118 0.878297
O O16 0.283824 0.148191 0.961505
#
# Coordination Sequence:
#
# PCOD8151236 Si02
#       7
#     8   8   8   8   8   8   8
#     4  12  26  41  61 100 145 173 214 277 349 395
#     4  12  25  41  62 101 136 171 222 286 341 386
#     4  12  25  43  67  99 136 180 221 272 335 401
#     4  11  20  36  65  95 129 177 221 257 324 427
#     4  11  22  39  66  93 128 170 228 276 328 402
#     4  12  23  42  68  93 131 182 223 270 341 405
#     4  12  22  41  68  94 131 175 225 271 327 406
#
# _framework density 20.492716000000001
#
# number of rings (size 3 to 8) (size 9 to 14) (size 15 to 20)
#    0.000    0.286    7.143    3.857    0.000    0.571 
#    0.000    0.000    0.000    5.143    0.000    0.000 
#    0.000    0.000    0.000    0.000    0.000    0.000 
#
# Total GULP energy -346917.900301 kJ/mol
# GULP energy per Si atom -12389.925011 kJ/mol
# Density = 2.044607 g / cm^3
# Si number density = 20.492716 Si / 1000 Ang^3
#
#
#
# Elastic Constant Matrix: (Units=GPa)
#
#
# Indices 1 2 3 4 5 6 
#
# 1 120.8948 37.2161 33.0216 0.0000 1.2304 0.0000
# 2 37.2161 78.8164 37.0591 0.0000 -0.7443 0.0000
# 3 33.0216 37.0591 119.6536 0.0000 -12.9997 0.0000
# 4 0.0000 0.0000 0.0000 28.1342 0.0000 4.1004
# 5 1.2304 -0.7443 -12.9997 0.0000 38.7384 0.0000
# 6 0.0000 0.0000 0.0000 4.1004 0.0000 32.8229
#
#
#
# Elastic Compliance Matrix: (Units=1/GPa)
#
#
# Indices 1 2 3 4 5 6 
#
# 1 0.009937 -0.003937 -0.001625 0.000000 -0.000936 0.000000
# 2 -0.003937 0.016474 -0.004118 0.000000 -0.000940 0.000000
# 3 -0.001625 -0.004118 0.010460 0.000000 0.003482 0.000000
# 4 0.000000 0.000000 0.000000 0.036203 0.000000 -0.004523
# 5 -0.000936 -0.000940 0.003482 0.000000 0.026995 0.000000
# 6 0.000000 0.000000 0.000000 -0.004523 0.000000 0.031032
#
#
# Mechanical properties :
#
#
# Convention : Reuss Voigt Hill
#
# Bulk Modulus (GPa) = 57.10634 59.32872 58.21753
# Shear Modulus (GPa) = 31.99052 34.07697 33.03374
#
# Velocity S-wave (km/s) = 3.95532 4.08227 4.01930
# Velocity P-wave (km/s) = 6.98474 7.15778 7.07179
#
# Compressibility (1/GPa) = 0.01751119
#
# Stress axis : x y z
#
# Youngs Moduli (GPa) = 100.63474 60.70136 95.60569
#
# Poissons Ratio (x) = 0.23898 0.15533
# Poissons Ratio (y) = 0.39620 0.39370
# Poissons Ratio (z) = 0.16350 0.24997
#
# Static dielectric constant tensor:
#      x y z
#    x 4.238510 0.000000 0.039750 
#    y 0.000000 3.378360 0.000000 
#    z 0.039750 0.000000 3.646590 
# 
# 
# High freq. dielectric constant tensor:
#      x y z
#    x 1.816280 0.000000 -0.004780 
#    y 0.000000 1.770630 0.000000 
#    z -0.004780 0.000000 1.796330 
# 
# From -- ./inp_files/51598.got.cif
#   From: 2010.06.25/outbox.cif.g09.slc.cpg/sg15_26_cif.got.tgz:51598.got - 2010.06.28 07:06:18.
