data_PCOD8151935
_publ_section_title
;
Structure prediction by ZEFSAII (Michael W. Deem and Ramdas Pophale) SiO2 
 PCOD8151935
Probable space group: C 2/C
;
_chemical_formula_sum "Si O2"
_cell_formula_units_Z 56
_cell_length_a 15.702227
_cell_length_b 16.981354
_cell_length_c 18.156846
_cell_angle_alpha 90.000000
_cell_angle_beta 147.581697
_cell_angle_gamma 90.000000
_cell_volume 2595.475524
_symmetry_space_group_name_H-M "C 2/C"
_symmetry_group_IT_number 15
_symmetry_cell_setting 'monoclinic'
loop_
_space_group_symop_operation_xyz
x,y,z
-x,y,1/2-z
-x,-y,-z
x,-y,1/2+z
1/2+x,1/2+y,z
1/2-x,1/2+y,1/2-z
1/2-x,1/2-y,-z
1/2+x,1/2-y,1/2+z
loop_
_atom_site_type_symbol
_atom_site_label
_atom_site_fract_x
_atom_site_fract_y
_atom_site_fract_z
Si Si1 0.856703 0.837339 0.893811
Si Si2 0.166612 0.427817 0.258016
Si Si3 0.304615 0.265080 0.337679
Si Si4 0.823167 0.472342 0.979863
Si Si5 0.119387 0.982827 0.689274
Si Si6 0.774559 0.961356 0.952422
Si Si7 0.688118 0.690046 0.394595
O O1 0.737838 0.772170 0.772901
O O2 0.769398 0.882061 0.898416
O O3 0.899361 0.895534 0.857467
O O4 0.015241 0.794519 0.037245
O O5 0.180009 0.333815 0.268849
O O6 0.325942 0.459741 0.335662
O O7 0.170887 0.467787 0.341270
O O8 0.007616 0.454081 0.100179
O O9 0.281251 0.202094 0.385619
O O10 0.748663 0.491186 0.847193
O O11 0.732602 0.398271 0.951499
O O12 0.801823 0.546505 0.021304
O O13 0.954352 0.013638 0.598449
O O14 0.500000 0.698425 0.250000
O O15 0.750000 0.750000 0.500000
#
# Coordination Sequence:
#
# PCOD8151935 Si02
#       7
#     8   8   8   8   8   8   8
#     4  11  23  41  65  94 123 176 214 268 311 388
#     4  11  22  40  64  96 128 170 213 266 317 392
#     4  12  22  40  63  92 136 166 216 255 325 395
#     4  12  24  37  63  98 129 166 212 270 323 378
#     4  11  21  43  64  93 127 169 225 260 319 388
#     4  11  22  43  64  90 133 172 220 260 324 383
#     4  12  24  37  56  94 138 168 199 255 339 400
#
# _framework density 21.576008000000002
#
# number of rings (size 3 to 8) (size 9 to 14) (size 15 to 20)
#    0.000    0.571    4.286    6.429    0.000    0.000 
#    0.000    0.000    0.000    0.857    3.714    0.000 
#    0.000    0.000    0.000    0.000    0.000    0.000 
#
# Total GULP energy -347211.642293 kJ/mol
# GULP energy per Si atom -12400.415796 kJ/mol
# Density = 2.152690 g / cm^3
# Si number density = 21.576008 Si / 1000 Ang^3
#
#
#
# Elastic Constant Matrix: (Units=GPa)
#
#
# Indices 1 2 3 4 5 6 
#
# 1 51.5249 26.7680 10.5435 -0.0048 -4.3030 -0.0016
# 2 26.7680 74.0231 33.8874 -0.0121 -4.0050 -0.0028
# 3 10.5435 33.8874 122.3006 -0.0189 -5.8142 -0.0035
# 4 -0.0048 -0.0121 -0.0189 39.1531 0.0049 -6.0298
# 5 -4.3030 -4.0050 -5.8142 0.0049 27.4042 0.0028
# 6 -0.0016 -0.0028 -0.0035 -6.0298 0.0028 20.0341
#
#
#
# Elastic Compliance Matrix: (Units=1/GPa)
#
#
# Indices 1 2 3 4 5 6 
#
# 1 0.024095 -0.008793 0.000483 0.000000 0.002601 0.000000
# 2 -0.008793 0.018732 -0.004412 0.000003 0.000421 0.000002
# 3 0.000483 -0.004412 0.009426 0.000003 0.001431 0.000002
# 4 0.000000 0.000003 0.000003 0.026782 -0.000004 0.008061
# 5 0.002601 0.000421 0.001431 -0.000004 0.037264 -0.000006
# 6 0.000000 0.000002 0.000002 0.008061 -0.000006 0.052341
#
#
# Mechanical properties :
#
#
# Convention : Reuss Voigt Hill
#
# Bulk Modulus (GPa) = 37.30409 43.36071 40.33240
# Shear Modulus (GPa) = 24.62805 29.09492 26.86149
#
# Velocity S-wave (km/s) = 3.38221 3.67616 3.53224
# Velocity P-wave (km/s) = 5.70785 6.17731 5.94722
#
# Compressibility (1/GPa) = 0.02680671
#
# Stress axis : x y z
#
# Youngs Moduli (GPa) = 41.50273 53.38516 106.09513
#
# Poissons Ratio (x) = 0.46944 -0.05124
# Poissons Ratio (y) = 0.36495 0.46811
# Poissons Ratio (z) = -0.02004 0.23555
#
# Static dielectric constant tensor:
#      x y z
#    x 3.655860 -0.000080 -0.063350 
#    y -0.000080 3.922360 -0.000050 
#    z -0.063350 -0.000050 4.042990 
# 
# 
# High freq. dielectric constant tensor:
#      x y z
#    x 1.826620 0.000000 -0.005680 
#    y 0.000000 1.828770 0.000000 
#    z -0.005680 0.000000 1.872570 
# 
# From -- ./inp_files/249275.got.cif
#   From: 2010.06.25/outbox.cif.g09.slc.cpg/sg15_125_cif.got.tgz:249275.got - 2010.06.28 07:06:18.
