data_PCOD8151019
_publ_section_title
;
Structure prediction by ZEFSAII (Michael W. Deem and Ramdas Pophale) SiO2 
 PCOD8151019
Probable space group: C 2/C
;
_chemical_formula_sum "Si O2"
_cell_formula_units_Z 44
_cell_length_a 23.820924
_cell_length_b 19.886507
_cell_length_c 15.961785
_cell_angle_alpha 90.000000
_cell_angle_beta 18.491872
_cell_angle_gamma 90.000000
_cell_volume 2398.230043
_symmetry_space_group_name_H-M "C 2/C"
_symmetry_group_IT_number 15
_symmetry_cell_setting 'monoclinic'
loop_
_space_group_symop_operation_xyz
x,y,z
-x,y,1/2-z
-x,-y,-z
x,-y,1/2+z
1/2+x,1/2+y,z
1/2-x,1/2+y,1/2-z
1/2-x,1/2-y,-z
1/2+x,1/2-y,1/2+z
loop_
_atom_site_type_symbol
_atom_site_label
_atom_site_fract_x
_atom_site_fract_y
_atom_site_fract_z
Si Si1 0.345747 0.626130 0.872057
Si Si2 0.000000 0.008573 0.750000
Si Si3 0.390547 0.738948 0.022770
Si Si4 0.567766 0.178822 0.398443
Si Si5 0.853569 0.443709 0.189637
Si Si6 0.658040 0.114384 0.974326
O O1 0.445439 0.557186 0.751703
O O2 0.468605 0.689661 0.719179
O O3 0.322308 0.617701 0.805508
O O4 0.168736 0.640575 0.177435
O O5 0.165819 0.961713 0.494629
O O6 0.198213 0.702672 0.288272
O O7 0.390560 0.808697 0.974619
O O8 0.455571 0.756252 0.025268
O O9 0.427958 0.123733 0.629587
O O10 0.810872 0.430163 0.152059
O O11 0.000000 0.500000 0.000000
O O12 0.500000 0.079654 0.250000
#
# Coordination Sequence:
#
# PCOD8151019 Si02
#       6
#     8   4   8   8   8   8
#     4  12  19  31  54  87 118 144 183 242 300 349
#     4  12  24  38  56  78 118 172 202 224 278 354
#     4  11  19  29  54  93 121 139 175 238 329 354
#     4  11  20  32  56  84 123 143 180 244 294 366
#     4  11  22  40  55  77 118 163 201 229 285 349
#     4  11  20  32  55  87 118 144 183 248 297 350
#
# _framework density 18.346862999999999
#
# number of rings (size 3 to 8) (size 9 to 14) (size 15 to 20)
#    0.000    0.727    9.091    1.636    0.000    0.727 
#    0.000    0.000    0.000    4.364    0.000    0.000 
#    0.000    0.000    0.000    0.000    0.000    0.000 
#
# Total GULP energy -272577.753175 kJ/mol
# GULP energy per Si atom -12389.897872 kJ/mol
# Density = 1.830511 g / cm^3
# Si number density = 18.346863 Si / 1000 Ang^3
#
#
#
# Elastic Constant Matrix: (Units=GPa)
#
#
# Indices 1 2 3 4 5 6 
#
# 1 107.8124 41.7541 34.6355 -0.0057 -25.9205 0.0052
# 2 41.7541 106.0152 60.1875 -0.0070 -10.5403 0.0041
# 3 34.6355 60.1875 98.0406 -0.0010 -21.8427 0.0018
# 4 -0.0057 -0.0070 -0.0010 25.4674 -0.0018 -2.9254
# 5 -25.9205 -10.5403 -21.8427 -0.0018 26.0622 -0.0031
# 6 0.0052 0.0041 0.0018 -2.9254 -0.0031 33.0276
#
#
#
# Elastic Compliance Matrix: (Units=1/GPa)
#
#
# Indices 1 2 3 4 5 6 
#
# 1 0.013837 -0.004625 0.000738 0.000003 0.012510 0.000000
# 2 -0.004625 0.016107 -0.009625 0.000002 -0.006152 -0.000001
# 3 0.000738 -0.009625 0.018621 -0.000001 0.012448 0.000001
# 4 0.000003 0.000002 -0.000001 0.039670 0.000006 0.003514
# 5 0.012510 -0.006152 0.012448 0.000006 0.058756 0.000004
# 6 0.000000 -0.000001 0.000001 0.003514 0.000004 0.030589
#
#
# Mechanical properties :
#
#
# Convention : Reuss Voigt Hill
#
# Bulk Modulus (GPa) = 46.42186 65.00249 55.71217
# Shear Modulus (GPa) = 23.60903 28.59751 26.10327
#
# Velocity S-wave (km/s) = 3.59111 3.95234 3.77605
# Velocity P-wave (km/s) = 6.52319 7.50564 7.03160
#
# Compressibility (1/GPa) = 0.02154158
#
# Stress axis : x y z
#
# Youngs Moduli (GPa) = 72.26928 62.08586 53.70255
#
# Poissons Ratio (x) = 0.28715 -0.03964
# Poissons Ratio (y) = 0.33425 0.51688
# Poissons Ratio (z) = -0.05334 0.59756
#
# Static dielectric constant tensor:
#      x y z
#    x 3.719270 -0.000030 -0.466890 
#    y -0.000030 3.446310 0.000040 
#    z -0.466890 0.000040 3.030620 
# 
# 
# High freq. dielectric constant tensor:
#      x y z
#    x 1.720590 0.000000 -0.047320 
#    y 0.000000 1.709960 0.000000 
#    z -0.047320 0.000000 1.665430 
# 
# From -- ./inp_files/145448.got.cif
#   From: 2010.06.25/outbox.cif.g09.slc.cpg/sg15_73_cif.got.tgz:145448.got - 2010.06.28 07:06:18.
