data_PCOD8151722
_publ_section_title
;
Structure prediction by ZEFSAII (Michael W. Deem and Ramdas Pophale) SiO2 
 PCOD8151722
Probable space group: C 2/C
;
_chemical_formula_sum "Si O2"
_cell_formula_units_Z 60
_cell_length_a 6.502164
_cell_length_b 18.251936
_cell_length_c 24.034403
_cell_angle_alpha 90.000000
_cell_angle_beta 93.628059
_cell_angle_gamma 90.000000
_cell_volume 2846.616319
_symmetry_space_group_name_H-M "C 2/C"
_symmetry_group_IT_number 15
_symmetry_cell_setting 'monoclinic'
loop_
_space_group_symop_operation_xyz
x,y,z
-x,y,1/2-z
-x,-y,-z
x,-y,1/2+z
1/2+x,1/2+y,z
1/2-x,1/2+y,1/2-z
1/2-x,1/2-y,-z
1/2+x,1/2-y,1/2+z
loop_
_atom_site_type_symbol
_atom_site_label
_atom_site_fract_x
_atom_site_fract_y
_atom_site_fract_z
Si Si1 0.333852 0.260926 0.288428
Si Si2 0.239653 0.049124 0.544118
Si Si3 0.363441 0.538870 0.078252
Si Si4 0.935299 0.194327 0.133892
Si Si5 0.834845 0.214625 0.946487
Si Si6 0.678501 0.277666 0.379086
Si Si7 0.500000 0.124135 0.750000
Si Si8 0.394454 0.072260 0.867569
O O1 0.500000 0.223666 0.250000
O O2 0.173844 0.198257 0.307137
O O3 0.479929 0.296248 0.337984
O O4 0.204935 0.325994 0.257037
O O5 0.286583 0.037275 0.478808
O O6 0.134819 0.128098 0.548323
O O7 0.436322 0.044104 0.586446
O O8 0.088160 0.985901 0.562715
O O9 0.380389 0.620565 0.101882
O O10 0.285675 0.487684 0.127540
O O11 0.836255 0.264881 0.102108
O O12 0.181563 0.209689 0.140650
O O13 0.066886 0.244211 0.935674
O O14 0.750000 0.250000 0.000000
O O15 0.819441 0.348789 0.386327
O O16 0.474461 0.074193 0.804900
#
# Coordination Sequence:
#
# PCOD8151722 Si02
#       8
#     8   8   8   8   8   8   4   8
#     4  11  21  40  71 101 128 167 225 289 339 386
#     4  11  23  44  68  98 139 184 229 278 345 415
#     4  11  26  44  64  98 149 182 218 287 347 406
#     4  11  23  42  65 101 136 174 228 276 335 407
#     4  11  21  39  65  98 131 175 235 274 324 403
#     4  11  22  39  70  97 133 171 226 283 330 401
#     4  12  24  42  76 104 128 172 242 292 332 414
#     4  12  23  43  70 101 132 184 232 281 345 411
#
# _framework density 21.077656000000001
#
# number of rings (size 3 to 8) (size 9 to 14) (size 15 to 20)
#    0.000    0.800    6.667    1.200    0.000    2.667 
#    6.000    0.000    2.933    0.000    0.000    0.000 
#    0.000    0.000    0.000    0.000    0.000    0.000 
#
# Total GULP energy -371756.179668 kJ/mol
# GULP energy per Si atom -12391.872656 kJ/mol
# Density = 2.102968 g / cm^3
# Si number density = 21.077656 Si / 1000 Ang^3
#
#
#
# Elastic Constant Matrix: (Units=GPa)
#
#
# Indices 1 2 3 4 5 6 
#
# 1 104.2775 26.5477 59.4250 0.0000 -22.8567 0.0000
# 2 26.5477 77.8956 42.7583 0.0000 -12.4118 0.0000
# 3 59.4250 42.7583 112.2923 0.0000 -23.6646 0.0000
# 4 0.0000 0.0000 0.0000 29.0005 0.0000 -8.6701
# 5 -22.8567 -12.4118 -23.6646 0.0000 50.9290 0.0000
# 6 0.0000 0.0000 0.0000 -8.6701 0.0000 25.4864
#
#
#
# Elastic Compliance Matrix: (Units=1/GPa)
#
#
# Indices 1 2 3 4 5 6 
#
# 1 0.014216 -0.000731 -0.006582 0.000000 0.003143 0.000000
# 2 -0.000731 0.016334 -0.005613 0.000000 0.001045 0.000000
# 3 -0.006582 -0.005613 0.015093 0.000000 0.002691 0.000000
# 4 0.000000 0.000000 0.000000 0.038386 0.000000 0.013058
# 5 0.003143 0.001045 0.002691 0.000000 0.022551 0.000000
# 6 0.000000 0.000000 0.000000 0.013058 0.000000 0.043679
#
#
# Mechanical properties :
#
#
# Convention : Reuss Voigt Hill
#
# Bulk Modulus (GPa) = 50.52737 61.32529 55.92633
# Shear Modulus (GPa) = 27.36603 32.13212 29.74907
#
# Velocity S-wave (km/s) = 3.60716 3.90867 3.76094
# Velocity P-wave (km/s) = 6.43217 7.03764 6.74171
#
# Compressibility (1/GPa) = 0.01979125
#
# Stress axis : x y z
#
# Youngs Moduli (GPa) = 70.34345 61.22121 66.25589
#
# Poissons Ratio (x) = 0.04475 0.43612
# Poissons Ratio (y) = 0.05142 0.37187
# Poissons Ratio (z) = 0.46302 0.34362
#
# Static dielectric constant tensor:
#      x y z
#    x 4.045520 0.000000 -0.230710 
#    y 0.000000 3.631590 0.000000 
#    z -0.230710 0.000000 4.972390 
# 
# 
# High freq. dielectric constant tensor:
#      x y z
#    x 1.841210 0.000000 -0.015070 
#    y 0.000000 1.794000 0.000000 
#    z -0.015070 0.000000 1.833580 
# 
# From -- ./inp_files/286077.got.cif
#   From: 2010.06.25/outbox.cif.g09.slc.cpg/sg15_144_cif.got.tgz:286077.got - 2010.06.28 07:06:18.
