data_PCOD8151626
_publ_section_title
;
Structure prediction by ZEFSAII (Michael W. Deem and Ramdas Pophale) SiO2 
 PCOD8151626
Probable space group: C 2/C
;
_chemical_formula_sum "Si O2"
_cell_formula_units_Z 48
_cell_length_a 9.368387
_cell_length_b 17.811146
_cell_length_c 19.783491
_cell_angle_alpha 90.000000
_cell_angle_beta 131.997656
_cell_angle_gamma 90.000000
_cell_volume 2453.291032
_symmetry_space_group_name_H-M "C 2/C"
_symmetry_group_IT_number 15
_symmetry_cell_setting 'monoclinic'
loop_
_space_group_symop_operation_xyz
x,y,z
-x,y,1/2-z
-x,-y,-z
x,-y,1/2+z
1/2+x,1/2+y,z
1/2-x,1/2+y,1/2-z
1/2-x,1/2-y,-z
1/2+x,1/2-y,1/2+z
loop_
_atom_site_type_symbol
_atom_site_label
_atom_site_fract_x
_atom_site_fract_y
_atom_site_fract_z
Si Si1 0.377837 0.324413 0.029270
Si Si2 0.699160 0.699069 0.298764
Si Si3 0.521889 0.913269 0.936634
Si Si4 0.350730 0.684679 0.758597
Si Si5 0.724675 0.303986 0.054733
Si Si6 0.524109 0.084840 0.596158
O O1 0.528494 0.339276 0.137273
O O2 0.498346 0.320674 0.997315
O O3 0.250000 0.250000 0.000000
O O4 0.236705 0.395306 0.979988
O O5 0.500000 0.654423 0.250000
O O6 0.874642 0.642735 0.354887
O O7 0.712967 0.744194 0.232089
O O8 0.695515 0.763118 0.354355
O O9 0.471489 0.995555 0.894488
O O10 0.505842 0.897641 0.011179
O O11 0.500000 0.711871 0.750000
O O12 0.222431 0.616315 0.689733
O O13 0.841654 0.380725 0.077767
O O14 0.750000 0.250000 0.000000
#
# Coordination Sequence:
#
# PCOD8151626 Si02
#       6
#     8   8   8   8   8   8
#     4  11  21  38  67  94 121 160 214 259 312 380
#     4  11  22  38  65  90 120 162 221 259 306 383
#     4  11  23  42  60  94 126 165 209 270 311 383
#     4  11  22  36  65  91 119 167 207 255 314 382
#     4  11  21  37  65  91 117 167 210 253 311 384
#     4  11  23  40  63  89 131 167 208 258 331 366
#
# _framework density 19.565556000000001
#
# number of rings (size 3 to 8) (size 9 to 14) (size 15 to 20)
#    0.000    1.000    8.333    0.000    0.000    1.333 
#    0.000    0.000    7.333    0.000    0.000    0.000 
#    0.000    0.000    0.000    0.000    0.000    0.000 
#
# Total GULP energy -297496.922868 kJ/mol
# GULP energy per Si atom -12395.705119 kJ/mol
# Density = 1.952102 g / cm^3
# Si number density = 19.565556 Si / 1000 Ang^3
#
#
#
# Elastic Constant Matrix: (Units=GPa)
#
#
# Indices 1 2 3 4 5 6 
#
# 1 171.7322 53.7395 32.3686 0.0000 12.5816 0.0000
# 2 53.7395 105.7462 40.8692 0.0000 -0.0113 0.0000
# 3 32.3686 40.8692 68.8633 0.0000 8.0488 0.0000
# 4 0.0000 0.0000 0.0000 31.9967 0.0000 3.0823
# 5 12.5816 -0.0113 8.0488 0.0000 34.2442 0.0000
# 6 0.0000 0.0000 0.0000 3.0823 0.0000 29.8135
#
#
#
# Elastic Compliance Matrix: (Units=1/GPa)
#
#
# Indices 1 2 3 4 5 6 
#
# 1 0.007229 -0.003202 -0.001220 0.000000 -0.002370 0.000000
# 2 -0.003202 0.013794 -0.007012 0.000000 0.002829 0.000000
# 3 -0.001220 -0.007012 0.019747 0.000000 -0.004195 0.000000
# 4 0.000000 0.000000 0.000000 0.031568 0.000000 -0.003264
# 5 -0.002370 0.002829 -0.004195 0.000000 0.031060 0.000000
# 6 0.000000 0.000000 0.000000 -0.003264 0.000000 0.033879
#
#
# Mechanical properties :
#
#
# Convention : Reuss Voigt Hill
#
# Bulk Modulus (GPa) = 55.86378 66.69958 61.28168
# Shear Modulus (GPa) = 30.09992 33.83517 31.96754
#
# Velocity S-wave (km/s) = 3.92652 4.16302 4.04650
# Velocity P-wave (km/s) = 7.01219 7.56783 7.29530
#
# Compressibility (1/GPa) = 0.01790069
#
# Stress axis : x y z
#
# Youngs Moduli (GPa) = 138.33692 72.49340 50.64034
#
# Poissons Ratio (x) = 0.23214 0.06180
# Poissons Ratio (y) = 0.44298 0.35510
# Poissons Ratio (z) = 0.16882 0.50834
#
# Static dielectric constant tensor:
#      x y z
#    x 4.929160 0.000000 0.131990 
#    y 0.000000 3.429230 0.000000 
#    z 0.131990 0.000000 3.548250 
# 
# 
# High freq. dielectric constant tensor:
#      x y z
#    x 1.786340 0.000000 0.012300 
#    y 0.000000 1.739770 0.000000 
#    z 0.012300 0.000000 1.758160 
# 
# From -- ./inp_files/232513.got.cif
#   From: 2010.06.25/outbox.cif.g09.slc.cpg/sg15_117_cif.got.tgz:232513.got - 2010.06.28 07:06:18.
