data_PCOD8151560
_publ_section_title
;
Structure prediction by ZEFSAII (Michael W. Deem and Ramdas Pophale) SiO2 
 PCOD8151560
Probable space group: C 2/C
;
_chemical_formula_sum "Si O2"
_cell_formula_units_Z 40
_cell_length_a 10.549489
_cell_length_b 23.472804
_cell_length_c 9.136397
_cell_angle_alpha 90.000000
_cell_angle_beta 64.710016
_cell_angle_gamma 90.000000
_cell_volume 2045.574609
_symmetry_space_group_name_H-M "C 2/C"
_symmetry_group_IT_number 15
_symmetry_cell_setting 'monoclinic'
loop_
_space_group_symop_operation_xyz
x,y,z
-x,y,1/2-z
-x,-y,-z
x,-y,1/2+z
1/2+x,1/2+y,z
1/2-x,1/2+y,1/2-z
1/2-x,1/2-y,-z
1/2+x,1/2-y,1/2+z
loop_
_atom_site_type_symbol
_atom_site_label
_atom_site_fract_x
_atom_site_fract_y
_atom_site_fract_z
Si Si1 0.009519 0.232871 0.030979
Si Si2 0.500000 0.167256 0.750000
Si Si3 0.000000 0.703213 0.250000
Si Si4 0.786455 0.136048 0.527749
Si Si5 0.514522 0.560705 0.567331
Si Si6 0.282091 0.641003 0.194468
O O1 0.016902 0.294196 0.100082
O O2 0.885776 0.194579 0.156633
O O3 0.973386 0.249564 0.885351
O O4 0.157766 0.200809 0.979762
O O5 0.637898 0.128185 0.682996
O O6 0.131990 0.661801 0.210660
O O7 0.773071 0.116949 0.364500
O O8 0.887199 0.095754 0.566755
O O9 0.500000 0.556881 0.750000
O O10 0.500000 0.500000 0.500000
O O11 0.658435 0.592435 0.445332
#
# Coordination Sequence:
#
# PCOD8151560 Si02
#       6
#     8   4   4   8   8   8
#     4  11  21  36  57  86 127 174 202 237 288 351
#     4  12  20  36  61  86 131 166 202 232 298 350
#     4  12  24  34  57  92 131 162 202 246 288 350
#     4  11  23  39  61  89 122 164 203 246 294 353
#     4  11  25  45  70  89 112 149 198 253 305 361
#     4  11  23  40  59  89 125 161 204 246 295 351
#
# _framework density 19.554407000000001
#
# number of rings (size 3 to 8) (size 9 to 14) (size 15 to 20)
#    0.000    0.800    4.000    5.400    8.400    0.000 
#    0.000    1.000    0.000    4.800    0.000    0.000 
#    0.000    0.000    0.000    0.000    0.000    0.000 
#
# Total GULP energy -247927.412343 kJ/mol
# GULP energy per Si atom -12396.370617 kJ/mol
# Density = 1.950990 g / cm^3
# Si number density = 19.554407 Si / 1000 Ang^3
#
#
#
# Elastic Constant Matrix: (Units=GPa)
#
#
# Indices 1 2 3 4 5 6 
#
# 1 111.4976 18.5306 56.5116 0.0000 -23.4424 0.0000
# 2 18.5306 68.1383 41.9705 0.0000 -8.3343 0.0000
# 3 56.5116 41.9705 130.0750 0.0000 14.8677 0.0000
# 4 0.0000 0.0000 0.0000 31.0519 0.0000 11.0237
# 5 -23.4424 -8.3343 14.8677 0.0000 39.3943 0.0000
# 6 0.0000 0.0000 0.0000 11.0237 0.0000 14.8597
#
#
#
# Elastic Compliance Matrix: (Units=1/GPa)
#
#
# Indices 1 2 3 4 5 6 
#
# 1 0.016346 0.003307 -0.009782 0.000000 0.014118 0.000000
# 2 0.003307 0.020661 -0.009226 0.000000 0.009821 0.000000
# 3 -0.009782 -0.009226 0.016516 0.000000 -0.014006 0.000000
# 4 0.000000 0.000000 0.000000 0.043718 0.000000 -0.032432
# 5 0.014118 0.009821 -0.014006 0.000000 0.041150 0.000000
# 6 0.000000 0.000000 0.000000 -0.032432 0.000000 0.091356
#
#
# Mechanical properties :
#
#
# Convention : Reuss Voigt Hill
#
# Bulk Modulus (GPa) = 45.20810 60.41516 52.81163
# Shear Modulus (GPa) = 18.62058 29.90772 24.26415
#
# Velocity S-wave (km/s) = 3.08919 3.91508 3.52640
# Velocity P-wave (km/s) = 5.99112 7.16939 6.60657
#
# Compressibility (1/GPa) = 0.02211993
#
# Stress axis : x y z
#
# Youngs Moduli (GPa) = 61.17846 48.40140 60.54911
#
# Poissons Ratio (x) = -0.16007 0.59231
# Poissons Ratio (y) = -0.20232 0.55861
# Poissons Ratio (z) = 0.59846 0.44654
#
# Static dielectric constant tensor:
#      x y z
#    x 3.183510 0.000000 0.013510 
#    y 0.000000 3.218580 0.000000 
#    z 0.013510 0.000000 3.660710 
# 
# 
# High freq. dielectric constant tensor:
#      x y z
#    x 1.769320 0.000000 0.002580 
#    y 0.000000 1.734090 0.000000 
#    z 0.002580 0.000000 1.782040 
# 
# From -- ./inp_files/23511.got.cif
#   From: 2010.06.25/outbox.cif.g09.slc.cpg/sg15_12_cif.got.tgz:23511.got - 2010.06.28 07:06:18.
