data_PCOD8151982
_publ_section_title
;
Structure prediction by ZEFSAII (Michael W. Deem and Ramdas Pophale) SiO2 
 PCOD8151982
Probable space group: C 2/C
;
_chemical_formula_sum "Si O2"
_cell_formula_units_Z 40
_cell_length_a 29.230638
_cell_length_b 9.060888
_cell_length_c 19.671517
_cell_angle_alpha 90.000000
_cell_angle_beta 19.708347
_cell_angle_gamma 90.000000
_cell_volume 1757.018023
_symmetry_space_group_name_H-M "C 2/C"
_symmetry_group_IT_number 15
_symmetry_cell_setting 'monoclinic'
loop_
_space_group_symop_operation_xyz
x,y,z
-x,y,1/2-z
-x,-y,-z
x,-y,1/2+z
1/2+x,1/2+y,z
1/2-x,1/2+y,1/2-z
1/2-x,1/2-y,-z
1/2+x,1/2-y,1/2+z
loop_
_atom_site_type_symbol
_atom_site_label
_atom_site_fract_x
_atom_site_fract_y
_atom_site_fract_z
Si Si1 0.920163 0.980002 0.426237
Si Si2 0.579218 0.812165 0.052665
Si Si3 0.934226 0.906454 0.152673
Si Si4 0.795650 0.378172 0.487071
Si Si5 0.375191 0.893265 0.661849
O O1 0.761673 0.979913 0.628847
O O2 0.000000 0.916790 0.250000
O O3 0.953144 0.880114 0.446219
O O4 0.972674 0.143920 0.371091
O O5 0.449460 0.919131 0.248658
O O6 0.697315 0.828419 0.943647
O O7 0.639346 0.846487 0.895698
O O8 0.885600 0.749752 0.193943
O O9 0.806657 0.984391 0.369164
O O10 0.000000 0.000000 0.000000
O O11 0.750000 0.250000 0.500000
O O12 0.500000 0.000000 0.500000
#
# Coordination Sequence:
#
# PCOD8151982 Si02
#       5
#     8   8   8   8   8
#     4  12  26  47  76 108 147 194 252 306 375 450
#     4  11  24  44  75 106 143 198 247 301 372 463
#     4  12  25  46  77 106 148 196 251 305 374 448
#     4  11  21  43  76 108 138 191 254 303 371 446
#     4  12  31  47  74 110 156 195 247 316 381 450
#
# _framework density 22.765844999999999
#
# number of rings (size 3 to 8) (size 9 to 14) (size 15 to 20)
#    0.000    0.400    6.000    1.200   11.200    0.800 
#    3.600    0.000    0.000    0.000    0.000    0.000 
#    0.000    0.000    0.000    0.000    0.000    0.000 
#
# Total GULP energy -247987.271106 kJ/mol
# GULP energy per Si atom -12399.363555 kJ/mol
# Density = 2.271403 g / cm^3
# Si number density = 22.765845 Si / 1000 Ang^3
#
#
#
# Elastic Constant Matrix: (Units=GPa)
#
#
# Indices 1 2 3 4 5 6 
#
# 1 160.2823 38.0019 52.0346 -0.0002 -2.6683 0.0000
# 2 38.0019 102.1986 52.8629 0.0004 -2.4830 0.0000
# 3 52.0346 52.8629 152.2848 0.0003 -9.6777 0.0000
# 4 -0.0002 0.0004 0.0003 35.3999 0.0000 0.8836
# 5 -2.6683 -2.4830 -9.6777 0.0000 38.9707 0.0000
# 6 0.0000 0.0000 0.0000 0.8836 0.0000 31.4027
#
#
#
# Elastic Compliance Matrix: (Units=1/GPa)
#
#
# Indices 1 2 3 4 5 6 
#
# 1 0.007259 -0.001725 -0.001887 0.000000 -0.000081 0.000000
# 2 -0.001725 0.012339 -0.003710 0.000000 -0.000253 0.000000
# 3 -0.001887 -0.003710 0.008612 0.000000 0.001773 0.000000
# 4 0.000000 0.000000 0.000000 0.028269 0.000000 -0.000795
# 5 -0.000081 -0.000253 0.001773 0.000000 0.026079 0.000000
# 6 0.000000 0.000000 0.000000 -0.000795 0.000000 0.031867
#
#
# Mechanical properties :
#
#
# Convention : Reuss Voigt Hill
#
# Bulk Modulus (GPa) = 73.71152 77.84049 75.77600
# Shear Modulus (GPa) = 37.42782 39.27907 38.35345
#
# Velocity S-wave (km/s) = 4.05907 4.15824 4.10895
# Velocity P-wave (km/s) = 7.37675 7.57104 7.47453
#
# Compressibility (1/GPa) = 0.01356640
#
# Stress axis : x y z
#
# Youngs Moduli (GPa) = 137.75612 81.04219 116.11979
#
# Poissons Ratio (x) = 0.13983 0.21908
# Poissons Ratio (y) = 0.23768 0.43079
# Poissons Ratio (z) = 0.25990 0.30066
#
# Static dielectric constant tensor:
#      x y z
#    x 3.515390 -0.000030 -1.001710 
#    y -0.000030 3.925590 -0.000030 
#    z -1.001710 -0.000030 3.377200 
# 
# 
# High freq. dielectric constant tensor:
#      x y z
#    x 1.929300 0.000000 -0.005070 
#    y 0.000000 1.863680 0.000000 
#    z -0.005070 0.000000 1.909900 
# 
# From -- ./inp_files/258923.got.cif
#   From: 2010.06.25/outbox.cif.g09.slc.cpg/sg15_130_cif.got.tgz:258923.got - 2010.06.28 07:06:18.
