data_PCOD8151716
_publ_section_title
;
Structure prediction by ZEFSAII (Michael W. Deem and Ramdas Pophale) SiO2 
 PCOD8151716
Probable space group: C 2/C
;
_chemical_formula_sum "Si O2"
_cell_formula_units_Z 48
_cell_length_a 11.230573
_cell_length_b 26.047473
_cell_length_c 11.357743
_cell_angle_alpha 90.000000
_cell_angle_beta 52.500553
_cell_angle_gamma 90.000000
_cell_volume 2635.902973
_symmetry_space_group_name_H-M "C 2/C"
_symmetry_group_IT_number 15
_symmetry_cell_setting 'monoclinic'
loop_
_space_group_symop_operation_xyz
x,y,z
-x,y,1/2-z
-x,-y,-z
x,-y,1/2+z
1/2+x,1/2+y,z
1/2-x,1/2+y,1/2-z
1/2-x,1/2-y,-z
1/2+x,1/2-y,1/2+z
loop_
_atom_site_type_symbol
_atom_site_label
_atom_site_fract_x
_atom_site_fract_y
_atom_site_fract_z
Si Si1 0.000000 0.537028 0.750000
Si Si2 0.082396 0.203585 0.520486
Si Si3 0.744769 0.530196 0.517073
Si Si4 0.771462 0.791681 0.318177
Si Si5 0.000000 0.042849 0.250000
Si Si6 0.712298 0.903024 0.292913
Si Si7 0.528969 0.590803 0.481855
O O1 0.919427 0.573985 0.705971
O O2 0.113755 0.500269 0.615198
O O3 0.181322 0.195700 0.577172
O O4 0.155349 0.244526 0.387175
O O5 0.080964 0.149370 0.456375
O O6 0.916392 0.223362 0.653575
O O7 0.647084 0.492011 0.655111
O O8 0.801014 0.575945 0.566561
O O9 0.650470 0.552558 0.464877
O O10 0.692263 0.841596 0.310235
O O11 0.989658 0.078918 0.143262
O O12 0.873997 0.918098 0.143665
#
# Coordination Sequence:
#
# PCOD8151716 Si02
#       7
#     4   8   8   8   4   8   8
#     4  12  26  38  53  92 129 150 188 246 296 338
#     4   9  18  36  60  87 112 141 191 242 288 340
#     4  12  22  41  61  86 115 159 201 240 281 343
#     4   9  18  36  61  85 112 145 187 242 289 342
#     4  12  22  36  63  84 117 154 202 238 272 354
#     4  11  21  40  62  85 119 159 193 235 299 345
#     4  11  21  39  64  87 112 159 203 234 284 352
#
# _framework density 18.210077999999999
#
# number of rings (size 3 to 8) (size 9 to 14) (size 15 to 20)
#    0.000    1.333    5.000    2.000    0.000    0.000 
#    6.000    0.833    0.000    4.000    0.000    0.000 
#    0.000    0.000    0.000    0.000    0.000    0.000 
#
# Total GULP energy -297698.925624 kJ/mol
# GULP energy per Si atom -12404.121901 kJ/mol
# Density = 1.816863 g / cm^3
# Si number density = 18.210078 Si / 1000 Ang^3
#
#
#
# Elastic Constant Matrix: (Units=GPa)
#
#
# Indices 1 2 3 4 5 6 
#
# 1 88.1867 53.0015 28.8632 0.0000 -2.6902 0.0000
# 2 53.0015 125.4064 63.4437 0.0000 -12.5004 0.0000
# 3 28.8632 63.4437 85.6781 0.0000 -12.2286 0.0000
# 4 0.0000 0.0000 0.0000 33.3927 0.0000 -9.7437
# 5 -2.6902 -12.5004 -12.2286 0.0000 33.3050 0.0000
# 6 0.0000 0.0000 0.0000 -9.7437 0.0000 23.2854
#
#
#
# Elastic Compliance Matrix: (Units=1/GPa)
#
#
# Indices 1 2 3 4 5 6 
#
# 1 0.015278 -0.006222 -0.000735 0.000000 -0.001371 0.000000
# 2 -0.006222 0.015346 -0.008988 0.000000 0.001957 0.000000
# 3 -0.000735 -0.008988 0.019085 0.000000 0.003575 0.000000
# 4 0.000000 0.000000 0.000000 0.034112 0.000000 0.014274
# 5 -0.001371 0.001957 0.003575 0.000000 0.031962 0.000000
# 6 0.000000 0.000000 0.000000 0.014274 0.000000 0.048918
#
#
# Mechanical properties :
#
#
# Convention : Reuss Voigt Hill
#
# Bulk Modulus (GPa) = 56.12190 65.54309 60.83250
# Shear Modulus (GPa) = 24.68770 28.26081 26.47426
#
# Velocity S-wave (km/s) = 3.68600 3.94373 3.81704
# Velocity P-wave (km/s) = 7.00011 7.53712 7.27357
#
# Compressibility (1/GPa) = 0.01781836
#
# Stress axis : x y z
#
# Youngs Moduli (GPa) = 65.45490 65.16465 52.39669
#
# Poissons Ratio (x) = 0.40542 0.03854
# Poissons Ratio (y) = 0.40723 0.47095
# Poissons Ratio (z) = 0.04814 0.58571
#
# Static dielectric constant tensor:
#      x y z
#    x 3.274690 0.000000 -0.055400 
#    y 0.000000 3.430890 0.000000 
#    z -0.055400 0.000000 3.384710 
# 
# 
# High freq. dielectric constant tensor:
#      x y z
#    x 1.693560 0.000000 -0.003760 
#    y 0.000000 1.713720 0.000000 
#    z -0.003760 0.000000 1.706000 
# 
# From -- ./inp_files/43883.got.cif
#   From: 2010.06.25/outbox.cif.g09.slc.cpg/sg15_22_cif.got.tgz:43883.got - 2010.06.28 07:06:18.
