data_PCOD8151525
_publ_section_title
;
Structure prediction by ZEFSAII (Michael W. Deem and Ramdas Pophale) SiO2 
 PCOD8151525
Probable space group: C 2/C
;
_chemical_formula_sum "Si O2"
_cell_formula_units_Z 32
_cell_length_a 9.290811
_cell_length_b 10.782181
_cell_length_c 14.435846
_cell_angle_alpha 90.000000
_cell_angle_beta 64.396493
_cell_angle_gamma 90.000000
_cell_volume 1304.114253
_symmetry_space_group_name_H-M "C 2/C"
_symmetry_group_IT_number 15
_symmetry_cell_setting 'monoclinic'
loop_
_space_group_symop_operation_xyz
x,y,z
-x,y,1/2-z
-x,-y,-z
x,-y,1/2+z
1/2+x,1/2+y,z
1/2-x,1/2+y,1/2-z
1/2-x,1/2-y,-z
1/2+x,1/2-y,1/2+z
loop_
_atom_site_type_symbol
_atom_site_label
_atom_site_fract_x
_atom_site_fract_y
_atom_site_fract_z
Si Si1 0.314434 0.109535 0.396174
Si Si2 0.997904 0.213486 0.525617
Si Si3 0.841697 0.174258 0.751191
Si Si4 0.007706 0.354965 0.148304
O O1 0.124307 0.102366 0.471274
O O2 0.403751 0.174125 0.456157
O O3 0.338609 0.185341 0.293397
O O4 0.380145 0.972277 0.368116
O O5 0.856678 0.173579 0.634711
O O6 0.923307 0.264274 0.450109
O O7 0.677111 0.106614 0.825578
O O8 0.000000 0.106750 0.750000
O O9 0.000000 0.283912 0.250000
#
# Coordination Sequence:
#
# PCOD8151525 Si02
#       4
#     8   8   8   8
#     4   9  18  34  58  87 115 151 199 241 290 355
#     4   9  18  34  57  83 118 156 189 243 299 341
#     4   9  19  37  58  83 120 156 191 245 296 343
#     4  11  21  33  58  89 116 154 199 241 294 354
#
# _framework density 24.537725999999999
#
# number of rings (size 3 to 8) (size 9 to 14) (size 15 to 20)
#    0.000    2.500    0.000    4.500    0.000    1.000 
#    0.000    1.250    0.000   30.000    0.000    0.000 
#    0.000    0.000    0.000    0.000    0.000    0.000 
#
# Total GULP energy -198256.353776 kJ/mol
# GULP energy per Si atom -12391.022111 kJ/mol
# Density = 2.448188 g / cm^3
# Si number density = 24.537726 Si / 1000 Ang^3
#
#
#
# Elastic Constant Matrix: (Units=GPa)
#
#
# Indices 1 2 3 4 5 6 
#
# 1 61.9303 40.7069 42.1394 0.0000 7.0088 0.0000
# 2 40.7069 61.2755 38.1366 0.0000 -2.3719 0.0000
# 3 42.1394 38.1366 180.3570 0.0000 14.7517 0.0000
# 4 0.0000 0.0000 0.0000 12.6592 0.0000 5.3299
# 5 7.0088 -2.3719 14.7517 0.0000 53.2020 0.0000
# 6 0.0000 0.0000 0.0000 5.3299 0.0000 22.5068
#
#
#
# Elastic Compliance Matrix: (Units=1/GPa)
#
#
# Indices 1 2 3 4 5 6 
#
# 1 0.031081 -0.018999 -0.002906 0.000000 -0.004136 0.000000
# 2 -0.018999 0.030614 -0.002405 0.000000 0.004535 0.000000
# 3 -0.002906 -0.002405 0.006865 0.000000 -0.001628 0.000000
# 4 0.000000 0.000000 0.000000 0.087743 0.000000 -0.020779
# 5 -0.004136 0.004535 -0.001628 0.000000 0.019995 0.000000
# 6 0.000000 0.000000 0.000000 -0.020779 0.000000 0.049352
#
#
# Mechanical properties :
#
#
# Convention : Reuss Voigt Hill
#
# Bulk Modulus (GPa) = 50.15312 60.61429 55.38370
# Shear Modulus (GPa) = 17.79884 29.84557 23.82221
#
# Velocity S-wave (km/s) = 2.69618 3.49135 3.11921
# Velocity P-wave (km/s) = 5.49328 6.40381 5.96594
#
# Compressibility (1/GPa) = 0.01993894
#
# Stress axis : x y z
#
# Youngs Moduli (GPa) = 32.17397 32.66485 145.65987
#
# Poissons Ratio (x) = 0.62061 0.42332
# Poissons Ratio (y) = 0.61128 0.35034
# Poissons Ratio (z) = 0.09350 0.07856
#
# Static dielectric constant tensor:
#      x y z
#    x 4.690300 0.000000 -0.007050 
#    y 0.000000 3.582370 0.000000 
#    z -0.007050 0.000000 5.008880 
# 
# 
# High freq. dielectric constant tensor:
#      x y z
#    x 1.985480 0.000000 -0.006470 
#    y 0.000000 1.901480 0.000000 
#    z -0.006470 0.000000 2.006560 
# 
# From -- ./inp_files/195503.got.cif
#   From: 2010.06.25/outbox.cif.g09.slc.cpg/sg15_98_cif.got.tgz:195503.got - 2010.06.28 07:06:18.
