data_PCOD8151448
_publ_section_title
;
Structure prediction by ZEFSAII (Michael W. Deem and Ramdas Pophale) SiO2 
 PCOD8151448
Probable space group: C 2/C
;
_chemical_formula_sum "Si O2"
_cell_formula_units_Z 40
_cell_length_a 9.915380
_cell_length_b 20.630222
_cell_length_c 9.244085
_cell_angle_alpha 90.000000
_cell_angle_beta 81.517014
_cell_angle_gamma 90.000000
_cell_volume 1870.250184
_symmetry_space_group_name_H-M "C 2/C"
_symmetry_group_IT_number 15
_symmetry_cell_setting 'monoclinic'
loop_
_space_group_symop_operation_xyz
x,y,z
-x,y,1/2-z
-x,-y,-z
x,-y,1/2+z
1/2+x,1/2+y,z
1/2-x,1/2+y,1/2-z
1/2-x,1/2-y,-z
1/2+x,1/2-y,1/2+z
loop_
_atom_site_type_symbol
_atom_site_label
_atom_site_fract_x
_atom_site_fract_y
_atom_site_fract_z
Si Si1 0.373570 0.544771 0.044068
Si Si2 0.592120 0.321683 0.094866
Si Si3 0.500000 0.101994 0.250000
Si Si4 0.902495 0.684601 0.515984
Si Si5 0.696974 0.999613 0.815460
Si Si6 0.000000 0.395441 0.250000
O O1 0.325592 0.532260 0.214596
O O2 0.500000 0.500000 0.000000
O O3 0.423056 0.618089 0.011542
O O4 0.245018 0.526578 0.962077
O O5 0.500000 0.335033 0.250000
O O6 0.751804 0.313311 0.110704
O O7 0.541725 0.256962 0.021772
O O8 0.399588 0.145897 0.363342
O O9 0.416010 0.056825 0.150933
O O10 0.007980 0.650609 0.608188
O O11 0.635484 0.060190 0.735314
#
# Coordination Sequence:
#
# PCOD8151448 Si02
#       6
#     8   8   4   8   8   4
#     4  12  24  41  65  95 132 174 206 263 327 392
#     4  11  23  44  66  90 131 178 209 262 325 386
#     4  11  20  42  68  96 123 168 224 270 313 378
#     4  11  23  42  69  93 128 170 220 265 323 378
#     4  11  22  40  66  96 128 165 219 269 319 373
#     4  11  22  42  66  98 129 162 220 278 317 368
#
# _framework density 21.387511
#
# number of rings (size 3 to 8) (size 9 to 14) (size 15 to 20)
#    0.000    0.800    5.000    3.000    0.000    3.200 
#    3.600    1.000    0.000    0.000    0.000    0.000 
#    0.000    0.000    0.000    0.000    0.000    0.000 
#
# Total GULP energy -248030.518234 kJ/mol
# GULP energy per Si atom -12401.525912 kJ/mol
# Density = 2.133883 g / cm^3
# Si number density = 21.387511 Si / 1000 Ang^3
#
#
#
# Elastic Constant Matrix: (Units=GPa)
#
#
# Indices 1 2 3 4 5 6 
#
# 1 61.0834 17.8162 4.6780 0.0000 -6.7603 0.0000
# 2 17.8162 162.1808 25.4499 0.0000 3.0884 0.0000
# 3 4.6780 25.4499 63.7397 0.0000 -11.8452 0.0000
# 4 0.0000 0.0000 0.0000 32.6978 0.0000 -0.5873
# 5 -6.7603 3.0884 -11.8452 0.0000 40.5712 0.0000
# 6 0.0000 0.0000 0.0000 -0.5873 0.0000 27.0676
#
#
#
# Elastic Compliance Matrix: (Units=1/GPa)
#
#
# Indices 1 2 3 4 5 6 
#
# 1 0.017277 -0.001970 0.000086 0.000000 0.003054 0.000000
# 2 -0.001970 0.006872 -0.002916 0.000000 -0.001703 0.000000
# 3 0.000086 -0.002916 0.017860 0.000000 0.005451 0.000000
# 4 0.000000 0.000000 0.000000 0.030595 0.000000 0.000664
# 5 0.003054 -0.001703 0.005451 0.000000 0.026878 0.000000
# 6 0.000000 0.000000 0.000000 0.000664 0.000000 0.036959
#
#
# Mechanical properties :
#
#
# Convention : Reuss Voigt Hill
#
# Bulk Modulus (GPa) = 30.85475 42.54357 36.69916
# Shear Modulus (GPa) = 31.87904 36.00466 33.94185
#
# Velocity S-wave (km/s) = 3.86495 4.10743 3.98803
# Velocity P-wave (km/s) = 5.86301 6.51380 6.19696
#
# Compressibility (1/GPa) = 0.03240992
#
# Stress axis : x y z
#
# Youngs Moduli (GPa) = 57.88071 145.51162 55.99218
#
# Poissons Ratio (x) = 0.28660 -0.00481
# Poissons Ratio (y) = 0.11400 0.16326
# Poissons Ratio (z) = -0.00497 0.42429
#
# Static dielectric constant tensor:
#      x y z
#    x 3.657170 0.000000 -0.021020 
#    y 0.000000 4.254760 0.000000 
#    z -0.021020 0.000000 3.738740 
# 
# 
# High freq. dielectric constant tensor:
#      x y z
#    x 1.824050 0.000000 -0.017500 
#    y 0.000000 1.860740 0.000000 
#    z -0.017500 0.000000 1.826220 
# 
# From -- ./inp_files/23547.got.cif
#   From: 2010.06.25/outbox.cif.g09.slc.cpg/sg15_12_cif.got.tgz:23547.got - 2010.06.28 07:06:18.
