data_PCOD8151972
_publ_section_title
;
Structure prediction by ZEFSAII (Michael W. Deem and Ramdas Pophale) SiO2 
 PCOD8151972
Probable space group: C 2/C
;
_chemical_formula_sum "Si O2"
_cell_formula_units_Z 40
_cell_length_a 12.467615
_cell_length_b 8.432684
_cell_length_c 16.000732
_cell_angle_alpha 90.000000
_cell_angle_beta 115.113488
_cell_angle_gamma 90.000000
_cell_volume 1523.219899
_symmetry_space_group_name_H-M "C 2/C"
_symmetry_group_IT_number 15
_symmetry_cell_setting 'monoclinic'
loop_
_space_group_symop_operation_xyz
x,y,z
-x,y,1/2-z
-x,-y,-z
x,-y,1/2+z
1/2+x,1/2+y,z
1/2-x,1/2+y,1/2-z
1/2-x,1/2-y,-z
1/2+x,1/2-y,1/2+z
loop_
_atom_site_type_symbol
_atom_site_label
_atom_site_fract_x
_atom_site_fract_y
_atom_site_fract_z
Si Si1 0.648022 0.374798 0.735364
Si Si2 0.735404 0.820179 0.403757
Si Si3 0.890884 0.417590 0.560749
Si Si4 0.140697 0.570097 0.636846
Si Si5 0.977432 0.895800 0.410719
O O1 0.634595 0.278762 0.818838
O O2 0.768039 0.476566 0.775016
O O3 0.653856 0.255468 0.659716
O O4 0.539560 0.495270 0.677608
O O5 0.750000 0.750000 0.500000
O O6 0.856736 0.798860 0.391400
O O7 0.699427 0.007439 0.400610
O O8 0.832210 0.455411 0.451841
O O9 0.008692 0.517657 0.614286
O O10 0.917225 0.228669 0.576653
O O11 0.000000 0.000000 0.500000
#
# Coordination Sequence:
#
# PCOD8151972 Si02
#       5
#     8   8   8   8   8
#     4  12  23  44  76 107 153 204 256 310 403 458
#     4  12  25  45  79 111 146 204 262 320 386 470
#     4  11  23  45  75 105 151 201 255 315 391 466
#     4  11  21  43  73 103 151 199 243 321 389 453
#     4  12  26  48  75 109 159 203 247 329 399 455
#
# _framework density 26.260159999999999
#
# number of rings (size 3 to 8) (size 9 to 14) (size 15 to 20)
#    0.000    0.400    8.000    1.200    0.000    1.600 
#    0.000    0.000    8.800    0.000    0.000    0.000 
#    0.000    0.000    0.000    0.000    0.000    0.000 
#
# Total GULP energy -247931.678177 kJ/mol
# GULP energy per Si atom -12396.583909 kJ/mol
# Density = 2.620039 g / cm^3
# Si number density = 26.260160 Si / 1000 Ang^3
#
#
#
# Elastic Constant Matrix: (Units=GPa)
#
#
# Indices 1 2 3 4 5 6 
#
# 1 26.8975 10.4263 -15.2125 0.0000 -4.5546 0.0000
# 2 10.4263 131.7887 23.9911 0.0000 6.5563 0.0000
# 3 -15.2125 23.9911 108.8747 0.0000 11.1124 0.0000
# 4 0.0000 0.0000 0.0000 68.0059 0.0000 8.2063
# 5 -4.5546 6.5563 11.1124 0.0000 27.1200 0.0000
# 6 0.0000 0.0000 0.0000 8.2063 0.0000 48.2152
#
#
#
# Elastic Compliance Matrix: (Units=1/GPa)
#
#
# Indices 1 2 3 4 5 6 
#
# 1 0.043838 -0.004965 0.006622 0.000000 0.005849 0.000000
# 2 -0.004965 0.008508 -0.002373 0.000000 -0.001918 0.000000
# 3 0.006622 -0.002373 0.010918 0.000000 -0.002788 0.000000
# 4 0.000000 0.000000 0.000000 0.015013 0.000000 -0.002555
# 5 0.005849 -0.001918 -0.002788 0.000000 0.039462 0.000000
# 6 0.000000 0.000000 0.000000 -0.002555 0.000000 0.021175
#
#
# Mechanical properties :
#
#
# Convention : Reuss Voigt Hill
#
# Bulk Modulus (GPa) = 16.17236 33.99674 25.08455
# Shear Modulus (GPa) = 31.06453 45.22529 38.14491
#
# Velocity S-wave (km/s) = 3.44314 4.15444 3.81540
# Velocity P-wave (km/s) = 4.68816 5.99890 5.38357
#
# Compressibility (1/GPa) = 0.06183388
#
# Stress axis : x y z
#
# Youngs Moduli (GPa) = 22.81101 117.53575 91.59577
#
# Poissons Ratio (x) = 0.58354 -0.60658
# Poissons Ratio (y) = 0.11325 0.21733
# Poissons Ratio (z) = -0.15106 0.27888
#
# Static dielectric constant tensor:
#      x y z
#    x 4.306270 0.000000 0.343690 
#    y 0.000000 5.130310 0.000000 
#    z 0.343690 0.000000 5.032900 
# 
# 
# High freq. dielectric constant tensor:
#      x y z
#    x 2.011910 0.000000 0.018170 
#    y 0.000000 2.076870 0.000000 
#    z 0.018170 0.000000 2.073280 
# 
# From -- ./inp_files/202826.got.cif
#   From: 2010.06.25/outbox.cif.g09.slc.cpg/sg15_102_cif.got.tgz:202826.got - 2010.06.28 07:06:18.
