data_PCOD8151438
_publ_section_title
;
Structure prediction by ZEFSAII (Michael W. Deem and Ramdas Pophale) SiO2 
 PCOD8151438
Probable space group: C 2/C
;
_chemical_formula_sum "Si O2"
_cell_formula_units_Z 56
_cell_length_a 15.403465
_cell_length_b 10.878520
_cell_length_c 14.683411
_cell_angle_alpha 90.000000
_cell_angle_beta 85.210577
_cell_angle_gamma 90.000000
_cell_volume 2451.862501
_symmetry_space_group_name_H-M "C 2/C"
_symmetry_group_IT_number 15
_symmetry_cell_setting 'monoclinic'
loop_
_space_group_symop_operation_xyz
x,y,z
-x,y,1/2-z
-x,-y,-z
x,-y,1/2+z
1/2+x,1/2+y,z
1/2-x,1/2+y,1/2-z
1/2-x,1/2-y,-z
1/2+x,1/2-y,1/2+z
loop_
_atom_site_type_symbol
_atom_site_label
_atom_site_fract_x
_atom_site_fract_y
_atom_site_fract_z
Si Si1 0.978238 0.357856 0.502553
Si Si2 0.419614 0.228060 0.196661
Si Si3 0.622333 0.325702 0.936961
Si Si4 0.757116 0.722063 0.725257
Si Si5 0.518029 0.516299 0.843531
Si Si6 0.669413 0.547828 0.600560
Si Si7 0.178555 0.242638 0.085128
O O1 0.926136 0.337363 0.599906
O O2 0.911673 0.311294 0.430588
O O3 0.000000 0.500000 0.500000
O O4 0.071014 0.289539 0.484230
O O5 0.500000 0.183725 0.250000
O O6 0.329483 0.193356 0.255533
O O7 0.412711 0.375532 0.181633
O O8 0.671829 0.295141 0.839393
O O9 0.549616 0.427718 0.920027
O O10 0.692337 0.385490 0.001979
O O11 0.734375 0.596204 0.672809
O O12 0.792042 0.692397 0.823436
O O13 0.500000 0.442994 0.750000
O O14 0.430769 0.591110 0.878424
O O15 0.665526 0.401618 0.602487
O O16 0.250000 0.250000 0.000000
#
# Coordination Sequence:
#
# PCOD8151438 Si02
#       7
#     8   8   8   8   8   8   8
#     4  12  27  51  71 107 151 198 244 303 381 453
#     4  11  22  47  74 104 141 198 245 299 372 446
#     4  12  26  44  77 112 146 186 250 312 374 435
#     4  12  27  44  72 117 151 189 249 312 376 434
#     4  11  20  41  78 105 135 185 253 301 353 437
#     4  12  24  47  77 108 144 196 251 308 361 451
#     4  12  28  49  76 107 153 197 249 304 379 445
#
# _framework density 22.839780000000001
#
# number of rings (size 3 to 8) (size 9 to 14) (size 15 to 20)
#    0.000    0.286    7.143    2.571    2.000    0.000 
#    7.714    0.000    0.000    0.000    0.000    0.000 
#    0.000    0.000    0.000    0.000    0.000    0.000 
#
# Total GULP energy -347137.410724 kJ/mol
# GULP energy per Si atom -12397.764669 kJ/mol
# Density = 2.278780 g / cm^3
# Si number density = 22.839780 Si / 1000 Ang^3
#
#
#
# Elastic Constant Matrix: (Units=GPa)
#
#
# Indices 1 2 3 4 5 6 
#
# 1 99.6722 36.0136 42.0519 0.0000 5.0122 0.0000
# 2 36.0136 120.0638 55.9652 0.0000 20.2532 0.0000
# 3 42.0519 55.9652 149.4760 0.0000 19.2551 0.0000
# 4 0.0000 0.0000 0.0000 33.1160 0.0000 5.3812
# 5 5.0122 20.2532 19.2551 0.0000 54.5000 0.0000
# 6 0.0000 0.0000 0.0000 5.3812 0.0000 28.8271
#
#
#
# Elastic Compliance Matrix: (Units=1/GPa)
#
#
# Indices 1 2 3 4 5 6 
#
# 1 0.011975 -0.002545 -0.002510 0.000000 0.000731 0.000000
# 2 -0.002545 0.010975 -0.003036 0.000000 -0.002772 0.000000
# 3 -0.002510 -0.003036 0.008756 0.000000 -0.001735 0.000000
# 4 0.000000 0.000000 0.000000 0.031142 0.000000 -0.005813
# 5 0.000731 -0.002772 -0.001735 0.000000 0.019924 0.000000
# 6 0.000000 0.000000 0.000000 -0.005813 0.000000 0.035775
#
#
# Mechanical properties :
#
#
# Convention : Reuss Voigt Hill
#
# Bulk Modulus (GPa) = 64.41866 70.80813 67.61340
# Shear Modulus (GPa) = 35.73874 38.96737 37.35306
#
# Velocity S-wave (km/s) = 3.95999 4.13500 4.04844
# Velocity P-wave (km/s) = 7.01246 7.33942 7.17780
#
# Compressibility (1/GPa) = 0.01552345
#
# Stress axis : x y z
#
# Youngs Moduli (GPa) = 83.50893 91.11506 114.20241
#
# Poissons Ratio (x) = 0.23191 0.28666
# Poissons Ratio (y) = 0.21255 0.34673
# Poissons Ratio (z) = 0.20962 0.27663
#
# Static dielectric constant tensor:
#      x y z
#    x 4.307810 0.000000 -0.127840 
#    y 0.000000 3.809610 0.000000 
#    z -0.127840 0.000000 4.621960 
# 
# 
# High freq. dielectric constant tensor:
#      x y z
#    x 1.905120 0.000000 -0.002280 
#    y 0.000000 1.875170 0.000000 
#    z -0.002280 0.000000 1.926050 
# 
# From -- ./inp_files/152584.got.cif
#   From: 2010.06.25/outbox.cif.g09.slc.cpg/sg15_77_cif.got.tgz:152584.got - 2010.06.28 07:06:18.
