data_PCOD8151872
_publ_section_title
;
Structure prediction by ZEFSAII (Michael W. Deem and Ramdas Pophale) SiO2 
 PCOD8151872
Probable space group: C 2/C
;
_chemical_formula_sum "Si O2"
_cell_formula_units_Z 52
_cell_length_a 6.505303
_cell_length_b 23.462142
_cell_length_c 19.961407
_cell_angle_alpha 90.000000
_cell_angle_beta 116.639046
_cell_angle_gamma 90.000000
_cell_volume 2723.268380
_symmetry_space_group_name_H-M "C 2/C"
_symmetry_group_IT_number 15
_symmetry_cell_setting 'monoclinic'
loop_
_space_group_symop_operation_xyz
x,y,z
-x,y,1/2-z
-x,-y,-z
x,-y,1/2+z
1/2+x,1/2+y,z
1/2-x,1/2+y,1/2-z
1/2-x,1/2-y,-z
1/2+x,1/2-y,1/2+z
loop_
_atom_site_type_symbol
_atom_site_label
_atom_site_fract_x
_atom_site_fract_y
_atom_site_fract_z
Si Si1 0.551251 0.910817 0.590972
Si Si2 0.523974 0.805407 0.677134
Si Si3 0.554334 0.910891 0.077015
Si Si4 0.921902 0.995433 0.664176
Si Si5 0.775032 0.804030 0.176796
Si Si6 0.208998 0.991717 0.080888
Si Si7 0.000000 0.249929 0.250000
O O1 0.463356 0.854975 0.616813
O O2 0.535754 0.899756 0.510338
O O3 0.811302 0.931699 0.646947
O O4 0.391012 0.961111 0.590317
O O5 0.500000 0.827748 0.750000
O O6 0.351972 0.751135 0.643820
O O7 0.784906 0.788813 0.697896
O O8 0.742763 0.960207 0.106745
O O9 0.674202 0.852722 0.115961
O O10 0.332770 0.929905 0.089104
O O11 0.000000 0.012367 0.750000
O O12 0.142632 0.999547 0.648510
O O13 0.570224 0.788870 0.197588
O O14 0.000000 0.825906 0.250000
O O15 0.000000 0.000000 0.000000
#
# Coordination Sequence:
#
# PCOD8151872 Si02
#       7
#     8   8   8   8   8   8   4
#     4  11  23  37  60  89 119 155 196 244 300 359
#     4   9  21  38  59  87 118 153 197 249 294 352
#     4  11  22  39  60  87 121 157 196 245 298 355
#     4  11  24  38  60  91 118 154 202 245 293 361
#     4   9  20  39  61  86 117 153 201 248 292 348
#     4  11  21  42  59  82 123 162 190 240 307 352
#     4   8  18  40  58  82 118 154 194 240 294 348
#
# _framework density 19.094702000000002
#
# number of rings (size 3 to 8) (size 9 to 14) (size 15 to 20)
#    0.000    2.154    3.077    1.385    3.231    7.385 
#    0.000    0.769    0.000    0.000    0.000    0.000 
#    0.000    0.000    0.000    0.000    0.000    0.000 
#
# Total GULP energy -322294.651888 kJ/mol
# GULP energy per Si atom -12395.948150 kJ/mol
# Density = 1.905124 g / cm^3
# Si number density = 19.094702 Si / 1000 Ang^3
#
#
#
# Elastic Constant Matrix: (Units=GPa)
#
#
# Indices 1 2 3 4 5 6 
#
# 1 132.4554 44.0998 41.7263 0.0000 -14.8304 0.0000
# 2 44.0998 116.2629 42.7871 0.0000 -6.0454 0.0000
# 3 41.7263 42.7871 87.3620 0.0000 -12.7065 0.0000
# 4 0.0000 0.0000 0.0000 1.8365 0.0000 -3.3626
# 5 -14.8304 -6.0454 -12.7065 0.0000 27.3615 0.0000
# 6 0.0000 0.0000 0.0000 -3.3626 0.0000 25.2702
#
#
#
# Elastic Compliance Matrix: (Units=1/GPa)
#
#
# Indices 1 2 3 4 5 6 
#
# 1 0.009651 -0.002403 -0.002949 0.000000 0.003331 0.000000
# 2 -0.002403 0.011091 -0.004416 0.000000 -0.000902 0.000000
# 3 -0.002949 -0.004416 0.015704 0.000000 0.004719 0.000000
# 4 0.000000 0.000000 0.000000 0.719913 0.000000 0.095797
# 5 0.003331 -0.000902 0.004719 0.000000 0.040345 0.000000
# 6 0.000000 0.000000 0.000000 0.095797 0.000000 0.052320
#
#
# Mechanical properties :
#
#
# Convention : Reuss Voigt Hill
#
# Bulk Modulus (GPa) = 59.12757 65.92295 62.52526
# Shear Modulus (GPa) = 5.71955 24.72477 15.22216
#
# Velocity S-wave (km/s) = 1.73259 3.60231 2.82652
# Velocity P-wave (km/s) = 5.91905 7.20426 6.59304
#
# Compressibility (1/GPa) = 0.01691258
#
# Stress axis : x y z
#
# Youngs Moduli (GPa) = 103.61125 90.16640 63.67845
#
# Poissons Ratio (x) = 0.21663 0.18776
# Poissons Ratio (y) = 0.24893 0.28118
# Poissons Ratio (z) = 0.30551 0.39813
#
# Static dielectric constant tensor:
#      x y z
#    x 3.920170 0.000000 -0.019130 
#    y 0.000000 3.580250 0.000000 
#    z -0.019130 0.000000 3.200450 
# 
# 
# High freq. dielectric constant tensor:
#      x y z
#    x 1.759500 0.000000 -0.001130 
#    y 0.000000 1.736460 0.000000 
#    z -0.001130 0.000000 1.730220 
# 
# From -- ./inp_files/228202.got.cif
#   From: 2010.06.25/outbox.cif.g09.slc.cpg/sg15_115_cif.got.tgz:228202.got - 2010.06.28 07:06:18.
