data_PCOD8151485
_publ_section_title
;
Structure prediction by ZEFSAII (Michael W. Deem and Ramdas Pophale) SiO2 
 PCOD8151485
Probable space group: C 2/C
;
_chemical_formula_sum "Si O2"
_cell_formula_units_Z 56
_cell_length_a 13.995817
_cell_length_b 19.155989
_cell_length_c 17.472701
_cell_angle_alpha 90.000000
_cell_angle_beta 147.473747
_cell_angle_gamma 90.000000
_cell_volume 2518.787933
_symmetry_space_group_name_H-M "C 2/C"
_symmetry_group_IT_number 15
_symmetry_cell_setting 'monoclinic'
loop_
_space_group_symop_operation_xyz
x,y,z
-x,y,1/2-z
-x,-y,-z
x,-y,1/2+z
1/2+x,1/2+y,z
1/2-x,1/2+y,1/2-z
1/2-x,1/2-y,-z
1/2+x,1/2-y,1/2+z
loop_
_atom_site_type_symbol
_atom_site_label
_atom_site_fract_x
_atom_site_fract_y
_atom_site_fract_z
Si Si1 0.457364 0.250608 0.641883
Si Si2 0.189385 0.632369 0.757782
Si Si3 0.936487 0.805990 0.018464
Si Si4 0.848023 0.908884 0.086115
Si Si5 0.888005 0.970532 0.492896
Si Si6 0.164481 0.860761 0.697264
Si Si7 0.565824 0.142967 0.506256
O O1 0.500000 0.288996 0.750000
O O2 0.250000 0.250000 0.500000
O O3 0.524170 0.171079 0.685271
O O4 0.563383 0.288291 0.646522
O O5 0.140214 0.613006 0.636900
O O6 0.360786 0.682552 0.870779
O O7 0.224467 0.567502 0.838845
O O8 0.810131 0.852858 0.877353
O O9 0.891382 0.724288 0.980892
O O10 0.902689 0.836511 0.080543
O O11 0.660446 0.900091 0.002585
O O12 0.000000 0.927114 0.250000
O O13 0.822135 0.971662 0.008160
O O14 0.025871 0.919970 0.630669
O O15 0.000000 0.000000 0.500000
O O16 0.354676 0.871454 0.864769
#
# Coordination Sequence:
#
# PCOD8151485 Si02
#       7
#     8   8   8   8   8   8   8
#     4  12  23  41  68 105 139 180 242 296 364 433
#     4  11  22  43  74 103 144 195 226 303 376 428
#     4  11  20  43  72 106 150 186 226 303 380 429
#     4  12  25  44  73 107 145 195 253 288 354 464
#     4  11  23  48  69  91 145 203 241 284 370 437
#     4  11  24  41  72 103 143 187 231 306 371 423
#     4  12  22  42  73 114 142 180 246 307 369 432
#
# _framework density 22.232917
#
# number of rings (size 3 to 8) (size 9 to 14) (size 15 to 20)
#    0.000    0.571    7.143    3.000    0.000    1.143 
#    0.000    8.571    0.000    0.000    0.000    0.000 
#    0.000    0.000    0.000    0.000    0.000    0.000 
#
# Total GULP energy -347038.843308 kJ/mol
# GULP energy per Si atom -12394.244404 kJ/mol
# Density = 2.218231 g / cm^3
# Si number density = 22.232917 Si / 1000 Ang^3
#
#
#
# Elastic Constant Matrix: (Units=GPa)
#
#
# Indices 1 2 3 4 5 6 
#
# 1 117.0527 50.8124 56.6496 0.0000 -0.9211 0.0010
# 2 50.8124 107.8178 56.4204 0.0014 -5.1076 0.0023
# 3 56.6496 56.4204 150.9714 -0.0011 0.5119 0.0076
# 4 0.0000 0.0014 -0.0011 37.5551 0.0007 -5.5546
# 5 -0.9211 -5.1076 0.5119 0.0007 41.0640 0.0021
# 6 0.0010 0.0023 0.0076 -5.5546 0.0021 40.9992
#
#
#
# Elastic Compliance Matrix: (Units=1/GPa)
#
#
# Indices 1 2 3 4 5 6 
#
# 1 0.011675 -0.004002 -0.002884 0.000000 -0.000200 0.000000
# 2 -0.004002 0.012993 -0.003359 -0.000001 0.001568 0.000000
# 3 -0.002884 -0.003359 0.008964 0.000000 -0.000594 -0.000001
# 4 0.000000 -0.000001 0.000000 0.027172 -0.000001 0.003681
# 5 -0.000200 0.001568 -0.000594 -0.000001 0.024550 -0.000001
# 6 0.000000 0.000000 -0.000001 0.003681 -0.000001 0.024889
#
#
# Mechanical properties :
#
#
# Convention : Reuss Voigt Hill
#
# Bulk Modulus (GPa) = 76.10499 78.17854 77.14176
# Shear Modulus (GPa) = 37.00538 38.05428 37.52983
#
# Velocity S-wave (km/s) = 4.08418 4.14166 4.11302
# Velocity P-wave (km/s) = 7.51969 7.62305 7.57155
#
# Compressibility (1/GPa) = 0.01313974
#
# Stress axis : x y z
#
# Youngs Moduli (GPa) = 85.65366 76.96278 111.56258
#
# Poissons Ratio (x) = 0.30802 0.32180
# Poissons Ratio (y) = 0.34280 0.37478
# Poissons Ratio (z) = 0.24706 0.25855
#
# Static dielectric constant tensor:
#      x y z
#    x 4.784020 0.000350 0.200140 
#    y 0.000350 0.907050 0.000090 
#    z 0.200140 0.000090 4.350080 
# 
# 
# High freq. dielectric constant tensor:
#      x y z
#    x 1.878310 0.000000 -0.012010 
#    y 0.000000 1.861800 0.000000 
#    z -0.012010 0.000000 1.884400 
# 
# From -- ./inp_files/206999.got.cif
#   From: 2010.06.25/outbox.cif.g09.slc.cpg/sg15_104_cif.got.tgz:206999.got - 2010.06.28 07:06:18.
