data_PCOD8151210
_publ_section_title
;
Structure prediction by ZEFSAII (Michael W. Deem and Ramdas Pophale) SiO2 
 PCOD8151210
Probable space group: C 2/C
;
_chemical_formula_sum "Si O2"
_cell_formula_units_Z 44
_cell_length_a 9.746625
_cell_length_b 25.018780
_cell_length_c 13.674475
_cell_angle_alpha 90.000000
_cell_angle_beta 135.393206
_cell_angle_gamma 90.000000
_cell_volume 2341.612624
_symmetry_space_group_name_H-M "C 2/C"
_symmetry_group_IT_number 15
_symmetry_cell_setting 'monoclinic'
loop_
_space_group_symop_operation_xyz
x,y,z
-x,y,1/2-z
-x,-y,-z
x,-y,1/2+z
1/2+x,1/2+y,z
1/2-x,1/2+y,1/2-z
1/2-x,1/2-y,-z
1/2+x,1/2-y,1/2+z
loop_
_atom_site_type_symbol
_atom_site_label
_atom_site_fract_x
_atom_site_fract_y
_atom_site_fract_z
Si Si1 0.218509 0.431121 0.244715
Si Si2 0.158878 0.184096 0.753250
Si Si3 0.977829 0.749847 0.498048
Si Si4 0.650115 0.326272 0.902897
Si Si5 0.724040 0.063461 0.969194
Si Si6 0.500000 0.503020 0.750000
O O1 0.239667 0.367074 0.245523
O O2 0.271869 0.450450 0.381087
O O3 0.357045 0.459966 0.238804
O O4 0.997109 0.450270 0.111955
O O5 0.046213 0.219845 0.616473
O O6 0.317660 0.218841 0.892770
O O7 0.000000 0.163487 0.750000
O O8 0.800925 0.708906 0.418536
O O9 0.973390 0.791445 0.584187
O O10 0.500000 0.352073 0.750000
O O11 0.760026 0.372883 0.014781
O O12 0.874674 0.033078 0.113958
#
# Coordination Sequence:
#
# PCOD8151210 Si02
#       6
#     8   8   8   8   8   4
#     4  11  24  41  63  94 119 159 207 250 304 364
#     4  12  23  40  59  86 130 167 195 242 299 366
#     4  11  23  36  62  90 121 159 202 234 304 364
#     4  11  20  35  62  94 117 148 199 257 296 350
#     4  11  23  40  68  89 118 158 203 255 302 358
#     4  12  24  44  64  88 124 160 200 258 314 352
#
# _framework density 18.790468000000001
#
# number of rings (size 3 to 8) (size 9 to 14) (size 15 to 20)
#    0.000    0.727    7.273    1.636    0.000    0.000 
#    0.000    0.000    0.000    0.000    0.000    0.000 
#    0.000    0.000    0.000    0.000    0.000    0.000 
#
# Total GULP energy -272840.353379 kJ/mol
# GULP energy per Si atom -12401.834244 kJ/mol
# Density = 1.874770 g / cm^3
# Si number density = 18.790468 Si / 1000 Ang^3
#
#
#
# Elastic Constant Matrix: (Units=GPa)
#
#
# Indices 1 2 3 4 5 6 
#
# 1 81.6016 7.5896 5.7029 0.0000 4.0298 0.0000
# 2 7.5896 66.6960 13.0657 0.0000 3.6205 0.0000
# 3 5.7029 13.0657 90.0322 0.0000 9.8035 0.0000
# 4 0.0000 0.0000 0.0000 18.8383 0.0000 3.7487
# 5 4.0298 3.6205 9.8035 0.0000 22.1138 0.0000
# 6 0.0000 0.0000 0.0000 3.7487 0.0000 36.3711
#
#
#
# Elastic Compliance Matrix: (Units=1/GPa)
#
#
# Indices 1 2 3 4 5 6 
#
# 1 0.012492 -0.001239 -0.000405 0.000000 -0.001894 0.000000
# 2 -0.001239 0.015610 -0.002031 0.000000 -0.001429 0.000000
# 3 -0.000405 -0.002031 0.011961 0.000000 -0.004896 0.000000
# 4 0.000000 0.000000 0.000000 0.054195 0.000000 -0.005586
# 5 -0.001894 -0.001429 -0.004896 0.000000 0.047970 0.000000
# 6 0.000000 0.000000 0.000000 -0.005586 0.000000 0.028070
#
#
# Mechanical properties :
#
#
# Convention : Reuss Voigt Hill
#
# Bulk Modulus (GPa) = 30.57077 32.33847 31.45462
# Shear Modulus (GPa) = 26.51778 29.59608 28.05693
#
# Velocity S-wave (km/s) = 3.76072 3.97301 3.86832
# Velocity P-wave (km/s) = 5.92975 6.18820 6.06035
#
# Compressibility (1/GPa) = 0.03271099
#
# Stress axis : x y z
#
# Youngs Moduli (GPa) = 80.05266 64.06175 83.60710
#
# Poissons Ratio (x) = 0.07939 0.03388
# Poissons Ratio (y) = 0.09921 0.16982
# Poissons Ratio (z) = 0.03244 0.13012
#
# Static dielectric constant tensor:
#      x y z
#    x 3.362130 0.000000 0.012480 
#    y 0.000000 3.327610 0.000000 
#    z 0.012480 0.000000 3.475400 
# 
# 
# High freq. dielectric constant tensor:
#      x y z
#    x 1.733550 0.000000 0.000830 
#    y 0.000000 1.726700 0.000000 
#    z 0.000830 0.000000 1.743570 
# 
# From -- ./inp_files/79703.got.cif
#   From: 2010.06.25/outbox.cif.g09.slc.cpg/sg15_40_cif.got.tgz:79703.got - 2010.06.28 07:06:18.
