data_PCOD8151515
_publ_section_title
;
Structure prediction by ZEFSAII (Michael W. Deem and Ramdas Pophale) SiO2 
 PCOD8151515
Probable space group: C 2/C
;
_chemical_formula_sum "Si O2"
_cell_formula_units_Z 48
_cell_length_a 20.519438
_cell_length_b 16.605255
_cell_length_c 8.925612
_cell_angle_alpha 90.000000
_cell_angle_beta 64.215779
_cell_angle_gamma 90.000000
_cell_volume 2738.439296
_symmetry_space_group_name_H-M "C 2/C"
_symmetry_group_IT_number 15
_symmetry_cell_setting 'monoclinic'
loop_
_space_group_symop_operation_xyz
x,y,z
-x,y,1/2-z
-x,-y,-z
x,-y,1/2+z
1/2+x,1/2+y,z
1/2-x,1/2+y,1/2-z
1/2-x,1/2-y,-z
1/2+x,1/2-y,1/2+z
loop_
_atom_site_type_symbol
_atom_site_label
_atom_site_fract_x
_atom_site_fract_y
_atom_site_fract_z
Si Si1 0.793464 0.167462 0.621577
Si Si2 0.417150 0.224022 0.008839
Si Si3 0.328508 0.916176 0.745147
Si Si4 0.671492 0.916176 0.402163
Si Si5 0.582850 0.224022 0.843140
Si Si6 0.706536 0.332538 0.708505
O O1 0.874532 0.192837 0.592499
O O2 0.754183 0.106813 0.774741
O O3 0.750000 0.250000 0.656970
O O4 0.794709 0.126780 0.455291
O O5 0.500000 0.237359 0.971356
O O6 0.407465 0.204904 0.842535
O O7 0.385837 0.149507 0.132616
O O8 0.245817 0.893187 0.783107
O O9 0.351028 0.000000 0.648972
O O10 0.333285 0.924138 0.916715
O O11 0.614163 0.850493 0.404290
O O12 0.625468 0.307163 0.841562
#
# Coordination Sequence:
#
# PCOD8151515 Si02
#       6
#     8   8   8   8   8   8
#     4   8  15  30  50  70  93 122 157 194 232 278
#     4   9  18  33  52  73  98 127 156 189 234 286
#     4  11  21  32  48  70  97 128 161 198 237 278
#     4  11  21  32  48  70  97 128 161 198 237 278
#     4   9  18  33  52  73  98 127 156 189 234 286
#     4   8  15  30  50  70  93 122 157 194 232 278
#
# _framework density 17.528231999999999
#
# number of rings (size 3 to 8) (size 9 to 14) (size 15 to 20)
#    0.000    2.667    0.000    5.000    0.000    7.333 
#    0.000    0.000    0.000    1.000    0.000    0.000 
#    0.000    0.000    0.000    0.000    0.000    0.000 
#
# Total GULP energy -297470.005037 kJ/mol
# GULP energy per Si atom -12394.583543 kJ/mol
# Density = 1.748834 g / cm^3
# Si number density = 17.528232 Si / 1000 Ang^3
#
#
#
# Elastic Constant Matrix: (Units=GPa)
#
#
# Indices 1 2 3 4 5 6 
#
# 1 113.0706 20.0886 50.3913 0.0000 -17.3004 0.0000
# 2 20.0886 11.5148 14.5269 0.0000 -4.0211 0.0000
# 3 50.3913 14.5269 88.9920 0.0000 -0.1086 0.0000
# 4 0.0000 0.0000 0.0000 24.6157 0.0000 4.4273
# 5 -17.3004 -4.0211 -0.1086 0.0000 31.8052 0.0000
# 6 0.0000 0.0000 0.0000 4.4273 0.0000 18.4922
#
#
#
# Elastic Compliance Matrix: (Units=1/GPa)
#
#
# Indices 1 2 3 4 5 6 
#
# 1 0.015548 -0.017443 -0.005949 0.000000 0.006231 0.000000
# 2 -0.017443 0.135317 -0.012203 0.000000 0.007578 0.000000
# 3 -0.005949 -0.012203 0.016592 0.000000 -0.004722 0.000000
# 4 0.000000 0.000000 0.000000 0.042453 0.000000 -0.010164
# 5 0.006231 0.007578 -0.004722 0.000000 0.035773 0.000000
# 6 0.000000 0.000000 0.000000 -0.010164 0.000000 0.056510
#
#
# Mechanical properties :
#
#
# Convention : Reuss Voigt Hill
#
# Bulk Modulus (GPa) = 10.38775 42.62122 26.50449
# Shear Modulus (GPa) = 12.33135 23.55400 17.94268
#
# Velocity S-wave (km/s) = 2.65526 3.66973 3.20292
# Velocity P-wave (km/s) = 3.91659 6.50572 5.36955
#
# Compressibility (1/GPa) = 0.09626723
#
# Stress axis : x y z
#
# Youngs Moduli (GPa) = 64.31826 7.39004 60.27155
#
# Poissons Ratio (x) = 0.12891 0.35854
# Poissons Ratio (y) = 1.12192 0.73546
# Poissons Ratio (z) = 0.38261 0.09018
#
# Static dielectric constant tensor:
#      x y z
#    x 3.630740 0.000000 -0.228670 
#    y 0.000000 3.124520 0.000000 
#    z -0.228670 0.000000 3.314470 
# 
# 
# High freq. dielectric constant tensor:
#      x y z
#    x 1.674770 0.000000 -0.000810 
#    y 0.000000 1.648700 0.000000 
#    z -0.000810 0.000000 1.673640 
# 
# From -- ./inp_files/55414.got.cif
#   From: 2010.06.25/outbox.cif.g09.slc.cpg/sg15_28_cif.got.tgz:55414.got - 2010.06.28 07:06:18.
