data_PCOD8151215
_publ_section_title
;
Structure prediction by ZEFSAII (Michael W. Deem and Ramdas Pophale) SiO2 
 PCOD8151215
Probable space group: C 2/C
;
_chemical_formula_sum "Si O2"
_cell_formula_units_Z 48
_cell_length_a 19.304769
_cell_length_b 13.538560
_cell_length_c 16.654858
_cell_angle_alpha 90.000000
_cell_angle_beta 30.631615
_cell_angle_gamma 90.000000
_cell_volume 2217.869995
_symmetry_space_group_name_H-M "C 2/C"
_symmetry_group_IT_number 15
_symmetry_cell_setting 'monoclinic'
loop_
_space_group_symop_operation_xyz
x,y,z
-x,y,1/2-z
-x,-y,-z
x,-y,1/2+z
1/2+x,1/2+y,z
1/2-x,1/2+y,1/2-z
1/2-x,1/2-y,-z
1/2+x,1/2-y,1/2+z
loop_
_atom_site_type_symbol
_atom_site_label
_atom_site_fract_x
_atom_site_fract_y
_atom_site_fract_z
Si Si1 0.429009 0.072018 0.402501
Si Si2 0.397978 0.576593 0.564629
Si Si3 0.220775 0.718001 0.841293
Si Si4 0.849165 0.371193 0.522732
Si Si5 0.418959 0.268381 0.681587
Si Si6 0.675399 0.075122 0.266984
O O1 0.500000 0.105599 0.250000
O O2 0.337945 0.162464 0.522782
O O3 0.533456 0.045733 0.369516
O O4 0.343324 0.970287 0.474139
O O5 0.500000 0.500000 0.500000
O O6 0.346479 0.654887 0.681990
O O7 0.482351 0.636545 0.414136
O O8 0.273296 0.517338 0.649555
O O9 0.110090 0.734194 0.881070
O O10 0.270433 0.823217 0.826130
O O11 0.722151 0.296389 0.631904
O O12 0.834522 0.407758 0.628539
O O13 0.994237 0.317655 0.361525
#
# Coordination Sequence:
#
# PCOD8151215 Si02
#       6
#     8   8   8   8   8   8
#     4  12  25  41  58  84 129 172 202 245 302 371
#     4  12  19  32  60  98 120 145 194 266 309 350
#     4  11  20  36  59  91 121 154 208 243 310 359
#     4  11  21  38  64  94 117 157 208 251 313 353
#     4  11  20  35  65  98 119 151 197 270 308 354
#     4  11  22  35  64  90 117 155 209 255 299 357
#
# _framework density 21.642385999999998
#
# number of rings (size 3 to 8) (size 9 to 14) (size 15 to 20)
#    0.000    0.667   10.000    1.500    0.000    0.667 
#    0.000    0.833    0.000    0.000    0.000    0.000 
#    0.000    0.000    0.000    0.000    0.000    0.000 
#
# Total GULP energy -297537.048855 kJ/mol
# GULP energy per Si atom -12397.377036 kJ/mol
# Density = 2.159313 g / cm^3
# Si number density = 21.642386 Si / 1000 Ang^3
#
#
#
# Elastic Constant Matrix: (Units=GPa)
#
#
# Indices 1 2 3 4 5 6 
#
# 1 8.7131 -0.2301 14.0790 0.0002 -4.7541 -0.0001
# 2 -0.2301 117.2783 34.4446 0.0002 -0.4237 -0.0001
# 3 14.0790 34.4446 93.5052 0.0003 -12.4179 -0.0002
# 4 0.0002 0.0002 0.0003 54.3113 -0.0002 -14.5897
# 5 -4.7541 -0.4237 -12.4179 -0.0002 25.2974 0.0001
# 6 -0.0001 -0.0001 -0.0002 -14.5897 0.0001 19.4361
#
#
#
# Elastic Compliance Matrix: (Units=1/GPa)
#
#
# Indices 1 2 3 4 5 6 
#
# 1 0.166409 0.007867 -0.025442 0.000000 0.018916 0.000000
# 2 0.007867 0.010000 -0.004974 0.000000 -0.000796 0.000000
# 3 -0.025442 -0.004974 0.016807 0.000000 0.003386 0.000000
# 4 0.000000 0.000000 0.000000 0.023063 0.000000 0.017312
# 5 0.018916 -0.000796 0.003386 0.000000 0.044733 0.000000
# 6 0.000000 0.000000 0.000000 0.017312 0.000000 0.064446
#
#
# Mechanical properties :
#
#
# Convention : Reuss Voigt Hill
#
# Bulk Modulus (GPa) = 6.75134 35.12038 20.93586
# Shear Modulus (GPa) = 11.90677 31.22250 21.56463
#
# Velocity S-wave (km/s) = 2.34809 3.80235 3.16002
# Velocity P-wave (km/s) = 3.23692 5.96154 4.79675
#
# Compressibility (1/GPa) = 0.14811878
#
# Stress axis : x y z
#
# Youngs Moduli (GPa) = 6.00929 99.99854 59.49798
#
# Poissons Ratio (x) = -0.78671 1.51375
# Poissons Ratio (y) = -0.04728 0.29594
# Poissons Ratio (z) = 0.15289 0.49739
#
# Static dielectric constant tensor:
#      x y z
#    x 3.332790 0.000000 -0.455380 
#    y 0.000000 4.393160 0.000000 
#    z -0.455380 0.000000 4.193390 
# 
# 
# High freq. dielectric constant tensor:
#      x y z
#    x 1.784950 0.000000 -0.034420 
#    y 0.000000 1.880350 0.000000 
#    z -0.034420 0.000000 1.851570 
# 
# From -- ./inp_files/215423.got.cif
#   From: 2010.06.25/outbox.cif.g09.slc.cpg/sg15_108_cif.got.tgz:215423.got - 2010.06.28 07:06:18.
