data_PCOD8151996
_publ_section_title
;
Structure prediction by ZEFSAII (Michael W. Deem and Ramdas Pophale) SiO2 
 PCOD8151996
Probable space group: C 2/C
;
_chemical_formula_sum "Si O2"
_cell_formula_units_Z 44
_cell_length_a 10.421852
_cell_length_b 17.004995
_cell_length_c 16.151629
_cell_angle_alpha 90.000000
_cell_angle_beta 47.839567
_cell_angle_gamma 90.000000
_cell_volume 2121.842599
_symmetry_space_group_name_H-M "C 2/C"
_symmetry_group_IT_number 15
_symmetry_cell_setting 'monoclinic'
loop_
_space_group_symop_operation_xyz
x,y,z
-x,y,1/2-z
-x,-y,-z
x,-y,1/2+z
1/2+x,1/2+y,z
1/2-x,1/2+y,1/2-z
1/2-x,1/2-y,-z
1/2+x,1/2-y,1/2+z
loop_
_atom_site_type_symbol
_atom_site_label
_atom_site_fract_x
_atom_site_fract_y
_atom_site_fract_z
Si Si1 0.164024 0.944657 0.444829
Si Si2 0.500000 0.958567 0.750000
Si Si3 0.676138 0.441047 0.625751
Si Si4 0.416179 0.846496 0.637943
Si Si5 0.884559 0.832378 0.181770
Si Si6 0.251735 0.615279 0.903944
O O1 0.145876 0.910886 0.545555
O O2 0.161813 0.869345 0.386318
O O3 0.345179 0.989805 0.354617
O O4 0.000000 0.000000 0.500000
O O5 0.416335 0.904701 0.715508
O O6 0.500000 0.460192 0.750000
O O7 0.779196 0.374874 0.629723
O O8 0.782577 0.522267 0.573894
O O9 0.362082 0.760750 0.691264
O O10 0.601935 0.838360 0.515259
O O11 0.748508 0.863101 0.308626
O O12 0.074085 0.859565 0.125988
#
# Coordination Sequence:
#
# PCOD8151996 Si02
#       6
#     8   4   8   8   8   8
#     4  12  24  44  70  97 133 180 227 274 329 410
#     4  12  24  42  72  98 126 176 238 262 328 412
#     4  12  24  44  70  96 135 178 223 272 335 396
#     4  12  26  41  67 104 129 170 224 283 325 393
#     4  11  24  42  67  98 135 172 215 279 341 383
#     4  11  21  44  70  92 133 176 222 269 330 398
#
# _framework density 20.736692000000001
#
# number of rings (size 3 to 8) (size 9 to 14) (size 15 to 20)
#    0.000    0.364    5.455    4.364    2.545    3.636 
#    1.636    0.000    0.000    0.000    0.000    0.000 
#    0.000    0.000    0.000    0.000    0.000    0.000 
#
# Total GULP energy -272934.710445 kJ/mol
# GULP energy per Si atom -12406.123202 kJ/mol
# Density = 2.068949 g / cm^3
# Si number density = 20.736692 Si / 1000 Ang^3
#
#
#
# Elastic Constant Matrix: (Units=GPa)
#
#
# Indices 1 2 3 4 5 6 
#
# 1 77.9841 28.1221 47.1123 0.0003 25.3316 0.0010
# 2 28.1221 84.1340 12.5914 0.0002 5.5630 0.0007
# 3 47.1123 12.5914 112.9675 -0.0002 25.6089 0.0011
# 4 0.0003 0.0002 -0.0002 -1.7783 0.0002 -3.4496
# 5 25.3316 5.5630 25.6089 0.0002 42.1846 -0.0006
# 6 0.0010 0.0007 0.0011 -3.4496 -0.0006 15.1107
#
#
#
# Elastic Compliance Matrix: (Units=1/GPa)
#
#
# Indices 1 2 3 4 5 6 
#
# 1 0.021419 -0.005653 -0.006442 0.000003 -0.008206 0.000000
# 2 -0.005653 0.013609 0.000554 0.000001 0.001263 0.000000
# 3 -0.006442 0.000554 0.012311 -0.000001 -0.003678 -0.000001
# 4 0.000003 0.000001 -0.000001 -0.389732 0.000000 -0.088972
# 5 -0.008206 0.001263 -0.003678 0.000000 0.030699 0.000002
# 6 0.000000 0.000000 -0.000001 -0.088972 0.000002 0.045867
#
#
# Mechanical properties :
#
#
# Convention : Reuss Voigt Hill
#
# Bulk Modulus (GPa) = 41.22560 50.08193 45.65376
# Shear Modulus (GPa) = -21.30738 23.58737 1.13999
#
# Velocity S-wave (km/s) = -3.20897 3.37630 0.74225
# Velocity P-wave (km/s) = 2.48870 6.27718 4.77476
#
# Compressibility (1/GPa) = 0.02425677
#
# Stress axis : x y z
#
# Youngs Moduli (GPa) = 46.68742 73.48212 81.22895
#
# Poissons Ratio (x) = 0.41537 0.52331
# Poissons Ratio (y) = 0.26391 -0.04501
# Poissons Ratio (z) = 0.30078 -0.04072
#
# Static dielectric constant tensor:
#      x y z
#    x 3.778960 0.000000 0.195330 
#    y 0.000000 3.637920 0.000000 
#    z 0.195330 0.000000 4.195810 
# 
# 
# High freq. dielectric constant tensor:
#      x y z
#    x 1.810840 0.000000 0.010850 
#    y 0.000000 1.802850 0.000000 
#    z 0.010850 0.000000 1.834550 
# 
# From -- ./inp_files/134758.got.cif
#   From: 2010.06.25/outbox.cif.g09.slc.cpg/sg15_68_cif.got.tgz:134758.got - 2010.06.28 07:06:18.
