data_PCOD8151837
_publ_section_title
;
Structure prediction by ZEFSAII (Michael W. Deem and Ramdas Pophale) SiO2 
 PCOD8151837
Probable space group: C 2/C
;
_chemical_formula_sum "Si O2"
_cell_formula_units_Z 44
_cell_length_a 12.438826
_cell_length_b 13.094225
_cell_length_c 12.837326
_cell_angle_alpha 90.000000
_cell_angle_beta 96.275339
_cell_angle_gamma 90.000000
_cell_volume 2078.373915
_symmetry_space_group_name_H-M "C 2/C"
_symmetry_group_IT_number 15
_symmetry_cell_setting 'monoclinic'
loop_
_space_group_symop_operation_xyz
x,y,z
-x,y,1/2-z
-x,-y,-z
x,-y,1/2+z
1/2+x,1/2+y,z
1/2-x,1/2+y,1/2-z
1/2-x,1/2-y,-z
1/2+x,1/2-y,1/2+z
loop_
_atom_site_type_symbol
_atom_site_label
_atom_site_fract_x
_atom_site_fract_y
_atom_site_fract_z
Si Si1 0.049940 0.779460 0.983507
Si Si2 0.500000 0.209564 0.750000
Si Si3 0.890770 0.443132 0.958922
Si Si4 0.835514 0.831455 0.044815
Si Si5 0.793451 0.574303 0.783141
Si Si6 0.310567 0.470638 0.435238
O O1 0.012568 0.775310 0.857697
O O2 0.112423 0.677633 0.024675
O O3 0.127700 0.875978 0.005923
O O4 0.952423 0.777732 0.057763
O O5 0.389744 0.144508 0.748971
O O6 0.851400 0.474772 0.839043
O O7 0.806740 0.490245 0.029690
O O8 0.000000 0.500000 0.000000
O O9 0.789963 0.870000 0.148900
O O10 0.750000 0.750000 0.000000
O O11 0.867735 0.922265 0.966781
O O12 0.706487 0.541466 0.688519
#
# Coordination Sequence:
#
# PCOD8151837 Si02
#       6
#     8   4   8   8   8   8
#     4  12  24  42  70 101 139 177 233 286 356 415
#     4  12  22  40  74  96 130 182 230 280 350 420
#     4  11  21  41  67  97 131 177 232 288 331 414
#     4  11  24  45  67  99 140 180 226 295 344 418
#     4  11  23  42  68  98 134 179 233 277 350 411
#     4  11  25  42  67 100 139 179 226 286 350 422
#
# _framework density 21.170396
#
# number of rings (size 3 to 8) (size 9 to 14) (size 15 to 20)
#    0.000    0.727    5.455    2.182    0.000    5.091 
#    0.000    1.818    0.000    0.000    0.000    0.000 
#    0.000    0.000    0.000    0.000    0.000    0.000 
#
# Total GULP energy -272601.811197 kJ/mol
# GULP energy per Si atom -12390.991418 kJ/mol
# Density = 2.112221 g / cm^3
# Si number density = 21.170396 Si / 1000 Ang^3
#
#
#
# Elastic Constant Matrix: (Units=GPa)
#
#
# Indices 1 2 3 4 5 6 
#
# 1 71.1342 -12.6230 18.1020 0.0000 -17.3962 0.0000
# 2 -12.6230 91.9460 31.1806 0.0000 8.8946 0.0000
# 3 18.1020 31.1806 120.2750 0.0000 1.9132 0.0000
# 4 0.0000 0.0000 0.0000 33.0846 0.0000 2.0490
# 5 -17.3962 8.8946 1.9132 0.0000 32.3283 0.0000
# 6 0.0000 0.0000 0.0000 2.0490 0.0000 37.9852
#
#
#
# Elastic Compliance Matrix: (Units=1/GPa)
#
#
# Indices 1 2 3 4 5 6 
#
# 1 0.017622 0.002744 -0.003506 0.000000 0.008935 0.000000
# 2 0.002744 0.012670 -0.003669 0.000000 -0.001792 0.000000
# 3 -0.003506 -0.003669 0.009816 0.000000 -0.001458 0.000000
# 4 0.000000 0.000000 0.000000 0.030327 0.000000 -0.001636
# 5 0.008935 -0.001792 -0.001458 0.000000 0.036320 0.000000
# 6 0.000000 0.000000 0.000000 -0.001636 0.000000 0.026414
#
#
# Mechanical properties :
#
#
# Convention : Reuss Voigt Hill
#
# Bulk Modulus (GPa) = 32.00347 39.63049 35.81698
# Shear Modulus (GPa) = 32.79813 37.12598 34.96206
#
# Velocity S-wave (km/s) = 3.94031 4.19223 4.06822
# Velocity P-wave (km/s) = 5.98760 6.49565 6.24679
#
# Compressibility (1/GPa) = 0.03124661
#
# Stress axis : x y z
#
# Youngs Moduli (GPa) = 56.74694 78.92471 101.87139
#
# Poissons Ratio (x) = -0.21655 0.35713
# Poissons Ratio (y) = -0.15570 0.37378
# Poissons Ratio (z) = 0.19894 0.28959
#
# Static dielectric constant tensor:
#      x y z
#    x 3.996630 0.000000 0.205660 
#    y 0.000000 4.317880 0.000000 
#    z 0.205660 0.000000 3.318330 
# 
# 
# High freq. dielectric constant tensor:
#      x y z
#    x 1.849310 0.000000 -0.007460 
#    y 0.000000 1.835960 0.000000 
#    z -0.007460 0.000000 1.824630 
# 
# From -- ./inp_files/86112.got.cif
#   From: 2010.06.25/outbox.cif.g09.slc.cpg/sg15_44_cif.got.tgz:86112.got - 2010.06.28 07:06:18.
