data_PCOD8151938
_publ_section_title
;
Structure prediction by ZEFSAII (Michael W. Deem and Ramdas Pophale) SiO2 
 PCOD8151938
Probable space group: C 2/C
;
_chemical_formula_sum "Si O2"
_cell_formula_units_Z 56
_cell_length_a 18.704768
_cell_length_b 16.633403
_cell_length_c 9.459412
_cell_angle_alpha 90.000000
_cell_angle_beta 58.632284
_cell_angle_gamma 90.000000
_cell_volume 2512.905898
_symmetry_space_group_name_H-M "C 2/C"
_symmetry_group_IT_number 15
_symmetry_cell_setting 'monoclinic'
loop_
_space_group_symop_operation_xyz
x,y,z
-x,y,1/2-z
-x,-y,-z
x,-y,1/2+z
1/2+x,1/2+y,z
1/2-x,1/2+y,1/2-z
1/2-x,1/2-y,-z
1/2+x,1/2-y,1/2+z
loop_
_atom_site_type_symbol
_atom_site_label
_atom_site_fract_x
_atom_site_fract_y
_atom_site_fract_z
Si Si1 0.452112 0.549202 0.167133
Si Si2 0.168208 0.665385 0.864979
Si Si3 0.833429 0.506417 0.801380
Si Si4 0.684183 0.764627 0.880394
Si Si5 0.738768 0.567600 0.163714
Si Si6 0.587631 0.848648 0.733653
Si Si7 0.925098 0.769889 0.745128
O O1 0.500000 0.512462 0.250000
O O2 0.352774 0.534788 0.279766
O O3 0.462845 0.645422 0.151942
O O4 0.500000 0.500000 0.000000
O O5 0.141805 0.582817 0.817015
O O6 0.264167 0.690347 0.738284
O O7 0.101420 0.727515 0.871180
O O8 0.159978 0.662302 0.042012
O O9 0.756237 0.462230 0.804046
O O10 0.911226 0.443385 0.725041
O O11 0.806460 0.530994 0.986370
O O12 0.751028 0.835694 0.846877
O O13 0.611251 0.793796 0.846039
O O14 0.649554 0.728936 0.062755
O O15 0.500000 0.824880 0.750000
O O16 0.000000 0.723341 0.750000
#
# Coordination Sequence:
#
# PCOD8151938 Si02
#       7
#     8   8   8   8   8   8   8
#     4  11  24  43  65  97 137 180 230 286 345 399
#     4  12  22  43  70  99 131 180 232 282 340 414
#     4  11  23  39  68 101 130 178 227 277 349 412
#     4  11  23  43  72  96 134 183 235 285 339 416
#     4  11  21  43  65  99 133 178 234 277 339 419
#     4  11  26  45  64 101 142 176 224 287 359 414
#     4  11  23  41  67 101 136 174 225 283 348 406
#
# _framework density 22.284958
#
# number of rings (size 3 to 8) (size 9 to 14) (size 15 to 20)
#    0.000    0.857    4.286    3.429    0.000    2.286 
#    0.000    3.571    0.000    0.000    0.000    0.000 
#    0.000    0.000    0.000    0.000    0.000    0.000 
#
# Total GULP energy -347029.505981 kJ/mol
# GULP energy per Si atom -12393.910928 kJ/mol
# Density = 2.223424 g / cm^3
# Si number density = 22.284958 Si / 1000 Ang^3
#
#
#
# Elastic Constant Matrix: (Units=GPa)
#
#
# Indices 1 2 3 4 5 6 
#
# 1 106.5117 27.8391 12.9473 0.0000 10.6455 0.0000
# 2 27.8391 99.2843 41.0987 0.0000 9.9411 0.0000
# 3 12.9473 41.0987 90.6846 0.0000 14.8732 0.0000
# 4 0.0000 0.0000 0.0000 37.4904 0.0000 4.8289
# 5 10.6455 9.9411 14.8732 0.0000 36.5495 0.0000
# 6 0.0000 0.0000 0.0000 4.8289 0.0000 25.6073
#
#
#
# Elastic Compliance Matrix: (Units=1/GPa)
#
#
# Indices 1 2 3 4 5 6 
#
# 1 0.010314 -0.002717 0.000140 0.000000 -0.002322 0.000000
# 2 -0.002717 0.013160 -0.005485 0.000000 -0.000556 0.000000
# 3 0.000140 -0.005485 0.014203 0.000000 -0.004329 0.000000
# 4 0.000000 0.000000 0.000000 0.027338 0.000000 -0.005155
# 5 -0.002322 -0.000556 -0.004329 0.000000 0.029949 0.000000
# 6 0.000000 0.000000 0.000000 -0.005155 0.000000 0.040024
#
#
# Mechanical properties :
#
#
# Convention : Reuss Voigt Hill
#
# Bulk Modulus (GPa) = 46.39980 51.13897 48.76939
# Shear Modulus (GPa) = 31.58620 34.23578 32.91099
#
# Velocity S-wave (km/s) = 3.76889 3.92378 3.84712
# Velocity P-wave (km/s) = 6.30918 6.59740 6.45490
#
# Compressibility (1/GPa) = 0.02155182
#
# Stress axis : x y z
#
# Youngs Moduli (GPa) = 96.95597 75.98621 70.40719
#
# Poissons Ratio (x) = 0.20648 -0.00984
# Poissons Ratio (y) = 0.26347 0.38619
# Poissons Ratio (z) = -0.01355 0.41680
#
# Static dielectric constant tensor:
#      x y z
#    x 4.128860 0.000000 0.203740 
#    y 0.000000 4.101830 0.000000 
#    z 0.203740 0.000000 3.963620 
# 
# 
# High freq. dielectric constant tensor:
#      x y z
#    x 1.889260 0.000000 0.018790 
#    y 0.000000 1.873410 0.000000 
#    z 0.018790 0.000000 1.874060 
# 
# From -- ./inp_files/56469.got.cif
#   From: 2010.06.25/outbox.cif.g09.slc.cpg/sg15_29_cif.got.tgz:56469.got - 2010.06.28 07:06:18.
