data_PCOD8151942
_publ_section_title
;
Structure prediction by ZEFSAII (Michael W. Deem and Ramdas Pophale) SiO2 
 PCOD8151942
Probable space group: C 2/C
;
_chemical_formula_sum "Si O2"
_cell_formula_units_Z 48
_cell_length_a 21.867905
_cell_length_b 12.403289
_cell_length_c 10.729452
_cell_angle_alpha 90.000000
_cell_angle_beta 52.192689
_cell_angle_gamma 90.000000
_cell_volume 2299.274862
_symmetry_space_group_name_H-M "C 2/C"
_symmetry_group_IT_number 15
_symmetry_cell_setting 'monoclinic'
loop_
_space_group_symop_operation_xyz
x,y,z
-x,y,1/2-z
-x,-y,-z
x,-y,1/2+z
1/2+x,1/2+y,z
1/2-x,1/2+y,1/2-z
1/2-x,1/2-y,-z
1/2+x,1/2-y,1/2+z
loop_
_atom_site_type_symbol
_atom_site_label
_atom_site_fract_x
_atom_site_fract_y
_atom_site_fract_z
Si Si1 0.751266 0.835773 0.107966
Si Si2 0.253231 0.585677 0.057868
Si Si3 0.044475 0.546529 0.564183
Si Si4 0.084262 0.824316 0.170866
Si Si5 0.136369 0.266858 0.855621
Si Si6 0.345168 0.137693 0.545965
O O1 0.829614 0.817311 0.087350
O O2 0.679395 0.813904 0.290303
O O3 0.742105 0.957432 0.070873
O O4 0.750000 0.750000 0.000000
O O5 0.200742 0.647444 0.225181
O O6 0.344065 0.605484 0.970895
O O7 0.229795 0.635125 0.952161
O O8 0.067199 0.669351 0.509879
O O9 0.124348 0.482651 0.479453
O O10 0.000000 0.538096 0.750000
O O11 0.000000 0.500000 0.500000
O O12 0.095512 0.805359 0.302593
O O13 0.000000 0.878155 0.250000
O O14 0.086092 0.710024 0.096390
#
# Coordination Sequence:
#
# PCOD8151942 Si02
#       6
#     8   8   8   8   8   8
#     4  12  25  38  70 102 126 168 231 272 322 387
#     4  11  22  43  70  92 131 178 224 268 335 399
#     4  12  25  40  66 102 139 170 212 283 355 395
#     4  11  22  42  68  93 127 179 223 269 337 397
#     4  11  22  43  66  97 133 172 225 276 323 412
#     4  11  21  43  67  96 131 172 220 275 328 411
#
# _framework density 20.876147
#
# number of rings (size 3 to 8) (size 9 to 14) (size 15 to 20)
#    0.000    0.667    5.000    5.500    2.333    0.000 
#    0.000    1.667    0.000    0.000    0.000    0.000 
#    0.000    0.000    0.000    0.000    0.000    0.000 
#
# Total GULP energy -297552.646932 kJ/mol
# GULP energy per Si atom -12398.026956 kJ/mol
# Density = 2.082863 g / cm^3
# Si number density = 20.876147 Si / 1000 Ang^3
#
#
#
# Elastic Constant Matrix: (Units=GPa)
#
#
# Indices 1 2 3 4 5 6 
#
# 1 104.5003 12.8496 56.9407 0.0000 -5.6411 0.0000
# 2 12.8496 57.0764 15.8554 0.0000 8.8457 0.0000
# 3 56.9407 15.8554 111.9084 0.0000 16.3135 0.0000
# 4 0.0000 0.0000 0.0000 32.4871 0.0000 -2.8998
# 5 -5.6411 8.8457 16.3135 0.0000 39.8159 0.0000
# 6 0.0000 0.0000 0.0000 -2.8998 0.0000 36.8794
#
#
#
# Elastic Compliance Matrix: (Units=1/GPa)
#
#
# Indices 1 2 3 4 5 6 
#
# 1 0.014416 -0.001937 -0.007893 0.000000 0.005707 0.000000
# 2 -0.001937 0.018886 -0.001104 0.000000 -0.004018 0.000000
# 3 -0.007893 -0.001104 0.014076 0.000000 -0.006640 0.000000
# 4 0.000000 0.000000 0.000000 0.030999 0.000000 0.002437
# 5 0.005707 -0.004018 -0.006640 0.000000 0.029537 0.000000
# 6 0.000000 0.000000 0.000000 0.002437 0.000000 0.027307
#
#
# Mechanical properties :
#
#
# Convention : Reuss Voigt Hill
#
# Bulk Modulus (GPa) = 39.20068 49.41961 44.31014
# Shear Modulus (GPa) = 30.19436 34.35909 32.27672
#
# Velocity S-wave (km/s) = 3.80723 4.06131 3.93632
# Velocity P-wave (km/s) = 6.17617 6.76140 6.47540
#
# Compressibility (1/GPa) = 0.02550976
#
# Stress axis : x y z
#
# Youngs Moduli (GPa) = 69.36644 52.94921 71.04197
#
# Poissons Ratio (x) = 0.10259 0.56070
# Poissons Ratio (y) = 0.13439 0.07845
# Poissons Ratio (z) = 0.54748 0.05847
#
# Static dielectric constant tensor:
#      x y z
#    x 3.909650 0.000000 -0.303400 
#    y 0.000000 3.708450 0.000000 
#    z -0.303400 0.000000 6.111180 
# 
# 
# High freq. dielectric constant tensor:
#      x y z
#    x 1.818200 0.000000 0.007930 
#    y 0.000000 1.802560 0.000000 
#    z 0.007930 0.000000 1.819770 
# 
# From -- ./inp_files/117429.got.cif
#   From: 2010.06.25/outbox.cif.g09.slc.cpg/sg15_59_cif.got.tgz:117429.got - 2010.06.28 07:06:18.
