data_PCOD8151298
_publ_section_title
;
Structure prediction by ZEFSAII (Michael W. Deem and Ramdas Pophale) SiO2 
 PCOD8151298
Probable space group: C 2/C
;
_chemical_formula_sum "Si O2"
_cell_formula_units_Z 56
_cell_length_a 9.550347
_cell_length_b 27.496956
_cell_length_c 11.999629
_cell_angle_alpha 90.000000
_cell_angle_beta 60.647239
_cell_angle_gamma 90.000000
_cell_volume 2746.615747
_symmetry_space_group_name_H-M "C 2/C"
_symmetry_group_IT_number 15
_symmetry_cell_setting 'monoclinic'
loop_
_space_group_symop_operation_xyz
x,y,z
-x,y,1/2-z
-x,-y,-z
x,-y,1/2+z
1/2+x,1/2+y,z
1/2-x,1/2+y,1/2-z
1/2-x,1/2-y,-z
1/2+x,1/2-y,1/2+z
loop_
_atom_site_type_symbol
_atom_site_label
_atom_site_fract_x
_atom_site_fract_y
_atom_site_fract_z
Si Si1 0.721547 0.450104 0.881376
Si Si2 0.686376 0.945032 0.206637
Si Si3 0.015633 0.219641 0.060359
Si Si4 0.208788 0.389747 0.861235
Si Si5 0.420608 0.052693 0.521092
Si Si6 0.081011 0.111052 0.016072
Si Si7 0.742313 0.779754 0.829769
O O1 0.716870 0.508184 0.875126
O O2 0.788788 0.426418 0.742887
O O3 0.837445 0.435896 0.937036
O O4 0.543939 0.430155 0.971387
O O5 0.500000 0.950764 0.250000
O O6 0.709981 0.941419 0.330196
O O7 0.761795 0.896712 0.121912
O O8 0.142965 0.223671 0.109209
O O9 0.841900 0.237682 0.179189
O O10 0.002152 0.163656 0.027011
O O11 0.080391 0.249431 0.926133
O O12 0.187832 0.334786 0.827735
O O13 0.369068 0.394474 0.873754
O O14 0.055130 0.406251 0.992468
O O15 0.500000 0.000000 0.500000
#
# Coordination Sequence:
#
# PCOD8151298 Si02
#       7
#     8   8   8   8   8   8   8
#     4  12  23  39  62  88 125 166 208 257 308 376
#     4  12  23  40  59  86 125 163 210 261 306 370
#     4   9  18  35  56  92 126 159 206 267 318 375
#     4  11  20  38  64  89 122 167 208 257 310 376
#     4  12  23  39  59  88 124 163 211 254 309 376
#     4  11  23  39  62  93 125 162 210 263 317 364
#     4   9  18  33  59  89 126 159 209 262 320 374
#
# _framework density 20.388729000000001
#
# number of rings (size 3 to 8) (size 9 to 14) (size 15 to 20)
#    0.000    1.143    5.714    1.286    0.000    1.714 
#    5.143    0.000    0.000    0.857    3.714    0.000 
#    0.000    0.000    0.000    0.000    0.000    0.000 
#
# Total GULP energy -347049.646719 kJ/mol
# GULP energy per Si atom -12394.630240 kJ/mol
# Density = 2.034232 g / cm^3
# Si number density = 20.388729 Si / 1000 Ang^3
#
#
#
# Elastic Constant Matrix: (Units=GPa)
#
#
# Indices 1 2 3 4 5 6 
#
# 1 62.1583 25.3332 19.7748 0.0000 -2.9707 0.0000
# 2 25.3332 75.7735 52.6483 0.0000 -17.2610 0.0000
# 3 19.7748 52.6483 132.5149 0.0000 -19.4537 0.0000
# 4 0.0000 0.0000 0.0000 36.8399 0.0000 -9.1079
# 5 -2.9707 -17.2610 -19.4537 0.0000 31.9942 0.0000
# 6 0.0000 0.0000 0.0000 -9.1079 0.0000 19.7558
#
#
#
# Elastic Compliance Matrix: (Units=1/GPa)
#
#
# Indices 1 2 3 4 5 6 
#
# 1 0.018755 -0.006327 -0.000582 0.000000 -0.002026 0.000000
# 2 -0.006327 0.021463 -0.006554 0.000000 0.007006 0.000000
# 3 -0.000582 -0.006554 0.010662 0.000000 0.002893 0.000000
# 4 0.000000 0.000000 0.000000 0.030636 0.000000 0.014124
# 5 -0.002026 0.007006 0.002893 0.000000 0.036606 0.000000
# 6 0.000000 0.000000 0.000000 0.014124 0.000000 0.057130
#
#
# Mechanical properties :
#
#
# Convention : Reuss Voigt Hill
#
# Bulk Modulus (GPa) = 41.75078 51.77327 46.76202
# Shear Modulus (GPa) = 23.79093 29.23068 26.51080
#
# Velocity S-wave (km/s) = 3.41965 3.79049 3.60983
# Velocity P-wave (km/s) = 6.00948 6.67872 6.35292
#
# Compressibility (1/GPa) = 0.02395165
#
# Stress axis : x y z
#
# Youngs Moduli (GPa) = 53.31872 46.59241 93.79149
#
# Poissons Ratio (x) = 0.29480 0.05462
# Poissons Ratio (y) = 0.33736 0.61475
# Poissons Ratio (z) = 0.03105 0.30538
#
# Static dielectric constant tensor:
#      x y z
#    x 3.445110 0.000000 -0.141620 
#    y 0.000000 3.650960 0.000000 
#    z -0.141620 0.000000 4.127690 
# 
# 
# High freq. dielectric constant tensor:
#      x y z
#    x 1.762630 0.000000 -0.013530 
#    y 0.000000 1.784130 0.000000 
#    z -0.013530 0.000000 1.813230 
# 
# From -- ./inp_files/81241.got.cif
#   From: 2010.06.25/outbox.cif.g09.slc.cpg/sg15_41_cif.got.tgz:81241.got - 2010.06.28 07:06:18.
