data_PCOD8151941
_publ_section_title
;
Structure prediction by ZEFSAII (Michael W. Deem and Ramdas Pophale) SiO2 
 PCOD8151941
Probable space group: C 2/C
;
_chemical_formula_sum "Si O2"
_cell_formula_units_Z 40
_cell_length_a 15.582499
_cell_length_b 19.885823
_cell_length_c 9.532723
_cell_angle_alpha 90.000000
_cell_angle_beta 143.232540
_cell_angle_gamma 90.000000
_cell_volume 1768.119789
_symmetry_space_group_name_H-M "C 2/C"
_symmetry_group_IT_number 15
_symmetry_cell_setting 'monoclinic'
loop_
_space_group_symop_operation_xyz
x,y,z
-x,y,1/2-z
-x,-y,-z
x,-y,1/2+z
1/2+x,1/2+y,z
1/2-x,1/2+y,1/2-z
1/2-x,1/2-y,-z
1/2+x,1/2-y,1/2+z
loop_
_atom_site_type_symbol
_atom_site_label
_atom_site_fract_x
_atom_site_fract_y
_atom_site_fract_z
Si Si1 0.112704 0.964684 0.507183
Si Si2 0.000000 0.602398 0.750000
Si Si3 0.909369 0.299134 0.895485
Si Si4 0.921433 0.188248 0.504488
Si Si5 0.000000 0.377045 0.750000
Si Si6 0.716412 0.015921 0.529408
O O1 0.065615 0.891561 0.499799
O O2 0.142096 0.010120 0.684306
O O3 0.253766 0.960133 0.591802
O O4 0.000000 0.997807 0.250000
O O5 0.990111 0.650197 0.603743
O O6 0.857915 0.556863 0.571054
O O7 0.743268 0.287293 0.714657
O O8 0.921445 0.330329 0.757636
O O9 0.993222 0.227410 0.007507
O O10 0.000000 0.208896 0.750000
O O11 0.881831 0.427186 0.527028
#
# Coordination Sequence:
#
# PCOD8151941 Si02
#       6
#     8   4   8   8   4   8
#     4  11  23  40  67  96 134 168 215 272 338 389
#     4  11  24  42  68  96 134 173 220 278 328 389
#     4  12  24  43  67  99 133 175 226 270 329 392
#     4  11  24  43  68  96 133 176 225 271 322 399
#     4  11  22  38  74  96 124 175 226 276 316 391
#     4  11  21  43  66  98 132 168 221 272 327 393
#
# _framework density 22.622902
#
# number of rings (size 3 to 8) (size 9 to 14) (size 15 to 20)
#    0.000    0.800    5.000    2.400    0.000    4.000 
#    0.000    2.000    0.000    0.000    0.000    0.000 
#    0.000    0.000    0.000    0.000    0.000    0.000 
#
# Total GULP energy -247961.704897 kJ/mol
# GULP energy per Si atom -12398.085245 kJ/mol
# Density = 2.257141 g / cm^3
# Si number density = 22.622902 Si / 1000 Ang^3
#
#
#
# Elastic Constant Matrix: (Units=GPa)
#
#
# Indices 1 2 3 4 5 6 
#
# 1 44.9615 22.5276 5.7634 0.0000 -10.6171 0.0000
# 2 22.5276 103.9189 32.8394 0.0000 -8.4929 0.0000
# 3 5.7634 32.8394 105.0365 0.0000 -4.1275 0.0000
# 4 0.0000 0.0000 0.0000 -45.1943 0.0000 30.9071
# 5 -10.6171 -8.4929 -4.1275 0.0000 26.5331 0.0000
# 6 0.0000 0.0000 0.0000 30.9071 0.0000 37.4080
#
#
#
# Elastic Compliance Matrix: (Units=1/GPa)
#
#
# Indices 1 2 3 4 5 6 
#
# 1 0.026982 -0.005264 0.000527 0.000000 0.009194 0.000000
# 2 -0.005264 0.011934 -0.003396 0.000000 0.001185 0.000000
# 3 0.000527 -0.003396 0.010584 0.000000 0.000770 0.000000
# 4 0.000000 0.000000 0.000000 -0.014138 0.000000 0.011681
# 5 0.009194 0.001185 0.000770 0.000000 0.041867 0.000000
# 6 0.000000 0.000000 0.000000 0.011681 0.000000 0.017081
#
#
# Mechanical properties :
#
#
# Convention : Reuss Voigt Hill
#
# Bulk Modulus (GPa) = 30.09043 41.79750 35.94397
# Shear Modulus (GPa) = 41.10014 16.60180 28.85097
#
# Velocity S-wave (km/s) = 4.26696 2.71190 3.57501
# Velocity P-wave (km/s) = 6.13235 5.32182 5.74140
#
# Compressibility (1/GPa) = 0.03323316
#
# Stress axis : x y z
#
# Youngs Moduli (GPa) = 37.06123 83.79404 94.48643
#
# Poissons Ratio (x) = 0.44112 -0.04976
# Poissons Ratio (y) = 0.19510 0.32085
# Poissons Ratio (z) = -0.01952 0.28454
#
# Static dielectric constant tensor:
#      x y z
#    x 4.269710 0.000000 0.088100 
#    y 0.000000 4.119360 0.000000 
#    z 0.088100 0.000000 4.233590 
# 
# 
# High freq. dielectric constant tensor:
#      x y z
#    x 1.882490 0.000000 0.015970 
#    y 0.000000 1.894020 0.000000 
#    z 0.015970 0.000000 1.897700 
# 
# From -- ./inp_files/106912.got.cif
#   From: 2010.06.25/outbox.cif.g09.slc.cpg/sg15_54_cif.got.tgz:106912.got - 2010.06.28 07:06:18.
