data_PCOD8151622
_publ_section_title
;
Structure prediction by ZEFSAII (Michael W. Deem and Ramdas Pophale) SiO2 
 PCOD8151622
Probable space group: C 2/C
;
_chemical_formula_sum "Si O2"
_cell_formula_units_Z 40
_cell_length_a 7.442801
_cell_length_b 25.762098
_cell_length_c 9.879401
_cell_angle_alpha 90.000000
_cell_angle_beta 87.019844
_cell_angle_gamma 90.000000
_cell_volume 1891.735927
_symmetry_space_group_name_H-M "C 2/C"
_symmetry_group_IT_number 15
_symmetry_cell_setting 'monoclinic'
loop_
_space_group_symop_operation_xyz
x,y,z
-x,y,1/2-z
-x,-y,-z
x,-y,1/2+z
1/2+x,1/2+y,z
1/2-x,1/2+y,1/2-z
1/2-x,1/2-y,-z
1/2+x,1/2-y,1/2+z
loop_
_atom_site_type_symbol
_atom_site_label
_atom_site_fract_x
_atom_site_fract_y
_atom_site_fract_z
Si Si1 0.181064 0.375391 0.521683
Si Si2 0.774321 0.636173 0.036318
Si Si3 0.482249 0.549925 0.093229
Si Si4 0.788517 0.290947 0.773449
Si Si5 0.786634 0.175656 0.753978
O O1 0.287367 0.425283 0.572029
O O2 0.260816 0.324020 0.591740
O O3 0.207613 0.366562 0.361016
O O4 0.972731 0.384609 0.567864
O O5 0.638223 0.588778 0.042274
O O6 0.707113 0.679554 0.145797
O O7 0.786110 0.661860 0.889961
O O8 0.500000 0.534731 0.250000
O O9 0.500000 0.500000 0.000000
O O10 0.708717 0.233078 0.790649
O O11 0.000000 0.285507 0.750000
O O12 0.000000 0.173018 0.750000
#
# Coordination Sequence:
#
# PCOD8151622 Si02
#       5
#     8   8   8   8   8
#     4  11  23  44  66  96 138 175 219 279 329 395
#     4  11  23  44  66  96 138 175 219 279 329 395
#     4  12  28  48  74  98 128 176 226 284 343 388
#     4   9  20  38  64  97 134 182 225 259 328 400
#     4  11  21  37  65 101 139 181 221 264 321 402
#
# _framework density 21.144601000000002
#
# number of rings (size 3 to 8) (size 9 to 14) (size 15 to 20)
#    0.000    1.200    4.000    1.800    2.800    0.800 
#    7.200    0.000    0.000    0.000    0.000    0.000 
#    0.000    0.000    0.000    0.000    0.000    0.000 
#
# Total GULP energy -248084.568095 kJ/mol
# GULP energy per Si atom -12404.228405 kJ/mol
# Density = 2.109648 g / cm^3
# Si number density = 21.144601 Si / 1000 Ang^3
#
#
#
# Elastic Constant Matrix: (Units=GPa)
#
#
# Indices 1 2 3 4 5 6 
#
# 1 80.4325 22.9014 -4.7355 0.0000 15.9884 0.0000
# 2 22.9014 98.4716 22.3175 0.0000 15.0154 0.0000
# 3 -4.7355 22.3175 109.6003 0.0000 20.4465 0.0000
# 4 0.0000 0.0000 0.0000 38.4271 0.0000 3.0983
# 5 15.9884 15.0154 20.4465 0.0000 27.4060 0.0000
# 6 0.0000 0.0000 0.0000 3.0983 0.0000 24.7399
#
#
#
# Elastic Compliance Matrix: (Units=1/GPa)
#
#
# Indices 1 2 3 4 5 6 
#
# 1 0.015327 -0.002775 0.003034 0.000000 -0.009684 0.000000
# 2 -0.002775 0.011747 -0.001874 0.000000 -0.003419 0.000000
# 3 0.003034 -0.001874 0.011356 0.000000 -0.009215 0.000000
# 4 0.000000 0.000000 0.000000 0.026289 0.000000 -0.003292
# 5 -0.009684 -0.003419 -0.009215 0.000000 0.050886 0.000000
# 6 0.000000 0.000000 0.000000 -0.003292 0.000000 0.040833
#
#
# Mechanical properties :
#
#
# Convention : Reuss Voigt Hill
#
# Bulk Modulus (GPa) = 28.41037 41.05234 34.73135
# Shear Modulus (GPa) = 29.17133 34.64934 31.91033
#
# Velocity S-wave (km/s) = 3.71834 4.05246 3.88899
# Velocity P-wave (km/s) = 5.64802 6.43069 6.05202
#
# Compressibility (1/GPa) = 0.03519842
#
# Stress axis : x y z
#
# Youngs Moduli (GPa) = 65.24550 85.13024 88.05944
#
# Poissons Ratio (x) = 0.23627 -0.26718
# Poissons Ratio (y) = 0.18108 0.16503
# Poissons Ratio (z) = -0.19796 0.15954
#
# Static dielectric constant tensor:
#      x y z
#    x 3.811310 0.000000 0.128750 
#    y 0.000000 3.750220 0.000000 
#    z 0.128750 0.000000 3.976830 
# 
# 
# High freq. dielectric constant tensor:
#      x y z
#    x 1.833090 0.000000 0.006500 
#    y 0.000000 1.808990 0.000000 
#    z 0.006500 0.000000 1.845640 
# 
# From -- ./inp_files/23609.got.cif
#   From: 2010.06.25/outbox.cif.g09.slc.cpg/sg15_12_cif.got.tgz:23609.got - 2010.06.28 07:06:18.
