data_PCOD8151429
_publ_section_title
;
Structure prediction by ZEFSAII (Michael W. Deem and Ramdas Pophale) SiO2 
 PCOD8151429
Probable space group: C 2/C
;
_chemical_formula_sum "Si O2"
_cell_formula_units_Z 64
_cell_length_a 26.422578
_cell_length_b 15.083200
_cell_length_c 11.778065
_cell_angle_alpha 90.000000
_cell_angle_beta 140.547380
_cell_angle_gamma 90.000000
_cell_volume 2982.751814
_symmetry_space_group_name_H-M "C 2/C"
_symmetry_group_IT_number 15
_symmetry_cell_setting 'monoclinic'
loop_
_space_group_symop_operation_xyz
x,y,z
-x,y,1/2-z
-x,-y,-z
x,-y,1/2+z
1/2+x,1/2+y,z
1/2-x,1/2+y,1/2-z
1/2-x,1/2-y,-z
1/2+x,1/2-y,1/2+z
loop_
_atom_site_type_symbol
_atom_site_label
_atom_site_fract_x
_atom_site_fract_y
_atom_site_fract_z
Si Si1 0.420652 0.555831 0.680498
Si Si2 0.040387 0.754970 0.197474
Si Si3 0.179946 0.619732 0.425148
Si Si4 0.335456 0.609289 0.115530
Si Si5 0.825954 0.568831 0.537744
Si Si6 0.894799 0.708118 0.808748
Si Si7 0.257676 0.622350 0.317054
Si Si8 0.761424 0.321386 0.248028
O O1 0.500000 0.529936 0.750000
O O2 0.439502 0.641883 0.791370
O O3 0.398631 0.470995 0.719362
O O4 0.346503 0.580070 0.467810
O O5 0.121944 0.702271 0.336146
O O6 0.000000 0.746062 0.250000
O O7 0.986149 0.712057 0.005675
O O8 0.134679 0.525183 0.357913
O O9 0.230272 0.626424 0.398701
O O10 0.239818 0.626439 0.635571
O O11 0.368903 0.691017 0.244534
O O12 0.257539 0.574395 0.042169
O O13 0.314574 0.642961 0.952754
O O14 0.885367 0.648338 0.678473
O O15 0.806442 0.567275 0.369035
O O16 0.841866 0.662067 0.814776
O O17 0.256073 0.717153 0.256255
#
# Coordination Sequence:
#
# PCOD8151429 Si02
#       8
#     8   8   8   8   8   8   8   8
#     4  11  24  43  65  99 140 174 218 272 334 402
#     4  11  24  44  67  94 139 180 216 276 340 404
#     4  12  25  39  71 101 130 175 222 284 331 387
#     4  11  22  43  68  97 130 182 222 272 331 400
#     4  11  24  42  70  99 130 173 227 280 326 397
#     4  11  22  45  68  94 133 183 224 266 342 400
#     4  12  22  43  67  99 135 169 228 274 329 395
#     4  11  20  41  70  95 132 174 225 278 331 390
#
# _framework density 21.456695
#
# number of rings (size 3 to 8) (size 9 to 14) (size 15 to 20)
#    0.000    0.750    6.250    2.625    1.750    1.000 
#    2.250    0.625    0.000    0.000    0.000    0.000 
#    0.000    0.000    0.000    0.000    0.000    0.000 
#
# Total GULP energy -396774.162013 kJ/mol
# GULP energy per Si atom -12399.192563 kJ/mol
# Density = 2.140786 g / cm^3
# Si number density = 21.456695 Si / 1000 Ang^3
#
#
#
# Elastic Constant Matrix: (Units=GPa)
#
#
# Indices 1 2 3 4 5 6 
#
# 1 74.9913 26.9996 39.9567 0.0000 -13.5084 0.0000
# 2 26.9996 86.5570 2.5998 0.0000 7.5354 0.0000
# 3 39.9567 2.5998 94.9958 0.0000 -10.6257 0.0000
# 4 0.0000 0.0000 0.0000 21.4044 0.0000 38.3008
# 5 -13.5084 7.5354 -10.6257 0.0000 28.1068 0.0000
# 6 0.0000 0.0000 0.0000 38.3008 0.0000 -167.9982
#
#
#
# Elastic Compliance Matrix: (Units=1/GPa)
#
#
# Indices 1 2 3 4 5 6 
#
# 1 0.021987 -0.007450 -0.007976 0.000000 0.009549 0.000000
# 2 -0.007450 0.014399 0.001991 0.000000 -0.006688 0.000000
# 3 -0.007976 0.001991 0.013928 0.000000 0.000898 0.000000
# 4 0.000000 0.000000 0.000000 0.033183 0.000000 0.007565
# 5 0.009549 -0.006688 0.000898 0.000000 0.042301 0.000000
# 6 0.000000 0.000000 0.000000 0.007565 0.000000 -0.004228
#
#
# Mechanical properties :
#
#
# Convention : Reuss Voigt Hill
#
# Bulk Modulus (GPa) = 42.65382 43.96182 43.30782
# Shear Modulus (GPa) = 31.99914 -11.23153 10.38381
#
# Velocity S-wave (km/s) = 3.86597 -2.29039 2.20226
# Velocity P-wave (km/s) = 6.31267 3.67948 5.16664
#
# Compressibility (1/GPa) = 0.02344456
#
# Stress axis : x y z
#
# Youngs Moduli (GPa) = 45.48102 69.44702 71.79982
#
# Poissons Ratio (x) = 0.51739 0.57269
# Poissons Ratio (y) = 0.33884 -0.14299
# Poissons Ratio (z) = 0.36276 -0.13830
#
# Static dielectric constant tensor:
#      x y z
#    x 3.723970 0.000000 -0.076100 
#    y 0.000000 4.168240 0.000000 
#    z -0.076100 0.000000 4.171580 
# 
# 
# High freq. dielectric constant tensor:
#      x y z
#    x 1.812880 0.000000 -0.016160 
#    y 0.000000 1.861410 0.000000 
#    z -0.016160 0.000000 1.839500 
# 
# From -- ./inp_files/123548.got.cif
#   From: 2010.06.25/outbox.cif.g09.slc.cpg/sg15_62_cif.got.tgz:123548.got - 2010.06.28 07:06:18.
