data_PCOD8151672
_publ_section_title
;
Structure prediction by ZEFSAII (Michael W. Deem and Ramdas Pophale) SiO2 
 PCOD8151672
Probable space group: C 2/C
;
_chemical_formula_sum "Si O2"
_cell_formula_units_Z 44
_cell_length_a 20.810757
_cell_length_b 17.517967
_cell_length_c 10.057980
_cell_angle_alpha 90.000000
_cell_angle_beta 143.827370
_cell_angle_gamma 90.000000
_cell_volume 2164.194846
_symmetry_space_group_name_H-M "C 2/C"
_symmetry_group_IT_number 15
_symmetry_cell_setting 'monoclinic'
loop_
_space_group_symop_operation_xyz
x,y,z
-x,y,1/2-z
-x,-y,-z
x,-y,1/2+z
1/2+x,1/2+y,z
1/2-x,1/2+y,1/2-z
1/2-x,1/2-y,-z
1/2+x,1/2-y,1/2+z
loop_
_atom_site_type_symbol
_atom_site_label
_atom_site_fract_x
_atom_site_fract_y
_atom_site_fract_z
Si Si1 0.876633 0.346887 0.011474
Si Si2 0.500000 0.815267 0.750000
Si Si3 0.749362 0.972721 0.573078
Si Si4 0.204364 0.785144 0.559104
Si Si5 0.927774 0.430771 0.835000
Si Si6 0.871286 0.043330 0.546121
O O1 0.820986 0.393170 0.040758
O O2 0.798029 0.278267 0.831243
O O3 0.872349 0.402601 0.877042
O O4 0.000000 0.319722 0.250000
O O5 0.395240 0.763523 0.553950
O O6 0.495896 0.864913 0.877334
O O7 0.663101 0.042057 0.422096
O O8 0.827885 0.979023 0.576449
O O9 0.823734 0.980369 0.825245
O O10 0.250000 0.750000 0.500000
O O11 0.164280 0.871769 0.468461
O O12 0.000000 0.500000 0.000000
O O13 0.000000 0.038150 0.750000
#
# Coordination Sequence:
#
# PCOD8151672 Si02
#       6
#     8   4   8   8   8   8
#     4  11  22  38  65  97 138 168 220 283 329 390
#     4  12  24  40  70  92 130 172 224 266 330 406
#     4  11  21  38  64  99 133 171 222 285 335 375
#     4  11  22  42  64  93 129 186 221 258 331 414
#     4  12  22  37  66  99 125 162 216 283 339 377
#     4  11  23  40  65  95 138 177 227 271 330 401
#
# _framework density 20.330887000000001
#
# number of rings (size 3 to 8) (size 9 to 14) (size 15 to 20)
#    0.000    0.727    8.182    1.636    0.000    0.000 
#    0.000    0.909    4.000    2.182    0.000    0.000 
#    0.000    0.000    0.000    0.000    0.000    0.000 
#
# Total GULP energy -272696.094639 kJ/mol
# GULP energy per Si atom -12395.277029 kJ/mol
# Density = 2.028461 g / cm^3
# Si number density = 20.330887 Si / 1000 Ang^3
#
#
#
# Elastic Constant Matrix: (Units=GPa)
#
#
# Indices 1 2 3 4 5 6 
#
# 1 81.1972 32.8329 61.7689 0.0000 20.5837 0.0000
# 2 32.8329 74.6549 60.0275 0.0000 10.4178 0.0000
# 3 61.7689 60.0275 187.0176 0.0000 19.8695 0.0000
# 4 0.0000 0.0000 0.0000 36.4457 0.0000 -3.7742
# 5 20.5837 10.4178 19.8695 0.0000 38.8911 0.0000
# 6 0.0000 0.0000 0.0000 -3.7742 0.0000 28.1253
#
#
#
# Elastic Compliance Matrix: (Units=1/GPa)
#
#
# Indices 1 2 3 4 5 6 
#
# 1 0.018847 -0.003933 -0.004245 0.000000 -0.006753 0.000000
# 2 -0.003933 0.019021 -0.004743 0.000000 -0.000590 0.000000
# 3 -0.004245 -0.004743 0.008351 0.000000 -0.000749 0.000000
# 4 0.000000 0.000000 0.000000 0.027825 0.000000 0.003734
# 5 -0.006753 -0.000590 -0.000749 0.000000 0.029828 0.000000
# 6 0.000000 0.000000 0.000000 0.003734 0.000000 0.036056
#
#
# Mechanical properties :
#
#
# Convention : Reuss Voigt Hill
#
# Bulk Modulus (GPa) = 49.07701 72.45868 60.76785
# Shear Modulus (GPa) = 28.97470 33.24180 31.10825
#
# Velocity S-wave (km/s) = 3.77922 4.04795 3.91589
# Velocity P-wave (km/s) = 6.57532 7.58716 7.09929
#
# Compressibility (1/GPa) = 0.02037614
#
# Stress axis : x y z
#
# Youngs Moduli (GPa) = 53.05786 52.57278 119.74203
#
# Poissons Ratio (x) = 0.20679 0.50831
# Poissons Ratio (y) = 0.20870 0.56799
# Poissons Ratio (z) = 0.22523 0.24938
#
# Static dielectric constant tensor:
#      x y z
#    x 3.742840 0.000000 0.126390 
#    y 0.000000 3.456210 0.000000 
#    z 0.126390 0.000000 3.850310 
# 
# 
# High freq. dielectric constant tensor:
#      x y z
#    x 1.801180 0.000000 0.015630 
#    y 0.000000 1.768750 0.000000 
#    z 0.015630 0.000000 1.813560 
# 
# From -- ./inp_files/119321.got.cif
#   From: 2010.06.25/outbox.cif.g09.slc.cpg/sg15_60_cif.got.tgz:119321.got - 2010.06.28 07:06:18.
