data_PCOD8151327
_publ_section_title
;
Structure prediction by ZEFSAII (Michael W. Deem and Ramdas Pophale) SiO2 
 PCOD8151327
Probable space group: C 2/C
;
_chemical_formula_sum "Si O2"
_cell_formula_units_Z 64
_cell_length_a 17.667050
_cell_length_b 29.849651
_cell_length_c 8.478769
_cell_angle_alpha 90.000000
_cell_angle_beta 137.827079
_cell_angle_gamma 90.000000
_cell_volume 3001.914281
_symmetry_space_group_name_H-M "C 2/C"
_symmetry_group_IT_number 15
_symmetry_cell_setting 'monoclinic'
loop_
_space_group_symop_operation_xyz
x,y,z
-x,y,1/2-z
-x,-y,-z
x,-y,1/2+z
1/2+x,1/2+y,z
1/2-x,1/2+y,1/2-z
1/2-x,1/2-y,-z
1/2+x,1/2-y,1/2+z
loop_
_atom_site_type_symbol
_atom_site_label
_atom_site_fract_x
_atom_site_fract_y
_atom_site_fract_z
Si Si1 0.894129 0.227662 0.492064
Si Si2 0.530640 0.578908 0.962416
Si Si3 0.557300 0.041971 0.169438
Si Si4 0.307452 0.439326 0.020247
Si Si5 0.760765 0.661975 0.059294
Si Si6 0.698708 0.179716 0.734747
Si Si7 0.985119 0.635703 0.542099
Si Si8 0.083951 0.838834 0.742666
O O1 0.809718 0.202486 0.478055
O O2 0.830631 0.267845 0.305414
O O3 0.945174 0.193269 0.445930
O O4 0.000000 0.248115 0.750000
O O5 0.564471 0.609677 0.160971
O O6 0.500000 0.606436 0.750000
O O7 0.638084 0.547730 0.070347
O O8 0.409926 0.552840 0.808845
O O9 0.500000 0.050740 0.250000
O O10 0.693835 0.033937 0.392819
O O11 0.538730 0.083593 0.025747
O O12 0.500000 0.000000 0.000000
O O13 0.282322 0.386673 0.961884
O O14 0.886285 0.667293 0.322893
O O15 0.754668 0.665711 0.862267
O O16 0.594165 0.148518 0.612288
O O17 0.788558 0.168581 0.008335
O O18 0.000000 0.644481 0.750000
O O19 0.000000 0.825413 0.750000
#
# Coordination Sequence:
#
# PCOD8151327 Si02
#       8
#     8   8   8   8   8   8   8   8
#     4  12  23  40  57  78 121 171 219 266 328 382
#     4   8  17  36  64  88 117 162 209 261 314 370
#     4  11  23  41  66 100 132 169 213 259 320 396
#     4   8  17  35  67  88 119 158 216 254 322 373
#     4  11  20  39  60  84 117 166 218 265 321 384
#     4  12  26  37  56  87 122 164 213 269 328 392
#     4  11  24  41  64  89 127 165 209 262 325 383
#     4  12  23  36  57  90 119 154 219 276 319 376
#
# _framework density 21.319728000000001
#
# number of rings (size 3 to 8) (size 9 to 14) (size 15 to 20)
#    0.750    0.500    1.250    7.125    1.750    1.500 
#    0.000    0.000    0.000    3.000    3.250    0.000 
#    0.000    0.000    0.000    0.000    0.000    0.000 
#
# Total GULP energy -396461.047841 kJ/mol
# GULP energy per Si atom -12389.407745 kJ/mol
# Density = 2.127120 g / cm^3
# Si number density = 21.319728 Si / 1000 Ang^3
#
#
#
# Elastic Constant Matrix: (Units=GPa)
#
#
# Indices 1 2 3 4 5 6 
#
# 1 119.4534 20.9238 41.4873 0.0000 20.9201 0.0000
# 2 20.9238 54.5032 21.0214 0.0000 11.1773 0.0000
# 3 41.4873 21.0214 105.3370 0.0000 19.1866 0.0000
# 4 0.0000 0.0000 0.0000 29.5579 0.0000 2.2237
# 5 20.9201 11.1773 19.1866 0.0000 48.2866 0.0000
# 6 0.0000 0.0000 0.0000 2.2237 0.0000 14.1394
#
#
#
# Elastic Compliance Matrix: (Units=1/GPa)
#
#
# Indices 1 2 3 4 5 6 
#
# 1 0.010320 -0.002197 -0.003131 0.000000 -0.002718 0.000000
# 2 -0.002197 0.020833 -0.002789 0.000000 -0.002762 0.000000
# 3 -0.003131 -0.002789 0.011770 0.000000 -0.002675 0.000000
# 4 0.000000 0.000000 0.000000 0.034237 0.000000 -0.005384
# 5 -0.002718 -0.002762 -0.002675 0.000000 0.023590 0.000000
# 6 0.000000 0.000000 0.000000 -0.005384 0.000000 0.071571
#
#
# Mechanical properties :
#
#
# Convention : Reuss Voigt Hill
#
# Bulk Modulus (GPa) = 37.46789 49.57320 43.52055
# Shear Modulus (GPa) = 25.32274 31.45418 28.38846
#
# Velocity S-wave (km/s) = 3.45013 3.84520 3.65301
# Velocity P-wave (km/s) = 5.78650 6.55872 6.18468
#
# Compressibility (1/GPa) = 0.02668952
#
# Stress axis : x y z
#
# Youngs Moduli (GPa) = 96.90170 48.00044 84.95970
#
# Poissons Ratio (x) = 0.10544 0.26600
# Poissons Ratio (y) = 0.21286 0.23697
# Poissons Ratio (z) = 0.30339 0.13388
#
# Static dielectric constant tensor:
#      x y z
#    x 4.145230 0.000000 0.314390 
#    y 0.000000 3.426990 0.000000 
#    z 0.314390 0.000000 4.303210 
# 
# 
# High freq. dielectric constant tensor:
#      x y z
#    x 1.852460 0.000000 0.018860 
#    y 0.000000 1.802420 0.000000 
#    z 0.018860 0.000000 1.845060 
# 
# From -- ./inp_files/52851.got.cif
#   From: 2010.06.25/outbox.cif.g09.slc.cpg/sg15_27_cif.got.tgz:52851.got - 2010.06.28 07:06:18.
