data_PCOD8151790
_publ_section_title
;
Structure prediction by ZEFSAII (Michael W. Deem and Ramdas Pophale) SiO2 
 PCOD8151790
Probable space group: C 2/C
;
_chemical_formula_sum "Si O2"
_cell_formula_units_Z 48
_cell_length_a 14.389595
_cell_length_b 25.217679
_cell_length_c 9.104412
_cell_angle_alpha 90.000000
_cell_angle_beta 44.006241
_cell_angle_gamma 90.000000
_cell_volume 2295.228036
_symmetry_space_group_name_H-M "C 2/C"
_symmetry_group_IT_number 15
_symmetry_cell_setting 'monoclinic'
loop_
_space_group_symop_operation_xyz
x,y,z
-x,y,1/2-z
-x,-y,-z
x,-y,1/2+z
1/2+x,1/2+y,z
1/2-x,1/2+y,1/2-z
1/2-x,1/2-y,-z
1/2+x,1/2-y,1/2+z
loop_
_atom_site_type_symbol
_atom_site_label
_atom_site_fract_x
_atom_site_fract_y
_atom_site_fract_z
Si Si1 0.352679 0.952591 0.976033
Si Si2 0.637797 0.721331 0.532879
Si Si3 0.903818 0.385779 0.181957
Si Si4 0.859302 0.900843 0.476542
Si Si5 0.884587 0.262153 0.266375
Si Si6 0.192110 0.569908 0.417626
O O1 0.340974 0.902794 0.099164
O O2 0.307309 0.006732 0.105205
O O3 0.500000 0.962460 0.750000
O O4 0.256252 0.938527 0.953100
O O5 0.750000 0.750000 0.500000
O O6 0.657013 0.659905 0.549296
O O7 0.629228 0.728976 0.367761
O O8 0.500000 0.744201 0.750000
O O9 0.902527 0.323124 0.203593
O O10 0.809978 0.414076 0.409202
O O11 0.057311 0.404541 0.004265
O O12 0.829062 0.907438 0.686070
O O13 0.000000 0.921880 0.250000
O O14 0.750000 0.250000 0.500000
O O15 0.000000 0.243864 0.250000
#
# Coordination Sequence:
#
# PCOD8151790 Si02
#       6
#     8   8   8   8   8   8
#     4  12  22  39  70 102 125 177 226 273 331 399
#     4  11  25  43  66  93 131 178 227 278 337 398
#     4  11  22  38  67 101 130 166 223 285 327 386
#     4  11  26  44  61  93 140 175 216 278 338 406
#     4  12  25  42  67  98 134 179 224 280 343 404
#     4  11  21  40  67  96 136 163 224 274 332 390
#
# _framework density 20.912955
#
# number of rings (size 3 to 8) (size 9 to 14) (size 15 to 20)
#    0.000    0.667    5.000    4.500    2.333    3.333 
#    0.000    0.833    0.000    0.000    0.000    0.000 
#    0.000    0.000    0.000    0.000    0.000    0.000 
#
# Total GULP energy -297485.193258 kJ/mol
# GULP energy per Si atom -12395.216386 kJ/mol
# Density = 2.086536 g / cm^3
# Si number density = 20.912955 Si / 1000 Ang^3
#
#
#
# Elastic Constant Matrix: (Units=GPa)
#
#
# Indices 1 2 3 4 5 6 
#
# 1 92.0664 24.6613 36.3905 0.0000 -4.6495 0.0000
# 2 24.6613 84.3964 15.4192 0.0000 -16.8913 0.0000
# 3 36.3905 15.4192 168.3444 0.0000 -10.5110 0.0000
# 4 0.0000 0.0000 0.0000 34.1745 0.0000 3.9462
# 5 -4.6495 -16.8913 -10.5110 0.0000 33.3085 0.0000
# 6 0.0000 0.0000 0.0000 3.9462 0.0000 22.2027
#
#
#
# Elastic Compliance Matrix: (Units=1/GPa)
#
#
# Indices 1 2 3 4 5 6 
#
# 1 0.012720 -0.003411 -0.002483 0.000000 -0.000738 0.000000
# 2 -0.003411 0.014210 -0.000147 0.000000 0.006684 0.000000
# 3 -0.002483 -0.000147 0.006594 0.000000 0.001660 0.000000
# 4 0.000000 0.000000 0.000000 0.029875 0.000000 -0.005310
# 5 -0.000738 0.006684 0.001660 0.000000 0.033833 0.000000
# 6 0.000000 0.000000 0.000000 -0.005310 0.000000 0.045983
#
#
# Mechanical properties :
#
#
# Convention : Reuss Voigt Hill
#
# Bulk Modulus (GPa) = 46.63768 55.30550 50.97159
# Shear Modulus (GPa) = 30.77994 35.82621 33.30308
#
# Velocity S-wave (km/s) = 3.84058 4.14346 3.99489
# Velocity P-wave (km/s) = 6.48198 7.02809 6.76055
#
# Compressibility (1/GPa) = 0.02144189
#
# Stress axis : x y z
#
# Youngs Moduli (GPa) = 78.61872 70.37287 151.65117
#
# Poissons Ratio (x) = 0.24002 0.37658
# Poissons Ratio (y) = 0.26815 0.02228
# Poissons Ratio (z) = 0.19523 0.01034
#
# Static dielectric constant tensor:
#      x y z
#    x 3.746550 0.000000 0.088640 
#    y 0.000000 3.645990 0.000000 
#    z 0.088640 0.000000 4.069630 
# 
# 
# High freq. dielectric constant tensor:
#      x y z
#    x 1.805470 0.000000 0.016440 
#    y 0.000000 1.826300 0.000000 
#    z 0.016440 0.000000 1.835950 
# 
# From -- ./inp_files/43777.got.cif
#   From: 2010.06.25/outbox.cif.g09.slc.cpg/sg15_22_cif.got.tgz:43777.got - 2010.06.28 07:06:18.
