data_PCOD8151635
_publ_section_title
;
Structure prediction by ZEFSAII (Michael W. Deem and Ramdas Pophale) SiO2 
 PCOD8151635
Probable space group: C 2/C
;
_chemical_formula_sum "Si O2"
_cell_formula_units_Z 48
_cell_length_a 9.279664
_cell_length_b 11.589605
_cell_length_c 22.574532
_cell_angle_alpha 90.000000
_cell_angle_beta 115.818576
_cell_angle_gamma 90.000000
_cell_volume 2185.485107
_symmetry_space_group_name_H-M "C 2/C"
_symmetry_group_IT_number 15
_symmetry_cell_setting 'monoclinic'
loop_
_space_group_symop_operation_xyz
x,y,z
-x,y,1/2-z
-x,-y,-z
x,-y,1/2+z
1/2+x,1/2+y,z
1/2-x,1/2+y,1/2-z
1/2-x,1/2-y,-z
1/2+x,1/2-y,1/2+z
loop_
_atom_site_type_symbol
_atom_site_label
_atom_site_fract_x
_atom_site_fract_y
_atom_site_fract_z
Si Si1 0.834654 0.944498 0.484785
Si Si2 0.633185 0.119824 0.594662
Si Si3 0.504645 0.564647 0.820691
Si Si4 0.672383 0.712136 0.626617
Si Si5 0.455767 0.901669 0.553178
Si Si6 0.053594 0.173171 0.379735
O O1 0.781923 0.863682 0.422289
O O2 0.836222 0.870387 0.545574
O O3 0.723490 0.057517 0.466766
O O4 0.000000 0.000000 0.500000
O O5 0.825940 0.115788 0.625179
O O6 0.533926 0.123752 0.515252
O O7 0.572626 0.227017 0.624134
O O8 0.576726 0.993639 0.606163
O O9 0.500000 0.569808 0.750000
O O10 0.354908 0.639443 0.818686
O O11 0.461972 0.438002 0.837897
O O12 0.504352 0.780607 0.590721
O O13 0.830411 0.791808 0.654792
#
# Coordination Sequence:
#
# PCOD8151635 Si02
#       6
#     8   8   8   8   8   8
#     4  12  22  37  66 112 140 169 214 272 350 416
#     4  11  22  41  70 101 135 176 214 272 347 404
#     4  12  29  48  65  93 133 185 239 274 326 408
#     4  12  24  41  70 100 138 171 220 284 342 398
#     4  11  21  37  70 106 140 166 209 280 350 406
#     4  12  23  43  71 100 135 176 219 279 343 400
#
# _framework density 21.963087999999999
#
# number of rings (size 3 to 8) (size 9 to 14) (size 15 to 20)
#    0.000    0.333    8.333    1.500    2.333    2.667 
#    0.000    0.000    0.000    0.000    0.000    0.000 
#    0.000    0.000    0.000    0.000    0.000    0.000 
#
# Total GULP energy -297341.938792 kJ/mol
# GULP energy per Si atom -12389.247450 kJ/mol
# Density = 2.191310 g / cm^3
# Si number density = 21.963088 Si / 1000 Ang^3
#
#
#
# Elastic Constant Matrix: (Units=GPa)
#
#
# Indices 1 2 3 4 5 6 
#
# 1 103.0487 49.4967 4.2989 0.0000 -16.0168 0.0000
# 2 49.4967 107.0928 38.6234 0.0000 -20.5740 0.0000
# 3 4.2989 38.6234 68.0653 0.0000 -26.6160 0.0000
# 4 0.0000 0.0000 0.0000 17.5681 0.0000 -17.0051
# 5 -16.0168 -20.5740 -26.6160 0.0000 30.6970 0.0000
# 6 0.0000 0.0000 0.0000 -17.0051 0.0000 49.2886
#
#
#
# Elastic Compliance Matrix: (Units=1/GPa)
#
#
# Indices 1 2 3 4 5 6 
#
# 1 0.014213 -0.007334 0.006418 0.000000 0.008065 0.000000
# 2 -0.007334 0.015732 -0.008831 0.000000 -0.000940 0.000000
# 3 0.006418 -0.008831 0.027676 0.000000 0.021426 0.000000
# 4 0.000000 0.000000 0.000000 0.085462 0.000000 0.029485
# 5 0.008065 -0.000940 0.021426 0.000000 0.054732 0.000000
# 6 0.000000 0.000000 0.000000 0.029485 0.000000 0.030461
#
#
# Mechanical properties :
#
#
# Convention : Reuss Voigt Hill
#
# Bulk Modulus (GPa) = 26.22947 51.44943 38.83945
# Shear Modulus (GPa) = 19.19531 31.89658 25.54595
#
# Velocity S-wave (km/s) = 2.95952 3.81502 3.41417
# Velocity P-wave (km/s) = 4.86280 6.54844 5.76753
#
# Compressibility (1/GPa) = 0.03812506
#
# Stress axis : x y z
#
# Youngs Moduli (GPa) = 70.36002 63.56530 36.13207
#
# Poissons Ratio (x) = 0.46619 -0.23188
# Poissons Ratio (y) = 0.51602 0.31910
# Poissons Ratio (z) = -0.45154 0.56137
#
# Static dielectric constant tensor:
#      x y z
#    x 3.916840 0.000000 -0.171890 
#    y 0.000000 4.299470 0.000000 
#    z -0.171890 0.000000 3.434990 
# 
# 
# High freq. dielectric constant tensor:
#      x y z
#    x 1.870290 0.000000 -0.012570 
#    y 0.000000 1.887260 0.000000 
#    z -0.012570 0.000000 1.811930 
# 
# From -- ./inp_files/263242.got.cif
#   From: 2010.06.25/outbox.cif.g09.slc.cpg/sg15_132_cif.got.tgz:263242.got - 2010.06.28 07:06:18.
