data_PCOD8151178
_publ_section_title
;
Structure prediction by ZEFSAII (Michael W. Deem and Ramdas Pophale) SiO2 
 PCOD8151178
Probable space group: C 2/C
;
_chemical_formula_sum "Si O2"
_cell_formula_units_Z 64
_cell_length_a 21.186735
_cell_length_b 23.320533
_cell_length_c 8.591308
_cell_angle_alpha 90.000000
_cell_angle_beta 113.922755
_cell_angle_gamma 90.000000
_cell_volume 3880.182654
_symmetry_space_group_name_H-M "C 2/C"
_symmetry_group_IT_number 15
_symmetry_cell_setting 'monoclinic'
loop_
_space_group_symop_operation_xyz
x,y,z
-x,y,1/2-z
-x,-y,-z
x,-y,1/2+z
1/2+x,1/2+y,z
1/2-x,1/2+y,1/2-z
1/2-x,1/2-y,-z
1/2+x,1/2-y,1/2+z
loop_
_atom_site_type_symbol
_atom_site_label
_atom_site_fract_x
_atom_site_fract_y
_atom_site_fract_z
Si Si1 0.147224 0.772362 0.581455
Si Si2 0.500000 0.245829 0.435554
Si Si3 0.225213 0.659001 0.659740
Si Si4 0.225213 0.340999 0.790687
Si Si5 0.362113 0.938461 0.294926
Si Si6 1.000000 0.384385 0.934409
Si Si7 0.862113 0.561539 0.429299
Si Si8 0.352776 0.272362 0.287007
O O1 0.068641 0.778723 0.566355
O O2 0.176727 0.711299 0.666853
O O3 0.196154 0.825059 0.683288
O O4 0.148098 0.770963 0.398098
O O5 0.500000 0.244820 0.250000
O O6 0.500000 0.180657 0.497819
O O7 0.431359 0.278723 0.429072
O O8 0.219441 0.648573 0.469440
O O9 0.201882 0.602612 0.726892
O O10 0.303846 0.674941 0.790980
O O11 0.201882 0.397387 0.676871
O O12 0.176727 0.288701 0.686600
O O13 0.432661 0.916702 0.440085
O O14 0.342761 0.000000 0.342761
O O15 0.372005 0.942239 0.122005
O O16 0.932661 0.416702 0.925237
O O17 0.000000 0.385336 0.750000
#
# Coordination Sequence:
#
# PCOD8151178 Si02
#       8
#     8   8   8   8   8   8   8   8
#     4   8  14  25  47  74  99 125 161 199 237 284
#     4   9  14  24  48  77  98 127 162 195 231 280
#     4   9  16  30  49  71  96 127 163 201 239 281
#     4   9  16  30  49  71  96 127 163 201 239 281
#     4  12  24  36  49  68  96 130 169 205 243 286
#     4  11  20  34  53  71  98 131 167 201 232 278
#     4  12  24  36  49  68  96 130 169 205 243 286
#     4   8  14  25  47  74  99 125 161 199 237 284
#
# _framework density 16.494069
#
# number of rings (size 3 to 8) (size 9 to 14) (size 15 to 20)
#    0.000    2.250    2.500    4.500    0.000    0.000 
#    0.000    2.500    0.000    0.000    0.000    0.875 
#    0.000    0.000    0.000    0.000    0.000    0.000 
#
# Total GULP energy -396615.660959 kJ/mol
# GULP energy per Si atom -12394.239405 kJ/mol
# Density = 1.645653 g / cm^3
# Si number density = 16.494069 Si / 1000 Ang^3
#
#
#
# Elastic Constant Matrix: (Units=GPa)
#
#
# Indices 1 2 3 4 5 6 
#
# 1 109.0553 58.8174 39.4367 0.0000 31.3329 0.0000
# 2 58.8174 99.3134 37.6117 0.0000 19.2301 0.0000
# 3 39.4367 37.6117 62.0678 0.0000 11.2768 0.0000
# 4 0.0000 0.0000 0.0000 22.6616 0.0000 2.1702
# 5 31.3329 19.2301 11.2768 0.0000 35.7207 0.0000
# 6 0.0000 0.0000 0.0000 2.1702 0.0000 25.0549
#
#
#
# Elastic Compliance Matrix: (Units=1/GPa)
#
#
# Indices 1 2 3 4 5 6 
#
# 1 0.017470 -0.006318 -0.005416 0.000000 -0.010213 0.000000
# 2 -0.006318 0.016182 -0.005533 0.000000 -0.001423 0.000000
# 3 -0.005416 -0.005533 0.022810 0.000000 0.000529 0.000000
# 4 0.000000 0.000000 0.000000 0.044497 0.000000 -0.003854
# 5 -0.010213 -0.001423 0.000529 0.000000 0.037553 0.000000
# 6 0.000000 0.000000 0.000000 -0.003854 0.000000 0.040246
#
#
# Mechanical properties :
#
#
# Convention : Reuss Voigt Hill
#
# Bulk Modulus (GPa) = 45.60495 60.24088 52.92291
# Shear Modulus (GPa) = 22.66551 25.65883 24.16217
#
# Velocity S-wave (km/s) = 3.71099 3.94844 3.83155
# Velocity P-wave (km/s) = 6.78758 7.57555 7.19236
#
# Compressibility (1/GPa) = 0.02192744
#
# Stress axis : x y z
#
# Youngs Moduli (GPa) = 57.24129 61.79813 43.84120
#
# Poissons Ratio (x) = 0.39042 0.23745
# Poissons Ratio (y) = 0.36163 0.24258
# Poissons Ratio (z) = 0.31003 0.34194
#
# Static dielectric constant tensor:
#      x y z
#    x 3.426000 0.000000 0.355860 
#    y 0.000000 3.067620 0.000000 
#    z 0.355860 0.000000 3.033580 
# 
# 
# High freq. dielectric constant tensor:
#      x y z
#    x 1.631740 0.000000 0.013820 
#    y 0.000000 1.609450 0.000000 
#    z 0.013820 0.000000 1.616490 
# 
# From -- ./inp_files/63435.got.cif
#   From: 2010.06.25/outbox.cif.g09.slc.cpg/sg15_32_cif.got.tgz:63435.got - 2010.06.28 07:06:18.
