data_PCOD8151989
_publ_section_title
;
Structure prediction by ZEFSAII (Michael W. Deem and Ramdas Pophale) SiO2 
 PCOD8151989
Probable space group: C 2/C
;
_chemical_formula_sum "Si O2"
_cell_formula_units_Z 52
_cell_length_a 16.158379
_cell_length_b 9.536324
_cell_length_c 19.141910
_cell_angle_alpha 90.000000
_cell_angle_beta 125.126834
_cell_angle_gamma 90.000000
_cell_volume 2412.425005
_symmetry_space_group_name_H-M "C 2/C"
_symmetry_group_IT_number 15
_symmetry_cell_setting 'monoclinic'
loop_
_space_group_symop_operation_xyz
x,y,z
-x,y,1/2-z
-x,-y,-z
x,-y,1/2+z
1/2+x,1/2+y,z
1/2-x,1/2+y,1/2-z
1/2-x,1/2-y,-z
1/2+x,1/2-y,1/2+z
loop_
_atom_site_type_symbol
_atom_site_label
_atom_site_fract_x
_atom_site_fract_y
_atom_site_fract_z
Si Si1 0.536031 0.803965 0.981593
Si Si2 0.657771 0.544110 0.998197
Si Si3 0.208849 0.460394 0.307872
Si Si4 0.691874 0.175166 0.175312
Si Si5 0.453779 0.726749 0.083672
Si Si6 0.500000 0.149581 0.750000
Si Si7 0.816364 0.455347 0.969190
O O1 0.610901 0.697429 0.979542
O O2 0.533525 0.772413 0.063144
O O3 0.579739 0.959366 0.992245
O O4 0.425922 0.790134 0.894007
O O5 0.708439 0.499129 0.094828
O O6 0.568097 0.436866 0.936516
O O7 0.737266 0.546737 0.973627
O O8 0.242929 0.317127 0.286262
O O9 0.205590 0.586617 0.251672
O O10 0.099576 0.447419 0.292527
O O11 0.733381 0.086858 0.129059
O O12 0.499715 0.751340 0.182128
O O13 0.348529 0.813552 0.025475
#
# Coordination Sequence:
#
# PCOD8151989 Si02
#       7
#     8   8   8   8   8   4   8
#     4  11  24  43  68  97 134 179 215 274 339 398
#     4  12  24  43  71  98 132 178 225 272 333 391
#     4  12  26  45  67 101 133 174 220 281 330 395
#     4  11  26  44  68  96 134 173 224 274 334 397
#     4  11  22  42  70  95 130 175 226 272 322 397
#     4  12  24  40  70 100 132 172 226 274 330 388
#     4  11  21  44  67  96 129 175 220 268 329 399
#
# _framework density 21.555074999999999
#
# number of rings (size 3 to 8) (size 9 to 14) (size 15 to 20)
#    0.000    0.615    4.615    6.000    4.308    0.000 
#    0.000    0.000    0.000    0.000    0.000    0.000 
#    0.000    0.000    0.000    0.000    0.000    0.000 
#
# Total GULP energy -322539.681471 kJ/mol
# GULP energy per Si atom -12405.372364 kJ/mol
# Density = 2.150601 g / cm^3
# Si number density = 21.555075 Si / 1000 Ang^3
#
#
#
# Elastic Constant Matrix: (Units=GPa)
#
#
# Indices 1 2 3 4 5 6 
#
# 1 96.3120 26.2549 23.4083 0.0000 -7.9858 0.0000
# 2 26.2549 78.0980 15.9889 0.0000 0.7454 0.0000
# 3 23.4083 15.9889 72.0742 0.0000 -15.0509 0.0000
# 4 0.0000 0.0000 0.0000 31.2398 0.0000 0.2818
# 5 -7.9858 0.7454 -15.0509 0.0000 29.6782 0.0000
# 6 0.0000 0.0000 0.0000 0.2818 0.0000 41.2724
#
#
#
# Elastic Compliance Matrix: (Units=1/GPa)
#
#
# Indices 1 2 3 4 5 6 
#
# 1 0.012184 -0.003550 -0.002759 0.000000 0.001969 0.000000
# 2 -0.003550 0.014562 -0.002632 0.000000 -0.002656 0.000000
# 3 -0.002759 -0.002632 0.017015 0.000000 0.007953 0.000000
# 4 0.000000 0.000000 0.000000 0.032012 0.000000 -0.000219
# 5 0.001969 -0.002656 0.007953 0.000000 0.038324 0.000000
# 6 0.000000 0.000000 0.000000 -0.000219 0.000000 0.024231
#
#
# Mechanical properties :
#
#
# Convention : Reuss Voigt Hill
#
# Bulk Modulus (GPa) = 38.63960 41.97647 40.30804
# Shear Modulus (GPa) = 30.33290 32.49357 31.41323
#
# Velocity S-wave (km/s) = 3.75537 3.88682 3.82166
# Velocity P-wave (km/s) = 6.06372 6.29758 6.18176
#
# Compressibility (1/GPa) = 0.02588019
#
# Stress axis : x y z
#
# Youngs Moduli (GPa) = 82.07207 68.67137 58.77105
#
# Poissons Ratio (x) = 0.24379 0.16212
# Poissons Ratio (y) = 0.29137 0.15469
# Poissons Ratio (z) = 0.22640 0.18075
#
# Static dielectric constant tensor:
#      x y z
#    x 3.996270 0.000000 -0.093290 
#    y 0.000000 3.843090 0.000000 
#    z -0.093290 0.000000 3.806490 
# 
# 
# High freq. dielectric constant tensor:
#      x y z
#    x 1.858530 0.000000 -0.005020 
#    y 0.000000 1.846890 0.000000 
#    z -0.005020 0.000000 1.839740 
# 
# From -- ./inp_files/247871.got.cif
#   From: 2010.06.25/outbox.cif.g09.slc.cpg/sg15_124_cif.got.tgz:247871.got - 2010.06.28 07:06:18.
