data_PCOD8151456
_publ_section_title
;
Structure prediction by ZEFSAII (Michael W. Deem and Ramdas Pophale) SiO2 
 PCOD8151456
Probable space group: C 2/C
;
_chemical_formula_sum "Si O2"
_cell_formula_units_Z 56
_cell_length_a 14.377026
_cell_length_b 19.244133
_cell_length_c 18.961166
_cell_angle_alpha 90.000000
_cell_angle_beta 148.401286
_cell_angle_gamma 90.000000
_cell_volume 2748.756117
_symmetry_space_group_name_H-M "C 2/C"
_symmetry_group_IT_number 15
_symmetry_cell_setting 'monoclinic'
loop_
_space_group_symop_operation_xyz
x,y,z
-x,y,1/2-z
-x,-y,-z
x,-y,1/2+z
1/2+x,1/2+y,z
1/2-x,1/2+y,1/2-z
1/2-x,1/2-y,-z
1/2+x,1/2-y,1/2+z
loop_
_atom_site_type_symbol
_atom_site_label
_atom_site_fract_x
_atom_site_fract_y
_atom_site_fract_z
Si Si1 0.458195 0.243736 0.643192
Si Si2 0.171126 0.635831 0.703640
Si Si3 0.956470 0.802406 0.044114
Si Si4 0.866295 0.901170 0.099094
Si Si5 0.927251 0.990171 0.375924
Si Si6 0.151957 0.857101 0.673961
Si Si7 0.550197 0.147375 0.472732
O O1 0.500000 0.261694 0.750000
O O2 0.531864 0.166200 0.671394
O O3 0.546036 0.300805 0.650147
O O4 0.250000 0.250000 0.500000
O O5 0.255101 0.559972 0.772612
O O6 0.058064 0.625930 0.559292
O O7 0.331019 0.692243 0.804415
O O8 0.908382 0.851151 0.946245
O O9 0.878670 0.726304 0.981575
O O10 0.862031 0.829749 0.053184
O O11 0.669000 0.907143 0.004307
O O12 0.000000 0.897059 0.250000
O O13 0.924328 0.961721 0.082750
O O14 0.880590 0.065972 0.316169
O O15 0.000000 0.000000 0.500000
O O16 0.360260 0.847486 0.815196
#
# Coordination Sequence:
#
# PCOD8151456 Si02
#       7
#     8   8   8   8   8   8   8
#     4  12  25  44  71 105 137 182 243 293 341 424
#     4  11  22  45  72  96 139 186 227 288 362 405
#     4  11  20  42  71  98 143 179 220 280 358 415
#     4  11  23  42  68 105 134 181 232 275 343 428
#     4  11  24  47  72  92 143 195 224 279 360 423
#     4  12  25  43  72 101 138 186 230 288 358 412
#     4  12  22  41  71 105 137 170 233 296 343 414
#
# _framework density 20.37285
#
# number of rings (size 3 to 8) (size 9 to 14) (size 15 to 20)
#    0.000    0.571    8.571    2.143    0.000    1.714 
#    2.571    0.000    0.000    0.000    0.000    0.000 
#    0.000    0.000    0.000    0.000    0.000    0.000 
#
# Total GULP energy -347017.484761 kJ/mol
# GULP energy per Si atom -12393.481599 kJ/mol
# Density = 2.032648 g / cm^3
# Si number density = 20.372850 Si / 1000 Ang^3
#
#
#
# Elastic Constant Matrix: (Units=GPa)
#
#
# Indices 1 2 3 4 5 6 
#
# 1 113.5760 32.9018 58.4886 -0.0020 -3.7842 -0.0013
# 2 32.9018 113.0319 13.0595 0.0022 2.8914 0.0016
# 3 58.4886 13.0595 113.2989 0.0024 -0.2648 0.0033
# 4 -0.0020 0.0022 0.0024 25.9118 0.0013 -1.4067
# 5 -3.7842 2.8914 -0.2648 0.0013 45.4482 0.0005
# 6 -0.0013 0.0016 0.0033 -1.4067 0.0005 19.4492
#
#
#
# Elastic Compliance Matrix: (Units=1/GPa)
#
#
# Indices 1 2 3 4 5 6 
#
# 1 0.013015 -0.003085 -0.006360 0.000002 0.001243 0.000002
# 2 -0.003085 0.009713 0.000471 -0.000001 -0.000872 -0.000001
# 3 -0.006360 0.000471 0.012054 -0.000002 -0.000489 -0.000003
# 4 0.000002 -0.000001 -0.000002 0.038745 -0.000001 0.002802
# 5 0.001243 -0.000872 -0.000489 -0.000001 0.022159 0.000000
# 6 0.000002 -0.000001 -0.000003 0.002802 0.000000 0.051619
#
#
# Mechanical properties :
#
#
# Convention : Reuss Voigt Hill
#
# Bulk Modulus (GPa) = 59.40618 60.97849 60.19234
# Shear Modulus (GPa) = 29.26276 33.85896 31.56086
#
# Velocity S-wave (km/s) = 3.79405 4.08114 3.94021
# Velocity P-wave (km/s) = 6.95815 7.22522 7.09294
#
# Compressibility (1/GPa) = 0.01683327
#
# Stress axis : x y z
#
# Youngs Moduli (GPa) = 76.83237 102.95413 82.95870
#
# Poissons Ratio (x) = 0.31766 0.52765
# Poissons Ratio (y) = 0.23707 -0.03909
# Poissons Ratio (z) = 0.48868 -0.04851
#
# Static dielectric constant tensor:
#      x y z
#    x 4.176680 0.000050 0.110560 
#    y 0.000050 4.143010 0.000020 
#    z 0.110560 0.000020 3.795680 
# 
# 
# High freq. dielectric constant tensor:
#      x y z
#    x 1.792640 0.000000 -0.011900 
#    y 0.000000 1.793530 0.000000 
#    z -0.011900 0.000000 1.808040 
# 
# From -- ./inp_files/207001.got.cif
#   From: 2010.06.25/outbox.cif.g09.slc.cpg/sg15_104_cif.got.tgz:207001.got - 2010.06.28 07:06:18.
