data_PCOD8151627
_publ_section_title
;
Structure prediction by ZEFSAII (Michael W. Deem and Ramdas Pophale) SiO2 
 PCOD8151627
Probable space group: C 2/C
;
_chemical_formula_sum "Si O2"
_cell_formula_units_Z 64
_cell_length_a 14.645994
_cell_length_b 13.003359
_cell_length_c 26.170554
_cell_angle_alpha 90.000000
_cell_angle_beta 140.283383
_cell_angle_gamma 90.000000
_cell_volume 3184.798915
_symmetry_space_group_name_H-M "C 2/C"
_symmetry_group_IT_number 15
_symmetry_cell_setting 'monoclinic'
loop_
_space_group_symop_operation_xyz
x,y,z
-x,y,1/2-z
-x,-y,-z
x,-y,1/2+z
1/2+x,1/2+y,z
1/2-x,1/2+y,1/2-z
1/2-x,1/2-y,-z
1/2+x,1/2-y,1/2+z
loop_
_atom_site_type_symbol
_atom_site_label
_atom_site_fract_x
_atom_site_fract_y
_atom_site_fract_z
Si Si1 0.626934 0.262120 0.766470
Si Si2 0.911070 0.744411 0.161019
Si Si3 0.419036 0.591900 0.582588
Si Si4 0.116886 0.410011 0.182511
Si Si5 0.860065 0.753289 0.893036
Si Si6 0.916410 0.588394 0.075795
Si Si7 0.642129 0.428415 0.688487
Si Si8 0.555061 0.747037 0.564954
O O1 0.500000 0.287868 0.750000
O O2 0.575197 0.167291 0.709711
O O3 0.652939 0.362856 0.744197
O O4 0.774061 0.236602 0.858852
O O5 0.961977 0.843663 0.151354
O O6 0.745654 0.753285 0.104213
O O7 0.941246 0.644297 0.140295
O O8 0.000000 0.733775 0.250000
O O9 0.249743 0.582179 0.507895
O O10 0.485797 0.478838 0.615843
O O11 0.480846 0.648852 0.559501
O O12 0.165348 0.344914 0.154020
O O13 0.242066 0.481793 0.257632
O O14 0.977304 0.473947 0.106882
O O15 0.831241 0.857761 0.849476
O O16 0.015154 0.752645 0.987311
O O17 0.001058 0.647780 0.067804
#
# Coordination Sequence:
#
# PCOD8151627 Si02
#       8
#     8   8   8   8   8   8   8   8
#     4  11  26  45  66  92 134 172 213 263 319 384
#     4  11  21  37  65  97 125 163 223 263 308 382
#     4  11  22  42  67  95 131 168 213 268 321 376
#     4  11  24  43  65  93 132 173 210 263 322 378
#     4  11  24  40  63  97 129 167 213 264 326 372
#     4  11  22  42  67  95 131 168 213 268 321 376
#     4  11  24  43  65  93 132 173 210 263 322 378
#     4  11  21  45  66  95 135 163 210 281 317 367
#
# _framework density 20.095459999999999
#
# number of rings (size 3 to 8) (size 9 to 14) (size 15 to 20)
#    0.000    1.000    5.000    2.250    3.500    6.000 
#    0.000    2.500    0.000    0.000    0.000    0.000 
#    0.000    0.000    0.000    0.000    0.000    0.000 
#
# Total GULP energy -396924.008584 kJ/mol
# GULP energy per Si atom -12403.875268 kJ/mol
# Density = 2.004972 g / cm^3
# Si number density = 20.095460 Si / 1000 Ang^3
#
#
#
# Elastic Constant Matrix: (Units=GPa)
#
#
# Indices 1 2 3 4 5 6 
#
# 1 70.2352 14.2090 20.8332 0.0000 -1.6685 0.0000
# 2 14.2090 99.8925 25.5249 0.0000 -6.5874 0.0000
# 3 20.8332 25.5249 110.0527 0.0000 -6.2981 0.0000
# 4 0.0000 0.0000 0.0000 30.8718 0.0000 13.8112
# 5 -1.6685 -6.5874 -6.2981 0.0000 39.6955 0.0000
# 6 0.0000 0.0000 0.0000 13.8112 0.0000 8.4849
#
#
#
# Elastic Compliance Matrix: (Units=1/GPa)
#
#
# Indices 1 2 3 4 5 6 
#
# 1 0.015301 -0.001528 -0.002543 0.000000 -0.000014 0.000000
# 2 -0.001528 0.010870 -0.002152 0.000000 0.001398 0.000000
# 3 -0.002543 -0.002152 0.010133 0.000000 0.001144 0.000000
# 4 0.000000 0.000000 0.000000 0.119181 0.000000 -0.193996
# 5 -0.000014 0.001398 0.001144 0.000000 0.025605 0.000000
# 6 0.000000 0.000000 0.000000 -0.193996 0.000000 0.433633
#
#
# Mechanical properties :
#
#
# Convention : Reuss Voigt Hill
#
# Bulk Modulus (GPa) = 41.91377 44.59051 43.25214
# Shear Modulus (GPa) = 7.87252 30.45132 19.16192
#
# Velocity S-wave (km/s) = 1.98143 3.89695 3.09130
# Velocity P-wave (km/s) = 5.11247 6.51812 5.85761
#
# Compressibility (1/GPa) = 0.02385851
#
# Stress axis : x y z
#
# Youngs Moduli (GPa) = 65.35573 91.99524 98.69226
#
# Poissons Ratio (x) = 0.14053 0.25097
# Poissons Ratio (y) = 0.09983 0.21238
# Poissons Ratio (z) = 0.16620 0.19797
#
# Static dielectric constant tensor:
#      x y z
#    x 3.650720 0.000000 0.116670 
#    y 0.000000 3.757690 0.000000 
#    z 0.116670 0.000000 3.852240 
# 
# 
# High freq. dielectric constant tensor:
#      x y z
#    x 1.775490 0.000000 -0.000620 
#    y 0.000000 1.784200 0.000000 
#    z -0.000620 0.000000 1.802380 
# 
# From -- ./inp_files/296185.got.cif
#   From: 2010.06.25/outbox.cif.g09.slc.cpg/sg15_149_cif.got.tgz:296185.got - 2010.06.28 07:06:18.
