data_PCOD8151451
_publ_section_title
;
Structure prediction by ZEFSAII (Michael W. Deem and Ramdas Pophale) SiO2 
 PCOD8151451
Probable space group: C 2/C
;
_chemical_formula_sum "Si O2"
_cell_formula_units_Z 60
_cell_length_a 17.874699
_cell_length_b 10.786737
_cell_length_c 15.506609
_cell_angle_alpha 90.000000
_cell_angle_beta 80.017968
_cell_angle_gamma 90.000000
_cell_volume 2944.564795
_symmetry_space_group_name_H-M "C 2/C"
_symmetry_group_IT_number 15
_symmetry_cell_setting 'monoclinic'
loop_
_space_group_symop_operation_xyz
x,y,z
-x,y,1/2-z
-x,-y,-z
x,-y,1/2+z
1/2+x,1/2+y,z
1/2-x,1/2+y,1/2-z
1/2-x,1/2-y,-z
1/2+x,1/2-y,1/2+z
loop_
_atom_site_type_symbol
_atom_site_label
_atom_site_fract_x
_atom_site_fract_y
_atom_site_fract_z
Si Si1 0.552578 0.201294 0.470847
Si Si2 0.597099 0.813554 0.615608
Si Si3 0.415369 0.469357 0.048388
Si Si4 0.500000 0.957605 0.750000
Si Si5 0.331629 0.452179 0.397787
Si Si6 0.920511 0.080328 0.233434
Si Si7 0.050545 0.672224 0.855527
Si Si8 0.156387 0.541941 0.955346
O O1 0.481967 0.196477 0.420187
O O2 0.600292 0.323332 0.438495
O O3 0.520385 0.220875 0.573926
O O4 0.607443 0.083183 0.454383
O O5 0.640381 0.686502 0.628758
O O6 0.653041 0.906973 0.553871
O O7 0.573162 0.873849 0.711288
O O8 0.397461 0.529884 0.144195
O O9 0.500000 0.500000 0.000000
O O10 0.357547 0.520150 0.989421
O O11 0.526752 0.040238 0.823768
O O12 0.360658 0.547040 0.319143
O O13 0.242421 0.474508 0.410566
O O14 0.928099 0.229699 0.223447
O O15 0.000000 0.022016 0.250000
O O16 0.122908 0.650665 0.902042
#
# Coordination Sequence:
#
# PCOD8151451 Si02
#       8
#     8   8   8   4   8   8   8   8
#     4  11  20  42  69  91 125 176 227 282 326 406
#     4  11  22  40  69  92 130 176 233 278 332 412
#     4  12  22  41  68  96 128 172 231 277 334 406
#     4  12  22  36  68 106 116 168 240 284 326 406
#     4  12  27  44  65 101 140 183 220 285 352 412
#     4  12  23  41  70  97 131 176 231 281 335 400
#     4  11  21  41  67  93 131 171 225 281 331 411
#     4  11  24  46  63  95 140 180 219 282 361 403
#
# _framework density 20.376525999999998
#
# number of rings (size 3 to 8) (size 9 to 14) (size 15 to 20)
#    0.000    0.533    7.333    2.000    2.800    0.533 
#    7.200    0.000    0.000    0.000    0.000    0.000 
#    0.000    0.000    0.000    0.000    0.000    0.000 
#
# Total GULP energy -371988.149541 kJ/mol
# GULP energy per Si atom -12399.604985 kJ/mol
# Density = 2.033015 g / cm^3
# Si number density = 20.376526 Si / 1000 Ang^3
#
#
#
# Elastic Constant Matrix: (Units=GPa)
#
#
# Indices 1 2 3 4 5 6 
#
# 1 110.2337 31.2119 36.0582 0.0000 -17.5962 0.0000
# 2 31.2119 115.7478 25.9629 0.0000 -10.1760 0.0000
# 3 36.0582 25.9629 98.0837 0.0000 -4.9648 0.0000
# 4 0.0000 0.0000 0.0000 39.8650 0.0000 -0.7453
# 5 -17.5962 -10.1760 -4.9648 0.0000 29.2337 0.0000
# 6 0.0000 0.0000 0.0000 -0.7453 0.0000 19.6296
#
#
#
# Elastic Compliance Matrix: (Units=1/GPa)
#
#
# Indices 1 2 3 4 5 6 
#
# 1 0.011665 -0.001851 -0.003506 0.000000 0.005782 0.000000
# 2 -0.001851 0.009713 -0.001791 0.000000 0.001963 0.000000
# 3 -0.003506 -0.001791 0.011922 0.000000 -0.000709 0.000000
# 4 0.000000 0.000000 0.000000 0.025102 0.000000 0.000953
# 5 0.005782 0.001963 -0.000709 0.000000 0.038250 0.000000
# 6 0.000000 0.000000 0.000000 0.000953 0.000000 0.050980
#
#
# Mechanical properties :
#
#
# Convention : Reuss Voigt Hill
#
# Bulk Modulus (GPa) = 52.61851 56.72568 54.67210
# Shear Modulus (GPa) = 29.71519 33.13447 31.42483
#
# Velocity S-wave (km/s) = 3.82292 4.03688 3.93136
# Velocity P-wave (km/s) = 6.73539 7.04469 6.89178
#
# Compressibility (1/GPa) = 0.01900472
#
# Stress axis : x y z
#
# Youngs Moduli (GPa) = 85.72306 102.95566 83.87507
#
# Poissons Ratio (x) = 0.19056 0.29406
# Poissons Ratio (y) = 0.15867 0.15024
# Poissons Ratio (z) = 0.30054 0.18442
#
# Static dielectric constant tensor:
#      x y z
#    x 3.490700 0.000000 0.058590 
#    y 0.000000 3.860720 0.000000 
#    z 0.058590 0.000000 3.859390 
# 
# 
# High freq. dielectric constant tensor:
#      x y z
#    x 1.765950 0.000000 0.005780 
#    y 0.000000 1.811550 0.000000 
#    z 0.005780 0.000000 1.806220 
# 
# From -- ./inp_files/160908.got.cif
#   From: 2010.06.25/outbox.cif.g09.slc.cpg/sg15_81_cif.got.tgz:160908.got - 2010.06.28 07:06:18.
