data_PCOD8151066
_publ_section_title
;
Structure prediction by ZEFSAII (Michael W. Deem and Ramdas Pophale) SiO2 
 PCOD8151066
Probable space group: C 2/C
;
_chemical_formula_sum "Si O2"
_cell_formula_units_Z 64
_cell_length_a 13.029446
_cell_length_b 32.583435
_cell_length_c 9.278069
_cell_angle_alpha 90.000000
_cell_angle_beta 126.570236
_cell_angle_gamma 90.000000
_cell_volume 3163.477077
_symmetry_space_group_name_H-M "C 2/C"
_symmetry_group_IT_number 15
_symmetry_cell_setting 'monoclinic'
loop_
_space_group_symop_operation_xyz
x,y,z
-x,y,1/2-z
-x,-y,-z
x,-y,1/2+z
1/2+x,1/2+y,z
1/2-x,1/2+y,1/2-z
1/2-x,1/2-y,-z
1/2+x,1/2-y,1/2+z
loop_
_atom_site_type_symbol
_atom_site_label
_atom_site_fract_x
_atom_site_fract_y
_atom_site_fract_z
Si Si1 0.439678 0.666968 0.347790
Si Si2 0.689866 0.349952 0.200422
Si Si3 0.780035 0.909710 0.760679
Si Si4 0.850143 0.922013 0.138024
Si Si5 0.789855 0.722444 0.397014
Si Si6 0.646884 0.727176 0.814837
Si Si7 0.406968 0.509343 0.290393
Si Si8 0.130674 0.640977 0.924589
O O1 0.500000 0.681106 0.250000
O O2 0.543876 0.665716 0.559353
O O3 0.390346 0.620277 0.295988
O O4 0.329072 0.700291 0.285672
O O5 0.706367 0.394837 0.281208
O O6 0.726255 0.315396 0.348486
O O7 0.760482 0.352911 0.106328
O O8 0.801580 0.956873 0.736621
O O9 0.656506 0.892512 0.572692
O O10 0.772697 0.909765 0.928639
O O11 0.000000 0.912442 0.250000
O O12 0.832483 0.969429 0.168223
O O13 0.750000 0.750000 0.500000
O O14 0.867217 0.749739 0.349695
O O15 0.886779 0.686255 0.524352
O O16 0.500000 0.723140 0.750000
O O17 0.750000 0.750000 0.000000
O O18 0.500000 0.528511 0.250000
O O19 0.500000 0.500000 0.500000
O O20 0.000000 0.624883 0.750000
#
# Coordination Sequence:
#
# PCOD8151066 Si02
#       8
#     8   8   8   8   8   8   8   8
#     4  11  19  36  64  97 116 164 207 269 332 376
#     4  12  23  42  64  92 128 163 217 271 326 404
#     4  11  22  39  62  96 137 164 211 256 329 391
#     4  11  22  35  62 102 136 163 192 264 342 400
#     4  11  23  43  66  91 126 166 221 277 329 394
#     4  12  28  43  62  96 131 176 211 279 346 404
#     4  11  20  34  59 103 141 164 196 259 338 395
#     4  11  27  44  66  90 124 182 231 273 315 388
#
# _framework density 20.230902
#
# number of rings (size 3 to 8) (size 9 to 14) (size 15 to 20)
#    0.000    0.750    7.500    1.500    7.000    1.500 
#    0.000    0.625    0.000    3.000    0.000    0.000 
#    0.000    0.000    0.000    0.000    0.000    0.000 
#
# Total GULP energy -396470.664580 kJ/mol
# GULP energy per Si atom -12389.708268 kJ/mol
# Density = 2.018486 g / cm^3
# Si number density = 20.230902 Si / 1000 Ang^3
#
#
#
# Elastic Constant Matrix: (Units=GPa)
#
#
# Indices 1 2 3 4 5 6 
#
# 1 62.0524 25.3553 30.3117 0.0000 -11.3695 0.0000
# 2 25.3553 121.4037 37.9887 0.0000 -5.8139 0.0000
# 3 30.3117 37.9887 123.6797 0.0000 3.1600 0.0000
# 4 0.0000 0.0000 0.0000 35.0099 0.0000 -12.0041
# 5 -11.3695 -5.8139 3.1600 0.0000 35.1331 0.0000
# 6 0.0000 0.0000 0.0000 -12.0041 0.0000 22.6339
#
#
#
# Elastic Compliance Matrix: (Units=1/GPa)
#
#
# Indices 1 2 3 4 5 6 
#
# 1 0.020540 -0.002594 -0.004406 0.000000 0.006614 0.000000
# 2 -0.002594 0.009551 -0.002322 0.000000 0.000950 0.000000
# 3 -0.004406 -0.002322 0.009948 0.000000 -0.002705 0.000000
# 4 0.000000 0.000000 0.000000 0.034912 0.000000 0.018516
# 5 0.006614 0.000950 -0.002705 0.000000 0.031004 0.000000
# 6 0.000000 0.000000 0.000000 0.018516 0.000000 0.054002
#
#
# Mechanical properties :
#
#
# Convention : Reuss Voigt Hill
#
# Bulk Modulus (GPa) = 46.74357 54.93859 50.84108
# Shear Modulus (GPa) = 26.92056 32.78738 29.85397
#
# Velocity S-wave (km/s) = 3.65179 4.03011 3.84560
# Velocity P-wave (km/s) = 6.39812 6.99074 6.70098
#
# Compressibility (1/GPa) = 0.02139331
#
# Stress axis : x y z
#
# Youngs Moduli (GPa) = 48.68652 104.70237 100.52703
#
# Poissons Ratio (x) = 0.27163 0.44292
# Poissons Ratio (y) = 0.12631 0.23343
# Poissons Ratio (z) = 0.21451 0.24312
#
# Static dielectric constant tensor:
#      x y z
#    x 3.417190 0.000000 -0.223190 
#    y 0.000000 4.020700 0.000000 
#    z -0.223190 0.000000 4.031690 
# 
# 
# High freq. dielectric constant tensor:
#      x y z
#    x 1.754440 0.000000 -0.026830 
#    y 0.000000 1.803040 0.000000 
#    z -0.026830 0.000000 1.800440 
# 
# From -- ./inp_files/44901.got.cif
#   From: 2010.06.25/outbox.cif.g09.slc.cpg/sg15_23_cif.got.tgz:44901.got - 2010.06.28 07:06:18.
