data_PCOD8151221
_publ_section_title
;
Structure prediction by ZEFSAII (Michael W. Deem and Ramdas Pophale) SiO2 
 PCOD8151221
Probable space group: C 2/C
;
_chemical_formula_sum "Si O2"
_cell_formula_units_Z 48
_cell_length_a 24.998643
_cell_length_b 20.194619
_cell_length_c 14.198523
_cell_angle_alpha 90.000000
_cell_angle_beta 19.758475
_cell_angle_gamma 90.000000
_cell_volume 2423.169680
_symmetry_space_group_name_H-M "C 2/C"
_symmetry_group_IT_number 15
_symmetry_cell_setting 'monoclinic'
loop_
_space_group_symop_operation_xyz
x,y,z
-x,y,1/2-z
-x,-y,-z
x,-y,1/2+z
1/2+x,1/2+y,z
1/2-x,1/2+y,1/2-z
1/2-x,1/2-y,-z
1/2+x,1/2-y,1/2+z
loop_
_atom_site_type_symbol
_atom_site_label
_atom_site_fract_x
_atom_site_fract_y
_atom_site_fract_z
Si Si1 0.190662 0.461401 0.284701
Si Si2 0.816070 0.880061 0.382585
Si Si3 0.817961 0.333431 0.079492
Si Si4 0.833118 0.931366 0.663337
Si Si5 0.315729 0.686138 0.069902
Si Si6 0.145617 0.486559 0.149497
O O1 0.209800 0.387582 0.293986
O O2 0.334107 0.506348 0.088550
O O3 0.187236 0.450177 0.178464
O O4 0.040257 0.506406 0.566423
O O5 0.804634 0.842754 0.302667
O O6 0.752731 0.829960 0.568951
O O7 0.689745 0.937619 0.587246
O O8 0.987242 0.913108 0.110317
O O9 0.777386 0.258098 0.177393
O O10 0.000000 0.338429 0.750000
O O11 0.749890 0.867750 0.752908
O O12 0.738214 0.948493 0.914868
O O13 0.500000 0.675418 0.750000
#
# Coordination Sequence:
#
# PCOD8151221 Si02
#       6
#     8   8   8   8   8   8
#     4  11  22  37  59  85 115 149 194 233 279 335
#     4  11  20  36  58  90 114 143 189 241 286 330
#     4  11  20  37  58  85 116 151 193 234 280 336
#     4  11  21  38  57  86 118 147 183 234 292 337
#     4   9  21  36  58  85 117 149 185 235 287 337
#     4  11  22  36  58  89 111 148 194 235 280 336
#
# _framework density 19.808765999999999
#
# number of rings (size 3 to 8) (size 9 to 14) (size 15 to 20)
#    0.000    1.333    5.000    1.500    0.000    0.000 
#    0.000    0.833    0.000    2.000    0.000    0.000 
#    0.000    0.000    0.000    0.000    0.000    0.000 
#
# Total GULP energy -297388.892755 kJ/mol
# GULP energy per Si atom -12391.203865 kJ/mol
# Density = 1.976368 g / cm^3
# Si number density = 19.808766 Si / 1000 Ang^3
#
#
#
# Elastic Constant Matrix: (Units=GPa)
#
#
# Indices 1 2 3 4 5 6 
#
# 1 121.8184 58.8013 22.1969 0.0181 12.5234 -0.0069
# 2 58.8013 161.1570 19.6245 0.0267 20.0372 -0.0073
# 3 22.1969 19.6245 34.4169 0.0175 -3.9958 -0.0065
# 4 0.0181 0.0267 0.0175 25.8943 -0.0095 7.4956
# 5 12.5234 20.0372 -3.9958 -0.0095 21.2578 -0.0006
# 6 -0.0069 -0.0073 -0.0065 7.4956 -0.0006 40.0955
#
#
#
# Elastic Compliance Matrix: (Units=1/GPa)
#
#
# Indices 1 2 3 4 5 6 
#
# 1 0.011183 -0.002657 -0.006309 -0.000003 -0.005270 0.000001
# 2 -0.002657 0.008567 -0.004015 -0.000007 -0.007264 0.000002
# 3 -0.006309 -0.004015 0.037094 -0.000013 0.014473 0.000007
# 4 -0.000003 -0.000007 -0.000013 0.040828 0.000024 -0.007633
# 5 -0.005270 -0.007264 0.014473 0.000024 0.059714 -0.000003
# 6 0.000001 0.000002 0.000007 -0.007633 -0.000003 0.026367
#
#
# Mechanical properties :
#
#
# Convention : Reuss Voigt Hill
#
# Bulk Modulus (GPa) = 32.38094 57.62639 45.00366
# Shear Modulus (GPa) = 22.72657 31.90084 27.31371
#
# Velocity S-wave (km/s) = 3.39085 4.01738 3.71734
# Velocity P-wave (km/s) = 5.63141 7.11854 6.41819
#
# Compressibility (1/GPa) = 0.03088236
#
# Stress axis : x y z
#
# Youngs Moduli (GPa) = 89.42394 116.73349 26.95861
#
# Poissons Ratio (x) = 0.31013 0.17008
# Poissons Ratio (y) = 0.23758 0.10823
# Poissons Ratio (z) = 0.56418 0.46863
#
# Static dielectric constant tensor:
#      x y z
#    x 1.742520 -0.000050 0.140550 
#    y -0.000050 3.923650 0.000030 
#    z 0.140550 0.000030 3.256770 
# 
# 
# High freq. dielectric constant tensor:
#      x y z
#    x 1.795720 0.000000 -0.013220 
#    y 0.000000 1.773950 0.000000 
#    z -0.013220 0.000000 1.733580 
# 
# From -- ./inp_files/146497.got.cif
#   From: 2010.06.25/outbox.cif.g09.slc.cpg/sg15_74_cif.got.tgz:146497.got - 2010.06.28 07:06:18.
