data_PCOD8151936
_publ_section_title
;
Structure prediction by ZEFSAII (Michael W. Deem and Ramdas Pophale) SiO2 
 PCOD8151936
Probable space group: C 2/C
;
_chemical_formula_sum "Si O2"
_cell_formula_units_Z 48
_cell_length_a 14.628686
_cell_length_b 17.482270
_cell_length_c 9.385932
_cell_angle_alpha 90.000000
_cell_angle_beta 93.021035
_cell_angle_gamma 90.000000
_cell_volume 2397.047089
_symmetry_space_group_name_H-M "C 2/C"
_symmetry_group_IT_number 15
_symmetry_cell_setting 'monoclinic'
loop_
_space_group_symop_operation_xyz
x,y,z
-x,y,1/2-z
-x,-y,-z
x,-y,1/2+z
1/2+x,1/2+y,z
1/2-x,1/2+y,1/2-z
1/2-x,1/2-y,-z
1/2+x,1/2-y,1/2+z
loop_
_atom_site_type_symbol
_atom_site_label
_atom_site_fract_x
_atom_site_fract_y
_atom_site_fract_z
Si Si1 0.679077 0.682575 0.966414
Si Si2 0.507776 0.783687 0.916120
Si Si3 0.761338 0.421352 0.699868
Si Si4 0.417881 0.939304 0.493994
Si Si5 0.687114 0.179127 0.022027
Si Si6 0.273109 0.917212 0.249126
O O1 0.688679 0.623064 0.095918
O O2 0.750000 0.750000 0.000000
O O3 0.574258 0.710983 0.948073
O O4 0.707136 0.643717 0.819844
O O5 0.500000 0.803138 0.750000
O O6 0.545921 0.853913 0.007830
O O7 0.407070 0.773838 0.970199
O O8 0.854983 0.445824 0.628311
O O9 0.714721 0.503891 0.727257
O O10 0.785790 0.368754 0.836185
O O11 0.359165 0.947203 0.346992
O O12 0.500000 0.000000 0.500000
O O13 0.688674 0.118638 0.893557
O O14 0.750000 0.250000 0.000000
#
# Coordination Sequence:
#
# PCOD8151936 Si02
#       6
#     8   8   8   8   8   8
#     4  11  21  43  65  89 128 180 218 250 327 403
#     4  12  22  40  65  89 127 174 213 263 318 396
#     4  11  22  42  62  94 137 170 209 275 331 390
#     4  11  23  37  63  96 134 167 208 252 345 417
#     4  12  25  40  64  97 129 166 224 273 326 386
#     4  11  23  40  64  96 134 168 211 274 330 390
#
# _framework density 20.024636000000001
#
# number of rings (size 3 to 8) (size 9 to 14) (size 15 to 20)
#    0.000    0.667    5.000    6.000    0.000    2.000 
#    0.000    0.833    0.000   11.000    0.000    0.000 
#    0.000    0.000    0.000    0.000    0.000    0.000 
#
# Total GULP energy -297472.299382 kJ/mol
# GULP energy per Si atom -12394.679141 kJ/mol
# Density = 1.997906 g / cm^3
# Si number density = 20.024636 Si / 1000 Ang^3
#
#
#
# Elastic Constant Matrix: (Units=GPa)
#
#
# Indices 1 2 3 4 5 6 
#
# 1 83.9143 48.9599 30.2832 0.0000 -5.8536 0.0000
# 2 48.9599 125.5961 41.7265 0.0000 -3.6228 0.0000
# 3 30.2832 41.7265 127.3187 0.0000 -2.2142 0.0000
# 4 0.0000 0.0000 0.0000 40.4735 0.0000 -8.8103
# 5 -5.8536 -3.6228 -2.2142 0.0000 17.6375 0.0000
# 6 0.0000 0.0000 0.0000 -8.8103 0.0000 -730.5227
#
#
#
# Elastic Compliance Matrix: (Units=1/GPa)
#
#
# Indices 1 2 3 4 5 6 
#
# 1 0.016120 -0.005520 -0.001956 0.000000 0.003971 0.000000
# 2 -0.005520 0.010863 -0.002245 0.000000 0.000118 0.000000
# 3 -0.001956 -0.002245 0.009056 0.000000 0.000026 0.000000
# 4 0.000000 0.000000 0.000000 0.024643 0.000000 -0.000297
# 5 0.003971 0.000118 0.000026 0.000000 0.058042 0.000000
# 6 0.000000 0.000000 0.000000 -0.000297 0.000000 -0.001365
#
#
# Mechanical properties :
#
#
# Convention : Reuss Voigt Hill
#
# Bulk Modulus (GPa) = 60.25181 64.30758 62.27970
# Shear Modulus (GPa) = 35.12871 -120.09168 -42.48148
#
# Velocity S-wave (km/s) = 4.19295 -7.75256 -4.61093
# Velocity P-wave (km/s) = 7.32088 6.92476 1.67973
#
# Compressibility (1/GPa) = 0.01659701
#
# Stress axis : x y z
#
# Youngs Moduli (GPa) = 62.03367 92.05567 110.42502
#
# Poissons Ratio (x) = 0.50811 0.21602
# Poissons Ratio (y) = 0.34240 0.24793
# Poissons Ratio (z) = 0.12135 0.20669
#
# Static dielectric constant tensor:
#      x y z
#    x 3.098410 0.000000 0.323410 
#    y 0.000000 3.992020 0.000000 
#    z 0.323410 0.000000 3.619840 
# 
# 
# High freq. dielectric constant tensor:
#      x y z
#    x 1.754770 0.000000 0.001740 
#    y 0.000000 1.801110 0.000000 
#    z 0.001740 0.000000 1.798450 
# 
# From -- ./inp_files/39639.got.cif
#   From: 2010.06.25/outbox.cif.g09.slc.cpg/sg15_20_cif.got.tgz:39639.got - 2010.06.28 07:06:18.
