data_PCOD8151079
_publ_section_title
;
Structure prediction by ZEFSAII (Michael W. Deem and Ramdas Pophale) SiO2 
 PCOD8151079
Probable space group: C 2/C
;
_chemical_formula_sum "Si O2"
_cell_formula_units_Z 40
_cell_length_a 18.503398
_cell_length_b 11.893227
_cell_length_c 8.513259
_cell_angle_alpha 90.000000
_cell_angle_beta 98.098226
_cell_angle_gamma 90.000000
_cell_volume 1854.789083
_symmetry_space_group_name_H-M "C 2/C"
_symmetry_group_IT_number 15
_symmetry_cell_setting 'monoclinic'
loop_
_space_group_symop_operation_xyz
x,y,z
-x,y,1/2-z
-x,-y,-z
x,-y,1/2+z
1/2+x,1/2+y,z
1/2-x,1/2+y,1/2-z
1/2-x,1/2-y,-z
1/2+x,1/2-y,1/2+z
loop_
_atom_site_type_symbol
_atom_site_label
_atom_site_fract_x
_atom_site_fract_y
_atom_site_fract_z
Si Si1 0.720088 0.247845 0.667824
Si Si2 0.140446 0.156813 0.654654
Si Si3 0.180265 0.051210 0.356188
Si Si4 0.921250 0.381568 0.788737
Si Si5 0.338779 0.038675 0.969042
O O1 0.750000 0.250000 0.500000
O O2 0.782992 0.223124 0.813450
O O3 0.683546 0.364841 0.707490
O O4 0.662532 0.144078 0.653737
O O5 0.131615 0.107446 0.477347
O O6 0.077645 0.248403 0.671211
O O7 0.137830 0.059304 0.784768
O O8 0.259660 0.020618 0.450454
O O9 0.902277 0.452346 0.938861
O O10 0.857078 0.412857 0.646578
O O11 0.000000 0.416930 0.750000
#
# Coordination Sequence:
#
# PCOD8151079 Si02
#       5
#     8   8   8   8   8
#     4  11  19  37  64  96 129 153 195 266 323 370
#     4  11  23  38  62  94 126 156 206 256 320 369
#     4  11  22  38  67  98 123 154 199 273 328 363
#     4  12  26  43  61  86 128 173 212 247 291 374
#     4  11  22  40  64  93 124 159 209 252 318 364
#
# _framework density 21.565795999999999
#
# number of rings (size 3 to 8) (size 9 to 14) (size 15 to 20)
#    0.000    0.800    4.000    6.000    2.800    0.000 
#    0.000    1.000    0.000    0.000    0.000    0.000 
#    0.000    0.000    0.000    0.000    0.000    0.000 
#
# Total GULP energy -248043.937985 kJ/mol
# GULP energy per Si atom -12402.196899 kJ/mol
# Density = 2.151671 g / cm^3
# Si number density = 21.565796 Si / 1000 Ang^3
#
#
#
# Elastic Constant Matrix: (Units=GPa)
#
#
# Indices 1 2 3 4 5 6 
#
# 1 38.7360 20.6785 13.4618 0.0000 -10.2400 0.0000
# 2 20.6785 136.1669 37.0265 0.0000 -11.1122 0.0000
# 3 13.4618 37.0265 99.1104 0.0000 -14.9138 0.0000
# 4 0.0000 0.0000 0.0000 43.0161 0.0000 -6.9677
# 5 -10.2400 -11.1122 -14.9138 0.0000 21.1167 0.0000
# 6 0.0000 0.0000 0.0000 -6.9677 0.0000 20.4123
#
#
#
# Elastic Compliance Matrix: (Units=1/GPa)
#
#
# Indices 1 2 3 4 5 6 
#
# 1 0.031367 -0.003440 -0.001073 0.000000 0.012643 0.000000
# 2 -0.003440 0.008662 -0.002611 0.000000 0.001046 0.000000
# 3 -0.001073 -0.002611 0.012225 0.000000 0.006740 0.000000
# 4 0.000000 0.000000 0.000000 0.024608 0.000000 0.008400
# 5 0.012643 0.001046 0.006740 0.000000 0.058797 0.000000
# 6 0.000000 0.000000 0.000000 0.008400 0.000000 0.051857
#
#
# Mechanical properties :
#
#
# Convention : Reuss Voigt Hill
#
# Bulk Modulus (GPa) = 26.31186 46.26077 36.28631
# Shear Modulus (GPa) = 23.31728 30.43211 26.87470
#
# Velocity S-wave (km/s) = 3.29175 3.76057 3.53395
# Velocity P-wave (km/s) = 5.16476 6.35244 5.78914
#
# Compressibility (1/GPa) = 0.03800568
#
# Stress axis : x y z
#
# Youngs Moduli (GPa) = 31.88043 115.45033 81.79809
#
# Poissons Ratio (x) = 0.39715 0.08776
# Poissons Ratio (y) = 0.10967 0.21360
# Poissons Ratio (z) = 0.03421 0.30148
#
# Static dielectric constant tensor:
#      x y z
#    x 3.233980 0.000000 0.027300 
#    y 0.000000 4.546280 0.000000 
#    z 0.027300 0.000000 3.757960 
# 
# 
# High freq. dielectric constant tensor:
#      x y z
#    x 1.778460 0.000000 -0.005340 
#    y 0.000000 1.877500 0.000000 
#    z -0.005340 0.000000 1.849200 
# 
# From -- ./inp_files/46045.got.cif
#   From: 2010.06.25/outbox.cif.g09.slc.cpg/sg15_24_cif.got.tgz:46045.got - 2010.06.28 07:06:18.
