data_PCOD8151673
_publ_section_title
;
Structure prediction by ZEFSAII (Michael W. Deem and Ramdas Pophale) SiO2 
 PCOD8151673
Probable space group: C 2/C
;
_chemical_formula_sum "Si O2"
_cell_formula_units_Z 64
_cell_length_a 8.552529
_cell_length_b 16.431411
_cell_length_c 26.661358
_cell_angle_alpha 90.000000
_cell_angle_beta 126.183202
_cell_angle_gamma 90.000000
_cell_volume 3024.106049
_symmetry_space_group_name_H-M "C 2/C"
_symmetry_group_IT_number 15
_symmetry_cell_setting 'monoclinic'
loop_
_space_group_symop_operation_xyz
x,y,z
-x,y,1/2-z
-x,-y,-z
x,-y,1/2+z
1/2+x,1/2+y,z
1/2-x,1/2+y,1/2-z
1/2-x,1/2-y,-z
1/2+x,1/2-y,1/2+z
loop_
_atom_site_type_symbol
_atom_site_label
_atom_site_fract_x
_atom_site_fract_y
_atom_site_fract_z
Si Si1 0.111670 0.936389 0.221126
Si Si2 0.960746 0.316655 0.824823
Si Si3 0.187428 0.212526 0.180499
Si Si4 0.517231 0.115890 0.663060
Si Si5 0.393086 0.334102 0.373620
Si Si6 0.584135 0.433386 0.873842
Si Si7 0.008957 0.539205 0.099020
Si Si8 0.892686 0.957824 0.025167
O O1 0.342100 0.930942 0.271630
O O2 0.037262 0.875018 0.164790
O O3 0.000000 0.910159 0.250000
O O4 0.057731 0.027430 0.194645
O O5 0.781767 0.303925 0.752932
O O6 0.927074 0.261397 0.868723
O O7 0.162829 0.301684 0.835707
O O8 0.976526 0.408761 0.847304
O O9 0.123626 0.305018 0.162429
O O10 0.993916 0.158430 0.135726
O O11 0.327979 0.143066 0.657010
O O12 0.481781 0.055315 0.609555
O O13 0.519718 0.369158 0.443702
O O14 0.569791 0.479086 0.923434
O O15 0.803613 0.440886 0.897956
O O16 0.829145 0.560886 0.029532
O O17 0.000000 0.000000 0.000000
#
# Coordination Sequence:
#
# PCOD8151673 Si02
#       8
#     8   8   8   8   8   8   8   8
#     4  11  21  38  64  99 135 169 217 278 345 418
#     4  11  25  44  68 103 140 178 224 279 356 405
#     4  11  25  43  66 103 145 173 218 287 345 424
#     4  12  23  40  69 100 135 178 221 278 350 407
#     4  11  24  41  70  97 137 180 223 281 346 408
#     4  11  25  43  68  99 136 184 226 281 349 403
#     4  12  25  44  71  97 134 184 233 284 332 407
#     4  11  24  47  70  96 138 179 242 286 330 398
#
# _framework density 21.16328
#
# number of rings (size 3 to 8) (size 9 to 14) (size 15 to 20)
#    0.000    0.750    3.750    3.750    3.500    1.500 
#    0.000    0.625    0.000    0.000    0.000    0.000 
#    0.000    0.000    0.000    0.000    0.000    0.000 
#
# Total GULP energy -396820.692225 kJ/mol
# GULP energy per Si atom -12400.646632 kJ/mol
# Density = 2.111511 g / cm^3
# Si number density = 21.163280 Si / 1000 Ang^3
#
#
#
# Elastic Constant Matrix: (Units=GPa)
#
#
# Indices 1 2 3 4 5 6 
#
# 1 141.6744 47.6369 45.5374 0.0000 4.7792 0.0000
# 2 47.6369 96.1749 32.5554 0.0000 7.7022 0.0000
# 3 45.5374 32.5554 83.4460 0.0000 15.4463 0.0000
# 4 0.0000 0.0000 0.0000 30.4062 0.0000 2.7550
# 5 4.7792 7.7022 15.4463 0.0000 32.9251 0.0000
# 6 0.0000 0.0000 0.0000 2.7550 0.0000 33.5860
#
#
#
# Elastic Compliance Matrix: (Units=1/GPa)
#
#
# Indices 1 2 3 4 5 6 
#
# 1 0.009476 -0.003418 -0.004086 0.000000 0.001341 0.000000
# 2 -0.003418 0.013226 -0.003082 0.000000 -0.001152 0.000000
# 3 -0.004086 -0.003082 0.016615 0.000000 -0.006481 0.000000
# 4 0.000000 0.000000 0.000000 0.033134 0.000000 -0.002718
# 5 0.001341 -0.001152 -0.006481 0.000000 0.033487 0.000000
# 6 0.000000 0.000000 0.000000 -0.002718 0.000000 0.029997
#
#
# Mechanical properties :
#
#
# Convention : Reuss Voigt Hill
#
# Bulk Modulus (GPa) = 55.10624 63.63941 59.37283
# Shear Modulus (GPa) = 30.64571 32.42116 31.53344
#
# Velocity S-wave (km/s) = 3.80947 3.91826 3.86425
# Velocity P-wave (km/s) = 6.74126 7.11381 6.93004
#
# Compressibility (1/GPa) = 0.01814676
#
# Stress axis : x y z
#
# Youngs Moduli (GPa) = 105.53350 75.60873 60.18545
#
# Poissons Ratio (x) = 0.25841 0.24590
# Poissons Ratio (y) = 0.36069 0.18546
# Poissons Ratio (z) = 0.43119 0.23299
#
# Static dielectric constant tensor:
#      x y z
#    x 3.923750 0.000000 -0.003480 
#    y 0.000000 4.087470 0.000000 
#    z -0.003480 0.000000 3.939710 
# 
# 
# High freq. dielectric constant tensor:
#      x y z
#    x 1.842590 0.000000 0.005250 
#    y 0.000000 1.834090 0.000000 
#    z 0.005250 0.000000 1.821100 
# 
# From -- ./inp_files/308302.got.cif
#   From: 2010.06.25/outbox.cif.g09.slc.cpg/sg15_155_cif.got.tgz:308302.got - 2010.06.28 07:06:18.
