data_PCOD8151758
_publ_section_title
;
Structure prediction by ZEFSAII (Michael W. Deem and Ramdas Pophale) SiO2 
 PCOD8151758
Probable space group: C 2/C
;
_chemical_formula_sum "Si O2"
_cell_formula_units_Z 48
_cell_length_a 9.439327
_cell_length_b 16.037600
_cell_length_c 26.610735
_cell_angle_alpha 90.000000
_cell_angle_beta 36.830483
_cell_angle_gamma 90.000000
_cell_volume 2414.848556
_symmetry_space_group_name_H-M "C 2/C"
_symmetry_group_IT_number 15
_symmetry_cell_setting 'monoclinic'
loop_
_space_group_symop_operation_xyz
x,y,z
-x,y,1/2-z
-x,-y,-z
x,-y,1/2+z
1/2+x,1/2+y,z
1/2-x,1/2+y,1/2-z
1/2-x,1/2-y,-z
1/2+x,1/2-y,1/2+z
loop_
_atom_site_type_symbol
_atom_site_label
_atom_site_fract_x
_atom_site_fract_y
_atom_site_fract_z
Si Si1 0.531682 0.834152 0.797622
Si Si2 0.481902 0.925304 0.968464
Si Si3 0.648878 0.144078 0.658990
Si Si4 0.107329 0.199274 0.580981
Si Si5 0.279049 0.983010 0.919428
Si Si6 0.460280 0.675235 0.319551
O O1 0.500000 0.801876 0.750000
O O2 0.499117 0.756703 0.845001
O O3 0.804082 0.865338 0.723718
O O4 0.347639 0.908671 0.861307
O O5 0.735784 0.882052 0.893019
O O6 0.389959 0.956219 0.940768
O O7 0.294292 0.866003 0.049973
O O8 0.500000 0.000000 0.000000
O O9 0.500000 0.122569 0.750000
O O10 0.607282 0.069723 0.631180
O O11 0.580749 0.229942 0.649336
O O12 0.914608 0.149278 0.603911
O O13 0.250000 0.250000 0.500000
O O14 0.000000 0.000000 0.000000
O O15 0.500000 0.685378 0.250000
#
# Coordination Sequence:
#
# PCOD8151758 Si02
#       6
#     8   8   8   8   8   8
#     4  12  26  43  73 104 137 178 235 291 342 410
#     4  12  27  43  68 101 139 180 226 282 343 406
#     4  11  21  39  72  96 128 178 228 271 339 409
#     4  12  20  46  71  94 133 187 221 271 346 411
#     4  12  24  42  67 104 136 177 228 283 338 404
#     4  11  21  47  69  92 135 188 219 275 353 404
#
# _framework density 19.877022
#
# number of rings (size 3 to 8) (size 9 to 14) (size 15 to 20)
#    0.000    0.333   10.000    0.500    2.333    2.667 
#    0.000    1.667    0.000    0.000    0.000    0.000 
#    0.000    0.000    0.000    0.000    0.000    0.000 
#
# Total GULP energy -297501.510344 kJ/mol
# GULP energy per Si atom -12395.896264 kJ/mol
# Density = 1.983178 g / cm^3
# Si number density = 19.877022 Si / 1000 Ang^3
#
#
#
# Elastic Constant Matrix: (Units=GPa)
#
#
# Indices 1 2 3 4 5 6 
#
# 1 98.0920 34.4887 51.2717 -0.0108 -9.1898 -0.0171
# 2 34.4887 127.0913 51.9342 -0.0232 -3.2408 -0.0209
# 3 51.2717 51.9342 109.0117 -0.0981 -22.0089 -0.0851
# 4 -0.0108 -0.0232 -0.0981 12.7141 0.0238 -18.9198
# 5 -9.1898 -3.2408 -22.0089 0.0238 43.0877 0.0276
# 6 -0.0171 -0.0209 -0.0851 -18.9198 0.0276 22.0508
#
#
#
# Elastic Compliance Matrix: (Units=1/GPa)
#
#
# Indices 1 2 3 4 5 6 
#
# 1 0.013702 -0.001336 -0.005840 0.000198 -0.000162 0.000157
# 2 -0.001336 0.010032 -0.004523 0.000088 -0.001841 0.000068
# 3 -0.005840 -0.004523 0.015335 -0.000566 0.006248 -0.000443
# 4 0.000198 0.000088 -0.000566 -0.284121 0.000073 -0.243781
# 5 -0.000162 -0.001841 0.006248 0.000073 0.026227 0.000052
# 6 0.000157 0.000068 -0.000443 -0.243781 0.000052 -0.163818
#
#
# Mechanical properties :
#
#
# Convention : Reuss Voigt Hill
#
# Bulk Modulus (GPa) = 63.80842 67.73157 65.77000
# Shear Modulus (GPa) = -14.12342 28.67054 7.27356
#
# Velocity S-wave (km/s) = -2.66849 3.80201 1.91500
# Velocity P-wave (km/s) = 4.76202 7.30910 6.16846
#
# Compressibility (1/GPa) = 0.01567191
#
# Stress axis : x y z
#
# Youngs Moduli (GPa) = 72.98336 99.68080 65.20845
#
# Poissons Ratio (x) = 0.13314 0.38084
# Poissons Ratio (y) = 0.09748 0.29491
# Poissons Ratio (z) = 0.42625 0.45082
#
# Static dielectric constant tensor:
#      x y z
#    x 3.572510 -0.000010 -0.161250 
#    y -0.000010 4.029460 -0.000380 
#    z -0.161250 -0.000380 4.684190 
# 
# 
# High freq. dielectric constant tensor:
#      x y z
#    x 1.764030 0.000000 -0.016760 
#    y 0.000000 1.783620 0.000000 
#    z -0.016760 0.000000 1.793130 
# 
# From -- ./inp_files/134798.got.cif
#   From: 2010.06.25/outbox.cif.g09.slc.cpg/sg15_68_cif.got.tgz:134798.got - 2010.06.28 07:06:18.
