data_PCOD8151412
_publ_section_title
;
Structure prediction by ZEFSAII (Michael W. Deem and Ramdas Pophale) SiO2 
 PCOD8151412
Probable space group: C 2/C
;
_chemical_formula_sum "Si O2"
_cell_formula_units_Z 60
_cell_length_a 10.980984
_cell_length_b 24.017448
_cell_length_c 20.812642
_cell_angle_alpha 90.000000
_cell_angle_beta 148.127514
_cell_angle_gamma 90.000000
_cell_volume 2898.373926
_symmetry_space_group_name_H-M "C 2/C"
_symmetry_group_IT_number 15
_symmetry_cell_setting 'monoclinic'
loop_
_space_group_symop_operation_xyz
x,y,z
-x,y,1/2-z
-x,-y,-z
x,-y,1/2+z
1/2+x,1/2+y,z
1/2-x,1/2+y,1/2-z
1/2-x,1/2-y,-z
1/2+x,1/2-y,1/2+z
loop_
_atom_site_type_symbol
_atom_site_label
_atom_site_fract_x
_atom_site_fract_y
_atom_site_fract_z
Si Si1 0.500000 0.252220 0.750000
Si Si2 0.954294 0.887269 0.523850
Si Si3 0.657323 0.034247 0.257082
Si Si4 0.975440 0.696763 0.477535
Si Si5 0.845926 0.915732 0.331775
Si Si6 0.225030 0.298878 0.888310
Si Si7 0.021099 0.331366 0.376055
Si Si8 0.852365 0.388715 0.538174
O O1 0.280872 0.291687 0.663536
O O2 0.449022 0.214734 0.665301
O O3 0.851500 0.907516 0.410455
O O4 0.739911 0.872803 0.473496
O O5 0.098037 0.937125 0.619439
O O6 0.113289 0.833011 0.588039
O O7 0.500000 0.036193 0.250000
O O8 0.527723 0.064330 0.140799
O O9 0.709541 0.972314 0.256274
O O10 0.989170 0.698651 0.560410
O O11 0.141985 0.745202 0.525191
O O12 0.057770 0.636586 0.488679
O O13 0.714315 0.864693 0.240171
O O14 0.102449 0.916790 0.417102
O O15 0.153976 0.338134 0.914775
O O16 0.000000 0.278323 0.750000
#
# Coordination Sequence:
#
# PCOD8151412 Si02
#       8
#     4   8   8   8   8   8   8   8
#     4  12  24  46  66 102 128 178 226 272 328 390
#     4  11  20  41  65 101 135 160 226 280 330 383
#     4  12  22  40  73 102 129 170 226 288 333 376
#     4  12  29  40  70  93 141 183 214 266 333 400
#     4  11  24  41  70  96 133 171 217 286 337 381
#     4  11  21  40  66  97 132 174 212 274 324 390
#     4  12  25  44  66 100 134 173 226 272 327 399
#     4  11  25  45  61 104 133 171 225 269 334 405
#
# _framework density 20.701262
#
# number of rings (size 3 to 8) (size 9 to 14) (size 15 to 20)
#    0.000    0.533    6.667    2.800    7.467    0.000 
#    0.000    0.667    2.933    0.000    0.000    0.000 
#    0.000    0.000    0.000    0.000    0.000    0.000 
#
# Total GULP energy -372220.990517 kJ/mol
# GULP energy per Si atom -12407.366351 kJ/mol
# Density = 2.065415 g / cm^3
# Si number density = 20.701262 Si / 1000 Ang^3
#
#
#
# Elastic Constant Matrix: (Units=GPa)
#
#
# Indices 1 2 3 4 5 6 
#
# 1 73.6981 26.3321 27.4320 0.0018 1.2751 0.0016
# 2 26.3321 87.9371 24.8830 0.0136 9.4946 0.0018
# 3 27.4320 24.8830 94.8872 -0.0788 23.2970 -0.0061
# 4 0.0018 0.0136 -0.0788 26.8635 -0.0134 13.1952
# 5 1.2751 9.4946 23.2970 -0.0134 23.4500 0.0039
# 6 0.0016 0.0018 -0.0061 13.1952 0.0039 23.4837
#
#
#
# Elastic Compliance Matrix: (Units=1/GPa)
#
#
# Indices 1 2 3 4 5 6 
#
# 1 0.016937 -0.004232 -0.005266 -0.000014 0.006024 0.000004
# 2 -0.004232 0.013439 -0.001351 -0.000017 -0.003869 0.000009
# 3 -0.005266 -0.001351 0.016150 0.000052 -0.015212 -0.000022
# 4 -0.000014 -0.000017 0.000052 0.051416 -0.000009 -0.028890
# 5 0.006024 -0.003869 -0.015212 -0.000009 0.058995 -0.000008
# 6 0.000004 0.000009 -0.000022 -0.028890 -0.000008 0.058816
#
#
# Mechanical properties :
#
#
# Convention : Reuss Voigt Hill
#
# Bulk Modulus (GPa) = 40.27529 45.97962 43.12746
# Shear Modulus (GPa) = 20.34791 26.61781 23.48286
#
# Velocity S-wave (km/s) = 3.13857 3.58970 3.37169
# Velocity P-wave (km/s) = 5.71243 6.28017 6.00302
#
# Compressibility (1/GPa) = 0.02482912
#
# Stress axis : x y z
#
# Youngs Moduli (GPa) = 59.04344 74.41045 61.91881
#
# Poissons Ratio (x) = 0.31490 0.32604
# Poissons Ratio (y) = 0.24987 0.08364
# Poissons Ratio (z) = 0.31090 0.10051
#
# Static dielectric constant tensor:
#      x y z
#    x 3.635850 -0.000010 0.286500 
#    y -0.000010 3.727450 -0.000020 
#    z 0.286500 -0.000020 3.869840 
# 
# 
# High freq. dielectric constant tensor:
#      x y z
#    x 1.788400 0.000000 0.022400 
#    y 0.000000 1.807720 0.000000 
#    z 0.022400 0.000000 1.822760 
# 
# From -- ./inp_files/240864.got.cif
#   From: 2010.06.25/outbox.cif.g09.slc.cpg/sg15_121_cif.got.tgz:240864.got - 2010.06.28 07:06:18.
