data_PCOD8151056
_publ_section_title
;
Structure prediction by ZEFSAII (Michael W. Deem and Ramdas Pophale) SiO2 
 PCOD8151056
Probable space group: C 2/C
;
_chemical_formula_sum "Si O2"
_cell_formula_units_Z 60
_cell_length_a 13.514078
_cell_length_b 22.411795
_cell_length_c 13.613358
_cell_angle_alpha 90.000000
_cell_angle_beta 137.006852
_cell_angle_gamma 90.000000
_cell_volume 2811.615676
_symmetry_space_group_name_H-M "C 2/C"
_symmetry_group_IT_number 15
_symmetry_cell_setting 'monoclinic'
loop_
_space_group_symop_operation_xyz
x,y,z
-x,y,1/2-z
-x,-y,-z
x,-y,1/2+z
1/2+x,1/2+y,z
1/2-x,1/2+y,1/2-z
1/2-x,1/2-y,-z
1/2+x,1/2-y,1/2+z
loop_
_atom_site_type_symbol
_atom_site_label
_atom_site_fract_x
_atom_site_fract_y
_atom_site_fract_z
Si Si1 0.026017 0.742511 0.472909
Si Si2 0.166668 0.081109 0.350969
Si Si3 0.334455 0.020600 0.869579
Si Si4 0.166500 0.603359 0.344743
Si Si5 0.233151 0.181266 0.255083
Si Si6 0.771356 0.358139 0.414283
Si Si7 0.169162 0.469537 0.351017
Si Si8 0.000000 0.205601 0.750000
O O1 0.092527 0.791366 0.596637
O O2 0.106399 0.679884 0.552477
O O3 0.063687 0.754439 0.384931
O O4 0.853288 0.732640 0.365888
O O5 0.183722 0.148267 0.319566
O O6 0.249927 0.074782 0.515376
O O7 0.000000 0.066885 0.250000
O O8 0.228731 0.034195 0.317035
O O9 0.300369 0.072242 0.921331
O O10 0.303217 0.050209 0.741093
O O11 0.500000 0.000000 0.000000
O O12 0.189729 0.630673 0.254518
O O13 0.237663 0.648689 0.473839
O O14 0.232167 0.536796 0.401010
O O15 0.000000 0.598464 0.250000
O O16 0.613462 0.334340 0.269687
O O17 0.000000 0.466695 0.250000
#
# Coordination Sequence:
#
# PCOD8151056 Si02
#       8
#     8   8   8   8   8   8   8   4
#     4  12  24  42  68 100 140 184 235 291 354 424
#     4  12  28  48  70 104 148 183 233 297 355 416
#     4  12  23  44  74 106 140 188 238 280 351 440
#     4  11  19  35  67 102 139 175 215 278 352 421
#     4  12  25  46  70  98 140 186 237 290 357 420
#     4  12  23  36  64 102 145 177 221 286 355 425
#     4  11  23  42  72 107 139 185 232 278 342 430
#     4  12  24  38  62 110 144 176 226 300 368 422
#
# _framework density 21.340043999999999
#
# number of rings (size 3 to 8) (size 9 to 14) (size 15 to 20)
#    0.000    0.267    8.000    2.800    0.933    1.600 
#    0.000    0.667    0.000    0.000    0.000    0.000 
#    0.000    0.000    0.000    0.000    0.000    0.000 
#
# Total GULP energy -371845.620021 kJ/mol
# GULP energy per Si atom -12394.854001 kJ/mol
# Density = 2.129147 g / cm^3
# Si number density = 21.340044 Si / 1000 Ang^3
#
#
#
# Elastic Constant Matrix: (Units=GPa)
#
#
# Indices 1 2 3 4 5 6 
#
# 1 97.0784 32.2986 53.6246 0.0000 3.2544 0.0000
# 2 32.2986 95.9160 46.0406 0.0000 4.7557 0.0000
# 3 53.6246 46.0406 126.9086 0.0000 -7.9388 0.0000
# 4 0.0000 0.0000 0.0000 249.9749 0.0000 -36.8053
# 5 3.2544 4.7557 -7.9388 0.0000 39.5122 0.0000
# 6 0.0000 0.0000 0.0000 -36.8053 0.0000 43.0244
#
#
#
# Elastic Compliance Matrix: (Units=1/GPa)
#
#
# Indices 1 2 3 4 5 6 
#
# 1 0.013970 -0.002076 -0.005272 0.000000 -0.001960 0.000000
# 2 -0.002076 0.013175 -0.004042 0.000000 -0.002227 0.000000
# 3 -0.005272 -0.004042 0.011779 0.000000 0.003287 0.000000
# 4 0.000000 0.000000 0.000000 0.004577 0.000000 0.003915
# 5 -0.001960 -0.002227 0.003287 0.000000 0.026399 0.000000
# 6 0.000000 0.000000 0.000000 0.003915 0.000000 0.026592
#
#
# Mechanical properties :
#
#
# Convention : Reuss Voigt Hill
#
# Bulk Modulus (GPa) = 61.94266 64.87007 63.40637
# Shear Modulus (GPa) = 40.11103 79.03161 59.57132
#
# Velocity S-wave (km/s) = 4.34015 6.09219 5.28922
# Velocity P-wave (km/s) = 7.36243 8.94152 8.19012
#
# Compressibility (1/GPa) = 0.01614396
#
# Stress axis : x y z
#
# Youngs Moduli (GPa) = 71.58338 75.89851 84.89391
#
# Poissons Ratio (x) = 0.15758 0.44758
# Poissons Ratio (y) = 0.14862 0.34313
# Poissons Ratio (z) = 0.37740 0.30677
#
# Static dielectric constant tensor:
#      x y z
#    x 3.154640 0.000000 1.010540 
#    y 0.000000 3.800680 0.000000 
#    z 1.010540 0.000000 1.826520 
# 
# 
# High freq. dielectric constant tensor:
#      x y z
#    x 1.821170 0.000000 -0.001130 
#    y 0.000000 1.832180 0.000000 
#    z -0.001130 0.000000 1.838500 
# 
# From -- ./inp_files/42590.got.cif
#   From: 2010.06.25/outbox.cif.g09.slc.cpg/sg15_22_cif.got.tgz:42590.got - 2010.06.28 07:06:18.
