data_PCOD8151261
_publ_section_title
;
Structure prediction by ZEFSAII (Michael W. Deem and Ramdas Pophale) SiO2 
 PCOD8151261
Probable space group: C 2/C
;
_chemical_formula_sum "Si O2"
_cell_formula_units_Z 48
_cell_length_a 11.307911
_cell_length_b 23.991649
_cell_length_c 13.900748
_cell_angle_alpha 90.000000
_cell_angle_beta 141.576310
_cell_angle_gamma 90.000000
_cell_volume 2343.700160
_symmetry_space_group_name_H-M "C 2/C"
_symmetry_group_IT_number 15
_symmetry_cell_setting 'monoclinic'
loop_
_space_group_symop_operation_xyz
x,y,z
-x,y,1/2-z
-x,-y,-z
x,-y,1/2+z
1/2+x,1/2+y,z
1/2-x,1/2+y,1/2-z
1/2-x,1/2-y,-z
1/2+x,1/2-y,1/2+z
loop_
_atom_site_type_symbol
_atom_site_label
_atom_site_fract_x
_atom_site_fract_y
_atom_site_fract_z
Si Si1 0.039485 0.680077 0.106142
Si Si2 0.367805 0.923787 0.588970
Si Si3 0.809461 0.982895 0.191195
Si Si4 0.469638 0.398221 0.431178
Si Si5 0.372121 0.394861 0.760863
Si Si6 0.354597 0.296723 0.241513
O O1 0.220071 0.655128 0.164126
O O2 0.110634 0.733274 0.209682
O O3 0.972483 0.634701 0.139459
O O4 0.865551 0.696842 0.926793
O O5 0.500000 0.957186 0.750000
O O6 0.356361 0.958098 0.482273
O O7 0.167650 0.910627 0.507549
O O8 0.826171 0.945915 0.299352
O O9 0.000000 0.981166 0.250000
O O10 0.759440 0.046344 0.185828
O O11 0.488025 0.398312 0.557782
O O12 0.392738 0.337246 0.355131
O O13 0.500000 0.384445 0.750000
O O14 0.500000 0.315220 0.250000
#
# Coordination Sequence:
#
# PCOD8151261 Si02
#       6
#     8   8   8   8   8   8
#     4  12  24  40  63  98 132 167 210 255 329 382
#     4  11  20  37  63 100 131 157 204 267 332 387
#     4   9  20  40  64  94 129 166 211 268 322 378
#     4  11  20  40  66  96 128 166 207 267 331 374
#     4  11  25  44  62  88 132 179 223 256 303 379
#     4  12  23  40  68 102 133 154 204 275 340 390
#
# _framework density 20.480436000000001
#
# number of rings (size 3 to 8) (size 9 to 14) (size 15 to 20)
#    0.000    1.000    5.000    3.000    0.000    0.667 
#    0.000    4.167    0.000    0.000    0.000    0.000 
#    0.000    0.000    0.000    0.000    0.000    0.000 
#
# Total GULP energy -297584.985393 kJ/mol
# GULP energy per Si atom -12399.374391 kJ/mol
# Density = 2.043382 g / cm^3
# Si number density = 20.480436 Si / 1000 Ang^3
#
#
#
# Elastic Constant Matrix: (Units=GPa)
#
#
# Indices 1 2 3 4 5 6 
#
# 1 77.4982 20.6150 42.3901 0.0000 -18.6640 0.0000
# 2 20.6150 95.5758 48.1034 0.0000 -12.4588 0.0000
# 3 42.3901 48.1034 172.0363 0.0000 -18.4539 0.0000
# 4 0.0000 0.0000 0.0000 9.5947 0.0000 -12.4001
# 5 -18.6640 -12.4588 -18.4539 0.0000 28.5587 0.0000
# 6 0.0000 0.0000 0.0000 -12.4001 0.0000 30.9811
#
#
#
# Elastic Compliance Matrix: (Units=1/GPa)
#
#
# Indices 1 2 3 4 5 6 
#
# 1 0.016876 -0.001029 -0.002939 0.000000 0.008680 0.000000
# 2 -0.001029 0.012544 -0.002943 0.000000 0.002898 0.000000
# 3 -0.002939 -0.002943 0.007539 0.000000 0.001666 0.000000
# 4 0.000000 0.000000 0.000000 0.215907 0.000000 0.086416
# 5 0.008680 0.002898 0.001666 0.000000 0.043030 0.000000
# 6 0.000000 0.000000 0.000000 0.086416 0.000000 0.066866
#
#
# Mechanical properties :
#
#
# Convention : Reuss Voigt Hill
#
# Bulk Modulus (GPa) = 43.22382 63.03635 53.13009
# Shear Modulus (GPa) = 13.01086 29.42702 21.21894
#
# Velocity S-wave (km/s) = 2.52322 3.79467 3.22228
# Velocity P-wave (km/s) = 5.44422 7.07425 6.31208
#
# Compressibility (1/GPa) = 0.02313539
#
# Stress axis : x y z
#
# Youngs Moduli (GPa) = 59.25735 79.72039 132.65020
#
# Poissons Ratio (x) = 0.08203 0.38990
# Poissons Ratio (y) = 0.06098 0.39039
# Poissons Ratio (z) = 0.17418 0.23462
#
# Static dielectric constant tensor:
#      x y z
#    x 3.464760 0.000000 -0.091180 
#    y 0.000000 3.931300 0.000000 
#    z -0.091180 0.000000 4.248960 
# 
# 
# High freq. dielectric constant tensor:
#      x y z
#    x 1.769280 0.000000 -0.005090 
#    y 0.000000 1.805470 0.000000 
#    z -0.005090 0.000000 1.821990 
# 
# From -- ./inp_files/31911.got.cif
#   From: 2010.06.25/outbox.cif.g09.slc.cpg/sg15_16_cif.got.tgz:31911.got - 2010.06.28 07:06:18.
