data_PCOD8151035
_publ_section_title
;
Structure prediction by ZEFSAII (Michael W. Deem and Ramdas Pophale) SiO2 
 PCOD8151035
Probable space group: C 2/C
;
_chemical_formula_sum "Si O2"
_cell_formula_units_Z 56
_cell_length_a 24.064554
_cell_length_b 19.438631
_cell_length_c 12.063858
_cell_angle_alpha 90.000000
_cell_angle_beta 28.636105
_cell_angle_gamma 90.000000
_cell_volume 2704.502097
_symmetry_space_group_name_H-M "C 2/C"
_symmetry_group_IT_number 15
_symmetry_cell_setting 'monoclinic'
loop_
_space_group_symop_operation_xyz
x,y,z
-x,y,1/2-z
-x,-y,-z
x,-y,1/2+z
1/2+x,1/2+y,z
1/2-x,1/2+y,1/2-z
1/2-x,1/2-y,-z
1/2+x,1/2-y,1/2+z
loop_
_atom_site_type_symbol
_atom_site_label
_atom_site_fract_x
_atom_site_fract_y
_atom_site_fract_z
Si Si1 0.607607 0.342533 0.617026
Si Si2 0.673574 0.452320 0.665301
Si Si3 0.043338 0.923499 0.299874
Si Si4 0.630905 0.272141 0.154013
Si Si5 0.569528 0.771392 0.352740
Si Si6 0.618229 0.115042 0.600007
Si Si7 0.740645 0.263333 0.734988
O O1 0.500000 0.383999 0.750000
O O2 0.685451 0.394677 0.549669
O O3 0.545455 0.282919 0.797974
O O4 0.681905 0.305590 0.389514
O O5 0.647329 0.524296 0.650483
O O6 0.795461 0.448896 0.520241
O O7 0.569069 0.433934 0.929079
O O8 0.096138 0.850223 0.237800
O O9 0.000000 0.931259 0.250000
O O10 0.534519 0.222801 0.376286
O O11 0.750000 0.250000 0.000000
O O12 0.642530 0.263974 0.001036
O O13 0.586359 0.846165 0.269761
O O14 0.683756 0.743102 0.213743
O O15 0.500000 0.086736 0.750000
O O16 0.682989 0.166724 0.399867
#
# Coordination Sequence:
#
# PCOD8151035 Si02
#       7
#     8   8   8   8   8   8   8
#     4  11  19  34  58  91 124 157 207 265 313 367
#     4  11  22  41  65  93 128 166 218 261 311 389
#     4  11  24  42  66  92 127 172 208 266 326 374
#     4  12  23  37  59  92 129 166 210 265 322 381
#     4  11  19  35  55  89 128 165 207 265 323 370
#     4  11  20  36  61  92 126 170 214 260 319 383
#     4  11  20  34  59  86 129 169 206 265 318 377
#
# _framework density 20.706215
#
# number of rings (size 3 to 8) (size 9 to 14) (size 15 to 20)
#    0.000    0.857    4.286    6.857    0.000    0.000 
#    0.000    0.000    0.000   10.286    0.000    0.000 
#    0.000    0.000    0.000    0.000    0.000    0.000 
#
# Total GULP energy -347086.913663 kJ/mol
# GULP energy per Si atom -12395.961202 kJ/mol
# Density = 2.065909 g / cm^3
# Si number density = 20.706215 Si / 1000 Ang^3
#
#
#
# Elastic Constant Matrix: (Units=GPa)
#
#
# Indices 1 2 3 4 5 6 
#
# 1 95.4684 33.3269 26.3209 0.0000 -25.6438 0.0000
# 2 33.3269 66.8613 29.2040 0.0000 -7.9598 0.0000
# 3 26.3209 29.2040 100.2526 0.0000 1.7140 0.0000
# 4 0.0000 0.0000 0.0000 20.1192 0.0000 -1.0073
# 5 -25.6438 -7.9598 1.7140 0.0000 49.3125 0.0000
# 6 0.0000 0.0000 0.0000 -1.0073 0.0000 19.6389
#
#
#
# Elastic Compliance Matrix: (Units=1/GPa)
#
#
# Indices 1 2 3 4 5 6 
#
# 1 0.014957 -0.005567 -0.002424 0.000000 0.006964 0.000000
# 2 -0.005567 0.019646 -0.004269 0.000000 0.000424 0.000000
# 3 -0.002424 -0.004269 0.011895 0.000000 -0.002363 0.000000
# 4 0.000000 0.000000 0.000000 0.049832 0.000000 0.002556
# 5 0.006964 0.000424 -0.002363 0.000000 0.024051 0.000000
# 6 0.000000 0.000000 0.000000 0.002556 0.000000 0.051051
#
#
# Mechanical properties :
#
#
# Convention : Reuss Voigt Hill
#
# Bulk Modulus (GPa) = 45.49980 48.92068 47.21024
# Shear Modulus (GPa) = 24.59684 29.39614 26.99649
#
# Velocity S-wave (km/s) = 3.45033 3.77195 3.61472
# Velocity P-wave (km/s) = 6.15587 6.53051 6.34595
#
# Compressibility (1/GPa) = 0.02197812
#
# Stress axis : x y z
#
# Youngs Moduli (GPa) = 66.85801 50.89983 84.06805
#
# Poissons Ratio (x) = 0.28338 0.20379
# Poissons Ratio (y) = 0.37223 0.35886
# Poissons Ratio (z) = 0.16207 0.21727
#
# Static dielectric constant tensor:
#      x y z
#    x 3.976650 0.000000 -0.070880 
#    y 0.000000 3.541480 0.000000 
#    z -0.070880 0.000000 4.043940 
# 
# 
# High freq. dielectric constant tensor:
#      x y z
#    x 1.824850 0.000000 -0.004020 
#    y 0.000000 1.768070 0.000000 
#    z -0.004020 0.000000 1.814100 
# 
# From -- ./inp_files/119817.got.cif
#   From: 2010.06.25/outbox.cif.g09.slc.cpg/sg15_60_cif.got.tgz:119817.got - 2010.06.28 07:06:18.
