data_PCOD8151967
_publ_section_title
;
Structure prediction by ZEFSAII (Michael W. Deem and Ramdas Pophale) SiO2 
 PCOD8151967
Probable space group: C 2/C
;
_chemical_formula_sum "Si O2"
_cell_formula_units_Z 64
_cell_length_a 27.346085
_cell_length_b 11.638711
_cell_length_c 9.198724
_cell_angle_alpha 90.000000
_cell_angle_beta 87.207961
_cell_angle_gamma 90.000000
_cell_volume 2924.231705
_symmetry_space_group_name_H-M "C 2/C"
_symmetry_group_IT_number 15
_symmetry_cell_setting 'monoclinic'
loop_
_space_group_symop_operation_xyz
x,y,z
-x,y,1/2-z
-x,-y,-z
x,-y,1/2+z
1/2+x,1/2+y,z
1/2-x,1/2+y,1/2-z
1/2-x,1/2-y,-z
1/2+x,1/2-y,1/2+z
loop_
_atom_site_type_symbol
_atom_site_label
_atom_site_fract_x
_atom_site_fract_y
_atom_site_fract_z
Si Si1 0.913029 0.962882 0.951390
Si Si2 0.053293 0.850127 0.271653
Si Si3 0.368756 0.147682 0.266317
Si Si4 0.776986 0.785605 0.350057
Si Si5 0.166476 0.791194 0.661032
Si Si6 0.744141 0.382503 0.433175
Si Si7 0.673297 0.580794 0.436252
Si Si8 0.850106 0.440201 0.463559
O O1 0.944654 0.884407 0.057159
O O2 0.884153 0.051989 0.059255
O O3 0.872069 0.888257 0.875850
O O4 0.943857 0.035223 0.829645
O O5 0.093556 0.753834 0.223412
O O6 0.000000 0.795316 0.250000
O O7 0.312637 0.188646 0.279722
O O8 0.376871 0.083947 0.111881
O O9 0.375034 0.054525 0.394512
O O10 0.750000 0.750000 0.500000
O O11 0.740617 0.823167 0.224391
O O12 0.812107 0.888916 0.399857
O O13 0.214774 0.794916 0.546600
O O14 0.183470 0.814024 0.823957
O O15 0.141062 0.667306 0.646844
O O16 0.704806 0.472959 0.381129
O O17 0.790847 0.448934 0.494555
#
# Coordination Sequence:
#
# PCOD8151967 Si02
#       8
#     8   8   8   8   8   8   8   8
#     4  11  21  43  72 106 134 162 211 283 363 409
#     4  12  25  49  78 105 135 165 217 292 363 427
#     4  12  28  47  63 100 136 186 233 280 335 403
#     4  12  24  40  61  93 140 181 233 275 320 387
#     4  11  22  40  66  94 141 184 222 279 335 395
#     4  11  23  39  61  96 135 190 235 281 328 388
#     4  11  22  35  65  97 135 174 220 275 339 392
#     4  12  27  41  64  88 142 188 236 273 319 397
#
# _framework density 21.886089999999999
#
# number of rings (size 3 to 8) (size 9 to 14) (size 15 to 20)
#    0.000    0.500    5.000    4.500    8.750    0.000 
#    0.000    0.625    0.000    0.000    0.000    0.000 
#    0.000    0.000    0.000    0.000    0.000    0.000 
#
# Total GULP energy -396704.338766 kJ/mol
# GULP energy per Si atom -12397.010586 kJ/mol
# Density = 2.183628 g / cm^3
# Si number density = 21.886090 Si / 1000 Ang^3
#
#
#
# Elastic Constant Matrix: (Units=GPa)
#
#
# Indices 1 2 3 4 5 6 
#
# 1 74.2565 17.3260 21.9644 0.0000 5.7139 0.0000
# 2 17.3260 83.2696 39.3411 0.0000 -0.9464 0.0000
# 3 21.9644 39.3411 114.9646 0.0000 14.6602 0.0000
# 4 0.0000 0.0000 0.0000 48.6899 0.0000 -3.3360
# 5 5.7139 -0.9464 14.6602 0.0000 22.1087 0.0000
# 6 0.0000 0.0000 0.0000 -3.3360 0.0000 22.5863
#
#
#
# Elastic Compliance Matrix: (Units=1/GPa)
#
#
# Indices 1 2 3 4 5 6 
#
# 1 0.014713 -0.002306 -0.001665 0.000000 -0.002797 0.000000
# 2 -0.002306 0.015057 -0.005320 0.000000 0.004768 0.000000
# 3 -0.001665 -0.005320 0.011810 0.000000 -0.007628 0.000000
# 4 0.000000 0.000000 0.000000 0.020748 0.000000 0.003065
# 5 -0.002797 0.004768 -0.007628 0.000000 0.051216 0.000000
# 6 0.000000 0.000000 0.000000 0.003065 0.000000 0.044727
#
#
# Mechanical properties :
#
#
# Convention : Reuss Voigt Hill
#
# Bulk Modulus (GPa) = 43.48476 47.75042 45.61759
# Shear Modulus (GPa) = 27.09754 31.60092 29.34923
#
# Velocity S-wave (km/s) = 3.52251 3.80397 3.66594
# Velocity P-wave (km/s) = 6.03787 6.41550 6.22955
#
# Compressibility (1/GPa) = 0.02299656
#
# Stress axis : x y z
#
# Youngs Moduli (GPa) = 67.96850 66.41589 84.67678
#
# Poissons Ratio (x) = 0.15319 0.14098
# Poissons Ratio (y) = 0.15677 0.45046
# Poissons Ratio (z) = 0.11316 0.35332
#
# Static dielectric constant tensor:
#      x y z
#    x 3.818270 0.000000 0.379450 
#    y 0.000000 4.168480 0.000000 
#    z 0.379450 0.000000 4.527970 
# 
# 
# High freq. dielectric constant tensor:
#      x y z
#    x 1.818380 0.000000 0.012020 
#    y 0.000000 1.869640 0.000000 
#    z 0.012020 0.000000 1.879150 
# 
# From -- ./inp_files/69393.got.cif
#   From: 2010.06.25/outbox.cif.g09.slc.cpg/sg15_35_cif.got.tgz:69393.got - 2010.06.28 07:06:18.
