data_PCOD8151353
_publ_section_title
;
Structure prediction by ZEFSAII (Michael W. Deem and Ramdas Pophale) SiO2 
 PCOD8151353
Probable space group: C 2/C
;
_chemical_formula_sum "Si O2"
_cell_formula_units_Z 60
_cell_length_a 8.545458
_cell_length_b 24.765991
_cell_length_c 21.609578
_cell_angle_alpha 90.000000
_cell_angle_beta 34.830458
_cell_angle_gamma 90.000000
_cell_volume 2612.086319
_symmetry_space_group_name_H-M "C 2/C"
_symmetry_group_IT_number 15
_symmetry_cell_setting 'monoclinic'
loop_
_space_group_symop_operation_xyz
x,y,z
-x,y,1/2-z
-x,-y,-z
x,-y,1/2+z
1/2+x,1/2+y,z
1/2-x,1/2+y,1/2-z
1/2-x,1/2-y,-z
1/2+x,1/2-y,1/2+z
loop_
_atom_site_type_symbol
_atom_site_label
_atom_site_fract_x
_atom_site_fract_y
_atom_site_fract_z
Si Si1 0.500000 0.833202 0.750000
Si Si2 0.351455 0.588050 0.737684
Si Si3 0.514415 0.689248 0.621137
Si Si4 0.760334 0.523685 0.534817
Si Si5 0.785575 0.120929 0.044352
Si Si6 0.431392 0.816155 0.485082
Si Si7 0.230230 0.581757 0.530383
Si Si8 0.917305 0.756148 0.672431
O O1 0.446979 0.869916 0.828060
O O2 0.765198 0.796555 0.674995
O O3 0.500000 0.612711 0.750000
O O4 0.343008 0.635260 0.690060
O O5 0.521505 0.537122 0.659761
O O6 0.050041 0.566009 0.845307
O O7 0.640462 0.679575 0.511630
O O8 0.292902 0.738046 0.703899
O O9 0.776658 0.694361 0.579545
O O10 0.825014 0.576575 0.470103
O O11 0.642288 0.474533 0.533248
O O12 0.000000 0.500000 0.500000
O O13 0.064436 0.104475 0.986280
O O14 0.341207 0.878466 0.504453
O O15 0.467712 0.794793 0.403073
O O16 0.194586 0.787302 0.603814
#
# Coordination Sequence:
#
# PCOD8151353 Si02
#       8
#     4   8   8   8   8   8   8   8
#     4  12  24  48  66 104 154 192 228 304 372 418
#     4  11  20  39  71 104 134 181 233 291 346 425
#     4  11  21  43  70  99 140 186 244 296 344 432
#     4  11  24  44  72 104 138 182 240 293 362 432
#     4  11  28  45  70 105 146 186 237 302 363 440
#     4  11  21  40  73 104 137 190 244 289 356 440
#     4  12  22  43  69 103 145 185 234 294 361 430
#     4  11  22  41  73 100 142 193 238 293 364 420
#
# _framework density 22.970144000000001
#
# number of rings (size 3 to 8) (size 9 to 14) (size 15 to 20)
#    0.000    0.800    6.667    1.200    0.000    3.733 
#    0.000    2.000    0.000    0.000    0.000    0.000 
#    0.000    0.000    0.000    0.000    0.000    0.000 
#
# Total GULP energy -371741.755495 kJ/mol
# GULP energy per Si atom -12391.391850 kJ/mol
# Density = 2.291786 g / cm^3
# Si number density = 22.970144 Si / 1000 Ang^3
#
#
#
# Elastic Constant Matrix: (Units=GPa)
#
#
# Indices 1 2 3 4 5 6 
#
# 1 62.5859 18.6668 46.1927 -0.0010 3.5171 0.0003
# 2 18.6668 92.0554 61.1014 -0.0002 5.4369 0.0001
# 3 46.1927 61.1014 147.3909 -0.0093 4.7378 0.0004
# 4 -0.0010 -0.0002 -0.0093 35.6370 -0.0010 0.1123
# 5 3.5171 5.4369 4.7378 -0.0010 38.8247 0.0000
# 6 0.0003 0.0001 0.0004 0.1123 0.0000 32.0940
#
#
#
# Elastic Compliance Matrix: (Units=1/GPa)
#
#
# Indices 1 2 3 4 5 6 
#
# 1 0.020835 0.000209 -0.006581 -0.000001 -0.001114 0.000000
# 2 0.000209 0.015059 -0.006264 -0.000002 -0.001363 0.000000
# 3 -0.006581 -0.006264 0.011441 0.000003 0.000077 0.000000
# 4 -0.000001 -0.000002 0.000003 0.028061 0.000001 -0.000098
# 5 -0.001114 -0.001363 0.000077 0.000001 0.026039 0.000000
# 6 0.000000 0.000000 0.000000 -0.000098 0.000000 0.031159
#
#
# Mechanical properties :
#
#
# Convention : Reuss Voigt Hill
#
# Bulk Modulus (GPa) = 45.32399 61.55045 53.43722
# Shear Modulus (GPa) = 30.26230 33.04923 31.65576
#
# Velocity S-wave (km/s) = 3.63362 3.79725 3.71634
# Velocity P-wave (km/s) = 6.11382 6.78819 6.45981
#
# Compressibility (1/GPa) = 0.02206337
#
# Stress axis : x y z
#
# Youngs Moduli (GPa) = 47.99548 66.40456 87.40120
#
# Poissons Ratio (x) = -0.01385 0.57515
# Poissons Ratio (y) = -0.01001 0.54752
# Poissons Ratio (z) = 0.31584 0.41599
#
# Static dielectric constant tensor:
#      x y z
#    x 4.031450 0.000020 0.090020 
#    y 0.000020 4.449500 0.000030 
#    z 0.090020 0.000030 4.356400 
# 
# 
# High freq. dielectric constant tensor:
#      x y z
#    x 1.893120 0.000000 -0.004610 
#    y 0.000000 1.905750 0.000000 
#    z -0.004610 0.000000 1.912890 
# 
# From -- ./inp_files/266642.got.cif
#   From: 2010.06.25/outbox.cif.g09.slc.cpg/sg15_134_cif.got.tgz:266642.got - 2010.06.28 07:06:18.
