data_PCOD8151011
_publ_section_title
;
Structure prediction by ZEFSAII (Michael W. Deem and Ramdas Pophale) SiO2 
 PCOD8151011
Probable space group: C 2/C
;
_chemical_formula_sum "Si O2"
_cell_formula_units_Z 48
_cell_length_a 9.124951
_cell_length_b 23.079493
_cell_length_c 12.631692
_cell_angle_alpha 90.000000
_cell_angle_beta 118.734752
_cell_angle_gamma 90.000000
_cell_volume 2332.630670
_symmetry_space_group_name_H-M "C 2/C"
_symmetry_group_IT_number 15
_symmetry_cell_setting 'monoclinic'
loop_
_space_group_symop_operation_xyz
x,y,z
-x,y,1/2-z
-x,-y,-z
x,-y,1/2+z
1/2+x,1/2+y,z
1/2-x,1/2+y,1/2-z
1/2-x,1/2-y,-z
1/2+x,1/2-y,1/2+z
loop_
_atom_site_type_symbol
_atom_site_label
_atom_site_fract_x
_atom_site_fract_y
_atom_site_fract_z
Si Si1 0.321555 0.604539 0.476338
Si Si2 0.097194 0.949463 0.175573
Si Si3 0.162548 0.788698 0.376238
Si Si4 0.375566 0.141461 0.796190
Si Si5 0.994739 0.567613 0.477069
Si Si6 0.332789 0.577809 0.255607
O O1 0.454848 0.552098 0.535377
O O2 0.393067 0.654872 0.577305
O O3 0.137578 0.584594 0.443891
O O4 0.320639 0.621196 0.351926
O O5 0.230707 0.899120 0.197915
O O6 0.000000 0.936216 0.250000
O O7 0.184483 0.011868 0.208959
O O8 0.250000 0.750000 0.500000
O O9 0.302995 0.804420 0.337841
O O10 0.000000 0.764821 0.250000
O O11 0.500000 0.166608 0.750000
O O12 0.486371 0.099966 0.906742
O O13 0.000000 0.500000 0.500000
O O14 0.820286 0.590689 0.373341
O O15 0.500000 0.590161 0.250000
#
# Coordination Sequence:
#
# PCOD8151011 Si02
#       6
#     8   8   8   8   8   8
#     4  11  22  40  62  85 126 167 213 256 316 384
#     4  11  18  39  59  86 124 173 207 241 308 387
#     4  11  24  47  74  92 120 168 219 274 334 387
#     4  11  23  38  67  93 124 164 211 259 317 376
#     4  11  21  35  54  87 128 170 211 251 301 374
#     4  11  24  33  54  93 131 173 212 249 309 371
#
# _framework density 20.577625999999999
#
# number of rings (size 3 to 8) (size 9 to 14) (size 15 to 20)
#    0.000    1.000    6.667    2.000    4.667    2.667 
#    0.000    1.667    0.000    0.000    0.000    0.000 
#    0.000    0.000    0.000    0.000    0.000    0.000 
#
# Total GULP energy -297413.889638 kJ/mol
# GULP energy per Si atom -12392.245402 kJ/mol
# Density = 2.053079 g / cm^3
# Si number density = 20.577626 Si / 1000 Ang^3
#
#
#
# Elastic Constant Matrix: (Units=GPa)
#
#
# Indices 1 2 3 4 5 6 
#
# 1 132.6312 27.1787 71.3896 0.0000 -2.5199 0.0000
# 2 27.1787 43.3742 23.0280 0.0000 -2.3067 0.0000
# 3 71.3896 23.0280 140.3789 0.0000 16.2221 0.0000
# 4 0.0000 0.0000 0.0000 32.2787 0.0000 2.1239
# 5 -2.5199 -2.3067 16.2221 0.0000 48.6622 0.0000
# 6 0.0000 0.0000 0.0000 2.1239 0.0000 15.8433
#
#
#
# Elastic Compliance Matrix: (Units=1/GPa)
#
#
# Indices 1 2 3 4 5 6 
#
# 1 0.011287 -0.004138 -0.005311 0.000000 0.002159 0.000000
# 2 -0.004138 0.027113 -0.002566 0.000000 0.001926 0.000000
# 3 -0.005311 -0.002566 0.010703 0.000000 -0.003965 0.000000
# 4 0.000000 0.000000 0.000000 0.031256 0.000000 -0.004190
# 5 0.002159 0.001926 -0.003965 0.000000 0.022075 0.000000
# 6 0.000000 0.000000 0.000000 -0.004190 0.000000 0.063680
#
#
# Mechanical properties :
#
#
# Convention : Reuss Voigt Hill
#
# Bulk Modulus (GPa) = 39.88192 62.17521 51.02856
# Shear Modulus (GPa) = 25.18872 32.34270 28.76571
#
# Velocity S-wave (km/s) = 3.50249 3.96882 3.74292
# Velocity P-wave (km/s) = 5.98162 7.16119 6.59782
#
# Compressibility (1/GPa) = 0.02507402
#
# Stress axis : x y z
#
# Youngs Moduli (GPa) = 88.59522 36.88280 93.42831
#
# Poissons Ratio (x) = 0.15263 0.49617
# Poissons Ratio (y) = 0.36664 0.23971
# Poissons Ratio (z) = 0.47051 0.09463
#
# Static dielectric constant tensor:
#      x y z
#    x 3.814390 0.000000 -0.080620 
#    y 0.000000 3.560080 0.000000 
#    z -0.080620 0.000000 4.358010 
# 
# 
# High freq. dielectric constant tensor:
#      x y z
#    x 1.807340 0.000000 0.008590 
#    y 0.000000 1.761790 0.000000 
#    z 0.008590 0.000000 1.827740 
# 
# From -- ./inp_files/79089.got.cif
#   From: 2010.06.25/outbox.cif.g09.slc.cpg/sg15_40_cif.got.tgz:79089.got - 2010.06.28 07:06:18.
