data_PCOD8151910
_publ_section_title
;
Structure prediction by ZEFSAII (Michael W. Deem and Ramdas Pophale) SiO2 
 PCOD8151910
Probable space group: C 2/C
;
_chemical_formula_sum "Si O2"
_cell_formula_units_Z 56
_cell_length_a 9.377803
_cell_length_b 31.424829
_cell_length_c 11.515017
_cell_angle_alpha 90.000000
_cell_angle_beta 129.356697
_cell_angle_gamma 90.000000
_cell_volume 2623.842715
_symmetry_space_group_name_H-M "C 2/C"
_symmetry_group_IT_number 15
_symmetry_cell_setting 'monoclinic'
loop_
_space_group_symop_operation_xyz
x,y,z
-x,y,1/2-z
-x,-y,-z
x,-y,1/2+z
1/2+x,1/2+y,z
1/2-x,1/2+y,1/2-z
1/2-x,1/2-y,-z
1/2+x,1/2-y,1/2+z
loop_
_atom_site_type_symbol
_atom_site_label
_atom_site_fract_x
_atom_site_fract_y
_atom_site_fract_z
Si Si1 0.831534 0.727420 0.243872
Si Si2 0.790951 0.447025 0.676663
Si Si3 0.012395 0.896429 0.119373
Si Si4 0.716710 0.042975 0.857811
Si Si5 0.555169 0.301308 0.054458
Si Si6 0.707916 0.411854 0.877219
Si Si7 0.790969 0.819479 0.599215
O O1 0.836337 0.704331 0.372217
O O2 0.000000 0.711010 0.250000
O O3 0.860483 0.777416 0.289732
O O4 0.641359 0.720179 0.077930
O O5 0.666588 0.419527 0.525767
O O6 0.719836 0.495528 0.641895
O O7 0.799061 0.429438 0.809636
O O8 0.000000 0.444969 0.750000
O O9 0.025481 0.850768 0.065885
O O10 0.000000 0.891366 0.250000
O O11 0.194521 0.924083 0.186983
O O12 0.500000 0.049509 0.750000
O O13 0.788270 0.052063 0.023543
O O14 0.702336 0.297111 0.024137
O O15 0.500000 0.399541 0.750000
O O16 0.798541 0.366736 0.960691
O O17 0.000000 0.820472 0.750000
#
# Coordination Sequence:
#
# PCOD8151910 Si02
#       7
#     8   8   8   8   8   8   8
#     4  11  23  40  66  95 130 166 217 278 336 394
#     4  11  26  42  69 101 135 181 230 275 339 401
#     4  12  26  45  68  99 137 175 225 285 340 399
#     4  11  26  44  64 101 138 179 223 279 341 399
#     4  11  23  46  63  96 131 174 218 271 341 402
#     4  11  21  42  69  93 135 183 227 273 331 403
#     4   9  19  39  65  90 126 171 221 267 319 404
#
# _framework density 21.342744
#
# number of rings (size 3 to 8) (size 9 to 14) (size 15 to 20)
#    0.000    1.143    2.857    3.429    4.000    3.429 
#    2.571    0.714    0.000    0.000    0.000    0.000 
#    0.000    0.000    0.000    0.000    0.000    0.000 
#
# Total GULP energy -347156.941402 kJ/mol
# GULP energy per Si atom -12398.462193 kJ/mol
# Density = 2.129417 g / cm^3
# Si number density = 21.342744 Si / 1000 Ang^3
#
#
#
# Elastic Constant Matrix: (Units=GPa)
#
#
# Indices 1 2 3 4 5 6 
#
# 1 130.6094 51.3856 32.3707 0.0000 -24.4303 0.0000
# 2 51.3856 133.9691 33.1689 0.0000 8.0175 0.0000
# 3 32.3707 33.1689 58.1871 0.0000 -17.5605 0.0000
# 4 0.0000 0.0000 0.0000 30.7370 0.0000 -12.5805
# 5 -24.4303 8.0175 -17.5605 0.0000 34.5156 0.0000
# 6 0.0000 0.0000 0.0000 -12.5805 0.0000 31.3236
#
#
#
# Elastic Compliance Matrix: (Units=1/GPa)
#
#
# Indices 1 2 3 4 5 6 
#
# 1 0.011327 -0.004575 -0.001126 0.000000 0.008507 0.000000
# 2 -0.004575 0.011469 -0.006821 0.000000 -0.009372 0.000000
# 3 -0.001126 -0.006821 0.025918 0.000000 0.013974 0.000000
# 4 0.000000 0.000000 0.000000 0.038934 0.000000 0.015637
# 5 0.008507 -0.009372 0.013974 0.000000 0.044280 0.000000
# 6 0.000000 0.000000 0.000000 0.015637 0.000000 0.038205
#
#
# Mechanical properties :
#
#
# Convention : Reuss Voigt Hill
#
# Bulk Modulus (GPa) = 42.24918 61.84623 52.04770
# Shear Modulus (GPa) = 24.62247 33.03793 28.83020
#
# Velocity S-wave (km/s) = 3.40026 3.93869 3.67934
# Velocity P-wave (km/s) = 5.93752 7.05159 6.51840
#
# Compressibility (1/GPa) = 0.02366910
#
# Stress axis : x y z
#
# Youngs Moduli (GPa) = 88.28849 87.19278 38.58325
#
# Poissons Ratio (x) = 0.39888 0.04345
# Poissons Ratio (y) = 0.40389 0.26319
# Poissons Ratio (z) = 0.09943 0.59476
#
# Static dielectric constant tensor:
#      x y z
#    x 3.954320 0.000000 -0.251530 
#    y 0.000000 4.065760 0.000000 
#    z -0.251530 0.000000 3.710620 
# 
# 
# High freq. dielectric constant tensor:
#      x y z
#    x 1.848160 0.000000 -0.015450 
#    y 0.000000 1.852040 0.000000 
#    z -0.015450 0.000000 1.825660 
# 
# From -- ./inp_files/82684.got.cif
#   From: 2010.06.25/outbox.cif.g09.slc.cpg/sg15_42_cif.got.tgz:82684.got - 2010.06.28 07:06:18.
