data_PCOD8151098
_publ_section_title
;
Structure prediction by ZEFSAII (Michael W. Deem and Ramdas Pophale) SiO2 
 PCOD8151098
Probable space group: C 2/C
;
_chemical_formula_sum "Si O2"
_cell_formula_units_Z 52
_cell_length_a 29.797604
_cell_length_b 20.346029
_cell_length_c 9.695787
_cell_angle_alpha 90.000000
_cell_angle_beta 153.118651
_cell_angle_gamma 90.000000
_cell_volume 2657.793364
_symmetry_space_group_name_H-M "C 2/C"
_symmetry_group_IT_number 15
_symmetry_cell_setting 'monoclinic'
loop_
_space_group_symop_operation_xyz
x,y,z
-x,y,1/2-z
-x,-y,-z
x,-y,1/2+z
1/2+x,1/2+y,z
1/2-x,1/2+y,1/2-z
1/2-x,1/2-y,-z
1/2+x,1/2-y,1/2+z
loop_
_atom_site_type_symbol
_atom_site_label
_atom_site_fract_x
_atom_site_fract_y
_atom_site_fract_z
Si Si1 0.501424 0.271489 0.591596
Si Si2 0.313585 0.354327 0.056412
Si Si3 0.827882 0.466036 0.151522
Si Si4 0.613126 0.146196 0.859820
Si Si5 0.900690 0.107833 0.064965
Si Si6 0.703118 0.498478 0.564395
Si Si7 0.000000 0.549650 0.750000
O O1 0.500000 0.253960 0.750000
O O2 0.393314 0.296474 0.242212
O O3 0.541837 0.207220 0.623255
O O4 0.579012 0.330692 0.778218
O O5 0.312067 0.371324 0.216565
O O6 0.206615 0.329529 0.709640
O O7 0.340585 0.424410 0.059441
O O8 0.851093 0.388802 0.184071
O O9 0.737037 0.473262 0.009653
O O10 0.923841 0.502864 0.465386
O O11 0.797884 0.499589 0.924685
O O12 0.552213 0.093746 0.779734
O O13 0.000000 0.093510 0.250000
O O14 0.880968 0.045080 0.104392
#
# Coordination Sequence:
#
# PCOD8151098 Si02
#       7
#     8   8   8   8   8   8   4
#     4   9  20  36  54  88 117 160 205 246 296 364
#     4   9  19  36  58  84 123 149 204 250 297 356
#     4  11  23  36  60  88 126 150 204 243 316 357
#     4  11  21  37  59  87 120 159 200 252 303 363
#     4   9  19  34  58  90 119 154 207 248 303 362
#     4  11  19  39  59  93 119 163 192 259 305 357
#     4  12  20  38  58  94 118 150 202 258 302 364
#
# _framework density 19.565104000000002
#
# number of rings (size 3 to 8) (size 9 to 14) (size 15 to 20)
#    0.000    2.154    5.385    0.462    0.000    4.923 
#    2.769    0.769    0.000    1.846    0.000    0.000 
#    0.000    0.000    0.000    0.000    0.000    0.000 
#
# Total GULP energy -322197.786523 kJ/mol
# GULP energy per Si atom -12392.222559 kJ/mol
# Density = 1.952057 g / cm^3
# Si number density = 19.565104 Si / 1000 Ang^3
#
#
#
# Elastic Constant Matrix: (Units=GPa)
#
#
# Indices 1 2 3 4 5 6 
#
# 1 71.3888 55.3526 26.6009 0.0000 4.5645 0.0000
# 2 55.3526 127.0124 43.2594 0.0000 17.0934 0.0000
# 3 26.6009 43.2594 66.6871 0.0000 12.9460 0.0000
# 4 0.0000 0.0000 0.0000 5.6077 0.0000 -9.1907
# 5 4.5645 17.0934 12.9460 0.0000 19.7692 0.0000
# 6 0.0000 0.0000 0.0000 -9.1907 0.0000 17.1327
#
#
#
# Elastic Compliance Matrix: (Units=1/GPa)
#
#
# Indices 1 2 3 4 5 6 
#
# 1 0.022141 -0.008990 -0.004029 0.000000 0.005299 0.000000
# 2 -0.008990 0.014225 -0.004189 0.000000 -0.007480 0.000000
# 3 -0.004029 -0.004189 0.021121 0.000000 -0.009279 0.000000
# 4 0.000000 0.000000 0.000000 1.476209 0.000000 0.791902
# 5 0.005299 -0.007480 -0.009279 0.000000 0.061904 0.000000
# 6 0.000000 0.000000 0.000000 0.791902 0.000000 0.483178
#
#
# Mechanical properties :
#
#
# Convention : Reuss Voigt Hill
#
# Bulk Modulus (GPa) = 43.34515 57.27934 50.31224
# Shear Modulus (GPa) = 2.35751 17.82697 10.09224
#
# Velocity S-wave (km/s) = 1.09890 3.02182 2.27365
# Velocity P-wave (km/s) = 4.87981 6.44322 5.71522
#
# Compressibility (1/GPa) = 0.02307063
#
# Stress axis : x y z
#
# Youngs Moduli (GPa) = 45.16555 70.30037 47.34564
#
# Poissons Ratio (x) = 0.63201 0.19074
# Poissons Ratio (y) = 0.40604 0.19834
# Poissons Ratio (z) = 0.18196 0.29450
#
# Static dielectric constant tensor:
#      x y z
#    x 2.969910 0.000000 -0.089310 
#    y 0.000000 3.780740 0.000000 
#    z -0.089310 0.000000 3.658850 
# 
# 
# High freq. dielectric constant tensor:
#      x y z
#    x 1.726990 0.000000 0.009030 
#    y 0.000000 1.763350 0.000000 
#    z 0.009030 0.000000 1.764780 
# 
# From -- ./inp_files/70821.got.cif
#   From: 2010.06.25/outbox.cif.g09.slc.cpg/sg15_36_cif.got.tgz:70821.got - 2010.06.28 07:06:18.
