data_PCOD8151759
_publ_section_title
;
Structure prediction by ZEFSAII (Michael W. Deem and Ramdas Pophale) SiO2 
 PCOD8151759
Probable space group: C 2/C
;
_chemical_formula_sum "Si O2"
_cell_formula_units_Z 64
_cell_length_a 11.714507
_cell_length_b 14.243896
_cell_length_c 24.715303
_cell_angle_alpha 90.000000
_cell_angle_beta 133.494231
_cell_angle_gamma 90.000000
_cell_volume 2991.730361
_symmetry_space_group_name_H-M "C 2/C"
_symmetry_group_IT_number 15
_symmetry_cell_setting 'monoclinic'
loop_
_space_group_symop_operation_xyz
x,y,z
-x,y,1/2-z
-x,-y,-z
x,-y,1/2+z
1/2+x,1/2+y,z
1/2-x,1/2+y,1/2-z
1/2-x,1/2-y,-z
1/2+x,1/2-y,1/2+z
loop_
_atom_site_type_symbol
_atom_site_label
_atom_site_fract_x
_atom_site_fract_y
_atom_site_fract_z
Si Si1 0.170931 0.043089 0.325701
Si Si2 0.771208 0.065632 0.556551
Si Si3 0.144627 0.742849 0.561485
Si Si4 0.452648 0.161971 0.171908
Si Si5 0.495980 0.000399 0.609814
Si Si6 0.522722 0.698781 0.599263
Si Si7 0.907197 0.712940 0.576087
Si Si8 0.150408 0.255535 0.325437
O O1 0.321800 0.990885 0.348607
O O2 0.188015 0.151848 0.314643
O O3 0.000000 0.003815 0.250000
O O4 0.182928 0.027620 0.394778
O O5 0.735516 0.144039 0.590600
O O6 0.615125 0.052188 0.469869
O O7 0.924174 0.102103 0.573105
O O8 0.264855 0.828929 0.605043
O O9 0.052248 0.743371 0.474624
O O10 0.042612 0.750321 0.581705
O O11 0.500000 0.178144 0.250000
O O12 0.494926 0.057041 0.165940
O O13 0.529463 0.239872 0.156619
O O14 0.417911 0.101995 0.590796
O O15 0.701033 0.676856 0.637992
O O16 0.750000 0.750000 0.500000
O O17 0.907313 0.763413 0.633106
O O18 0.000000 0.304915 0.250000
#
# Coordination Sequence:
#
# PCOD8151759 Si02
#       8
#     8   8   8   8   8   8   8   8
#     4  11  24  41  67 100 133 176 230 282 333 404
#     4  11  21  39  72  99 124 176 227 282 330 392
#     4  11  21  42  67 100 132 173 226 281 331 406
#     4  11  24  40  71 101 132 176 229 280 344 404
#     4  12  23  44  68  98 135 175 225 288 337 400
#     4  11  21  43  67  98 138 175 225 281 339 401
#     4  12  26  41  68 100 135 177 230 272 341 416
#     4  11  25  44  65  93 140 186 217 282 355 406
#
# _framework density 21.392301
#
# number of rings (size 3 to 8) (size 9 to 14) (size 15 to 20)
#    0.000    0.750    6.250    1.875    1.750    3.500 
#    0.000    3.750    0.000    0.000    0.000    0.000 
#    0.000    0.000    0.000    0.000    0.000    0.000 
#
# Total GULP energy -396542.471876 kJ/mol
# GULP energy per Si atom -12391.952246 kJ/mol
# Density = 2.134361 g / cm^3
# Si number density = 21.392301 Si / 1000 Ang^3
#
#
#
# Elastic Constant Matrix: (Units=GPa)
#
#
# Indices 1 2 3 4 5 6 
#
# 1 140.7950 18.2944 61.0517 0.0000 10.2527 0.0000
# 2 18.2944 55.3192 15.2905 0.0000 15.1255 0.0000
# 3 61.0517 15.2905 143.3813 0.0000 6.6604 0.0000
# 4 0.0000 0.0000 0.0000 23.2061 0.0000 -1.3686
# 5 10.2527 15.1255 6.6604 0.0000 47.7622 0.0000
# 6 0.0000 0.0000 0.0000 -1.3686 0.0000 29.5237
#
#
#
# Elastic Compliance Matrix: (Units=1/GPa)
#
#
# Indices 1 2 3 4 5 6 
#
# 1 0.008945 -0.001729 -0.003584 0.000000 -0.000873 0.000000
# 2 -0.001729 0.020614 -0.001184 0.000000 -0.005992 0.000000
# 3 -0.003584 -0.001184 0.008629 0.000000 -0.000059 0.000000
# 4 0.000000 0.000000 0.000000 0.043210 0.000000 0.002003
# 5 -0.000873 -0.005992 -0.000059 0.000000 0.023030 0.000000
# 6 0.000000 0.000000 0.000000 0.002003 0.000000 0.033964
#
#
# Mechanical properties :
#
#
# Convention : Reuss Voigt Hill
#
# Bulk Modulus (GPa) = 39.68981 58.75207 49.22094
# Shear Modulus (GPa) = 31.29221 36.42231 33.85726
#
# Velocity S-wave (km/s) = 3.82878 4.13072 3.98261
# Velocity P-wave (km/s) = 6.17573 7.09043 6.64883
#
# Compressibility (1/GPa) = 0.02519538
#
# Stress axis : x y z
#
# Youngs Moduli (GPa) = 111.79780 48.51019 115.88336
#
# Poissons Ratio (x) = 0.08387 0.41530
# Poissons Ratio (y) = 0.19328 0.13719
# Poissons Ratio (z) = 0.40066 0.05743
#
# Static dielectric constant tensor:
#      x y z
#    x 3.793570 0.000000 0.118810 
#    y 0.000000 3.638340 0.000000 
#    z 0.118810 0.000000 3.917750 
# 
# 
# High freq. dielectric constant tensor:
#      x y z
#    x 1.848120 0.000000 0.006210 
#    y 0.000000 1.817290 0.000000 
#    z 0.006210 0.000000 1.842140 
# 
# From -- ./inp_files/293087.got.cif
#   From: 2010.06.25/outbox.cif.g09.slc.cpg/sg15_147_cif.got.tgz:293087.got - 2010.06.28 07:06:18.
