data_PCOD8151564
_publ_section_title
;
Structure prediction by ZEFSAII (Michael W. Deem and Ramdas Pophale) SiO2 
 PCOD8151564
Probable space group: C 2/C
;
_chemical_formula_sum "Si O2"
_cell_formula_units_Z 56
_cell_length_a 25.006979
_cell_length_b 14.857642
_cell_length_c 9.082973
_cell_angle_alpha 90.000000
_cell_angle_beta 127.532442
_cell_angle_gamma 90.000000
_cell_volume 2676.190322
_symmetry_space_group_name_H-M "C 2/C"
_symmetry_group_IT_number 15
_symmetry_cell_setting 'monoclinic'
loop_
_space_group_symop_operation_xyz
x,y,z
-x,y,1/2-z
-x,-y,-z
x,-y,1/2+z
1/2+x,1/2+y,z
1/2-x,1/2+y,1/2-z
1/2-x,1/2-y,-z
1/2+x,1/2-y,1/2+z
loop_
_atom_site_type_symbol
_atom_site_label
_atom_site_fract_x
_atom_site_fract_y
_atom_site_fract_z
Si Si1 0.268163 0.428046 0.190650
Si Si2 0.802151 0.894638 0.910255
Si Si3 0.787988 0.251929 0.906516
Si Si4 0.071222 0.779105 0.443598
Si Si5 0.441571 0.755417 0.249506
Si Si6 0.555461 0.047453 0.686612
Si Si7 0.380445 0.077909 0.986644
O O1 0.306221 0.512993 0.325358
O O2 0.278967 0.342217 0.311130
O O3 0.290799 0.413377 0.062461
O O4 0.189142 0.446720 0.054664
O O5 0.743440 0.831025 0.745826
O O6 0.874884 0.849296 0.025732
O O7 0.750000 0.250000 0.000000
O O8 0.868134 0.265712 0.052320
O O9 0.065162 0.796073 0.607764
O O10 0.096791 0.679760 0.444094
O O11 0.000000 0.799309 0.250000
O O12 0.500000 0.705502 0.250000
O O13 0.472087 0.854205 0.323901
O O14 0.621861 0.058901 0.692801
O O15 0.500000 0.000000 0.500000
O O16 0.567089 0.991091 0.852784
#
# Coordination Sequence:
#
# PCOD8151564 Si02
#       7
#     8   8   8   8   8   8   8
#     4  12  26  43  73 101 135 187 239 300 358 418
#     4  12  26  47  71 106 139 188 240 296 360 425
#     4  12  23  47  71 103 145 178 238 293 356 423
#     4  11  25  44  68  98 142 186 236 294 358 424
#     4  11  24  40  67 101 137 187 229 293 356 422
#     4  11  21  36  58  96 138 179 216 270 342 426
#     4  11  21  40  62  96 134 177 227 281 348 411
#
# _framework density 20.925269
#
# number of rings (size 3 to 8) (size 9 to 14) (size 15 to 20)
#    0.000    0.571    2.857    6.857    2.000    1.143 
#    0.000    1.429    0.000    0.000    0.000    0.000 
#    0.000    0.000    0.000    0.000    0.000    0.000 
#
# Total GULP energy -347171.965446 kJ/mol
# GULP energy per Si atom -12398.998766 kJ/mol
# Density = 2.087764 g / cm^3
# Si number density = 20.925269 Si / 1000 Ang^3
#
#
#
# Elastic Constant Matrix: (Units=GPa)
#
#
# Indices 1 2 3 4 5 6 
#
# 1 151.4963 24.6129 52.9561 0.0000 -20.2915 0.0000
# 2 24.6129 97.9949 38.4208 0.0000 -19.8270 0.0000
# 3 52.9561 38.4208 115.6826 0.0000 -10.5248 0.0000
# 4 0.0000 0.0000 0.0000 38.6451 0.0000 -13.5002
# 5 -20.2915 -19.8270 -10.5248 0.0000 44.7323 0.0000
# 6 0.0000 0.0000 0.0000 -13.5002 0.0000 -12.7377
#
#
#
# Elastic Compliance Matrix: (Units=1/GPa)
#
#
# Indices 1 2 3 4 5 6 
#
# 1 0.008213 -0.000130 -0.003457 0.000000 0.002854 0.000000
# 2 -0.000130 0.012638 -0.003713 0.000000 0.004669 0.000000
# 3 -0.003457 -0.003713 0.011412 0.000000 -0.000529 0.000000
# 4 0.000000 0.000000 0.000000 0.018884 0.000000 -0.020015
# 5 0.002854 0.004669 -0.000529 0.000000 0.025595 0.000000
# 6 0.000000 0.000000 0.000000 -0.020015 0.000000 -0.057294
#
#
# Mechanical properties :
#
#
# Convention : Reuss Voigt Hill
#
# Bulk Modulus (GPa) = 56.61596 66.35037 61.48317
# Shear Modulus (GPa) = 125.20635 30.74022 77.97329
#
# Velocity S-wave (km/s) = 7.74370 3.83697 6.11094
# Velocity P-wave (km/s) = 10.34738 7.16986 8.90155
#
# Compressibility (1/GPa) = 0.01766286
#
# Stress axis : x y z
#
# Youngs Moduli (GPa) = 121.76517 79.12863 87.62902
#
# Poissons Ratio (x) = 0.01028 0.30290
# Poissons Ratio (y) = 0.01582 0.32537
# Poissons Ratio (z) = 0.42089 0.29380
#
# Static dielectric constant tensor:
#      x y z
#    x 4.342420 0.000000 -0.287950 
#    y 0.000000 3.777790 0.000000 
#    z -0.287950 0.000000 4.029750 
# 
# 
# High freq. dielectric constant tensor:
#      x y z
#    x 1.839510 0.000000 -0.010440 
#    y 0.000000 1.811060 0.000000 
#    z -0.010440 0.000000 1.828010 
# 
# From -- ./inp_files/55611.got.cif
#   From: 2010.06.25/outbox.cif.g09.slc.cpg/sg15_28_cif.got.tgz:55611.got - 2010.06.28 07:06:18.
