data_PCOD8151575
_publ_section_title
;
Structure prediction by ZEFSAII (Michael W. Deem and Ramdas Pophale) SiO2 
 PCOD8151575
Probable space group: C 2/C
;
_chemical_formula_sum "Si O2"
_cell_formula_units_Z 48
_cell_length_a 11.091234
_cell_length_b 14.837291
_cell_length_c 27.592191
_cell_angle_alpha 90.000000
_cell_angle_beta 33.102694
_cell_angle_gamma 90.000000
_cell_volume 2479.851809
_symmetry_space_group_name_H-M "C 2/C"
_symmetry_group_IT_number 15
_symmetry_cell_setting 'monoclinic'
loop_
_space_group_symop_operation_xyz
x,y,z
-x,y,1/2-z
-x,-y,-z
x,-y,1/2+z
1/2+x,1/2+y,z
1/2-x,1/2+y,1/2-z
1/2-x,1/2-y,-z
1/2+x,1/2-y,1/2+z
loop_
_atom_site_type_symbol
_atom_site_label
_atom_site_fract_x
_atom_site_fract_y
_atom_site_fract_z
Si Si1 0.700995 0.443012 0.412001
Si Si2 0.999972 0.395873 0.692752
Si Si3 0.705855 0.241488 0.947891
Si Si4 0.082163 0.821965 0.371693
Si Si5 0.285824 0.250457 0.043431
Si Si6 0.904150 0.172570 0.231891
O O1 0.500000 0.500000 0.500000
O O2 0.649753 0.416675 0.372940
O O3 0.733572 0.352169 0.430823
O O4 0.925124 0.500455 0.337820
O O5 0.768185 0.387401 0.741529
O O6 0.000000 0.368803 0.750000
O O7 0.180726 0.335145 0.605153
O O8 0.897141 0.165789 0.891524
O O9 0.545341 0.255883 0.048137
O O10 0.533916 0.209816 0.965027
O O11 0.297719 0.769926 0.280120
O O12 0.112732 0.185969 0.127444
O O13 0.250000 0.250000 0.000000
O O14 0.000000 0.128560 0.250000
#
# Coordination Sequence:
#
# PCOD8151575 Si02
#       6
#     8   8   8   8   8   8
#     4  11  21  36  61  89 120 153 204 259 308 351
#     4  11  23  36  60  92 127 155 203 261 313 356
#     4   9  17  35  57  82 114 156 195 244 288 367
#     4   9  18  33  56  87 110 149 205 238 292 360
#     4  11  22  37  59  89 126 162 205 248 310 375
#     4  11  21  37  61  88 119 166 207 249 302 379
#
# _framework density 19.355996999999999
#
# number of rings (size 3 to 8) (size 9 to 14) (size 15 to 20)
#    0.000    1.667    6.667    1.000    2.333    0.000 
#    0.000    0.000    3.667    3.000    0.000    0.000 
#    0.000    0.000    0.000    0.000    0.000    0.000 
#
# Total GULP energy -297321.208455 kJ/mol
# GULP energy per Si atom -12388.383686 kJ/mol
# Density = 1.931194 g / cm^3
# Si number density = 19.355997 Si / 1000 Ang^3
#
#
#
# Elastic Constant Matrix: (Units=GPa)
#
#
# Indices 1 2 3 4 5 6 
#
# 1 194.8775 49.4214 55.9796 0.0008 -25.4172 -0.0005
# 2 49.4214 73.8112 22.6842 -0.0029 -13.7171 -0.0006
# 3 55.9796 22.6842 58.7354 0.0078 -14.1637 0.0030
# 4 0.0008 -0.0029 0.0078 19.9212 -0.0028 -5.7955
# 5 -25.4172 -13.7171 -14.1637 -0.0028 41.2034 -0.0007
# 6 -0.0005 -0.0006 0.0030 -5.7955 -0.0007 36.0487
#
#
#
# Elastic Compliance Matrix: (Units=1/GPa)
#
#
# Indices 1 2 3 4 5 6 
#
# 1 0.007829 -0.003119 -0.005826 0.000002 0.001789 0.000001
# 2 -0.003119 0.017053 -0.002953 0.000005 0.002738 0.000001
# 3 -0.005826 -0.002953 0.024659 -0.000010 0.003900 -0.000004
# 4 0.000002 0.000005 -0.000010 0.052661 0.000003 0.008466
# 5 0.001789 0.002738 0.003900 0.000003 0.027625 0.000001
# 6 0.000001 0.000001 -0.000004 0.008466 0.000001 0.029101
#
#
# Mechanical properties :
#
#
# Convention : Reuss Voigt Hill
#
# Bulk Modulus (GPa) = 38.84258 64.84383 51.84321
# Shear Modulus (GPa) = 26.13612 32.72394 29.43003
#
# Velocity S-wave (km/s) = 3.67861 4.11619 3.90354
# Velocity P-wave (km/s) = 6.17689 7.49427 6.86724
#
# Compressibility (1/GPa) = 0.02574494
#
# Stress axis : x y z
#
# Youngs Moduli (GPa) = 127.72507 58.64073 40.55333
#
# Poissons Ratio (x) = 0.18292 0.23626
# Poissons Ratio (y) = 0.39842 0.11975
# Poissons Ratio (z) = 0.74412 0.17315
#
# Static dielectric constant tensor:
#      x y z
#    x 4.308160 0.000000 -0.230540 
#    y 0.000000 3.223300 -0.000020 
#    z -0.230540 -0.000020 3.758540 
# 
# 
# High freq. dielectric constant tensor:
#      x y z
#    x 1.769800 0.000000 -0.014590 
#    y 0.000000 1.701500 0.000000 
#    z -0.014590 0.000000 1.769940 
# 
# From -- ./inp_files/143665.got.cif
#   From: 2010.06.25/outbox.cif.g09.slc.cpg/sg15_72_cif.got.tgz:143665.got - 2010.06.28 07:06:18.
