data_PCOD8151387
_publ_section_title
;
Structure prediction by ZEFSAII (Michael W. Deem and Ramdas Pophale) SiO2 
 PCOD8151387
Probable space group: C 2/C
;
_chemical_formula_sum "Si O2"
_cell_formula_units_Z 52
_cell_length_a 30.715234
_cell_length_b 13.974887
_cell_length_c 18.823567
_cell_angle_alpha 90.000000
_cell_angle_beta 17.210441
_cell_angle_gamma 90.000000
_cell_volume 2390.687369
_symmetry_space_group_name_H-M "C 2/C"
_symmetry_group_IT_number 15
_symmetry_cell_setting 'monoclinic'
loop_
_space_group_symop_operation_xyz
x,y,z
-x,y,1/2-z
-x,-y,-z
x,-y,1/2+z
1/2+x,1/2+y,z
1/2-x,1/2+y,1/2-z
1/2-x,1/2-y,-z
1/2+x,1/2-y,1/2+z
loop_
_atom_site_type_symbol
_atom_site_label
_atom_site_fract_x
_atom_site_fract_y
_atom_site_fract_z
Si Si1 0.403837 0.661315 0.464591
Si Si2 0.500000 0.003726 0.750000
Si Si3 0.645079 0.344849 0.983049
Si Si4 0.945639 0.609897 0.084877
Si Si5 0.095303 0.641508 0.990899
Si Si6 0.746812 0.142761 0.334726
Si Si7 0.102953 0.771403 0.770266
O O1 0.500000 0.617010 0.250000
O O2 0.251572 0.603596 0.714661
O O3 0.363222 0.770673 0.510774
O O4 0.499867 0.657670 0.386207
O O5 0.511277 0.941364 0.662268
O O6 0.650151 0.062555 0.523537
O O7 0.500000 0.381758 0.250000
O O8 0.773641 0.373115 0.837624
O O9 0.628086 0.231485 0.991419
O O10 0.674731 0.395198 0.860200
O O11 0.000000 0.500000 0.000000
O O12 0.985777 0.663088 0.096341
O O13 0.029975 0.667083 0.891771
O O14 0.872209 0.176820 0.193344
O O15 0.250000 0.750000 0.500000
#
# Coordination Sequence:
#
# PCOD8151387 Si02
#       7
#     8   4   8   8   8   8   8
#     4  11  20  40  67  98 136 184 229 281 345 431
#     4  12  24  46  68 100 138 182 240 296 362 422
#     4  11  24  48  72 101 143 192 236 297 367 439
#     4  12  25  43  73 106 144 183 244 297 361 422
#     4  11  24  41  69 104 137 184 231 294 361 426
#     4  11  22  40  70  96 137 186 234 288 352 429
#     4  12  21  38  69 104 137 188 237 281 364 429
#
# _framework density 21.751066000000002
#
# number of rings (size 3 to 8) (size 9 to 14) (size 15 to 20)
#    0.000    0.615    9.231    0.923    2.154    0.615 
#    2.769    6.923    0.000    0.000    0.000    0.000 
#    0.000    0.000    0.000    0.000    0.000    0.000 
#
# Total GULP energy -322259.848601 kJ/mol
# GULP energy per Si atom -12394.609562 kJ/mol
# Density = 2.170156 g / cm^3
# Si number density = 21.751066 Si / 1000 Ang^3
#
#
#
# Elastic Constant Matrix: (Units=GPa)
#
#
# Indices 1 2 3 4 5 6 
#
# 1 151.5261 21.9708 71.8869 -0.0039 -21.7030 0.0044
# 2 21.9708 75.0640 39.1406 -0.0023 -1.3055 0.0028
# 3 71.8869 39.1406 187.7381 -0.0014 9.5826 0.0024
# 4 -0.0039 -0.0023 -0.0014 37.7691 0.0021 6.2469
# 5 -21.7030 -1.3055 9.5826 0.0021 45.5549 -0.0028
# 6 0.0044 0.0028 0.0024 6.2469 -0.0028 18.6623
#
#
#
# Elastic Compliance Matrix: (Units=1/GPa)
#
#
# Indices 1 2 3 4 5 6 
#
# 1 0.009147 -0.000703 -0.003616 0.000001 0.005098 -0.000001
# 2 -0.000703 0.015055 -0.002906 0.000001 0.000708 -0.000002
# 3 -0.003616 -0.002906 0.007490 0.000000 -0.003382 0.000000
# 4 0.000001 0.000001 0.000000 0.028028 -0.000002 -0.009382
# 5 0.005098 0.000708 -0.003382 -0.000002 0.025112 0.000003
# 6 -0.000001 -0.000002 0.000000 -0.009382 0.000003 0.056725
#
#
# Mechanical properties :
#
#
# Convention : Reuss Voigt Hill
#
# Bulk Modulus (GPa) = 57.99747 75.59163 66.79455
# Shear Modulus (GPa) = 30.91099 39.15257 35.03178
#
# Velocity S-wave (km/s) = 3.77387 4.24728 4.01755
# Velocity P-wave (km/s) = 6.76103 7.67340 7.23162
#
# Compressibility (1/GPa) = 0.01724213
#
# Stress axis : x y z
#
# Youngs Moduli (GPa) = 109.32124 66.42233 133.51705
#
# Poissons Ratio (x) = 0.04670 0.48283
# Poissons Ratio (y) = 0.07686 0.38796
# Poissons Ratio (z) = 0.39534 0.19300
#
# Static dielectric constant tensor:
#      x y z
#    x 5.708220 0.000010 -0.096180 
#    y 0.000010 3.745230 0.000000 
#    z -0.096180 0.000000 4.260640 
# 
# 
# High freq. dielectric constant tensor:
#      x y z
#    x 1.865890 0.000000 0.005710 
#    y 0.000000 1.828210 0.000000 
#    z 0.005710 0.000000 1.863080 
# 
# From -- ./inp_files/225480.got.cif
#   From: 2010.06.25/outbox.cif.g09.slc.cpg/sg15_113_cif.got.tgz:225480.got - 2010.06.28 07:06:18.
