data_PCOD8151012
_publ_section_title
;
Structure prediction by ZEFSAII (Michael W. Deem and Ramdas Pophale) SiO2 
 PCOD8151012
Probable space group: C 2/C
;
_chemical_formula_sum "Si O2"
_cell_formula_units_Z 48
_cell_length_a 37.849998
_cell_length_b 14.572241
_cell_length_c 18.006868
_cell_angle_alpha 90.000000
_cell_angle_beta 164.856081
_cell_angle_gamma 90.000000
_cell_volume 2594.642561
_symmetry_space_group_name_H-M "C 2/C"
_symmetry_group_IT_number 15
_symmetry_cell_setting 'monoclinic'
loop_
_space_group_symop_operation_xyz
x,y,z
-x,y,1/2-z
-x,-y,-z
x,-y,1/2+z
1/2+x,1/2+y,z
1/2-x,1/2+y,1/2-z
1/2-x,1/2-y,-z
1/2+x,1/2-y,1/2+z
loop_
_atom_site_type_symbol
_atom_site_label
_atom_site_fract_x
_atom_site_fract_y
_atom_site_fract_z
Si Si1 0.797152 0.608435 0.915249
Si Si2 0.994436 0.504070 0.576178
Si Si3 0.155340 0.811891 0.543241
Si Si4 0.767810 0.999435 0.366002
Si Si5 0.994144 0.872616 0.649740
Si Si6 0.418504 0.177979 0.661083
O O1 0.821241 0.714686 0.947331
O O2 0.790854 0.545980 0.828430
O O3 0.658332 0.598912 0.681123
O O4 0.919483 0.578618 0.215014
O O5 0.056084 0.599415 0.728274
O O6 0.000000 0.500000 0.500000
O O7 0.840928 0.491437 0.289975
O O8 0.194947 0.894205 0.568588
O O9 0.257053 0.816755 0.819684
O O10 0.000000 0.824810 0.250000
O O11 0.900305 0.947417 0.665616
O O12 0.032417 0.771221 0.699208
O O13 0.000000 0.868477 0.750000
O O14 0.500000 0.157292 0.750000
#
# Coordination Sequence:
#
# PCOD8151012 Si02
#       6
#     8   8   8   8   8   8
#     4  11  20  37  63  89 116 147 195 243 287 343
#     4  12  25  39  56  84 122 163 194 232 288 350
#     4  12  21  32  63  98 114 140 197 251 289 336
#     4  11  20  37  60  88 115 149 199 244 288 338
#     4   9  18  34  61  91 113 142 189 251 299 330
#     4  11  18  39  62  84 117 152 191 244 297 336
#
# _framework density 18.499658
#
# number of rings (size 3 to 8) (size 9 to 14) (size 15 to 20)
#    0.000    1.000    8.333    3.000    0.000    0.000 
#    0.000    5.000    0.000    0.000    0.000    0.000 
#    0.000    0.000    0.000    0.000    0.000    0.000 
#
# Total GULP energy -297591.642403 kJ/mol
# GULP energy per Si atom -12399.651767 kJ/mol
# Density = 1.845755 g / cm^3
# Si number density = 18.499658 Si / 1000 Ang^3
#
#
#
# Elastic Constant Matrix: (Units=GPa)
#
#
# Indices 1 2 3 4 5 6 
#
# 1 87.8238 47.5995 59.0900 0.0000 12.2875 0.0000
# 2 47.5995 142.9686 47.1370 0.0000 9.1421 0.0000
# 3 59.0900 47.1370 134.3787 0.0000 37.6475 0.0000
# 4 0.0000 0.0000 0.0000 34.8224 0.0000 2.7703
# 5 12.2875 9.1421 37.6475 0.0000 21.2226 0.0000
# 6 0.0000 0.0000 0.0000 2.7703 0.0000 12.8476
#
#
#
# Elastic Compliance Matrix: (Units=1/GPa)
#
#
# Indices 1 2 3 4 5 6 
#
# 1 0.018172 -0.003674 -0.008345 0.000000 0.005865 0.000000
# 2 -0.003674 0.008750 -0.001976 0.000000 0.001862 0.000000
# 3 -0.008345 -0.001976 0.020302 0.000000 -0.030331 0.000000
# 4 0.000000 0.000000 0.000000 0.029218 0.000000 -0.006300
# 5 0.005865 0.001862 -0.030331 0.000000 0.096727 0.000000
# 6 0.000000 0.000000 0.000000 -0.006300 0.000000 0.079194
#
#
# Mechanical properties :
#
#
# Convention : Reuss Voigt Hill
#
# Bulk Modulus (GPa) = 51.98945 74.75823 63.37384
# Shear Modulus (GPa) = 17.43595 27.86818 22.65207
#
# Velocity S-wave (km/s) = 3.07335 3.88547 3.50302
# Velocity P-wave (km/s) = 6.38419 7.78636 7.11988
#
# Compressibility (1/GPa) = 0.01923467
#
# Stress axis : x y z
#
# Youngs Moduli (GPa) = 55.03050 114.28677 49.25645
#
# Poissons Ratio (x) = 0.41985 0.41105
# Poissons Ratio (y) = 0.20216 0.09731
# Poissons Ratio (z) = 0.45924 0.22579
#
# Static dielectric constant tensor:
#      x y z
#    x 2.845540 0.000000 0.286370 
#    y 0.000000 3.730550 0.000000 
#    z 0.286370 0.000000 4.111340 
# 
# 
# High freq. dielectric constant tensor:
#      x y z
#    x 1.649690 0.000000 0.025890 
#    y 0.000000 1.743560 0.000000 
#    z 0.025890 0.000000 1.738040 
# 
# From -- ./inp_files/182516.got.cif
#   From: 2010.06.25/outbox.cif.g09.slc.cpg/sg15_92_cif.got.tgz:182516.got - 2010.06.28 07:06:18.
