data_PCOD8151548
_publ_section_title
;
Structure prediction by ZEFSAII (Michael W. Deem and Ramdas Pophale) SiO2 
 PCOD8151548
Probable space group: C 2/C
;
_chemical_formula_sum "Si O2"
_cell_formula_units_Z 52
_cell_length_a 13.520135
_cell_length_b 26.092517
_cell_length_c 10.471018
_cell_angle_alpha 90.000000
_cell_angle_beta 131.338578
_cell_angle_gamma 90.000000
_cell_volume 2773.457380
_symmetry_space_group_name_H-M "C 2/C"
_symmetry_group_IT_number 15
_symmetry_cell_setting 'monoclinic'
loop_
_space_group_symop_operation_xyz
x,y,z
-x,y,1/2-z
-x,-y,-z
x,-y,1/2+z
1/2+x,1/2+y,z
1/2-x,1/2+y,1/2-z
1/2-x,1/2-y,-z
1/2+x,1/2-y,1/2+z
loop_
_atom_site_type_symbol
_atom_site_label
_atom_site_fract_x
_atom_site_fract_y
_atom_site_fract_z
Si Si1 0.864778 0.468816 0.896514
Si Si2 0.831907 0.351716 0.864348
Si Si3 0.229819 0.648141 0.483931
Si Si4 0.657394 0.036575 0.400347
Si Si5 0.554521 0.220618 0.507080
Si Si6 0.500000 0.299151 0.250000
Si Si7 0.852444 0.221938 0.178577
O O1 0.881603 0.408661 0.941497
O O2 0.785254 0.474456 0.693965
O O3 0.791939 0.493118 0.957679
O O4 0.000000 0.500000 0.000000
O O5 0.802128 0.345407 0.690694
O O6 0.704387 0.335127 0.839018
O O7 0.948150 0.311945 0.996024
O O8 0.208820 0.589282 0.504951
O O9 0.133715 0.684025 0.480793
O O10 0.377417 0.663203 0.640004
O O11 0.500000 0.039840 0.250000
O O12 0.486501 0.264819 0.365088
O O13 0.649844 0.246144 0.692003
O O14 0.000000 0.216233 0.250000
O O15 0.750000 0.250000 0.000000
#
# Coordination Sequence:
#
# PCOD8151548 Si02
#       7
#     8   8   8   8   8   4   8
#     4   9  18  35  58  87 116 143 193 254 311 357
#     4  11  21  39  64  88 120 163 197 256 317 360
#     4  11  21  35  61  88 117 150 199 259 312 357
#     4   9  18  36  57  83 116 144 189 254 305 356
#     4  12  21  37  60  89 120 154 206 248 308 357
#     4  12  22  32  58  88 114 154 196 248 296 364
#     4  12  26  43  56  84 133 178 209 245 298 379
#
# _framework density 18.749161000000001
#
# number of rings (size 3 to 8) (size 9 to 14) (size 15 to 20)
#    0.000    1.231    4.615    4.154    0.000    0.000 
#   11.077    0.000    1.692    1.846    0.000    0.000 
#    0.000    0.000    0.000    0.000    0.000    0.000 
#
# Total GULP energy -322289.293093 kJ/mol
# GULP energy per Si atom -12395.742042 kJ/mol
# Density = 1.870649 g / cm^3
# Si number density = 18.749161 Si / 1000 Ang^3
#
#
#
# Elastic Constant Matrix: (Units=GPa)
#
#
# Indices 1 2 3 4 5 6 
#
# 1 80.2095 56.1688 21.5494 0.0000 4.8571 0.0000
# 2 56.1688 144.2443 66.2854 0.0000 -7.7460 0.0000
# 3 21.5494 66.2854 68.0151 0.0000 -1.4778 0.0000
# 4 0.0000 0.0000 0.0000 24.9090 0.0000 -6.2444
# 5 4.8571 -7.7460 -1.4778 0.0000 34.9386 0.0000
# 6 0.0000 0.0000 0.0000 -6.2444 0.0000 29.1253
#
#
#
# Elastic Compliance Matrix: (Units=1/GPa)
#
#
# Indices 1 2 3 4 5 6 
#
# 1 0.017876 -0.008227 0.002262 0.000000 -0.004213 0.000000
# 2 -0.008227 0.016524 -0.013405 0.000000 0.004240 0.000000
# 3 0.002262 -0.013405 0.027003 0.000000 -0.002144 0.000000
# 4 0.000000 0.000000 0.000000 0.042426 0.000000 0.009096
# 5 -0.004213 0.004240 -0.002144 0.000000 0.030057 0.000000
# 6 0.000000 0.000000 0.000000 0.009096 0.000000 0.036285
#
#
# Mechanical properties :
#
#
# Convention : Reuss Voigt Hill
#
# Bulk Modulus (GPa) = 44.12265 64.49733 54.30999
# Shear Modulus (GPa) = 23.09848 27.69227 25.39538
#
# Velocity S-wave (km/s) = 3.51376 3.84733 3.68432
# Velocity P-wave (km/s) = 6.32821 7.36279 6.86502
#
# Compressibility (1/GPa) = 0.02266410
#
# Stress axis : x y z
#
# Youngs Moduli (GPa) = 55.94219 60.51813 37.03225
#
# Poissons Ratio (x) = 0.49786 -0.08378
# Poissons Ratio (y) = 0.46022 0.49642
# Poissons Ratio (z) = -0.12656 0.81125
#
# Static dielectric constant tensor:
#      x y z
#    x 3.708050 0.000000 -0.449530 
#    y 0.000000 3.724910 0.000000 
#    z -0.449530 0.000000 3.459280 
# 
# 
# High freq. dielectric constant tensor:
#      x y z
#    x 1.720050 0.000000 -0.020980 
#    y 0.000000 1.731110 0.000000 
#    z -0.020980 0.000000 1.718490 
# 
# From -- ./inp_files/100989.got.cif
#   From: 2010.06.25/outbox.cif.g09.slc.cpg/sg15_51_cif.got.tgz:100989.got - 2010.06.28 07:06:18.
