data_PCOD8151710
_publ_section_title
;
Structure prediction by ZEFSAII (Michael W. Deem and Ramdas Pophale) SiO2 
 PCOD8151710
Probable space group: C 2/C
;
_chemical_formula_sum "Si O2"
_cell_formula_units_Z 52
_cell_length_a 14.647760
_cell_length_b 14.787788
_cell_length_c 18.134628
_cell_angle_alpha 90.000000
_cell_angle_beta 39.803042
_cell_angle_gamma 90.000000
_cell_volume 2514.578304
_symmetry_space_group_name_H-M "C 2/C"
_symmetry_group_IT_number 15
_symmetry_cell_setting 'monoclinic'
loop_
_space_group_symop_operation_xyz
x,y,z
-x,y,1/2-z
-x,-y,-z
x,-y,1/2+z
1/2+x,1/2+y,z
1/2-x,1/2+y,1/2-z
1/2-x,1/2-y,-z
1/2+x,1/2-y,1/2+z
loop_
_atom_site_type_symbol
_atom_site_label
_atom_site_fract_x
_atom_site_fract_y
_atom_site_fract_z
Si Si1 0.000000 0.250035 0.250000
Si Si2 0.926771 0.897617 0.692746
Si Si3 0.250032 0.369080 0.150379
Si Si4 0.592353 0.125399 0.898714
Si Si5 0.686902 0.968832 0.945402
Si Si6 0.671851 0.525882 0.497174
Si Si7 0.577415 0.678304 0.453989
O O1 0.019358 0.187763 0.164755
O O2 0.857413 0.309865 0.332178
O O3 0.820590 0.919605 0.825221
O O4 0.850639 0.865592 0.664263
O O5 0.021117 0.984590 0.615655
O O6 0.201918 0.372855 0.264042
O O7 0.255643 0.469809 0.113737
O O8 0.407770 0.328829 0.051140
O O9 0.611168 0.215594 0.936052
O O10 0.629621 0.042826 0.926363
O O11 0.432516 0.108524 0.966371
O O12 0.724265 0.022096 0.997242
O O13 0.641523 0.627638 0.486272
#
# Coordination Sequence:
#
# PCOD8151710 Si02
#       7
#     4   8   8   8   8   8   8
#     4  12  20  34  66  96 118 156 204 266 314 370
#     4  11  21  39  63  94 121 158 199 260 320 375
#     4  11  23  40  61  94 127 154 207 259 319 378
#     4  11  24  40  63  89 127 169 206 264 318 364
#     4  11  23  41  63  92 127 164 211 261 314 378
#     4  11  23  39  65  89 125 165 207 254 313 380
#     4  11  24  40  63  91 124 168 206 256 314 382
#
# _framework density 20.679413
#
# number of rings (size 3 to 8) (size 9 to 14) (size 15 to 20)
#    0.000    0.923    3.077    5.538    0.000    1.846 
#    0.000    0.000    0.000    0.000    0.000    0.000 
#    0.000    0.000    0.000    0.000    0.000    0.000 
#
# Total GULP energy -322358.508324 kJ/mol
# GULP energy per Si atom -12398.404166 kJ/mol
# Density = 2.063235 g / cm^3
# Si number density = 20.679413 Si / 1000 Ang^3
#
#
#
# Elastic Constant Matrix: (Units=GPa)
#
#
# Indices 1 2 3 4 5 6 
#
# 1 83.0214 33.8476 24.1827 -0.0001 0.9384 0.0002
# 2 33.8476 95.0855 37.6564 -0.0001 -3.8952 0.0002
# 3 24.1827 37.6564 86.7967 -0.0002 5.8272 0.0004
# 4 -0.0001 -0.0001 -0.0002 17.3768 0.0001 13.2253
# 5 0.9384 -3.8952 5.8272 0.0001 19.3703 -0.0002
# 6 0.0002 0.0002 0.0004 13.2253 -0.0002 34.6590
#
#
#
# Elastic Compliance Matrix: (Units=1/GPa)
#
#
# Indices 1 2 3 4 5 6 
#
# 1 0.014435 -0.004359 -0.002067 0.000000 -0.000954 0.000000
# 2 -0.004359 0.014376 -0.005338 0.000000 0.004708 0.000000
# 3 -0.002067 -0.005338 0.014777 0.000000 -0.005419 0.000000
# 4 0.000000 0.000000 0.000000 0.081101 -0.000001 -0.030947
# 5 -0.000954 0.004708 -0.005419 -0.000001 0.054249 0.000001
# 6 0.000000 0.000000 0.000000 -0.030947 0.000001 0.040661
#
#
# Mechanical properties :
#
#
# Convention : Reuss Voigt Hill
#
# Bulk Modulus (GPa) = 49.85210 50.69743 50.27477
# Shear Modulus (GPa) = 20.01500 25.56234 22.78867
#
# Velocity S-wave (km/s) = 3.11444 3.51967 3.32324
# Velocity P-wave (km/s) = 6.09035 6.40988 6.25216
#
# Compressibility (1/GPa) = 0.02005933
#
# Stress axis : x y z
#
# Youngs Moduli (GPa) = 69.27592 69.56247 67.67386
#
# Poissons Ratio (x) = 0.30323 0.13985
# Poissons Ratio (y) = 0.30198 0.36127
# Poissons Ratio (z) = 0.14316 0.37135
#
# Static dielectric constant tensor:
#      x y z
#    x 3.798430 0.000000 0.075100 
#    y 0.000000 3.737940 0.000000 
#    z 0.075100 0.000000 3.927880 
# 
# 
# High freq. dielectric constant tensor:
#      x y z
#    x 1.803380 0.000000 0.010450 
#    y 0.000000 1.809080 0.000000 
#    z 0.010450 0.000000 1.811080 
# 
# From -- ./inp_files/205635.got.cif
#   From: 2010.06.25/outbox.cif.g09.slc.cpg/sg15_103_cif.got.tgz:205635.got - 2010.06.28 07:06:18.
