data_PCOD8151103
_publ_section_title
;
Structure prediction by ZEFSAII (Michael W. Deem and Ramdas Pophale) SiO2 
 PCOD8151103
Probable space group: C 2/C
;
_chemical_formula_sum "Si O2"
_cell_formula_units_Z 60
_cell_length_a 25.521076
_cell_length_b 20.401170
_cell_length_c 14.119157
_cell_angle_alpha 90.000000
_cell_angle_beta 155.561075
_cell_angle_gamma 90.000000
_cell_volume 3041.392808
_symmetry_space_group_name_H-M "C 2/C"
_symmetry_group_IT_number 15
_symmetry_cell_setting 'monoclinic'
loop_
_space_group_symop_operation_xyz
x,y,z
-x,y,1/2-z
-x,-y,-z
x,-y,1/2+z
1/2+x,1/2+y,z
1/2-x,1/2+y,1/2-z
1/2-x,1/2-y,-z
1/2+x,1/2-y,1/2+z
loop_
_atom_site_type_symbol
_atom_site_label
_atom_site_fract_x
_atom_site_fract_y
_atom_site_fract_z
Si Si1 0.618102 0.909463 0.876811
Si Si2 0.881346 0.092001 0.290882
Si Si3 0.500000 0.699235 0.250000
Si Si4 0.105839 0.238189 0.240264
Si Si5 0.279241 0.607628 0.808183
Si Si6 0.030894 0.001015 0.904751
Si Si7 0.042083 0.369616 0.046331
Si Si8 0.901843 0.560303 0.672963
O O1 0.500000 0.902442 0.750000
O O2 0.588304 0.874430 0.728021
O O3 0.640993 0.985262 0.889803
O O4 0.734142 0.875036 0.125591
O O5 0.928368 0.166226 0.355047
O O6 0.922632 0.049146 0.266442
O O7 0.953090 0.062841 0.499951
O O8 0.730746 0.098278 0.057642
O O9 0.534974 0.747650 0.223114
O O10 0.618688 0.655602 0.478201
O O11 0.250000 0.250000 0.500000
O O12 0.057505 0.292391 0.088246
O O13 0.160770 0.601971 0.683328
O O14 0.335834 0.535510 0.887346
O O15 0.000000 0.028518 0.750000
O O16 0.029356 0.413033 0.119682
O O17 0.000000 0.573477 0.750000
#
# Coordination Sequence:
#
# PCOD8151103 Si02
#       8
#     8   8   4   8   8   8   8   8
#     4   9  21  38  59  87 121 162 199 249 305 365
#     4  11  23  39  61  94 122 154 208 257 305 358
#     4  12  22  38  66  90 114 160 210 250 302 354
#     4  12  23  39  62  89 123 161 205 251 295 367
#     4  11  19  39  65  90 115 156 210 249 301 364
#     4  11  21  39  66  90 119 158 202 262 310 358
#     4  11  23  39  61  88 125 165 206 243 305 368
#     4  11  21  37  57  90 125 156 200 258 305 357
#
# _framework density 19.727803000000002
#
# number of rings (size 3 to 8) (size 9 to 14) (size 15 to 20)
#    0.000    1.067    6.000    1.200    0.933    0.000 
#    2.400    2.667    0.000    0.000    0.000    0.000 
#    0.000    0.000    0.000    0.000    0.000    0.000 
#
# Total GULP energy -371860.573874 kJ/mol
# GULP energy per Si atom -12395.352462 kJ/mol
# Density = 1.968290 g / cm^3
# Si number density = 19.727803 Si / 1000 Ang^3
#
#
#
# Elastic Constant Matrix: (Units=GPa)
#
#
# Indices 1 2 3 4 5 6 
#
# 1 127.0891 44.0088 44.2735 0.0000 -8.9494 0.0000
# 2 44.0088 64.6997 21.5633 0.0000 -11.9662 0.0000
# 3 44.2735 21.5633 93.0344 0.0000 -23.3723 0.0000
# 4 0.0000 0.0000 0.0000 22.6304 0.0000 -5.0194
# 5 -8.9494 -11.9662 -23.3723 0.0000 37.6361 0.0000
# 6 0.0000 0.0000 0.0000 -5.0194 0.0000 28.7623
#
#
#
# Elastic Compliance Matrix: (Units=1/GPa)
#
#
# Indices 1 2 3 4 5 6 
#
# 1 0.011651 -0.006828 -0.004516 0.000000 -0.002205 0.000000
# 2 -0.006828 0.021139 -0.000438 0.000000 0.004825 0.000000
# 3 -0.004516 -0.000438 0.015041 0.000000 0.008128 0.000000
# 4 0.000000 0.000000 0.000000 0.045968 0.000000 0.008022
# 5 -0.002205 0.004825 0.008128 0.000000 0.032627 0.000000
# 6 0.000000 0.000000 0.000000 0.008022 0.000000 0.036168
#
#
# Mechanical properties :
#
#
# Convention : Reuss Voigt Hill
#
# Bulk Modulus (GPa) = 41.20742 56.05716 48.63229
# Shear Modulus (GPa) = 25.74071 29.47094 27.60582
#
# Velocity S-wave (km/s) = 3.61611 3.86927 3.74483
# Velocity P-wave (km/s) = 6.19422 6.95979 6.58813
#
# Compressibility (1/GPa) = 0.02426747
#
# Stress axis : x y z
#
# Youngs Moduli (GPa) = 85.83226 47.30685 66.48484
#
# Poissons Ratio (x) = 0.32299 0.30023
# Poissons Ratio (y) = 0.58602 0.02913
# Poissons Ratio (z) = 0.38760 0.02073
#
# Static dielectric constant tensor:
#      x y z
#    x 3.906980 0.000000 -0.181390 
#    y 0.000000 3.346360 0.000000 
#    z -0.181390 0.000000 3.908110 
# 
# 
# High freq. dielectric constant tensor:
#      x y z
#    x 1.779630 0.000000 -0.004660 
#    y 0.000000 1.746920 0.000000 
#    z -0.004660 0.000000 1.770020 
# 
# From -- ./inp_files/179131.got.cif
#   From: 2010.06.25/outbox.cif.g09.slc.cpg/sg15_90_cif.got.tgz:179131.got - 2010.06.28 07:06:18.
