data_PCOD8151693
_publ_section_title
;
Structure prediction by ZEFSAII (Michael W. Deem and Ramdas Pophale) SiO2 
 PCOD8151693
Probable space group: C 2/C
;
_chemical_formula_sum "Si O2"
_cell_formula_units_Z 56
_cell_length_a 9.094035
_cell_length_b 12.959243
_cell_length_c 20.252633
_cell_angle_alpha 90.000000
_cell_angle_beta 89.181388
_cell_angle_gamma 90.000000
_cell_volume 2386.565837
_symmetry_space_group_name_H-M "C 2/C"
_symmetry_group_IT_number 15
_symmetry_cell_setting 'monoclinic'
loop_
_space_group_symop_operation_xyz
x,y,z
-x,y,1/2-z
-x,-y,-z
x,-y,1/2+z
1/2+x,1/2+y,z
1/2-x,1/2+y,1/2-z
1/2-x,1/2-y,-z
1/2+x,1/2-y,1/2+z
loop_
_atom_site_type_symbol
_atom_site_label
_atom_site_fract_x
_atom_site_fract_y
_atom_site_fract_z
Si Si1 0.770498 0.553047 0.542921
Si Si2 0.547164 0.861444 0.971576
Si Si3 0.754742 0.641059 0.683700
Si Si4 0.844209 0.368287 0.850305
Si Si5 0.500000 0.979676 0.250000
Si Si6 0.000000 0.960438 0.250000
Si Si7 0.933747 0.976197 0.608830
Si Si8 0.967417 0.133287 0.506948
O O1 0.929884 0.600164 0.526192
O O2 0.718826 0.578240 0.617572
O O3 0.644983 0.609639 0.500619
O O4 0.802657 0.429561 0.528782
O O5 0.483117 0.850060 0.897615
O O6 0.587188 0.748864 0.998246
O O7 0.732708 0.763391 0.675167
O O8 0.915176 0.601196 0.703647
O O9 0.642057 0.611286 0.742265
O O10 0.890980 0.444291 0.790570
O O11 0.722571 0.421112 0.896198
O O12 0.982729 0.029043 0.184632
O O13 0.068868 0.927618 0.562382
O O14 0.903815 0.088486 0.576200
#
# Coordination Sequence:
#
# PCOD8151693 Si02
#       8
#     8   8   8   8   4   4   8   8
#     4  11  21  38  70  99 127 169 230 284 340 413
#     4  11  22  39  71  99 127 175 229 278 352 418
#     4  12  25  44  72  99 136 185 235 288 350 420
#     4  12  23  43  69  97 135 183 230 287 351 412
#     4  12  27  47  66 104 144 182 245 291 344 432
#     4  12  23  45  68  94 136 188 223 281 352 416
#     4  11  24  40  68  95 137 177 227 283 349 419
#     4  11  22  43  66  99 135 176 222 290 348 410
#
# _framework density 23.464677999999999
#
# number of rings (size 3 to 8) (size 9 to 14) (size 15 to 20)
#    0.000    0.571    7.143    1.714    0.000    0.571 
#    0.000    4.286    0.000    0.000    0.000    0.000 
#    0.000    0.000    0.000    0.000    0.000    0.000 
#
# Total GULP energy -346926.931083 kJ/mol
# GULP energy per Si atom -12390.247539 kJ/mol
# Density = 2.341127 g / cm^3
# Si number density = 23.464678 Si / 1000 Ang^3
#
#
#
# Elastic Constant Matrix: (Units=GPa)
#
#
# Indices 1 2 3 4 5 6 
#
# 1 78.6281 34.2377 21.4704 0.0000 -17.4095 0.0000
# 2 34.2377 150.7441 30.3165 0.0000 -7.9534 0.0000
# 3 21.4704 30.3165 138.7388 0.0000 -7.2860 0.0000
# 4 0.0000 0.0000 0.0000 30.1081 0.0000 4.7691
# 5 -17.4095 -7.9534 -7.2860 0.0000 31.7820 0.0000
# 6 0.0000 0.0000 0.0000 4.7691 0.0000 32.6022
#
#
#
# Elastic Compliance Matrix: (Units=1/GPa)
#
#
# Indices 1 2 3 4 5 6 
#
# 1 0.016119 -0.002962 -0.001440 0.000000 0.007758 0.000000
# 2 -0.002962 0.007546 -0.001191 0.000000 -0.000007 0.000000
# 3 -0.001440 -0.001191 0.007727 0.000000 0.000685 0.000000
# 4 0.000000 0.000000 0.000000 0.034002 0.000000 -0.004974
# 5 0.007758 -0.000007 0.000685 0.000000 0.035869 0.000000
# 6 0.000000 0.000000 0.000000 -0.004974 0.000000 0.031400
#
#
# Mechanical properties :
#
#
# Convention : Reuss Voigt Hill
#
# Bulk Modulus (GPa) = 49.49055 60.01780 54.75417
# Shear Modulus (GPa) = 33.20425 37.70421 35.45423
#
# Velocity S-wave (km/s) = 3.76583 4.01290 3.89133
# Velocity P-wave (km/s) = 6.32818 6.86328 6.60116
#
# Compressibility (1/GPa) = 0.02020588
#
# Stress axis : x y z
#
# Youngs Moduli (GPa) = 62.03910 132.52709 129.42022
#
# Poissons Ratio (x) = 0.39256 0.18634
# Poissons Ratio (y) = 0.18377 0.15412
# Poissons Ratio (z) = 0.08932 0.15782
#
# Static dielectric constant tensor:
#      x y z
#    x 4.351340 0.000000 -0.083740 
#    y 0.000000 4.192390 0.000000 
#    z -0.083740 0.000000 4.318650 
# 
# 
# High freq. dielectric constant tensor:
#      x y z
#    x 1.948520 0.000000 -0.013090 
#    y 0.000000 1.920860 0.000000 
#    z -0.013090 0.000000 1.938530 
# 
# From -- ./inp_files/237085.got.cif
#   From: 2010.06.25/outbox.cif.g09.slc.cpg/sg15_119_cif.got.tgz:237085.got - 2010.06.28 07:06:18.
