data_PCOD8151862
_publ_section_title
;
Structure prediction by ZEFSAII (Michael W. Deem and Ramdas Pophale) SiO2 
 PCOD8151862
Probable space group: C 2/C
;
_chemical_formula_sum "Si O2"
_cell_formula_units_Z 56
_cell_length_a 17.806384
_cell_length_b 17.655004
_cell_length_c 15.292223
_cell_angle_alpha 90.000000
_cell_angle_beta 36.435231
_cell_angle_gamma 90.000000
_cell_volume 2855.206488
_symmetry_space_group_name_H-M "C 2/C"
_symmetry_group_IT_number 15
_symmetry_cell_setting 'monoclinic'
loop_
_space_group_symop_operation_xyz
x,y,z
-x,y,1/2-z
-x,-y,-z
x,-y,1/2+z
1/2+x,1/2+y,z
1/2-x,1/2+y,1/2-z
1/2-x,1/2-y,-z
1/2+x,1/2-y,1/2+z
loop_
_atom_site_type_symbol
_atom_site_label
_atom_site_fract_x
_atom_site_fract_y
_atom_site_fract_z
Si Si1 0.533928 0.546511 0.317862
Si Si2 0.693507 0.468596 0.894659
Si Si3 0.368251 0.051310 0.388738
Si Si4 0.257728 0.445799 0.315405
Si Si5 0.335493 0.718541 0.684593
Si Si6 0.611063 0.327926 0.867155
Si Si7 0.872679 0.277621 0.836132
O O1 0.500000 0.561261 0.250000
O O2 0.418908 0.529566 0.491522
O O3 0.618788 0.471650 0.246689
O O4 0.606429 0.620569 0.284744
O O5 0.760108 0.480137 0.926099
O O6 0.775325 0.498461 0.735039
O O7 0.645413 0.382553 0.918895
O O8 0.500000 0.006329 0.250000
O O9 0.349335 0.048541 0.510652
O O10 0.388426 0.135294 0.337808
O O11 0.274382 0.361397 0.265484
O O12 0.471010 0.710736 0.508159
O O13 0.222145 0.766291 0.743527
O O14 0.364449 0.766796 0.741957
O O15 0.000000 0.234611 0.750000
O O16 0.750000 0.250000 0.000000
#
# Coordination Sequence:
#
# PCOD8151862 Si02
#       7
#     8   8   8   8   8   8   8
#     4  11  21  41  71  92 115 164 229 271 300 368
#     4  11  21  42  64  92 123 164 219 265 306 380
#     4  11  24  38  55  93 129 162 203 257 324 382
#     4  11  22  37  65  90 120 169 212 260 317 369
#     4  12  22  37  59  91 130 165 202 255 322 382
#     4  11  24  39  63  95 128 167 209 262 325 380
#     4  11  22  33  52  85 126 159 192 235 307 384
#
# _framework density 19.613292000000001
#
# number of rings (size 3 to 8) (size 9 to 14) (size 15 to 20)
#    0.000    0.857    7.143    1.714    2.000    1.143 
#    0.000    2.143    0.000    0.000    0.000    0.000 
#    0.000    0.000    0.000    0.000    0.000    0.000 
#
# Total GULP energy -346873.455139 kJ/mol
# GULP energy per Si atom -12388.337684 kJ/mol
# Density = 1.956865 g / cm^3
# Si number density = 19.613292 Si / 1000 Ang^3
#
#
#
# Elastic Constant Matrix: (Units=GPa)
#
#
# Indices 1 2 3 4 5 6 
#
# 1 69.8143 41.8567 5.9839 0.0001 -10.0684 0.0000
# 2 41.8567 88.9053 46.2524 0.0001 -4.5633 0.0000
# 3 5.9839 46.2524 44.3886 0.0001 -17.7845 0.0000
# 4 0.0001 0.0001 0.0001 28.0514 -0.0001 -6.4003
# 5 -10.0684 -4.5633 -17.7845 -0.0001 35.8593 0.0000
# 6 0.0000 0.0000 0.0000 -6.4003 0.0000 24.5032
#
#
#
# Elastic Compliance Matrix: (Units=1/GPa)
#
#
# Indices 1 2 3 4 5 6 
#
# 1 0.046926 -0.054437 0.066019 0.000000 0.038990 0.000000
# 2 -0.054437 0.092632 -0.113047 0.000000 -0.059562 0.000000
# 3 0.066019 -0.113047 0.166087 -0.000001 0.086522 0.000000
# 4 0.000000 0.000000 -0.000001 0.037908 0.000000 0.009902
# 5 0.038990 -0.059562 0.086522 0.000000 0.074165 0.000000
# 6 0.000000 0.000000 0.000000 0.009902 0.000000 0.043397
#
#
# Mechanical properties :
#
#
# Convention : Reuss Voigt Hill
#
# Bulk Modulus (GPa) = 9.73575 43.47714 26.60644
# Shear Modulus (GPa) = 7.16042 24.95046 16.05544
#
# Velocity S-wave (km/s) = 1.91278 3.57055 2.86422
# Velocity P-wave (km/s) = 3.13894 6.26209 4.95311
#
# Compressibility (1/GPa) = 0.10271424
#
# Stress axis : x y z
#
# Youngs Moduli (GPa) = 21.31029 10.79545 6.02094
#
# Poissons Ratio (x) = 0.58767 -0.39749
# Poissons Ratio (y) = 1.16007 0.68065
# Poissons Ratio (z) = -1.40688 1.22039
#
# Static dielectric constant tensor:
#      x y z
#    x 5.198110 0.000000 -0.960800 
#    y 0.000000 3.423550 0.000000 
#    z -0.960800 0.000000 3.971360 
# 
# 
# High freq. dielectric constant tensor:
#      x y z
#    x 1.763000 0.000000 -0.007750 
#    y 0.000000 1.749140 0.000000 
#    z -0.007750 0.000000 1.764190 
# 
# From -- ./inp_files/163053.got.cif
#   From: 2010.06.25/outbox.cif.g09.slc.cpg/sg15_82_cif.got.tgz:163053.got - 2010.06.28 07:06:18.
