data_PCOD8151193
_publ_section_title
;
Structure prediction by ZEFSAII (Michael W. Deem and Ramdas Pophale) SiO2 
 PCOD8151193
Probable space group: C 2/C
;
_chemical_formula_sum "Si O2"
_cell_formula_units_Z 56
_cell_length_a 12.109698
_cell_length_b 19.273183
_cell_length_c 12.970433
_cell_angle_alpha 90.000000
_cell_angle_beta 74.869058
_cell_angle_gamma 90.000000
_cell_volume 2922.253238
_symmetry_space_group_name_H-M "C 2/C"
_symmetry_group_IT_number 15
_symmetry_cell_setting 'monoclinic'
loop_
_space_group_symop_operation_xyz
x,y,z
-x,y,1/2-z
-x,-y,-z
x,-y,1/2+z
1/2+x,1/2+y,z
1/2-x,1/2+y,1/2-z
1/2-x,1/2-y,-z
1/2+x,1/2-y,1/2+z
loop_
_atom_site_type_symbol
_atom_site_label
_atom_site_fract_x
_atom_site_fract_y
_atom_site_fract_z
Si Si1 0.376866 0.943484 0.334987
Si Si2 0.757993 0.315076 0.293622
Si Si3 0.088083 0.801842 0.644605
Si Si4 0.545757 0.740634 0.940681
Si Si5 0.318712 0.763160 0.881790
Si Si6 0.317086 0.879911 0.567564
Si Si7 0.366674 0.908144 0.776620
O O1 0.500000 0.941634 0.250000
O O2 0.299092 0.894340 0.282843
O O3 0.369345 0.918822 0.455833
O O4 0.332128 0.022683 0.347810
O O5 0.853007 0.268214 0.327911
O O6 0.639222 0.315196 0.383371
O O7 0.736033 0.290508 0.183851
O O8 0.009134 0.781390 0.565169
O O9 0.184315 0.857514 0.587174
O O10 0.000000 0.833156 0.750000
O O11 0.448434 0.743631 0.878120
O O12 0.604389 0.814769 0.927737
O O13 0.303606 0.841089 0.840845
O O14 0.250000 0.750000 0.000000
O O15 0.327472 0.925099 0.668941
O O16 0.500000 0.892594 0.750000
#
# Coordination Sequence:
#
# PCOD8151193 Si02
#       7
#     8   8   8   8   8   8   8
#     4  11  25  38  64  95 126 165 210 257 317 382
#     4  11  20  38  58  92 121 160 208 260 307 371
#     4  11  20  34  64  92 119 157 213 254 305 366
#     4  11  20  36  62  89 121 160 202 259 315 359
#     4  12  24  36  62  95 127 161 212 263 312 372
#     4  11  21  40  61  86 127 163 203 260 308 371
#     4  11  23  42  61  89 132 168 199 256 331 375
#
# _framework density 19.163295000000002
#
# number of rings (size 3 to 8) (size 9 to 14) (size 15 to 20)
#    0.000    0.857    7.143    2.571    2.000    3.429 
#    0.000    0.000    0.000    5.143    0.000    0.000 
#    0.000    0.000    0.000    0.000    0.000    0.000 
#
# Total GULP energy -347055.769996 kJ/mol
# GULP energy per Si atom -12394.848928 kJ/mol
# Density = 1.911968 g / cm^3
# Si number density = 19.163295 Si / 1000 Ang^3
#
#
#
# Elastic Constant Matrix: (Units=GPa)
#
#
# Indices 1 2 3 4 5 6 
#
# 1 61.7154 37.1319 39.0109 0.0000 11.7010 0.0000
# 2 37.1319 92.2695 44.2200 0.0000 2.6903 0.0000
# 3 39.0109 44.2200 131.5486 0.0000 4.3306 0.0000
# 4 0.0000 0.0000 0.0000 21.7731 0.0000 1.0975
# 5 11.7010 2.6903 4.3306 0.0000 37.9794 0.0000
# 6 0.0000 0.0000 0.0000 1.0975 0.0000 14.1550
#
#
#
# Elastic Compliance Matrix: (Units=1/GPa)
#
#
# Indices 1 2 3 4 5 6 
#
# 1 0.024980 -0.007646 -0.004620 0.000000 -0.006628 0.000000
# 2 -0.007646 0.015266 -0.002917 0.000000 0.001607 0.000000
# 3 -0.004620 -0.002917 0.009936 0.000000 0.000497 0.000000
# 4 0.000000 0.000000 0.000000 0.046108 0.000000 -0.003575
# 5 -0.006628 0.001607 0.000497 0.000000 0.028201 0.000000
# 6 0.000000 0.000000 0.000000 -0.003575 0.000000 0.070924
#
#
# Mechanical properties :
#
#
# Convention : Reuss Voigt Hill
#
# Bulk Modulus (GPa) = 50.46130 58.47321 54.46726
# Shear Modulus (GPa) = 21.51593 25.79289 23.65441
#
# Velocity S-wave (km/s) = 3.35441 3.67270 3.51716
# Velocity P-wave (km/s) = 6.43367 6.96881 6.70658
#
# Compressibility (1/GPa) = 0.01981717
#
# Stress axis : x y z
#
# Youngs Moduli (GPa) = 40.03176 65.50582 100.64435
#
# Poissons Ratio (x) = 0.50083 0.46494
# Poissons Ratio (y) = 0.30606 0.29360
# Poissons Ratio (z) = 0.18493 0.19109
#
# Static dielectric constant tensor:
#      x y z
#    x 3.425210 0.000000 -0.415300 
#    y 0.000000 3.452410 0.000000 
#    z -0.415300 0.000000 3.186080 
# 
# 
# High freq. dielectric constant tensor:
#      x y z
#    x 1.739810 0.000000 0.008010 
#    y 0.000000 1.716710 0.000000 
#    z 0.008010 0.000000 1.768230 
# 
# From -- ./inp_files/88880.got.cif
#   From: 2010.06.25/outbox.cif.g09.slc.cpg/sg15_45_cif.got.tgz:88880.got - 2010.06.28 07:06:18.
