data_PCOD8151607
_publ_section_title
;
Structure prediction by ZEFSAII (Michael W. Deem and Ramdas Pophale) SiO2 
 PCOD8151607
Probable space group: C 2/C
;
_chemical_formula_sum "Si O2"
_cell_formula_units_Z 64
_cell_length_a 22.606710
_cell_length_b 6.618812
_cell_length_c 21.757585
_cell_angle_alpha 90.000000
_cell_angle_beta 74.419403
_cell_angle_gamma 90.000000
_cell_volume 3135.947111
_symmetry_space_group_name_H-M "C 2/C"
_symmetry_group_IT_number 15
_symmetry_cell_setting 'monoclinic'
loop_
_space_group_symop_operation_xyz
x,y,z
-x,y,1/2-z
-x,-y,-z
x,-y,1/2+z
1/2+x,1/2+y,z
1/2-x,1/2+y,1/2-z
1/2-x,1/2-y,-z
1/2+x,1/2-y,1/2+z
loop_
_atom_site_type_symbol
_atom_site_label
_atom_site_fract_x
_atom_site_fract_y
_atom_site_fract_z
Si Si1 0.687507 0.605278 0.145504
Si Si2 0.838221 0.865588 0.232922
Si Si3 0.762750 0.272195 0.068751
Si Si4 0.273356 0.984508 0.810534
Si Si5 0.958417 0.074818 0.625617
Si Si6 0.895167 0.894586 0.526725
Si Si7 0.576759 0.669763 0.087102
Si Si8 0.974452 0.425382 0.943847
O O1 0.660999 0.438873 0.197865
O O2 0.746020 0.504248 0.092716
O O3 0.634624 0.672454 0.114824
O O4 0.704983 0.789971 0.183910
O O5 0.815376 0.631275 0.247403
O O6 0.907427 0.900447 0.191611
O O7 0.794655 0.993967 0.199553
O O8 0.723716 0.124862 0.123745
O O9 0.831086 0.200045 0.065194
O O10 0.750000 0.250000 0.000000
O O11 0.970584 0.307697 0.605059
O O12 0.936227 0.935519 0.574991
O O13 0.021670 0.969060 0.629957
O O14 0.921007 0.732454 0.472035
O O15 0.896081 0.101586 0.486988
O O16 0.551551 0.896811 0.090838
O O17 0.000000 0.500000 0.000000
#
# Coordination Sequence:
#
# PCOD8151607 Si02
#       8
#     8   8   8   8   8   8   8   8
#     4  11  26  43  66  94 136 174 219 279 332 396
#     4  11  24  45  67  93 126 171 231 272 326 390
#     4  11  24  41  66 104 133 170 213 277 346 396
#     4  11  24  44  68  96 130 174 220 276 329 393
#     4  11  23  41  68  95 128 173 220 272 321 396
#     4  11  21  39  65  97 133 163 220 267 331 399
#     4  11  23  42  62  96 139 169 211 273 335 392
#     4  11  21  37  62  99 129 171 212 263 332 399
#
# _framework density 20.408508999999999
#
# number of rings (size 3 to 8) (size 9 to 14) (size 15 to 20)
#    0.000    1.000    6.250    0.750    1.750    5.000 
#    0.000    0.000    0.000    0.000    0.000    0.000 
#    0.000    0.000    0.000    0.000    0.000    0.000 
#
# Total GULP energy -396529.024748 kJ/mol
# GULP energy per Si atom -12391.532023 kJ/mol
# Density = 2.036206 g / cm^3
# Si number density = 20.408509 Si / 1000 Ang^3
#
#
#
# Elastic Constant Matrix: (Units=GPa)
#
#
# Indices 1 2 3 4 5 6 
#
# 1 84.5909 31.1901 22.6018 0.0000 -12.4384 0.0000
# 2 31.1901 111.5697 32.9716 0.0000 -9.0428 0.0000
# 3 22.6018 32.9716 94.3055 -0.0001 -14.1912 0.0000
# 4 0.0000 0.0000 -0.0001 28.5987 0.0000 0.6404
# 5 -12.4384 -9.0428 -14.1912 0.0000 36.6652 0.0000
# 6 0.0000 0.0000 0.0000 0.6404 0.0000 32.5269
#
#
#
# Elastic Compliance Matrix: (Units=1/GPa)
#
#
# Indices 1 2 3 4 5 6 
#
# 1 0.013918 -0.003106 -0.001757 0.000000 0.003276 0.000000
# 2 -0.003106 0.010737 -0.002941 0.000000 0.000456 0.000000
# 3 -0.001757 -0.002941 0.012587 0.000000 0.003551 0.000000
# 4 0.000000 0.000000 0.000000 0.034982 0.000000 -0.000689
# 5 0.003276 0.000456 0.003551 0.000000 0.029872 0.000000
# 6 0.000000 0.000000 0.000000 -0.000689 0.000000 0.030757
#
#
# Mechanical properties :
#
#
# Convention : Reuss Voigt Hill
#
# Bulk Modulus (GPa) = 46.22157 51.55479 48.88818
# Shear Modulus (GPa) = 32.11848 33.13832 32.62840
#
# Velocity S-wave (km/s) = 3.97139 4.03395 4.00279
# Velocity P-wave (km/s) = 6.61261 6.85662 6.73572
#
# Compressibility (1/GPa) = 0.02163492
#
# Stress axis : x y z
#
# Youngs Moduli (GPa) = 71.84974 93.13166 79.44442
#
# Poissons Ratio (x) = 0.28929 0.13956
# Poissons Ratio (y) = 0.22318 0.23365
# Poissons Ratio (z) = 0.12622 0.27390
#
# Static dielectric constant tensor:
#      x y z
#    x 3.670120 0.000000 -0.086740 
#    y 0.000000 3.648200 0.000000 
#    z -0.086740 0.000000 3.768060 
# 
# 
# High freq. dielectric constant tensor:
#      x y z
#    x 1.794260 0.000000 -0.000300 
#    y 0.000000 1.806950 0.000000 
#    z -0.000300 0.000000 1.792190 
# 
# From -- ./inp_files/281180.got.cif
#   From: 2010.06.25/outbox.cif.g09.slc.cpg/sg15_141_cif.got.tgz:281180.got - 2010.06.28 07:06:18.
