data_PCOD8151634
_publ_section_title
;
Structure prediction by ZEFSAII (Michael W. Deem and Ramdas Pophale) SiO2 
 PCOD8151634
Probable space group: C 2/C
;
_chemical_formula_sum "Si O2"
_cell_formula_units_Z 60
_cell_length_a 21.095956
_cell_length_b 11.952306
_cell_length_c 18.626907
_cell_angle_alpha 90.000000
_cell_angle_beta 140.608465
_cell_angle_gamma 90.000000
_cell_volume 2980.594607
_symmetry_space_group_name_H-M "C 2/C"
_symmetry_group_IT_number 15
_symmetry_cell_setting 'monoclinic'
loop_
_space_group_symop_operation_xyz
x,y,z
-x,y,1/2-z
-x,-y,-z
x,-y,1/2+z
1/2+x,1/2+y,z
1/2-x,1/2+y,1/2-z
1/2-x,1/2-y,-z
1/2+x,1/2-y,1/2+z
loop_
_atom_site_type_symbol
_atom_site_label
_atom_site_fract_x
_atom_site_fract_y
_atom_site_fract_z
Si Si1 0.271474 0.320172 0.448051
Si Si2 0.000000 0.328043 0.750000
Si Si3 0.806224 0.853949 0.727548
Si Si4 0.264239 0.586758 0.635236
Si Si5 0.511788 0.640737 0.647646
Si Si6 0.984617 0.895438 0.656334
Si Si7 0.287137 0.932882 0.572989
Si Si8 0.667826 0.697720 0.089679
O O1 0.250000 0.250000 0.500000
O O2 0.232281 0.258366 0.343293
O O3 0.389245 0.335464 0.539331
O O4 0.218101 0.439000 0.407798
O O5 0.016295 0.249457 0.832136
O O6 0.096036 0.406228 0.827389
O O7 0.790005 0.845328 0.798091
O O8 0.922858 0.867479 0.813104
O O9 0.743995 0.960632 0.644322
O O10 0.369964 0.629857 0.760025
O O11 0.266272 0.586932 0.550543
O O12 0.179362 0.667623 0.593269
O O13 0.467401 0.529014 0.645708
O O14 0.448747 0.660920 0.518936
O O15 0.000000 0.849026 0.750000
O O16 0.233433 0.853590 0.582999
#
# Coordination Sequence:
#
# PCOD8151634 Si02
#       8
#     8   4   8   8   8   8   8   8
#     4  12  23  44  70  92 133 176 222 275 325 393
#     4  12  22  38  68 104 132 166 220 284 324 390
#     4  11  28  43  65 101 134 177 219 274 336 395
#     4  11  23  44  71  96 131 173 231 270 321 403
#     4  11  21  37  69  98 128 167 221 278 323 381
#     4  11  21  40  70  96 123 172 232 275 315 391
#     4  12  24  42  68 102 127 177 220 272 330 395
#     4  12  25  41  66 100 137 167 216 279 345 383
#
# _framework density 20.130210999999999
#
# number of rings (size 3 to 8) (size 9 to 14) (size 15 to 20)
#    0.000    0.533    7.333    2.000    1.867    4.267 
#    0.000    0.000    0.000    3.200    0.000    0.000 
#    0.000    0.000    0.000    0.000    0.000    0.000 
#
# Total GULP energy -372076.272174 kJ/mol
# GULP energy per Si atom -12402.542406 kJ/mol
# Density = 2.008439 g / cm^3
# Si number density = 20.130211 Si / 1000 Ang^3
#
#
#
# Elastic Constant Matrix: (Units=GPa)
#
#
# Indices 1 2 3 4 5 6 
#
# 1 57.0561 32.4330 41.9293 0.0000 -9.5013 0.0000
# 2 32.4330 125.1870 52.8776 0.0000 5.1929 0.0000
# 3 41.9293 52.8776 132.9602 0.0000 -1.7005 0.0000
# 4 0.0000 0.0000 0.0000 32.0775 0.0000 4.4497
# 5 -9.5013 5.1929 -1.7005 0.0000 44.8616 0.0000
# 6 0.0000 0.0000 0.0000 4.4497 0.0000 23.5721
#
#
#
# Elastic Compliance Matrix: (Units=1/GPa)
#
#
# Indices 1 2 3 4 5 6 
#
# 1 0.025466 -0.004170 -0.006300 0.000000 0.005637 0.000000
# 2 -0.004170 0.010355 -0.002831 0.000000 -0.002189 0.000000
# 3 -0.006300 -0.002831 0.010626 0.000000 -0.000604 0.000000
# 4 0.000000 0.000000 0.000000 0.032013 0.000000 -0.006043
# 5 0.005637 -0.002189 -0.000604 0.000000 0.023715 0.000000
# 6 0.000000 0.000000 0.000000 -0.006043 0.000000 0.043564
#
#
# Mechanical properties :
#
#
# Convention : Reuss Voigt Hill
#
# Bulk Modulus (GPa) = 50.39331 63.29813 56.84572
# Shear Modulus (GPa) = 27.93983 32.63315 30.28649
#
# Velocity S-wave (km/s) = 3.72957 4.03066 3.88303
# Velocity P-wave (km/s) = 6.60562 7.29207 6.95732
#
# Compressibility (1/GPa) = 0.01984390
#
# Stress axis : x y z
#
# Youngs Moduli (GPa) = 39.26850 96.57083 94.10924
#
# Poissons Ratio (x) = 0.40273 0.59289
# Poissons Ratio (y) = 0.16376 0.26643
# Poissons Ratio (z) = 0.24739 0.27340
#
# Static dielectric constant tensor:
#      x y z
#    x 3.417940 0.000000 0.097200 
#    y 0.000000 3.981500 0.000000 
#    z 0.097200 0.000000 3.842450 
# 
# 
# High freq. dielectric constant tensor:
#      x y z
#    x 1.762790 0.000000 0.003530 
#    y 0.000000 1.795630 0.000000 
#    z 0.003530 0.000000 1.796920 
# 
# From -- ./inp_files/215217.got.cif
#   From: 2010.06.25/outbox.cif.g09.slc.cpg/sg15_108_cif.got.tgz:215217.got - 2010.06.28 07:06:18.
