data_PCOD8151239
_publ_section_title
;
Structure prediction by ZEFSAII (Michael W. Deem and Ramdas Pophale) SiO2 
 PCOD8151239
Probable space group: C 2/C
;
_chemical_formula_sum "Si O2"
_cell_formula_units_Z 52
_cell_length_a 13.059261
_cell_length_b 8.723051
_cell_length_c 27.126578
_cell_angle_alpha 90.000000
_cell_angle_beta 53.496189
_cell_angle_gamma 90.000000
_cell_volume 2483.930102
_symmetry_space_group_name_H-M "C 2/C"
_symmetry_group_IT_number 15
_symmetry_cell_setting 'monoclinic'
loop_
_space_group_symop_operation_xyz
x,y,z
-x,y,1/2-z
-x,-y,-z
x,-y,1/2+z
1/2+x,1/2+y,z
1/2-x,1/2+y,1/2-z
1/2-x,1/2-y,-z
1/2+x,1/2-y,1/2+z
loop_
_atom_site_type_symbol
_atom_site_label
_atom_site_fract_x
_atom_site_fract_y
_atom_site_fract_z
Si Si1 0.304910 0.248634 0.930369
Si Si2 0.000000 0.038316 0.750000
Si Si3 0.555943 0.400925 0.836205
Si Si4 0.498448 0.628529 0.930266
Si Si5 0.899285 0.560390 0.068456
Si Si6 0.740661 0.210965 0.845168
Si Si7 0.305015 0.554211 0.061021
O O1 0.452092 0.287592 0.888570
O O2 0.227104 0.370260 0.920127
O O3 0.302795 0.074519 0.911851
O O4 0.250000 0.250000 0.000000
O O5 0.880379 0.148242 0.793619
O O6 0.957948 0.922178 0.718324
O O7 0.524447 0.568727 0.867683
O O8 0.690060 0.323407 0.815309
O O9 0.533187 0.806685 0.919670
O O10 0.580336 0.520987 0.942072
O O11 0.354268 0.608521 0.992627
O O12 0.858055 0.428166 0.118098
O O13 0.000000 0.500000 0.000000
O O14 0.751612 0.301700 0.893536
#
# Coordination Sequence:
#
# PCOD8151239 Si02
#       7
#     8   4   8   8   8   8   8
#     4  11  20  37  65 103 139 173 212 282 354 413
#     4  12  28  52  68  94 142 186 244 288 332 410
#     4  11  24  47  70  93 135 185 230 283 348 410
#     4   9  18  35  66  97 135 172 204 278 351 400
#     4  11  20  36  66 103 139 171 220 281 352 418
#     4  11  24  47  70  95 133 182 229 287 343 419
#     4   9  18  36  63  99 135 165 214 272 346 414
#
# _framework density 20.934567000000001
#
# number of rings (size 3 to 8) (size 9 to 14) (size 15 to 20)
#    0.000    1.538    4.615    0.923    0.000    1.231 
#   11.077    2.308    0.000    0.000    0.000    0.000 
#    0.000    0.000    0.000    0.000    0.000    0.000 
#
# Total GULP energy -322283.027991 kJ/mol
# GULP energy per Si atom -12395.501077 kJ/mol
# Density = 2.088692 g / cm^3
# Si number density = 20.934567 Si / 1000 Ang^3
#
#
#
# Elastic Constant Matrix: (Units=GPa)
#
#
# Indices 1 2 3 4 5 6 
#
# 1 63.6004 42.8960 29.8430 0.0000 -2.1620 0.0000
# 2 42.8960 112.4029 55.8536 0.0000 -3.3924 0.0000
# 3 29.8430 55.8536 100.2227 0.0000 -2.0640 0.0000
# 4 0.0000 0.0000 0.0000 25.8948 0.0000 3.3069
# 5 -2.1620 -3.3924 -2.0640 0.0000 40.6287 0.0000
# 6 0.0000 0.0000 0.0000 3.3069 0.0000 34.7470
#
#
#
# Elastic Compliance Matrix: (Units=1/GPa)
#
#
# Indices 1 2 3 4 5 6 
#
# 1 0.021640 -0.006981 -0.002544 0.000000 0.000439 0.000000
# 2 -0.006981 0.014575 -0.006033 0.000000 0.000539 0.000000
# 3 -0.002544 -0.006033 0.014099 0.000000 0.000077 0.000000
# 4 0.000000 0.000000 0.000000 0.039093 0.000000 -0.003721
# 5 0.000439 0.000539 0.000077 0.000000 0.024685 0.000000
# 6 0.000000 0.000000 0.000000 -0.003721 0.000000 0.029134
#
#
# Mechanical properties :
#
#
# Convention : Reuss Voigt Hill
#
# Bulk Modulus (GPa) = 52.08820 59.26791 55.67806
# Shear Modulus (GPa) = 27.66394 30.09633 28.88013
#
# Velocity S-wave (km/s) = 3.63912 3.79573 3.71825
# Velocity P-wave (km/s) = 6.52633 6.89802 6.71475
#
# Compressibility (1/GPa) = 0.01919820
#
# Stress axis : x y z
#
# Youngs Moduli (GPa) = 46.20988 68.61261 70.92782
#
# Poissons Ratio (x) = 0.47899 0.18046
# Poissons Ratio (y) = 0.32259 0.42787
# Poissons Ratio (z) = 0.11757 0.41391
#
# Static dielectric constant tensor:
#      x y z
#    x 3.679330 0.000000 0.139050 
#    y 0.000000 3.722150 0.000000 
#    z 0.139050 0.000000 3.687490 
# 
# 
# High freq. dielectric constant tensor:
#      x y z
#    x 1.812440 0.000000 -0.000670 
#    y 0.000000 1.833020 0.000000 
#    z -0.000670 0.000000 1.801310 
# 
# From -- ./inp_files/295041.got.cif
#   From: 2010.06.25/outbox.cif.g09.slc.cpg/sg15_148_cif.got.tgz:295041.got - 2010.06.28 07:06:18.
