data_PCOD8151328
_publ_section_title
;
Structure prediction by ZEFSAII (Michael W. Deem and Ramdas Pophale) SiO2 
 PCOD8151328
Probable space group: C 2/C
;
_chemical_formula_sum "Si O2"
_cell_formula_units_Z 40
_cell_length_a 10.479480
_cell_length_b 20.658028
_cell_length_c 16.827937
_cell_angle_alpha 90.000000
_cell_angle_beta 152.410814
_cell_angle_gamma 90.000000
_cell_volume 1687.179260
_symmetry_space_group_name_H-M "C 2/C"
_symmetry_group_IT_number 15
_symmetry_cell_setting 'monoclinic'
loop_
_space_group_symop_operation_xyz
x,y,z
-x,y,1/2-z
-x,-y,-z
x,-y,1/2+z
1/2+x,1/2+y,z
1/2-x,1/2+y,1/2-z
1/2-x,1/2-y,-z
1/2+x,1/2-y,1/2+z
loop_
_atom_site_type_symbol
_atom_site_label
_atom_site_fract_x
_atom_site_fract_y
_atom_site_fract_z
Si Si1 0.715877 0.484971 0.028294
Si Si2 0.137628 0.461693 0.646210
Si Si3 0.135660 0.898532 0.121723
Si Si4 0.200629 0.637061 0.619021
Si Si5 0.213681 0.225149 0.069075
O O1 0.620532 0.551914 0.015630
O O2 0.470556 0.463584 0.831745
O O3 0.014204 0.503917 0.156899
O O4 0.786499 0.424339 0.125409
O O5 0.031111 0.388754 0.570831
O O6 0.000000 0.500000 0.500000
O O7 0.322426 0.896243 0.305760
O O8 0.030574 0.825368 0.053116
O O9 0.500000 0.618055 0.750000
O O10 0.161515 0.714352 0.599885
O O11 0.500000 0.190572 0.250000
O O12 0.250000 0.250000 0.000000
#
# Coordination Sequence:
#
# PCOD8151328 Si02
#       5
#     8   8   8   8   8
#     4  11  26  39  65  97 135 180 213 277 332 407
#     4  12  22  44  67  98 132 174 220 272 339 403
#     4  11  23  39  56  98 136 169 220 275 339 393
#     4  11  20  39  61  95 134 171 224 286 328 394
#     4  11  21  35  62  94 132 176 227 286 337 382
#
# _framework density 23.708210000000001
#
# number of rings (size 3 to 8) (size 9 to 14) (size 15 to 20)
#    0.000    0.800    8.000    0.600    5.600    2.400 
#    0.000    0.000    0.000    1.200    5.200    0.000 
#    0.000    0.000    0.000    0.000    0.000    0.000 
#
# Total GULP energy -247786.814112 kJ/mol
# GULP energy per Si atom -12389.340706 kJ/mol
# Density = 2.365425 g / cm^3
# Si number density = 23.708210 Si / 1000 Ang^3
#
#
#
# Elastic Constant Matrix: (Units=GPa)
#
#
# Indices 1 2 3 4 5 6 
#
# 1 48.0645 26.1806 18.0786 -0.0932 -27.1616 -0.0232
# 2 26.1806 127.3812 34.9106 -0.0672 -12.9392 -0.0729
# 3 18.0786 34.9106 140.1078 -0.4562 -5.6387 -0.3189
# 4 -0.0932 -0.0672 -0.4562 44.3725 -0.0983 -15.5204
# 5 -27.1616 -12.9392 -5.6387 -0.0983 38.8528 -0.0614
# 6 -0.0232 -0.0729 -0.3189 -15.5204 -0.0614 28.3915
#
#
#
# Elastic Compliance Matrix: (Units=1/GPa)
#
#
# Indices 1 2 3 4 5 6 
#
# 1 0.038473 -0.004601 -0.002813 0.000142 0.024956 0.000120
# 2 -0.004601 0.009228 -0.001722 -0.000018 -0.000393 -0.000010
# 3 -0.002813 -0.001722 0.007874 0.000120 -0.001396 0.000144
# 4 0.000142 -0.000018 0.000120 0.027868 0.000205 0.015236
# 5 0.024956 -0.000393 -0.001396 0.000205 0.042852 0.000209
# 6 0.000120 -0.000010 0.000144 0.015236 0.000209 0.043553
#
#
# Mechanical properties :
#
#
# Convention : Reuss Voigt Hill
#
# Bulk Modulus (GPa) = 26.80717 52.65477 39.73097
# Shear Modulus (GPa) = 24.93120 38.08227 31.50673
#
# Velocity S-wave (km/s) = 3.24633 4.01220 3.64941
# Velocity P-wave (km/s) = 5.03818 6.61222 5.87812
#
# Compressibility (1/GPa) = 0.03730346
#
# Stress axis : x y z
#
# Youngs Moduli (GPa) = 25.99246 108.36602 127.00409
#
# Poissons Ratio (x) = 0.49862 0.35722
# Poissons Ratio (y) = 0.11960 0.21864
# Poissons Ratio (z) = 0.07311 0.18655
#
# Static dielectric constant tensor:
#      x y z
#    x 4.866450 -0.000020 -0.284410 
#    y -0.000020 5.114030 -0.003250 
#    z -0.284410 -0.003250 5.250540 
# 
# 
# High freq. dielectric constant tensor:
#      x y z
#    x 1.911520 -0.000010 -0.019800 
#    y -0.000010 1.942740 -0.000040 
#    z -0.019800 -0.000040 1.961240 
# 
# From -- ./inp_files/200466.got.cif
#   From: 2010.06.25/outbox.cif.g09.slc.cpg/sg15_101_cif.got.tgz:200466.got - 2010.06.28 07:06:18.
