data_PCOD8151793
_publ_section_title
;
Structure prediction by ZEFSAII (Michael W. Deem and Ramdas Pophale) SiO2 
 PCOD8151793
Probable space group: C 2/C
;
_chemical_formula_sum "Si O2"
_cell_formula_units_Z 48
_cell_length_a 14.250845
_cell_length_b 12.028968
_cell_length_c 27.492845
_cell_angle_alpha 90.000000
_cell_angle_beta 150.673066
_cell_angle_gamma 90.000000
_cell_volume 2308.344712
_symmetry_space_group_name_H-M "C 2/C"
_symmetry_group_IT_number 15
_symmetry_cell_setting 'monoclinic'
loop_
_space_group_symop_operation_xyz
x,y,z
-x,y,1/2-z
-x,-y,-z
x,-y,1/2+z
1/2+x,1/2+y,z
1/2-x,1/2+y,1/2-z
1/2-x,1/2-y,-z
1/2+x,1/2-y,1/2+z
loop_
_atom_site_type_symbol
_atom_site_label
_atom_site_fract_x
_atom_site_fract_y
_atom_site_fract_z
Si Si1 0.035519 0.096060 0.477230
Si Si2 0.879264 0.622323 0.239321
Si Si3 0.202345 0.961994 0.950397
Si Si4 0.103153 0.742761 0.847827
Si Si5 0.477983 0.634624 0.795331
Si Si6 0.090556 0.431362 0.170558
O O1 0.114335 0.039971 0.464307
O O2 0.188851 0.185856 0.566021
O O3 0.833534 0.156146 0.374926
O O4 0.000000 0.000000 0.500000
O O5 0.992398 0.732513 0.306852
O O6 0.868808 0.539233 0.279046
O O7 0.000000 0.565147 0.250000
O O8 0.124697 0.861947 0.882422
O O9 0.430537 0.955364 0.057806
O O10 0.150632 0.080030 0.903473
O O11 0.000000 0.758415 0.750000
O O12 0.968269 0.671306 0.822116
O O13 0.500000 0.596040 0.750000
O O14 0.279142 0.592444 0.726186
#
# Coordination Sequence:
#
# PCOD8151793 Si02
#       6
#     8   8   8   8   8   8
#     4  11  21  40  68 100 130 167 221 279 324 384
#     4  11  22  41  65  96 131 168 211 268 330 385
#     4  11  23  42  64  95 135 172 217 269 329 393
#     4  11  23  40  68 101 129 170 224 273 328 388
#     4  11  25  42  63  92 135 177 211 266 330 394
#     4  11  22  41  68  92 128 171 222 271 323 383
#
# _framework density 20.794121000000001
#
# number of rings (size 3 to 8) (size 9 to 14) (size 15 to 20)
#    0.000    1.000    1.667    8.000    0.000    1.333 
#    0.000    3.333    0.000    0.000    0.000    0.000 
#    0.000    0.000    0.000    0.000    0.000    0.000 
#
# Total GULP energy -297704.860388 kJ/mol
# GULP energy per Si atom -12404.369183 kJ/mol
# Density = 2.074679 g / cm^3
# Si number density = 20.794121 Si / 1000 Ang^3
#
#
#
# Elastic Constant Matrix: (Units=GPa)
#
#
# Indices 1 2 3 4 5 6 
#
# 1 104.9097 28.2195 34.8181 -0.0069 0.6182 -0.0010
# 2 28.2195 98.3636 43.3858 -0.0002 -7.8911 0.0000
# 3 34.8181 43.3858 118.5718 0.0323 -19.6225 0.0052
# 4 -0.0069 -0.0002 0.0323 -218.4473 0.0123 -42.3489
# 5 0.6182 -7.8911 -19.6225 0.0123 17.7568 0.0021
# 6 -0.0010 0.0000 0.0052 -42.3489 0.0021 22.7515
#
#
#
# Elastic Compliance Matrix: (Units=1/GPa)
#
#
# Indices 1 2 3 4 5 6 
#
# 1 0.011254 -0.002155 -0.003353 -0.000001 -0.005054 0.000000
# 2 -0.002155 0.012541 -0.003697 0.000000 0.001562 0.000000
# 3 -0.003353 -0.003697 0.012872 0.000003 0.012699 0.000001
# 4 -0.000001 0.000000 0.000003 -0.003364 0.000006 -0.006261
# 5 -0.005054 0.001562 0.012699 0.000006 0.071219 0.000001
# 6 0.000000 0.000000 0.000001 -0.006261 0.000001 0.032298
#
#
# Mechanical properties :
#
#
# Convention : Reuss Voigt Hill
#
# Bulk Modulus (GPa) = 54.77315 59.41021 57.09168
# Shear Modulus (GPa) = 30.99476 -21.22636 4.88420
#
# Velocity S-wave (km/s) = 3.86496 -3.19844 1.53425
# Velocity P-wave (km/s) = 6.80552 3.87204 5.53659
#
# Compressibility (1/GPa) = 0.01825712
#
# Stress axis : x y z
#
# Youngs Moduli (GPa) = 88.85526 79.73938 77.68515
#
# Poissons Ratio (x) = 0.17188 0.26044
# Poissons Ratio (y) = 0.19153 0.28722
# Poissons Ratio (z) = 0.29789 0.29481
#
# Static dielectric constant tensor:
#      x y z
#    x 3.962970 0.000000 0.050020 
#    y 0.000000 3.775370 0.000000 
#    z 0.050020 0.000000 4.120610 
# 
# 
# High freq. dielectric constant tensor:
#      x y z
#    x 1.824730 0.000000 0.003260 
#    y 0.000000 1.813200 0.000000 
#    z 0.003260 0.000000 1.823610 
# 
# From -- ./inp_files/177729.got.cif
#   From: 2010.06.25/outbox.cif.g09.slc.cpg/sg15_89_cif.got.tgz:177729.got - 2010.06.28 07:06:18.
