data_PCOD8151399
_publ_section_title
;
Structure prediction by ZEFSAII (Michael W. Deem and Ramdas Pophale) SiO2 
 PCOD8151399
Probable space group: C 2/C
;
_chemical_formula_sum "Si O2"
_cell_formula_units_Z 36
_cell_length_a 6.687447
_cell_length_b 17.260105
_cell_length_c 14.133708
_cell_angle_alpha 90.000000
_cell_angle_beta 103.205303
_cell_angle_gamma 90.000000
_cell_volume 1588.260099
_symmetry_space_group_name_H-M "C 2/C"
_symmetry_group_IT_number 15
_symmetry_cell_setting 'monoclinic'
loop_
_space_group_symop_operation_xyz
x,y,z
-x,y,1/2-z
-x,-y,-z
x,-y,1/2+z
1/2+x,1/2+y,z
1/2-x,1/2+y,1/2-z
1/2-x,1/2-y,-z
1/2+x,1/2-y,1/2+z
loop_
_atom_site_type_symbol
_atom_site_label
_atom_site_fract_x
_atom_site_fract_y
_atom_site_fract_z
Si Si1 0.328243 0.833923 0.478189
Si Si2 0.000000 0.984090 0.750000
Si Si3 0.763123 0.389662 0.920008
Si Si4 0.903030 0.904034 0.401652
Si Si5 0.393291 0.228945 0.644333
O O1 0.250000 0.750000 0.500000
O O2 0.491821 0.875459 0.567276
O O3 0.446090 0.825599 0.392046
O O4 0.144267 0.893578 0.446294
O O5 0.175050 0.932483 0.818978
O O6 0.122293 0.033634 0.684753
O O7 0.663938 0.304207 0.923230
O O8 0.703629 0.433605 0.011843
O O9 0.806473 0.823092 0.354724
O O10 0.500000 0.260011 0.750000
#
# Coordination Sequence:
#
# PCOD8151399 Si02
#       5
#     8   4   8   8   8
#     4  11  20  40  71  97 122 174 230 278 327 386
#     4  12  26  44  64 100 146 180 214 274 348 408
#     4  11  23  42  67  96 134 176 223 276 334 395
#     4  11  23  44  66  96 135 178 221 276 335 395
#     4  11  21  39  69  99 130 171 232 279 321 391
#
# _framework density 22.666312000000001
#
# number of rings (size 3 to 8) (size 9 to 14) (size 15 to 20)
#    0.000    0.889    5.556    3.333    0.000    0.889 
#    0.000   10.000    0.000    0.000    0.000    0.000 
#    0.000    0.000    0.000    0.000    0.000    0.000 
#
# Total GULP energy -223200.667391 kJ/mol
# GULP energy per Si atom -12400.037077 kJ/mol
# Density = 2.261472 g / cm^3
# Si number density = 22.666312 Si / 1000 Ang^3
#
#
#
# Elastic Constant Matrix: (Units=GPa)
#
#
# Indices 1 2 3 4 5 6 
#
# 1 135.1691 44.5551 52.4159 0.0000 17.7189 0.0000
# 2 44.5551 102.1137 59.0624 0.0000 4.6664 0.0000
# 3 52.4159 59.0624 128.5111 0.0000 13.0942 0.0000
# 4 0.0000 0.0000 0.0000 51.4163 0.0000 2.6305
# 5 17.7189 4.6664 13.0942 0.0000 23.3415 0.0000
# 6 0.0000 0.0000 0.0000 2.6305 0.0000 26.5534
#
#
#
# Elastic Compliance Matrix: (Units=1/GPa)
#
#
# Indices 1 2 3 4 5 6 
#
# 1 0.009919 -0.002812 -0.002168 0.000000 -0.005752 0.000000
# 2 -0.002812 0.014150 -0.005606 0.000000 0.002450 0.000000
# 3 -0.002168 -0.005606 0.011625 0.000000 -0.003755 0.000000
# 4 0.000000 0.000000 0.000000 0.019548 0.000000 -0.001937
# 5 -0.005752 0.002450 -0.003755 0.000000 0.048825 0.000000
# 6 0.000000 0.000000 0.000000 -0.001937 0.000000 0.037852
#
#
# Mechanical properties :
#
#
# Convention : Reuss Voigt Hill
#
# Bulk Modulus (GPa) = 68.85306 75.31785 72.08546
# Shear Modulus (GPa) = 29.77397 34.24629 32.01013
#
# Velocity S-wave (km/s) = 3.62826 3.89123 3.76205
# Velocity P-wave (km/s) = 6.92785 7.31369 7.12338
#
# Compressibility (1/GPa) = 0.01452368
#
# Stress axis : x y z
#
# Youngs Moduli (GPa) = 100.81199 70.66893 86.02327
#
# Poissons Ratio (x) = 0.19869 0.18647
# Poissons Ratio (y) = 0.28344 0.48228
# Poissons Ratio (z) = 0.21852 0.39619
#
# Static dielectric constant tensor:
#      x y z
#    x 4.302580 0.000000 0.307560 
#    y 0.000000 3.992070 0.000000 
#    z 0.307560 0.000000 4.095640 
# 
# 
# High freq. dielectric constant tensor:
#      x y z
#    x 1.892130 0.000000 0.016330 
#    y 0.000000 1.890610 0.000000 
#    z 0.016330 0.000000 1.895030 
# 
# From -- ./inp_files/128779.got.cif
#   From: 2010.06.25/outbox.cif.g09.slc.cpg/sg15_65_cif.got.tgz:128779.got - 2010.06.28 07:06:18.
