data_PCOD8151365
_publ_section_title
;
Structure prediction by ZEFSAII (Michael W. Deem and Ramdas Pophale) SiO2 
 PCOD8151365
Probable space group: C 2/C
;
_chemical_formula_sum "Si O2"
_cell_formula_units_Z 48
_cell_length_a 25.223388
_cell_length_b 14.132696
_cell_length_c 9.135412
_cell_angle_alpha 90.000000
_cell_angle_beta 142.584779
_cell_angle_gamma 90.000000
_cell_volume 1978.631638
_symmetry_space_group_name_H-M "C 2/C"
_symmetry_group_IT_number 15
_symmetry_cell_setting 'monoclinic'
loop_
_space_group_symop_operation_xyz
x,y,z
-x,y,1/2-z
-x,-y,-z
x,-y,1/2+z
1/2+x,1/2+y,z
1/2-x,1/2+y,1/2-z
1/2-x,1/2-y,-z
1/2+x,1/2-y,1/2+z
loop_
_atom_site_type_symbol
_atom_site_label
_atom_site_fract_x
_atom_site_fract_y
_atom_site_fract_z
Si Si1 0.395121 0.107919 0.777080
Si Si2 0.084287 0.606282 0.134059
Si Si3 0.941057 0.039864 0.500623
Si Si4 0.233184 0.375356 0.756522
Si Si5 0.326636 0.191417 0.902392
Si Si6 0.168455 0.062943 0.500271
O O1 0.308909 0.101322 0.491115
O O2 0.374749 0.187521 0.852497
O O3 0.409374 0.005825 0.883236
O O4 0.483573 0.137192 0.883537
O O5 0.153498 0.660751 0.183492
O O6 0.108748 0.633402 0.352132
O O7 0.898603 0.958272 0.512657
O O8 0.870610 0.095856 0.246058
O O9 0.000000 0.000000 0.500000
O O10 0.000000 0.099826 0.750000
O O11 0.311437 0.299511 0.917391
O O12 0.276826 0.468861 0.917749
O O13 0.230198 0.146547 0.688765
#
# Coordination Sequence:
#
# PCOD8151365 Si02
#       6
#     8   8   8   8   8   8
#     4  11  22  42  68  97 133 174 219 275 337 388
#     4  11  22  42  68  97 133 174 219 275 337 388
#     4   9  20  38  62  88 114 168 218 250 308 382
#     4  12  24  41  65 100 131 170 218 272 334 393
#     4  12  24  41  65 100 131 170 218 272 334 393
#     4  11  20  40  63  88 129 168 211 270 325 386
#
# _framework density 24.25919
#
# number of rings (size 3 to 8) (size 9 to 14) (size 15 to 20)
#    0.000    1.000    3.333    4.000    0.000    2.667 
#    0.000   16.667    0.000    0.000    0.000    0.000 
#    0.000    0.000    0.000    0.000    0.000    0.000 
#
# Total GULP energy -297382.644167 kJ/mol
# GULP energy per Si atom -12390.943507 kJ/mol
# Density = 2.420397 g / cm^3
# Si number density = 24.259190 Si / 1000 Ang^3
#
#
#
# Elastic Constant Matrix: (Units=GPa)
#
#
# Indices 1 2 3 4 5 6 
#
# 1 146.4809 9.9666 3.1500 0.0000 13.0763 0.0000
# 2 9.9666 47.1011 7.4626 0.0000 7.0565 0.0000
# 3 3.1500 7.4626 102.5268 0.0000 -1.9033 0.0000
# 4 0.0000 0.0000 0.0000 13.3218 0.0000 -0.2519
# 5 13.0763 7.0565 -1.9033 0.0000 42.4437 0.0000
# 6 0.0000 0.0000 0.0000 -0.2519 0.0000 23.9274
#
#
#
# Elastic Compliance Matrix: (Units=1/GPa)
#
#
# Indices 1 2 3 4 5 6 
#
# 1 0.007089 -0.001174 -0.000169 0.000000 -0.001996 0.000000
# 2 -0.001174 0.022251 -0.001647 0.000000 -0.003412 0.000000
# 3 -0.000169 -0.001647 0.009893 0.000000 0.000770 0.000000
# 4 0.000000 0.000000 0.000000 0.075080 0.000000 0.000790
# 5 -0.001996 -0.003412 0.000770 0.000000 0.024777 0.000000
# 6 0.000000 0.000000 0.000000 0.000790 0.000000 0.041801
#
#
# Mechanical properties :
#
#
# Convention : Reuss Voigt Hill
#
# Bulk Modulus (GPa) = 30.07312 37.47412 33.77362
# Shear Modulus (GPa) = 25.25808 34.30721 29.78264
#
# Velocity S-wave (km/s) = 3.23023 3.76466 3.50763
# Velocity P-wave (km/s) = 5.13186 5.86326 5.50971
#
# Compressibility (1/GPa) = 0.03325229
#
# Stress axis : x y z
#
# Youngs Moduli (GPa) = 141.07232 44.94103 101.08254
#
# Poissons Ratio (x) = 0.05276 0.01712
# Poissons Ratio (y) = 0.16562 0.16647
# Poissons Ratio (z) = 0.02390 0.07401
#
# Static dielectric constant tensor:
#      x y z
#    x 4.585090 0.000000 0.134330 
#    y 0.000000 3.737150 0.000000 
#    z 0.134330 0.000000 5.107250 
# 
# 
# High freq. dielectric constant tensor:
#      x y z
#    x 1.987680 0.000000 0.007970 
#    y 0.000000 1.907860 0.000000 
#    z 0.007970 0.000000 1.982510 
# 
# From -- ./inp_files/66485.got.cif
#   From: 2010.06.25/outbox.cif.g09.slc.cpg/sg15_34_cif.got.tgz:66485.got - 2010.06.28 07:06:18.
