data_PCOD8151730
_publ_section_title
;
Structure prediction by ZEFSAII (Michael W. Deem and Ramdas Pophale) SiO2 
 PCOD8151730
Probable space group: C 2/C
;
_chemical_formula_sum "Si O2"
_cell_formula_units_Z 56
_cell_length_a 9.164017
_cell_length_b 15.899551
_cell_length_c 29.187854
_cell_angle_alpha 90.000000
_cell_angle_beta 35.126931
_cell_angle_gamma 90.000000
_cell_volume 2447.005979
_symmetry_space_group_name_H-M "C 2/C"
_symmetry_group_IT_number 15
_symmetry_cell_setting 'monoclinic'
loop_
_space_group_symop_operation_xyz
x,y,z
-x,y,1/2-z
-x,-y,-z
x,-y,1/2+z
1/2+x,1/2+y,z
1/2-x,1/2+y,1/2-z
1/2-x,1/2-y,-z
1/2+x,1/2-y,1/2+z
loop_
_atom_site_type_symbol
_atom_site_label
_atom_site_fract_x
_atom_site_fract_y
_atom_site_fract_z
Si Si1 0.431149 0.517700 0.087441
Si Si2 0.290434 0.894884 0.677566
Si Si3 0.749271 0.610281 0.932898
Si Si4 0.758239 0.360042 0.788010
Si Si5 0.210311 0.711841 0.406108
Si Si6 0.245976 0.570884 0.842713
Si Si7 0.674789 0.920971 0.460786
O O1 0.230637 0.469651 0.106604
O O2 0.303079 0.557438 0.165562
O O3 0.623867 0.442269 0.051506
O O4 0.564541 0.591171 0.023370
O O5 0.375285 0.885070 0.708314
O O6 0.334694 0.810396 0.636186
O O7 0.000000 0.919032 0.750000
O O8 0.398217 0.978876 0.625124
O O9 0.648607 0.691274 0.930958
O O10 0.028763 0.633564 0.879829
O O11 0.499813 0.307782 0.847834
O O12 0.000000 0.312359 0.750000
O O13 0.999833 0.659919 0.487197
O O14 0.500000 0.584925 0.750000
O O15 0.320691 0.592174 0.875416
O O16 0.500000 0.000000 0.500000
#
# Coordination Sequence:
#
# PCOD8151730 Si02
#       7
#     8   8   8   8   8   8   8
#     4  11  23  43  67  95 128 174 225 266 327 389
#     4   9  18  37  62  87 122 166 210 254 317 383
#     4  11  25  42  64  97 134 167 215 282 324 386
#     4  11  22  39  66  96 129 170 211 265 328 391
#     4  11  23  42  66  93 130 173 218 268 332 385
#     4  11  21  39  66  95 126 173 220 264 325 398
#     4  12  20  41  68  94 125 175 226 270 316 408
#
# _framework density 22.885109
#
# number of rings (size 3 to 8) (size 9 to 14) (size 15 to 20)
#    0.000    1.143    4.286    2.571    0.000    4.571 
#    0.000   12.143    0.000    0.000    0.000    0.000 
#    0.000    0.000    0.000    0.000    0.000    0.000 
#
# Total GULP energy -346969.638026 kJ/mol
# GULP energy per Si atom -12391.772787 kJ/mol
# Density = 2.283302 g / cm^3
# Si number density = 22.885109 Si / 1000 Ang^3
#
#
#
# Elastic Constant Matrix: (Units=GPa)
#
#
# Indices 1 2 3 4 5 6 
#
# 1 114.7456 22.7379 42.7823 0.0153 26.4655 -0.0025
# 2 22.7379 93.6068 42.1066 0.0453 19.7274 0.0135
# 3 42.7823 42.1066 111.7700 0.0508 28.2852 0.0541
# 4 0.0153 0.0453 0.0508 11.1711 0.0038 8.4443
# 5 26.4655 19.7274 28.2852 0.0038 44.2123 -0.0036
# 6 -0.0025 0.0135 0.0541 8.4443 -0.0036 27.1830
#
#
#
# Elastic Compliance Matrix: (Units=1/GPa)
#
#
# Indices 1 2 3 4 5 6 
#
# 1 0.010909 -0.000403 -0.002884 -0.000004 -0.004505 0.000008
# 2 -0.000403 0.013256 -0.004061 -0.000045 -0.003075 0.000015
# 3 -0.002884 -0.004061 0.012749 -0.000023 -0.004618 -0.000017
# 4 -0.000004 -0.000045 -0.000023 0.116988 0.000025 -0.036342
# 5 -0.004505 -0.003075 -0.004618 0.000025 0.029642 0.000007
# 6 0.000008 0.000015 -0.000017 -0.036342 0.000007 0.048077
#
#
# Mechanical properties :
#
#
# Convention : Reuss Voigt Hill
#
# Bulk Modulus (GPa) = 45.00815 59.48624 52.24719
# Shear Modulus (GPa) = 19.70648 30.67965 25.19306
#
# Velocity S-wave (km/s) = 2.93764 3.66539 3.32150
# Velocity P-wave (km/s) = 5.58713 6.63048 6.13104
#
# Compressibility (1/GPa) = 0.02221820
#
# Stress axis : x y z
#
# Youngs Moduli (GPa) = 91.66622 75.43822 78.43491
#
# Poissons Ratio (x) = 0.03042 0.22617
# Poissons Ratio (y) = 0.03697 0.31854
# Poissons Ratio (z) = 0.26433 0.30637
#
# Static dielectric constant tensor:
#      x y z
#    x 4.783240 0.000270 0.306660 
#    y 0.000270 3.620500 0.000010 
#    z 0.306660 0.000010 4.095020 
# 
# 
# High freq. dielectric constant tensor:
#      x y z
#    x 1.920000 0.000000 0.006100 
#    y 0.000000 1.869350 0.000000 
#    z 0.006100 0.000000 1.905650 
# 
# From -- ./inp_files/308616.got.cif
#   From: 2010.06.25/outbox.cif.g09.slc.cpg/sg15_155_cif.got.tgz:308616.got - 2010.06.28 07:06:18.
