data_PCOD8151891
_publ_section_title
;
Structure prediction by ZEFSAII (Michael W. Deem and Ramdas Pophale) SiO2 
 PCOD8151891
Probable space group: C 2/C
;
_chemical_formula_sum "Si O2"
_cell_formula_units_Z 64
_cell_length_a 8.992440
_cell_length_b 28.122234
_cell_length_c 16.209741
_cell_angle_alpha 90.000000
_cell_angle_beta 135.758004
_cell_angle_gamma 90.000000
_cell_volume 2860.000981
_symmetry_space_group_name_H-M "C 2/C"
_symmetry_group_IT_number 15
_symmetry_cell_setting 'monoclinic'
loop_
_space_group_symop_operation_xyz
x,y,z
-x,y,1/2-z
-x,-y,-z
x,-y,1/2+z
1/2+x,1/2+y,z
1/2-x,1/2+y,1/2-z
1/2-x,1/2-y,-z
1/2+x,1/2-y,1/2+z
loop_
_atom_site_type_symbol
_atom_site_label
_atom_site_fract_x
_atom_site_fract_y
_atom_site_fract_z
Si Si1 0.071163 0.018762 0.864577
Si Si2 0.280349 0.743797 0.637134
Si Si3 0.290332 0.129128 0.623702
Si Si4 0.360996 0.063487 0.507801
Si Si5 0.621177 0.994866 0.718569
Si Si6 0.628639 0.673134 0.967956
Si Si7 0.414824 0.910995 0.558692
Si Si8 0.439195 0.229787 0.633305
O O1 0.000000 0.041957 0.750000
O O2 0.193719 0.969684 0.893403
O O3 0.205987 0.055946 0.970037
O O4 0.866121 0.004842 0.837037
O O5 0.500000 0.769433 0.750000
O O6 0.346705 0.695983 0.613138
O O7 0.134111 0.781980 0.531536
O O8 0.160037 0.729938 0.672356
O O9 0.500000 0.105927 0.750000
O O10 0.232630 0.093030 0.526626
O O11 0.374380 0.176196 0.616046
O O12 0.088928 0.142266 0.603354
O O13 0.472950 0.097942 0.485398
O O14 0.545348 0.028075 0.613175
O O15 0.500000 0.012335 0.750000
O O16 0.578631 0.938666 0.683764
O O17 0.834197 0.639061 0.063301
O O18 0.500000 0.251787 0.750000
O O19 0.250000 0.250000 0.500000
#
# Coordination Sequence:
#
# PCOD8151891 Si02
#       8
#     8   8   8   8   8   8   8   8
#     4  11  21  42  67  88 132 177 225 269 337 400
#     4  11  24  47  72  97 139 179 230 287 355 424
#     4  11  24  42  67 101 137 170 227 283 338 414
#     4  11  23  41  63  97 129 172 227 276 331 407
#     4  11  24  40  64  93 128 176 216 280 338 396
#     4  11  26  43  68 103 134 177 229 285 351 417
#     4  11  24  41  64  96 130 173 228 274 329 416
#     4  11  23  45  75 104 139 184 232 291 354 422
#
# _framework density 22.377613
#
# number of rings (size 3 to 8) (size 9 to 14) (size 15 to 20)
#    0.000    1.000    3.750    3.375    7.000    2.000 
#    0.000    0.625    0.000    0.000    0.000    0.000 
#    0.000    0.000    0.000    0.000    0.000    0.000 
#
# Total GULP energy -396509.732979 kJ/mol
# GULP energy per Si atom -12390.929156 kJ/mol
# Density = 2.232668 g / cm^3
# Si number density = 22.377613 Si / 1000 Ang^3
#
#
#
# Elastic Constant Matrix: (Units=GPa)
#
#
# Indices 1 2 3 4 5 6 
#
# 1 151.6068 26.6316 23.0129 0.0000 11.7901 0.0000
# 2 26.6316 63.0948 -2.0207 0.0000 -1.5985 0.0000
# 3 23.0129 -2.0207 71.6859 0.0000 2.6224 0.0000
# 4 0.0000 0.0000 0.0000 24.6589 0.0000 3.3414
# 5 11.7901 -1.5985 2.6224 0.0000 37.3313 0.0000
# 6 0.0000 0.0000 0.0000 3.3414 0.0000 36.3028
#
#
#
# Elastic Compliance Matrix: (Units=1/GPa)
#
#
# Indices 1 2 3 4 5 6 
#
# 1 0.007765 -0.003419 -0.002500 0.000000 -0.002423 0.000000
# 2 -0.003419 0.017385 0.001525 0.000000 0.001717 0.000000
# 3 -0.002500 0.001525 0.014802 0.000000 -0.000185 0.000000
# 4 0.000000 0.000000 0.000000 0.041066 0.000000 -0.003780
# 5 -0.002423 0.001717 -0.000185 0.000000 0.027639 0.000000
# 6 0.000000 0.000000 0.000000 -0.003780 0.000000 0.027894
#
#
# Mechanical properties :
#
#
# Convention : Reuss Voigt Hill
#
# Bulk Modulus (GPa) = 32.08991 42.40390 37.24690
# Shear Modulus (GPa) = 32.10770 35.57617 33.84193
#
# Velocity S-wave (km/s) = 3.79200 3.99157 3.89306
# Velocity P-wave (km/s) = 5.79169 6.34302 6.07361
#
# Compressibility (1/GPa) = 0.03116245
#
# Stress axis : x y z
#
# Youngs Moduli (GPa) = 128.79089 57.52242 67.55771
#
# Poissons Ratio (x) = 0.19666 0.16892
# Poissons Ratio (y) = 0.44031 -0.10301
# Poissons Ratio (z) = 0.32202 -0.08771
#
# Static dielectric constant tensor:
#      x y z
#    x 4.190440 0.000000 -0.019390 
#    y 0.000000 4.412170 0.000000 
#    z -0.019390 0.000000 2.291120 
# 
# 
# High freq. dielectric constant tensor:
#      x y z
#    x 1.900610 0.000000 0.007370 
#    y 0.000000 1.865550 0.000000 
#    z 0.007370 0.000000 1.873810 
# 
# From -- ./inp_files/194255.got.cif
#   From: 2010.06.25/outbox.cif.g09.slc.cpg/sg15_98_cif.got.tgz:194255.got - 2010.06.28 07:06:18.
