data_PCOD8151335
_publ_section_title
;
Structure prediction by ZEFSAII (Michael W. Deem and Ramdas Pophale) SiO2 
 PCOD8151335
Probable space group: C 2/C
;
_chemical_formula_sum "Si O2"
_cell_formula_units_Z 60
_cell_length_a 18.400605
_cell_length_b 17.582187
_cell_length_c 9.141025
_cell_angle_alpha 90.000000
_cell_angle_beta 79.771635
_cell_angle_gamma 90.000000
_cell_volume 2910.332282
_symmetry_space_group_name_H-M "C 2/C"
_symmetry_group_IT_number 15
_symmetry_cell_setting 'monoclinic'
loop_
_space_group_symop_operation_xyz
x,y,z
-x,y,1/2-z
-x,-y,-z
x,-y,1/2+z
1/2+x,1/2+y,z
1/2-x,1/2+y,1/2-z
1/2-x,1/2-y,-z
1/2+x,1/2-y,1/2+z
loop_
_atom_site_type_symbol
_atom_site_label
_atom_site_fract_x
_atom_site_fract_y
_atom_site_fract_z
Si Si1 0.932649 0.459237 0.676099
Si Si2 0.226111 0.064077 0.004715
Si Si3 0.607991 0.073137 0.606529
Si Si4 0.148344 0.320490 0.687672
Si Si5 0.500000 0.799961 0.250000
Si Si6 0.265817 0.287716 0.148301
Si Si7 0.373481 0.257065 0.610144
Si Si8 0.204206 0.090003 0.346350
O O1 0.872991 0.520901 0.758178
O O2 0.941656 0.470059 0.499565
O O3 0.916752 0.371560 0.721027
O O4 0.000000 0.489882 0.750000
O O5 0.313020 0.083242 0.999034
O O6 0.202731 0.127849 0.894298
O O7 0.197900 0.984613 0.949005
O O8 0.192430 0.072289 0.178593
O O9 0.565371 0.150544 0.655149
O O10 0.167553 0.253403 0.792577
O O11 0.122020 0.286246 0.544608
O O12 0.217678 0.374851 0.639030
O O13 0.544390 0.748125 0.349663
O O14 0.190362 0.284313 0.270384
O O15 0.250000 0.250000 0.000000
O O16 0.356911 0.346438 0.590985
#
# Coordination Sequence:
#
# PCOD8151335 Si02
#       8
#     8   8   8   8   4   8   8   8
#     4  12  24  37  55  84 133 167 205 241 302 390
#     4  12  22  38  64  93 124 157 211 263 322 368
#     4  12  23  38  56  92 127 167 209 244 317 379
#     4  11  23  39  58  91 130 165 206 263 311 377
#     4  12  26  40  68  86 130 182 210 266 308 394
#     4  11  20  39  63  89 124 162 205 265 317 374
#     4  11  25  42  61  93 127 167 220 253 323 376
#     4  11  24  39  64  94 126 167 204 274 316 373
#
# _framework density 20.616204
#
# number of rings (size 3 to 8) (size 9 to 14) (size 15 to 20)
#    0.000    0.533    7.333    2.800    5.600    0.000 
#    0.000    0.000    0.000    0.800    1.733    0.000 
#    0.000    0.000    0.000    0.000    0.000    0.000 
#
# Total GULP energy -371782.971525 kJ/mol
# GULP energy per Si atom -12392.765718 kJ/mol
# Density = 2.056928 g / cm^3
# Si number density = 20.616204 Si / 1000 Ang^3
#
#
#
# Elastic Constant Matrix: (Units=GPa)
#
#
# Indices 1 2 3 4 5 6 
#
# 1 44.0863 21.9429 13.4779 0.0000 17.6978 0.0000
# 2 21.9429 125.9665 28.4954 0.0000 16.1508 0.0000
# 3 13.4779 28.4954 81.3299 0.0000 23.6356 0.0000
# 4 0.0000 0.0000 0.0000 38.5931 0.0000 6.3284
# 5 17.6978 16.1508 23.6356 0.0000 26.2889 0.0000
# 6 0.0000 0.0000 0.0000 6.3284 0.0000 32.7673
#
#
#
# Elastic Compliance Matrix: (Units=1/GPa)
#
#
# Indices 1 2 3 4 5 6 
#
# 1 0.032391 -0.003342 0.002089 0.000000 -0.021631 0.000000
# 2 -0.003342 0.009210 -0.002278 0.000000 -0.001361 0.000000
# 3 0.002089 -0.002278 0.017259 0.000000 -0.015524 0.000000
# 4 0.000000 0.000000 0.000000 0.026759 0.000000 -0.005168
# 5 -0.021631 -0.001361 -0.015524 0.000000 0.067395 0.000000
# 6 0.000000 0.000000 0.000000 -0.005168 0.000000 0.031516
#
#
# Mechanical properties :
#
#
# Convention : Reuss Voigt Hill
#
# Bulk Modulus (GPa) = 19.30489 42.13503 30.71996
# Shear Modulus (GPa) = 23.93984 32.02762 27.98373
#
# Velocity S-wave (km/s) = 3.41136 3.94574 3.68824
# Velocity P-wave (km/s) = 4.99006 6.42189 5.75072
#
# Compressibility (1/GPa) = 0.05180034
#
# Stress axis : x y z
#
# Youngs Moduli (GPa) = 30.87306 108.57199 57.94083
#
# Poissons Ratio (x) = 0.36280 -0.12106
# Poissons Ratio (y) = 0.10316 0.13197
# Poissons Ratio (z) = -0.06451 0.24730
#
# Static dielectric constant tensor:
#      x y z
#    x 3.612180 0.000000 0.051250 
#    y 0.000000 4.138020 0.000000 
#    z 0.051250 0.000000 4.283370 
# 
# 
# High freq. dielectric constant tensor:
#      x y z
#    x 1.769490 0.000000 0.018400 
#    y 0.000000 1.809480 0.000000 
#    z 0.018400 0.000000 1.823310 
# 
# From -- ./inp_files/49080.got.cif
#   From: 2010.06.25/outbox.cif.g09.slc.cpg/sg15_25_cif.got.tgz:49080.got - 2010.06.28 07:06:18.
