data_PCOD8151912
_publ_section_title
;
Structure prediction by ZEFSAII (Michael W. Deem and Ramdas Pophale) SiO2 
 PCOD8151912
Probable space group: C 2/C
;
_chemical_formula_sum "Si O2"
_cell_formula_units_Z 56
_cell_length_a 8.753168
_cell_length_b 17.531604
_cell_length_c 17.590728
_cell_angle_alpha 90.000000
_cell_angle_beta 102.852163
_cell_angle_gamma 90.000000
_cell_volume 2631.793729
_symmetry_space_group_name_H-M "C 2/C"
_symmetry_group_IT_number 15
_symmetry_cell_setting 'monoclinic'
loop_
_space_group_symop_operation_xyz
x,y,z
-x,y,1/2-z
-x,-y,-z
x,-y,1/2+z
1/2+x,1/2+y,z
1/2-x,1/2+y,1/2-z
1/2-x,1/2-y,-z
1/2+x,1/2-y,1/2+z
loop_
_atom_site_type_symbol
_atom_site_label
_atom_site_fract_x
_atom_site_fract_y
_atom_site_fract_z
Si Si1 0.824272 0.783924 0.874111
Si Si2 0.915823 0.753728 0.479414
Si Si3 0.500000 0.610738 0.750000
Si Si4 0.036626 0.527730 0.838592
Si Si5 0.744405 0.889024 0.117961
Si Si6 0.234907 0.154900 0.661065
Si Si7 0.607450 0.114244 0.443164
Si Si8 0.000000 0.243477 0.250000
O O1 0.739286 0.702462 0.871878
O O2 0.699933 0.847979 0.883405
O O3 0.891701 0.804199 0.797007
O O4 0.961634 0.790056 0.950229
O O5 0.750000 0.750000 0.500000
O O6 0.897743 0.813088 0.409167
O O7 0.969783 0.669994 0.457425
O O8 0.593745 0.569753 0.831100
O O9 0.647261 0.656933 0.732281
O O10 0.205177 0.570840 0.857425
O O11 0.031074 0.461399 0.900317
O O12 0.000000 0.496457 0.750000
O O13 0.902574 0.587085 0.847025
O O14 0.719276 0.909090 0.026404
O O15 0.389648 0.206492 0.683233
#
# Coordination Sequence:
#
# PCOD8151912 Si02
#       8
#     8   8   4   8   8   8   8   4
#     4  11  21  43  62 101 134 169 221 275 328 398
#     4  11  22  40  66  99 132 168 222 275 332 395
#     4  12  20  34  69  95 120 160 242 270 298 386
#     4  12  23  47  66  94 136 180 224 270 336 410
#     4  11  21  42  69  96 126 178 228 262 325 410
#     4  12  21  39  67  96 121 180 225 269 316 406
#     4  11  26  42  68 101 138 171 213 290 340 392
#     4  12  20  38  69  91 136 176 226 262 332 404
#
# _framework density 21.278262999999999
#
# number of rings (size 3 to 8) (size 9 to 14) (size 15 to 20)
#    0.000    0.571    6.429    4.714    0.000    1.143 
#    1.286    5.000    0.000    0.000    0.000    0.000 
#    0.000    0.000    0.000    0.000    0.000    0.000 
#
# Total GULP energy -347000.538538 kJ/mol
# GULP energy per Si atom -12392.876376 kJ/mol
# Density = 2.122983 g / cm^3
# Si number density = 21.278263 Si / 1000 Ang^3
#
#
#
# Elastic Constant Matrix: (Units=GPa)
#
#
# Indices 1 2 3 4 5 6 
#
# 1 106.4876 28.2684 29.9120 0.0000 -4.7105 0.0000
# 2 28.2684 57.5707 40.5185 0.0000 10.0309 0.0000
# 3 29.9120 40.5185 139.4906 0.0000 8.2084 0.0000
# 4 0.0000 0.0000 0.0000 23.7449 0.0000 -2.7522
# 5 -4.7105 10.0309 8.2084 0.0000 45.6824 0.0000
# 6 0.0000 0.0000 0.0000 -2.7522 0.0000 17.5417
#
#
#
# Elastic Compliance Matrix: (Units=1/GPa)
#
#
# Indices 1 2 3 4 5 6 
#
# 1 0.011168 -0.005188 -0.001034 0.000000 0.002476 0.000000
# 2 -0.005188 0.024878 -0.005823 0.000000 -0.004951 0.000000
# 3 -0.001034 -0.005823 0.009109 0.000000 -0.000465 0.000000
# 4 0.000000 0.000000 0.000000 0.042894 0.000000 0.006730
# 5 0.002476 -0.004951 -0.000465 0.000000 0.023316 0.000000
# 6 0.000000 0.000000 0.000000 0.006730 0.000000 0.058063
#
#
# Mechanical properties :
#
#
# Convention : Reuss Voigt Hill
#
# Bulk Modulus (GPa) = 47.46723 55.66076 51.56399
# Shear Modulus (GPa) = 24.93288 31.05048 27.99168
#
# Velocity S-wave (km/s) = 3.42680 3.82417 3.63093
# Velocity P-wave (km/s) = 6.16551 6.76124 6.47024
#
# Compressibility (1/GPa) = 0.02106717
#
# Stress axis : x y z
#
# Youngs Moduli (GPa) = 89.54350 40.19645 109.77822
#
# Poissons Ratio (x) = 0.20852 0.11347
# Poissons Ratio (y) = 0.46451 0.63920
# Poissons Ratio (z) = 0.09256 0.23405
#
# Static dielectric constant tensor:
#      x y z
#    x 3.785200 0.000000 -0.262650 
#    y 0.000000 3.480570 0.000000 
#    z -0.262650 0.000000 4.132370 
# 
# 
# High freq. dielectric constant tensor:
#      x y z
#    x 1.849380 0.000000 -0.005820 
#    y 0.000000 1.776130 0.000000 
#    z -0.005820 0.000000 1.862980 
# 
# From -- ./inp_files/191102.got.cif
#   From: 2010.06.25/outbox.cif.g09.slc.cpg/sg15_96_cif.got.tgz:191102.got - 2010.06.28 07:06:18.
