data_PCOD8151256
_publ_section_title
;
Structure prediction by ZEFSAII (Michael W. Deem and Ramdas Pophale) SiO2 
 PCOD8151256
Probable space group: C 2/C
;
_chemical_formula_sum "Si O2"
_cell_formula_units_Z 48
_cell_length_a 18.994045
_cell_length_b 14.076521
_cell_length_c 9.763670
_cell_angle_alpha 90.000000
_cell_angle_beta 70.295808
_cell_angle_gamma 90.000000
_cell_volume 2457.656860
_symmetry_space_group_name_H-M "C 2/C"
_symmetry_group_IT_number 15
_symmetry_cell_setting 'monoclinic'
loop_
_space_group_symop_operation_xyz
x,y,z
-x,y,1/2-z
-x,-y,-z
x,-y,1/2+z
1/2+x,1/2+y,z
1/2-x,1/2+y,1/2-z
1/2-x,1/2-y,-z
1/2+x,1/2-y,1/2+z
loop_
_atom_site_type_symbol
_atom_site_label
_atom_site_fract_x
_atom_site_fract_y
_atom_site_fract_z
Si Si1 0.195799 0.203012 0.422631
Si Si2 0.787355 0.517706 0.311028
Si Si3 0.550560 0.832968 0.092794
Si Si4 0.389540 0.976278 0.992687
Si Si5 0.206581 0.688011 0.632320
Si Si6 0.040518 0.721682 0.078203
O O1 0.250000 0.250000 0.500000
O O2 0.197752 0.264782 0.285100
O O3 0.109030 0.201990 0.534058
O O4 0.221969 0.096285 0.367907
O O5 0.822098 0.509761 0.136441
O O6 0.856054 0.543794 0.364329
O O7 0.754101 0.414586 0.372874
O O8 0.500000 0.804976 0.250000
O O9 0.632486 0.821296 0.094371
O O10 0.527197 0.760052 0.985294
O O11 0.545534 0.943941 0.050810
O O12 0.425553 0.875753 0.007844
O O13 0.250000 0.750000 0.500000
O O14 0.000000 0.713978 0.250000
#
# Coordination Sequence:
#
# PCOD8151256 Si02
#       6
#     8   8   8   8   8   8
#     4  12  23  40  62  91 133 168 213 263 317 394
#     4  11  21  39  62  93 125 163 217 258 315 380
#     4  11  21  38  58  90 128 159 213 260 324 391
#     4  11  20  37  60  93 126 164 207 268 333 376
#     4  11  24  41  66  92 120 170 214 269 320 368
#     4  12  23  37  59  96 132 173 203 267 337 385
#
# _framework density 19.530797
#
# number of rings (size 3 to 8) (size 9 to 14) (size 15 to 20)
#    0.000    0.667    5.000    5.000    2.333    0.000 
#    0.000    0.000    0.000    2.000    0.000    0.000 
#    0.000    0.000    0.000    0.000    0.000    0.000 
#
# Total GULP energy -297353.985015 kJ/mol
# GULP energy per Si atom -12389.749376 kJ/mol
# Density = 1.948634 g / cm^3
# Si number density = 19.530797 Si / 1000 Ang^3
#
#
#
# Elastic Constant Matrix: (Units=GPa)
#
#
# Indices 1 2 3 4 5 6 
#
# 1 76.2571 41.1088 37.8597 0.0000 6.0118 0.0000
# 2 41.1088 97.9472 39.1064 0.0000 -8.9987 0.0000
# 3 37.8597 39.1064 130.3398 0.0000 -0.5039 0.0000
# 4 0.0000 0.0000 0.0000 54.5923 0.0000 -5.7851
# 5 6.0118 -8.9987 -0.5039 0.0000 34.9509 0.0000
# 6 0.0000 0.0000 0.0000 -5.7851 0.0000 31.6855
#
#
#
# Elastic Compliance Matrix: (Units=1/GPa)
#
#
# Indices 1 2 3 4 5 6 
#
# 1 0.019047 -0.007101 -0.003422 0.000000 -0.005154 0.000000
# 2 -0.007101 0.014556 -0.002286 0.000000 0.004936 0.000000
# 3 -0.003422 -0.002286 0.009352 0.000000 0.000135 0.000000
# 4 0.000000 0.000000 0.000000 0.018679 0.000000 0.003410
# 5 -0.005154 0.004936 0.000135 0.000000 0.030771 0.000000
# 6 0.000000 0.000000 0.000000 0.003410 0.000000 0.032183
#
#
# Mechanical properties :
#
#
# Convention : Reuss Voigt Hill
#
# Bulk Modulus (GPa) = 57.67663 60.07708 58.87686
# Shear Modulus (GPa) = 32.05439 36.67703 34.36571
#
# Velocity S-wave (km/s) = 4.05560 4.33818 4.19927
# Velocity P-wave (km/s) = 7.17814 7.47797 7.32959
#
# Compressibility (1/GPa) = 0.01733804
#
# Stress axis : x y z
#
# Youngs Moduli (GPa) = 52.50200 68.69989 106.92402
#
# Poissons Ratio (x) = 0.48786 0.36587
# Poissons Ratio (y) = 0.37284 0.24438
# Poissons Ratio (z) = 0.17965 0.15701
#
# Static dielectric constant tensor:
#      x y z
#    x 3.819850 0.000000 0.018140 
#    y 0.000000 3.624220 0.000000 
#    z 0.018140 0.000000 3.864270 
# 
# 
# High freq. dielectric constant tensor:
#      x y z
#    x 1.759970 0.000000 0.016570 
#    y 0.000000 1.732160 0.000000 
#    z 0.016570 0.000000 1.783900 
# 
# From -- ./inp_files/55254.got.cif
#   From: 2010.06.25/outbox.cif.g09.slc.cpg/sg15_28_cif.got.tgz:55254.got - 2010.06.28 07:06:18.
