data_PCOD8151070
_publ_section_title
;
Structure prediction by ZEFSAII (Michael W. Deem and Ramdas Pophale) SiO2 
 PCOD8151070
Probable space group: C 2/C
;
_chemical_formula_sum "Si O2"
_cell_formula_units_Z 56
_cell_length_a 23.031733
_cell_length_b 12.727840
_cell_length_c 9.880767
_cell_angle_alpha 90.000000
_cell_angle_beta 113.902090
_cell_angle_gamma 90.000000
_cell_volume 2648.084322
_symmetry_space_group_name_H-M "C 2/C"
_symmetry_group_IT_number 15
_symmetry_cell_setting 'monoclinic'
loop_
_space_group_symop_operation_xyz
x,y,z
-x,y,1/2-z
-x,-y,-z
x,-y,1/2+z
1/2+x,1/2+y,z
1/2-x,1/2+y,1/2-z
1/2-x,1/2-y,-z
1/2+x,1/2-y,1/2+z
loop_
_atom_site_type_symbol
_atom_site_label
_atom_site_fract_x
_atom_site_fract_y
_atom_site_fract_z
Si Si1 0.714242 0.393946 0.848881
Si Si2 0.642266 0.914637 0.427912
Si Si3 0.623888 0.306454 0.975743
Si Si4 0.543291 0.495188 0.411515
Si Si5 0.702563 0.372887 0.306781
Si Si6 0.347298 0.675777 0.464888
Si Si7 0.350233 0.895057 0.379242
O O1 0.673714 0.315440 0.900965
O O2 0.682789 0.509061 0.829961
O O3 0.710335 0.355262 0.690296
O O4 0.785482 0.390483 0.966378
O O5 0.600697 0.815107 0.442400
O O6 0.634445 0.931621 0.259279
O O7 0.621422 0.018682 0.490203
O O8 0.566240 0.386561 0.900471
O O9 0.657775 0.328858 0.148767
O O10 0.500000 0.451934 0.250000
O O11 0.500000 0.500000 0.500000
O O12 0.601436 0.416430 0.486989
O O13 0.687383 0.303534 0.424839
O O14 0.775081 0.375725 0.327660
O O15 0.381883 0.783049 0.447132
#
# Coordination Sequence:
#
# PCOD8151070 Si02
#       7
#     8   8   8   8   8   8   8
#     4  11  19  37  59  93 129 171 204 242 318 389
#     4  11  25  38  60  92 131 169 209 246 304 392
#     4  12  21  41  63  85 128 170 202 266 318 364
#     4  12  26  44  67  97 118 161 220 271 320 360
#     4  11  21  34  60  97 128 168 203 244 317 389
#     4  12  23  40  63  87 132 167 205 268 315 366
#     4  11  25  39  58  94 130 168 211 245 302 395
#
# _framework density 21.147362999999999
#
# number of rings (size 3 to 8) (size 9 to 14) (size 15 to 20)
#    0.000    0.571    5.714    3.429    8.000    0.000 
#    0.000    0.000    0.000    1.714    0.000    0.000 
#    0.000    0.000    0.000    0.000    0.000    0.000 
#
# Total GULP energy -347209.049865 kJ/mol
# GULP energy per Si atom -12400.323209 kJ/mol
# Density = 2.109923 g / cm^3
# Si number density = 21.147363 Si / 1000 Ang^3
#
#
#
# Elastic Constant Matrix: (Units=GPa)
#
#
# Indices 1 2 3 4 5 6 
#
# 1 40.6253 17.2475 17.5666 0.0000 -10.9356 0.0000
# 2 17.2475 144.7309 36.6223 0.0000 -4.4561 0.0000
# 3 17.5666 36.6223 138.9367 0.0000 -24.8756 0.0000
# 4 0.0000 0.0000 0.0000 33.0470 0.0000 -7.0292
# 5 -10.9356 -4.4561 -24.8756 0.0000 15.6268 0.0000
# 6 0.0000 0.0000 0.0000 -7.0292 0.0000 18.7321
#
#
#
# Elastic Compliance Matrix: (Units=1/GPa)
#
#
# Indices 1 2 3 4 5 6 
#
# 1 0.031746 -0.003319 0.000936 0.000000 0.022759 0.000000
# 2 -0.003319 0.007772 -0.002305 0.000000 -0.003776 0.000000
# 3 0.000936 -0.002305 0.010750 0.000000 0.017111 0.000000
# 4 0.000000 0.000000 0.000000 0.032885 0.000000 0.012340
# 5 0.022759 -0.003776 0.017111 0.000000 0.106080 0.000000
# 6 0.000000 0.000000 0.000000 0.012340 0.000000 0.058015
#
#
# Mechanical properties :
#
#
# Convention : Reuss Voigt Hill
#
# Bulk Modulus (GPa) = 24.45485 51.90731 38.18108
# Shear Modulus (GPa) = 18.50105 30.33828 24.41967
#
# Velocity S-wave (km/s) = 2.96102 3.79174 3.40183
# Velocity P-wave (km/s) = 4.82486 6.61578 5.78998
#
# Compressibility (1/GPa) = 0.04089168
#
# Stress axis : x y z
#
# Youngs Moduli (GPa) = 31.49998 128.66847 93.02105
#
# Poissons Ratio (x) = 0.42708 -0.08706
# Poissons Ratio (y) = 0.10456 0.21441
# Poissons Ratio (z) = -0.02948 0.29657
#
# Static dielectric constant tensor:
#      x y z
#    x 3.323340 0.000000 -0.190240 
#    y 0.000000 4.378660 0.000000 
#    z -0.190240 0.000000 3.992500 
# 
# 
# High freq. dielectric constant tensor:
#      x y z
#    x 1.776560 0.000000 -0.023010 
#    y 0.000000 1.845710 0.000000 
#    z -0.023010 0.000000 1.845760 
# 
# From -- ./inp_files/65404.got.cif
#   From: 2010.06.25/outbox.cif.g09.slc.cpg/sg15_33_cif.got.tgz:65404.got - 2010.06.28 07:06:18.
