data_PCOD8151134
_publ_section_title
;
Structure prediction by ZEFSAII (Michael W. Deem and Ramdas Pophale) SiO2 
 PCOD8151134
Probable space group: C 2/C
;
_chemical_formula_sum "Si O2"
_cell_formula_units_Z 36
_cell_length_a 9.910423
_cell_length_b 15.406761
_cell_length_c 10.844835
_cell_angle_alpha 90.000000
_cell_angle_beta 74.805548
_cell_angle_gamma 90.000000
_cell_volume 1597.984807
_symmetry_space_group_name_H-M "C 2/C"
_symmetry_group_IT_number 15
_symmetry_cell_setting 'monoclinic'
loop_
_space_group_symop_operation_xyz
x,y,z
-x,y,1/2-z
-x,-y,-z
x,-y,1/2+z
1/2+x,1/2+y,z
1/2-x,1/2+y,1/2-z
1/2-x,1/2-y,-z
1/2+x,1/2-y,1/2+z
loop_
_atom_site_type_symbol
_atom_site_label
_atom_site_fract_x
_atom_site_fract_y
_atom_site_fract_z
Si Si1 0.327046 0.656284 0.189419
Si Si2 0.000000 0.995609 0.750000
Si Si3 0.043873 0.314147 0.864098
Si Si4 0.567433 0.167948 0.856008
Si Si5 0.148387 0.144753 0.590366
O O1 0.380970 0.563104 0.217943
O O2 0.211436 0.692757 0.312271
O O3 0.451509 0.727624 0.155009
O O4 0.271289 0.648148 0.060742
O O5 0.933697 0.054741 0.873290
O O6 0.000000 0.368182 0.750000
O O7 0.964670 0.221716 0.873923
O O8 0.012761 0.363000 0.000660
O O9 0.500000 0.122445 0.750000
O O10 0.733521 0.150422 0.831182
#
# Coordination Sequence:
#
# PCOD8151134 Si02
#       5
#     8   4   8   8   8
#     4  11  22  41  64  99 127 165 218 268 314 384
#     4  12  24  42  62  96 130 168 208 272 326 382
#     4  11  19  41  72  90 121 178 214 261 316 375
#     4  11  22  40  68 100 126 164 226 267 303 381
#     4  11  22  43  68  91 130 174 211 257 332 383
#
# _framework density 22.528372999999998
#
# number of rings (size 3 to 8) (size 9 to 14) (size 15 to 20)
#    0.000    0.889    6.667    2.000    0.000    0.889 
#    8.000    2.222    0.000    0.000    0.000    0.000 
#    0.000    0.000    0.000    0.000    0.000    0.000 
#
# Total GULP energy -223012.534982 kJ/mol
# GULP energy per Si atom -12389.585277 kJ/mol
# Density = 2.247710 g / cm^3
# Si number density = 22.528373 Si / 1000 Ang^3
#
#
#
# Elastic Constant Matrix: (Units=GPa)
#
#
# Indices 1 2 3 4 5 6 
#
# 1 126.9354 36.9502 72.0684 0.0000 8.6870 0.0000
# 2 36.9502 63.2610 25.9771 0.0000 -8.2096 0.0000
# 3 72.0684 25.9771 179.7321 0.0000 0.4003 0.0000
# 4 0.0000 0.0000 0.0000 21.5703 0.0000 2.0602
# 5 8.6870 -8.2096 0.4003 0.0000 46.2960 0.0000
# 6 0.0000 0.0000 0.0000 2.0602 0.0000 20.4033
#
#
#
# Elastic Compliance Matrix: (Units=1/GPa)
#
#
# Indices 1 2 3 4 5 6 
#
# 1 0.012062 -0.005832 -0.003987 0.000000 -0.003263 0.000000
# 2 -0.005832 0.020052 -0.000570 0.000000 0.004655 0.000000
# 3 -0.003987 -0.000570 0.007243 0.000000 0.000584 0.000000
# 4 0.000000 0.000000 0.000000 0.046811 0.000000 -0.004727
# 5 -0.003263 0.004655 0.000584 0.000000 0.023033 0.000000
# 6 0.000000 0.000000 0.000000 -0.004727 0.000000 0.049489
#
#
# Mechanical properties :
#
#
# Convention : Reuss Voigt Hill
#
# Bulk Modulus (GPa) = 53.81910 71.10220 62.46065
# Shear Modulus (GPa) = 26.93066 33.31611 30.12338
#
# Velocity S-wave (km/s) = 3.46122 3.84976 3.66065
# Velocity P-wave (km/s) = 6.31781 7.16872 6.75667
#
# Compressibility (1/GPa) = 0.01858077
#
# Stress axis : x y z
#
# Youngs Moduli (GPa) = 82.90222 49.86996 138.05583
#
# Poissons Ratio (x) = 0.29084 0.55037
# Poissons Ratio (y) = 0.48349 0.07870
# Poissons Ratio (z) = 0.33050 0.02843
#
# Static dielectric constant tensor:
#      x y z
#    x 3.874780 0.000000 0.092690 
#    y 0.000000 3.611320 0.000000 
#    z 0.092690 0.000000 4.624940 
# 
# 
# High freq. dielectric constant tensor:
#      x y z
#    x 1.885790 0.000000 -0.000930 
#    y 0.000000 1.838830 0.000000 
#    z -0.000930 0.000000 1.907870 
# 
# From -- ./inp_files/76622.got.cif
#   From: 2010.06.25/outbox.cif.g09.slc.cpg/sg15_39_cif.got.tgz:76622.got - 2010.06.28 07:06:18.
