data_PCOD8151914
_publ_section_title
;
Structure prediction by ZEFSAII (Michael W. Deem and Ramdas Pophale) SiO2 
 PCOD8151914
Probable space group: C 2/C
;
_chemical_formula_sum "Si O2"
_cell_formula_units_Z 36
_cell_length_a 16.736332
_cell_length_b 6.803103
_cell_length_c 14.163252
_cell_angle_alpha 90.000000
_cell_angle_beta 105.316897
_cell_angle_gamma 90.000000
_cell_volume 1555.332827
_symmetry_space_group_name_H-M "C 2/C"
_symmetry_group_IT_number 15
_symmetry_cell_setting 'monoclinic'
loop_
_space_group_symop_operation_xyz
x,y,z
-x,y,1/2-z
-x,-y,-z
x,-y,1/2+z
1/2+x,1/2+y,z
1/2-x,1/2+y,1/2-z
1/2-x,1/2-y,-z
1/2+x,1/2-y,1/2+z
loop_
_atom_site_type_symbol
_atom_site_label
_atom_site_fract_x
_atom_site_fract_y
_atom_site_fract_z
Si Si1 0.000000 0.488308 0.750000
Si Si2 0.205854 0.802947 0.177548
Si Si3 0.634598 0.877417 0.162303
Si Si4 0.177603 0.887415 0.515489
Si Si5 0.587283 0.388953 0.303670
O O1 0.954417 0.621266 0.813702
O O2 0.929331 0.345093 0.682786
O O3 0.297263 0.774335 0.249022
O O4 0.165384 0.593497 0.141446
O O5 0.149610 0.918269 0.236244
O O6 0.213293 0.927351 0.083943
O O7 0.620382 0.746074 0.065182
O O8 0.250000 0.750000 0.500000
O O9 0.125270 0.975529 0.411819
O O10 0.500000 0.495223 0.250000
#
# Coordination Sequence:
#
# PCOD8151914 Si02
#       5
#     4   8   8   8   8
#     4   8  20  42  62  92 144 160 216 286 314 386
#     4  11  22  43  69  98 136 175 220 277 333 397
#     4  11  21  42  69  99 132 179 221 273 333 394
#     4  12  23  41  73  98 132 180 224 274 335 395
#     4   9  21  44  64  95 139 169 214 288 320 389
#
# _framework density 23.146173000000001
#
# number of rings (size 3 to 8) (size 9 to 14) (size 15 to 20)
#    0.667    0.889    4.444    1.333    0.000    2.667 
#    2.000    0.000    0.000    0.000    0.000    0.000 
#    0.000    0.000    0.000    0.000    0.000    0.000 
#
# Total GULP energy -223155.397637 kJ/mol
# GULP energy per Si atom -12397.522091 kJ/mol
# Density = 2.309349 g / cm^3
# Si number density = 23.146173 Si / 1000 Ang^3
#
#
#
# Elastic Constant Matrix: (Units=GPa)
#
#
# Indices 1 2 3 4 5 6 
#
# 1 89.8334 2.1048 15.1674 0.0000 -3.6421 0.0000
# 2 2.1048 61.6358 14.3756 0.0000 -9.5849 0.0000
# 3 15.1674 14.3756 131.3257 0.0000 14.7079 0.0000
# 4 0.0000 0.0000 0.0000 37.3022 0.0000 -11.2588
# 5 -3.6421 -9.5849 14.7079 0.0000 32.7821 0.0000
# 6 0.0000 0.0000 0.0000 -11.2588 0.0000 32.9212
#
#
#
# Elastic Compliance Matrix: (Units=1/GPa)
#
#
# Indices 1 2 3 4 5 6 
#
# 1 0.011478 0.000302 -0.001591 0.000000 0.002078 0.000000
# 2 0.000302 0.017853 -0.002714 0.000000 0.006471 0.000000
# 3 -0.001591 -0.002714 0.008638 0.000000 -0.004846 0.000000
# 4 0.000000 0.000000 0.000000 0.029894 0.000000 0.010224
# 5 0.002078 0.006471 -0.004846 0.000000 0.034801 0.000000
# 6 0.000000 0.000000 0.000000 0.010224 0.000000 0.033872
#
#
# Mechanical properties :
#
#
# Convention : Reuss Voigt Hill
#
# Bulk Modulus (GPa) = 33.37444 38.45449 35.91446
# Shear Modulus (GPa) = 32.35614 37.34424 34.85019
#
# Velocity S-wave (km/s) = 3.74291 4.02108 3.88449
# Velocity P-wave (km/s) = 5.75582 6.18131 5.97236
#
# Compressibility (1/GPa) = 0.02996305
#
# Stress axis : x y z
#
# Youngs Moduli (GPa) = 87.12665 56.01193 115.76412
#
# Poissons Ratio (x) = -0.01693 0.18422
# Poissons Ratio (y) = -0.02634 0.31418
# Poissons Ratio (z) = 0.13865 0.15202
#
# Static dielectric constant tensor:
#      x y z
#    x 4.176570 0.000000 -0.150360 
#    y 0.000000 3.980590 0.000000 
#    z -0.150360 0.000000 4.127480 
# 
# 
# High freq. dielectric constant tensor:
#      x y z
#    x 1.914270 0.000000 -0.015840 
#    y 0.000000 1.913820 0.000000 
#    z -0.015840 0.000000 1.895930 
# 
# From -- ./inp_files/175171.got.cif
#   From: 2010.06.25/outbox.cif.g09.slc.cpg/sg15_88_cif.got.tgz:175171.got - 2010.06.28 07:06:18.
