data_PCOD8151504
_publ_section_title
;
Structure prediction by ZEFSAII (Michael W. Deem and Ramdas Pophale) SiO2 
 PCOD8151504
Probable space group: C 2/C
;
_chemical_formula_sum "Si O2"
_cell_formula_units_Z 60
_cell_length_a 19.201580
_cell_length_b 14.054468
_cell_length_c 14.393312
_cell_angle_alpha 90.000000
_cell_angle_beta 41.983066
_cell_angle_gamma 90.000000
_cell_volume 2598.246877
_symmetry_space_group_name_H-M "C 2/C"
_symmetry_group_IT_number 15
_symmetry_cell_setting 'monoclinic'
loop_
_space_group_symop_operation_xyz
x,y,z
-x,y,1/2-z
-x,-y,-z
x,-y,1/2+z
1/2+x,1/2+y,z
1/2-x,1/2+y,1/2-z
1/2-x,1/2-y,-z
1/2+x,1/2-y,1/2+z
loop_
_atom_site_type_symbol
_atom_site_label
_atom_site_fract_x
_atom_site_fract_y
_atom_site_fract_z
Si Si1 0.441027 0.248339 0.996924
Si Si2 0.402684 0.110700 0.564307
Si Si3 0.211923 0.530929 0.195579
Si Si4 0.110926 0.496502 0.104781
Si Si5 0.770996 0.210317 0.239297
Si Si6 0.500000 0.335477 0.750000
Si Si7 0.680676 0.575015 0.163663
Si Si8 0.604313 0.556001 0.884952
O O1 0.494467 0.159119 0.995559
O O2 0.493315 0.269012 0.846333
O O3 0.321406 0.225639 0.095668
O O4 0.433603 0.335435 0.077234
O O5 0.417271 0.077729 0.443114
O O6 0.312017 0.190374 0.658288
O O7 0.377367 0.018013 0.651844
O O8 0.175696 0.538110 0.126154
O O9 0.231833 0.641517 0.196782
O O10 0.317044 0.469039 0.107713
O O11 0.000000 0.451425 0.250000
O O12 0.194890 0.419672 0.982173
O O13 0.852564 0.152570 0.223234
O O14 0.397111 0.403330 0.844683
O O15 0.659394 0.471426 0.231730
O O16 0.500000 0.500000 0.000000
#
# Coordination Sequence:
#
# PCOD8151504 Si02
#       8
#     8   8   8   8   8   4   8   8
#     4  12  24  39  71 102 144 191 239 302 377 447
#     4  12  25  49  70 105 150 195 242 306 372 440
#     4  11  25  47  72 105 146 195 250 305 365 447
#     4  12  27  46  74 108 150 200 252 299 368 454
#     4  11  23  46  71 100 145 193 239 301 373 441
#     4  12  24  42  68 118 138 182 252 318 378 438
#     4  11  24  44  72 108 146 186 248 311 377 438
#     4  11  20  45  72 102 143 193 240 307 380 436
#
# _framework density 23.092493999999999
#
# number of rings (size 3 to 8) (size 9 to 14) (size 15 to 20)
#    0.000    0.533    6.667    2.400    1.867    3.200 
#    0.000    1.333    0.000    0.000    0.000    0.000 
#    0.000    0.000    0.000    0.000    0.000    0.000 
#
# Total GULP energy -371646.739981 kJ/mol
# GULP energy per Si atom -12388.224666 kJ/mol
# Density = 2.303993 g / cm^3
# Si number density = 23.092494 Si / 1000 Ang^3
#
#
#
# Elastic Constant Matrix: (Units=GPa)
#
#
# Indices 1 2 3 4 5 6 
#
# 1 88.2308 17.9639 29.9843 0.0000 1.5385 0.0000
# 2 17.9639 93.7814 16.7030 0.0000 15.1083 0.0000
# 3 29.9843 16.7030 97.4315 0.0000 -7.2524 0.0000
# 4 0.0000 0.0000 0.0000 29.1535 0.0000 -5.5208
# 5 1.5385 15.1083 -7.2524 0.0000 43.7789 0.0000
# 6 0.0000 0.0000 0.0000 -5.5208 0.0000 28.2209
#
#
#
# Elastic Compliance Matrix: (Units=1/GPa)
#
#
# Indices 1 2 3 4 5 6 
#
# 1 0.012963 -0.001744 -0.003726 0.000000 -0.000471 0.000000
# 2 -0.001744 0.012036 -0.001854 0.000000 -0.004400 0.000000
# 3 -0.003726 -0.001854 0.011933 0.000000 0.002748 0.000000
# 4 0.000000 0.000000 0.000000 0.035621 0.000000 0.006968
# 5 -0.000471 -0.004400 0.002748 0.000000 0.024832 0.000000
# 6 0.000000 0.000000 0.000000 0.006968 0.000000 0.036798
#
#
# Mechanical properties :
#
#
# Convention : Reuss Voigt Hill
#
# Bulk Modulus (GPa) = 44.87341 45.41625 45.14483
# Shear Modulus (GPa) = 31.99834 34.55015 33.27424
#
# Velocity S-wave (km/s) = 3.72648 3.87222 3.80005
# Velocity P-wave (km/s) = 6.16359 6.30095 6.23265
#
# Compressibility (1/GPa) = 0.02228491
#
# Stress axis : x y z
#
# Youngs Moduli (GPa) = 77.14131 83.08310 83.80439
#
# Poissons Ratio (x) = 0.14487 0.31222
# Poissons Ratio (y) = 0.13451 0.15540
# Poissons Ratio (z) = 0.28739 0.15406
#
# Static dielectric constant tensor:
#      x y z
#    x 4.366710 0.000000 -0.205330 
#    y 0.000000 5.962830 0.000000 
#    z -0.205330 0.000000 4.495420 
# 
# 
# High freq. dielectric constant tensor:
#      x y z
#    x 1.921140 0.000000 -0.025590 
#    y 0.000000 1.907000 0.000000 
#    z -0.025590 0.000000 1.915920 
# 
# From -- ./inp_files/168597.got.cif
#   From: 2010.06.25/outbox.cif.g09.slc.cpg/sg15_85_cif.got.tgz:168597.got - 2010.06.28 07:06:18.
