data_PCOD8151080
_publ_section_title
;
Structure prediction by ZEFSAII (Michael W. Deem and Ramdas Pophale) SiO2 
 PCOD8151080
Probable space group: C 2/C
;
_chemical_formula_sum "Si O2"
_cell_formula_units_Z 52
_cell_length_a 6.544964
_cell_length_b 18.242216
_cell_length_c 23.539689
_cell_angle_alpha 90.000000
_cell_angle_beta 55.430244
_cell_angle_gamma 90.000000
_cell_volume 2314.277450
_symmetry_space_group_name_H-M "C 2/C"
_symmetry_group_IT_number 15
_symmetry_cell_setting 'monoclinic'
loop_
_space_group_symop_operation_xyz
x,y,z
-x,y,1/2-z
-x,-y,-z
x,-y,1/2+z
1/2+x,1/2+y,z
1/2-x,1/2+y,1/2-z
1/2-x,1/2-y,-z
1/2+x,1/2-y,1/2+z
loop_
_atom_site_type_symbol
_atom_site_label
_atom_site_fract_x
_atom_site_fract_y
_atom_site_fract_z
Si Si1 0.186209 0.046796 0.007930
Si Si2 0.851264 0.784303 0.427309
Si Si3 0.241525 0.558843 0.902689
Si Si4 0.000000 0.017460 0.750000
Si Si5 0.893312 0.835550 0.604985
Si Si6 0.916795 0.597972 0.201618
Si Si7 0.355126 0.722113 0.323065
O O1 0.110942 0.132342 0.030450
O O2 0.193684 0.011985 0.069944
O O3 0.450070 0.050613 0.933988
O O4 0.000000 0.000000 0.000000
O O5 0.750000 0.750000 0.500000
O O6 0.787985 0.869589 0.433437
O O7 0.720411 0.741557 0.396765
O O8 0.149053 0.775684 0.381349
O O9 0.411074 0.564084 0.818953
O O10 0.747933 0.975242 0.771488
O O11 0.690441 0.902199 0.629578
O O12 0.980048 0.817053 0.654976
O O13 0.755810 0.655436 0.193983
O O14 0.000000 0.625919 0.250000
O O15 0.500000 0.766750 0.250000
#
# Coordination Sequence:
#
# PCOD8151080 Si02
#       7
#     8   8   8   4   8   8   8
#     4  11  23  44  70  95 130 179 233 279 334 415
#     4  11  26  45  67  95 136 183 230 285 349 420
#     4  11  26  44  64  99 140 176 226 288 350 412
#     4  12  24  40  64  98 142 178 212 284 358 414
#     4  11  23  40  70  97 129 173 231 283 333 410
#     4  11  19  37  65  97 131 166 220 271 336 405
#     4  11  22  40  66  99 130 169 225 278 338 403
#
# _framework density 22.469218000000001
#
# number of rings (size 3 to 8) (size 9 to 14) (size 15 to 20)
#    0.000    0.923    2.308    4.615    0.000    9.846 
#    0.000    2.308    0.000    0.000    0.000    0.000 
#    0.000    0.000    0.000    0.000    0.000    0.000 
#
# Total GULP energy -322128.898609 kJ/mol
# GULP energy per Si atom -12389.573023 kJ/mol
# Density = 2.241808 g / cm^3
# Si number density = 22.469218 Si / 1000 Ang^3
#
#
#
# Elastic Constant Matrix: (Units=GPa)
#
#
# Indices 1 2 3 4 5 6 
#
# 1 121.2475 22.5254 33.9444 0.0000 -6.3900 0.0000
# 2 22.5254 71.9973 16.5672 0.0000 -11.8206 0.0000
# 3 33.9444 16.5672 138.3382 0.0000 -13.1689 0.0000
# 4 0.0000 0.0000 0.0000 31.0329 0.0000 -1.5937
# 5 -6.3900 -11.8206 -13.1689 0.0000 39.2805 0.0000
# 6 0.0000 0.0000 0.0000 -1.5937 0.0000 27.9859
#
#
#
# Elastic Compliance Matrix: (Units=1/GPa)
#
#
# Indices 1 2 3 4 5 6 
#
# 1 0.009255 -0.002423 -0.001970 0.000000 0.000116 0.000000
# 2 -0.002423 0.015504 -0.000884 0.000000 0.003975 0.000000
# 3 -0.001970 -0.000884 0.008018 0.000000 0.002102 0.000000
# 4 0.000000 0.000000 0.000000 0.032318 0.000000 0.001840
# 5 0.000116 0.003975 0.002102 0.000000 0.027378 0.000000
# 6 0.000000 0.000000 0.000000 0.001840 0.000000 0.035837
#
#
# Mechanical properties :
#
#
# Convention : Reuss Voigt Hill
#
# Bulk Modulus (GPa) = 44.99800 53.07302 49.03551
# Shear Modulus (GPa) = 34.18308 36.89625 35.53966
#
# Velocity S-wave (km/s) = 3.90465 4.05665 3.98138
# Velocity P-wave (km/s) = 6.35597 6.75378 6.55789
#
# Compressibility (1/GPa) = 0.02222321
#
# Stress axis : x y z
#
# Youngs Moduli (GPa) = 108.04536 64.50140 124.72130
#
# Poissons Ratio (x) = 0.15631 0.24567
# Poissons Ratio (y) = 0.26183 0.11021
# Poissons Ratio (z) = 0.21282 0.05700
#
# Static dielectric constant tensor:
#      x y z
#    x 4.277490 0.000000 2.529700 
#    y 0.000000 3.808140 0.000000 
#    z 2.529700 0.000000 -18.598190 
# 
# 
# High freq. dielectric constant tensor:
#      x y z
#    x 1.907960 0.000000 -0.009210 
#    y 0.000000 1.854530 0.000000 
#    z -0.009210 0.000000 1.900700 
# 
# From -- ./inp_files/261315.got.cif
#   From: 2010.06.25/outbox.cif.g09.slc.cpg/sg15_131_cif.got.tgz:261315.got - 2010.06.28 07:06:18.
