data_PCOD8151991
_publ_section_title
;
Structure prediction by ZEFSAII (Michael W. Deem and Ramdas Pophale) SiO2 
 PCOD8151991
Probable space group: C 2/C
;
_chemical_formula_sum "Si O2"
_cell_formula_units_Z 64
_cell_length_a 14.575738
_cell_length_b 11.846832
_cell_length_c 28.362018
_cell_angle_alpha 90.000000
_cell_angle_beta 41.221705
_cell_angle_gamma 90.000000
_cell_volume 3227.293658
_symmetry_space_group_name_H-M "C 2/C"
_symmetry_group_IT_number 15
_symmetry_cell_setting 'monoclinic'
loop_
_space_group_symop_operation_xyz
x,y,z
-x,y,1/2-z
-x,-y,-z
x,-y,1/2+z
1/2+x,1/2+y,z
1/2-x,1/2+y,1/2-z
1/2-x,1/2-y,-z
1/2+x,1/2-y,1/2+z
loop_
_atom_site_type_symbol
_atom_site_label
_atom_site_fract_x
_atom_site_fract_y
_atom_site_fract_z
Si Si1 0.668721 0.479144 0.834064
Si Si2 0.205283 0.245955 0.699133
Si Si3 0.353419 0.396666 0.829564
Si Si4 0.132837 0.018318 0.577324
Si Si5 0.367914 0.982425 0.911298
Si Si6 0.085541 0.245209 0.645847
Si Si7 0.149609 0.629948 0.671802
Si Si8 0.319237 0.017046 0.680102
O O1 0.714381 0.362150 0.839888
O O2 0.502488 0.484001 0.900318
O O3 0.732823 0.582137 0.838849
O O4 0.716989 0.480480 0.761416
O O5 0.146565 0.204263 0.671960
O O6 0.310979 0.152019 0.677296
O O7 0.080529 0.262584 0.784913
O O8 0.500000 0.432024 0.750000
O O9 0.349820 0.439989 0.884032
O O10 0.331796 0.263103 0.837992
O O11 0.228593 0.452423 0.848405
O O12 0.119344 0.149922 0.594887
O O13 0.266881 0.997614 0.493868
O O14 0.336688 0.079267 0.885494
O O15 0.523553 0.986063 0.870304
O O16 0.341774 0.860779 0.898068
O O17 0.000000 0.593465 0.750000
#
# Coordination Sequence:
#
# PCOD8151991 Si02
#       8
#     8   8   8   8   8   8   8   8
#     4  12  24  41  70  99 128 175 227 267 325 389
#     4  11  22  40  73  98 127 169 231 277 313 381
#     4  11  24  44  68  99 133 171 224 276 320 390
#     4  12  27  45  66  99 139 176 214 271 338 393
#     4  12  27  45  66  99 139 176 214 271 338 393
#     4  11  21  44  68  97 134 170 217 283 324 377
#     4  11  24  44  68  99 133 171 224 276 320 390
#     4  12  24  41  70  99 128 175 227 267 325 389
#
# _framework density 19.830857000000002
#
# number of rings (size 3 to 8) (size 9 to 14) (size 15 to 20)
#    0.000    0.500    7.500    0.375    5.250    1.500 
#    0.000    0.000    0.000    0.000    0.000    0.000 
#    0.000    0.000    0.000    0.000    0.000    0.000 
#
# Total GULP energy -397044.673131 kJ/mol
# GULP energy per Si atom -12407.646035 kJ/mol
# Density = 1.978572 g / cm^3
# Si number density = 19.830857 Si / 1000 Ang^3
#
#
#
# Elastic Constant Matrix: (Units=GPa)
#
#
# Indices 1 2 3 4 5 6 
#
# 1 97.2589 24.9565 18.0138 0.0000 4.8936 0.0000
# 2 24.9565 96.3026 27.1996 0.0000 5.4517 0.0000
# 3 18.0138 27.1996 95.6948 0.0000 12.4945 0.0000
# 4 0.0000 0.0000 0.0000 14.8774 0.0000 4.1247
# 5 4.8936 5.4517 12.4945 0.0000 24.4891 0.0000
# 6 0.0000 0.0000 0.0000 4.1247 0.0000 29.2349
#
#
#
# Elastic Compliance Matrix: (Units=1/GPa)
#
#
# Indices 1 2 3 4 5 6 
#
# 1 0.011207 -0.002488 -0.001267 0.000000 -0.001039 0.000000
# 2 -0.002488 0.011863 -0.002811 0.000000 -0.000710 0.000000
# 3 -0.001267 -0.002811 0.012184 0.000000 -0.005338 0.000000
# 4 0.000000 0.000000 0.000000 0.069952 0.000000 -0.009869
# 5 -0.001039 -0.000710 -0.005338 0.000000 0.043923 0.000000
# 6 0.000000 0.000000 0.000000 -0.009869 0.000000 0.035598
#
#
# Mechanical properties :
#
#
# Convention : Reuss Voigt Hill
#
# Bulk Modulus (GPa) = 45.20123 47.73288 46.46705
# Shear Modulus (GPa) = 24.36257 28.32606 26.34431
#
# Velocity S-wave (km/s) = 3.50882 3.78350 3.64875
# Velocity P-wave (km/s) = 6.26567 6.57333 6.42135
#
# Compressibility (1/GPa) = 0.02212329
#
# Stress axis : x y z
#
# Youngs Moduli (GPa) = 89.22923 84.29814 82.07346
#
# Poissons Ratio (x) = 0.20970 0.10398
# Poissons Ratio (y) = 0.22197 0.23069
# Poissons Ratio (z) = 0.11304 0.23695
#
# Static dielectric constant tensor:
#      x y z
#    x 3.686200 0.000000 -0.005430 
#    y 0.000000 3.670760 0.000000 
#    z -0.005430 0.000000 3.440570 
# 
# 
# High freq. dielectric constant tensor:
#      x y z
#    x 1.785930 0.000000 0.005310 
#    y 0.000000 1.789730 0.000000 
#    z 0.005310 0.000000 1.752260 
# 
# From -- ./inp_files/296115.got.cif
#   From: 2010.06.25/outbox.cif.g09.slc.cpg/sg15_149_cif.got.tgz:296115.got - 2010.06.28 07:06:18.
