data_PCOD8151026
_publ_section_title
;
Structure prediction by ZEFSAII (Michael W. Deem and Ramdas Pophale) SiO2 
 PCOD8151026
Probable space group: C 2/C
;
_chemical_formula_sum "Si O2"
_cell_formula_units_Z 56
_cell_length_a 25.159710
_cell_length_b 17.165124
_cell_length_c 9.043788
_cell_angle_alpha 90.000000
_cell_angle_beta 40.887523
_cell_angle_gamma 90.000000
_cell_volume 2556.602209
_symmetry_space_group_name_H-M "C 2/C"
_symmetry_group_IT_number 15
_symmetry_cell_setting 'monoclinic'
loop_
_space_group_symop_operation_xyz
x,y,z
-x,y,1/2-z
-x,-y,-z
x,-y,1/2+z
1/2+x,1/2+y,z
1/2-x,1/2+y,1/2-z
1/2-x,1/2-y,-z
1/2+x,1/2-y,1/2+z
loop_
_atom_site_type_symbol
_atom_site_label
_atom_site_fract_x
_atom_site_fract_y
_atom_site_fract_z
Si Si1 0.775989 0.125621 0.488760
Si Si2 0.587883 0.090531 0.505572
Si Si3 0.881640 0.449226 0.247975
Si Si4 0.546514 0.783099 0.440235
Si Si5 0.368004 0.758541 0.743829
Si Si6 0.688199 0.265077 0.829034
Si Si7 0.412627 0.662583 0.388728
O O1 0.707735 0.059137 0.639470
O O2 0.748803 0.201962 0.635469
O O3 0.788856 0.150516 0.289364
O O4 0.859513 0.101618 0.400156
O O5 0.632665 0.046119 0.545588
O O6 0.642814 0.161155 0.326190
O O7 0.575313 0.026682 0.402955
O O8 0.500000 0.121237 0.750000
O O9 0.939024 0.375522 0.095876
O O10 0.452109 0.766042 0.657177
O O11 0.595120 0.750344 0.477977
O O12 0.577057 0.742950 0.224428
O O13 0.366658 0.684956 0.636962
O O14 0.301858 0.740291 0.012386
O O15 0.500000 0.625403 0.250000
#
# Coordination Sequence:
#
# PCOD8151026 Si02
#       7
#     8   8   8   8   8   8   8
#     4   9  20  38  50  71 109 145 184 229 284 328
#     4  12  24  37  52  80 116 156 194 227 250 324
#     4  11  23  37  52  72 113 159 193 220 268 311
#     4   9  17  33  49  72 113 145 177 217 267 319
#     4  11  19  31  52  83 109 140 189 226 267 323
#     4   9  19  30  52  74 102 149 181 220 281 325
#     4   9  17  34  57  79 105 137 171 231 292 333
#
# _framework density 21.904074000000001
#
# number of rings (size 3 to 8) (size 9 to 14) (size 15 to 20)
#    0.000    2.000    2.857    2.143    4.000    0.571 
#    0.000    0.000    0.000    0.000    0.000    1.000 
#    0.000    0.000    0.000    0.000    0.000    0.000 
#
# Total GULP energy -346950.501647 kJ/mol
# GULP energy per Si atom -12391.089345 kJ/mol
# Density = 2.185422 g / cm^3
# Si number density = 21.904074 Si / 1000 Ang^3
#
#
#
# Elastic Constant Matrix: (Units=GPa)
#
#
# Indices 1 2 3 4 5 6 
#
# 1 87.6064 -3.0071 13.7870 0.0000 10.6920 0.0000
# 2 -3.0071 22.6508 14.7352 0.0000 1.3403 0.0000
# 3 13.7870 14.7352 107.8666 0.0000 31.3428 0.0000
# 4 0.0000 0.0000 0.0000 17.2698 0.0000 7.3390
# 5 10.6920 1.3403 31.3428 0.0000 33.3284 0.0000
# 6 0.0000 0.0000 0.0000 7.3390 0.0000 11.0362
#
#
#
# Elastic Compliance Matrix: (Units=1/GPa)
#
#
# Indices 1 2 3 4 5 6 
#
# 1 0.012022 0.002418 -0.000988 0.000000 -0.003025 0.000000
# 2 0.002418 0.049794 -0.008674 0.000000 0.005379 0.000000
# 3 -0.000988 -0.008674 0.014295 0.000000 -0.012777 0.000000
# 4 0.000000 0.000000 0.000000 0.080714 0.000000 -0.053674
# 5 -0.003025 0.005379 -0.012777 0.000000 0.042774 0.000000
# 6 0.000000 0.000000 0.000000 -0.053674 0.000000 0.126303
#
#
# Mechanical properties :
#
#
# Convention : Reuss Voigt Hill
#
# Bulk Modulus (GPa) = 16.22792 29.90600 23.06696
# Shear Modulus (GPa) = 13.85301 25.16748 19.51024
#
# Velocity S-wave (km/s) = 2.51756 3.39335 2.98772
# Velocity P-wave (km/s) = 3.98441 5.38850 4.73875
#
# Compressibility (1/GPa) = 0.06162220
#
# Stress axis : x y z
#
# Youngs Moduli (GPa) = 83.17842 20.08267 69.95652
#
# Poissons Ratio (x) = -0.04856 0.06911
# Poissons Ratio (y) = -0.20111 0.60682
# Poissons Ratio (z) = 0.08218 0.17420
#
# Static dielectric constant tensor:
#      x y z
#    x 4.517110 0.000000 0.084120 
#    y 0.000000 3.189170 0.000000 
#    z 0.084120 0.000000 3.813570 
# 
# 
# High freq. dielectric constant tensor:
#      x y z
#    x 1.893890 0.000000 0.007180 
#    y 0.000000 1.782980 0.000000 
#    z 0.007180 0.000000 1.854570 
# 
# From -- ./inp_files/70474.got.cif
#   From: 2010.06.25/outbox.cif.g09.slc.cpg/sg15_36_cif.got.tgz:70474.got - 2010.06.28 07:06:18.
