data_PCOD8151615
_publ_section_title
;
Structure prediction by ZEFSAII (Michael W. Deem and Ramdas Pophale) SiO2 
 PCOD8151615
Probable space group: C 2/C
;
_chemical_formula_sum "Si O2"
_cell_formula_units_Z 64
_cell_length_a 22.615271
_cell_length_b 17.472647
_cell_length_c 13.967922
_cell_angle_alpha 90.000000
_cell_angle_beta 31.801320
_cell_angle_gamma 90.000000
_cell_volume 2908.590775
_symmetry_space_group_name_H-M "C 2/C"
_symmetry_group_IT_number 15
_symmetry_cell_setting 'monoclinic'
loop_
_space_group_symop_operation_xyz
x,y,z
-x,y,1/2-z
-x,-y,-z
x,-y,1/2+z
1/2+x,1/2+y,z
1/2-x,1/2+y,1/2-z
1/2-x,1/2-y,-z
1/2+x,1/2-y,1/2+z
loop_
_atom_site_type_symbol
_atom_site_label
_atom_site_fract_x
_atom_site_fract_y
_atom_site_fract_z
Si Si1 0.686839 0.873814 0.592513
Si Si2 0.755325 0.755455 0.240481
Si Si3 0.370890 0.985961 0.669128
Si Si4 0.377903 0.717918 0.888586
Si Si5 0.355035 0.149233 0.750103
Si Si6 0.868120 0.518155 0.952187
Si Si7 0.000569 0.234031 0.134267
Si Si8 0.721944 0.341614 0.605972
O O1 0.664649 0.908978 0.727929
O O2 0.609045 0.798540 0.684695
O O3 0.817501 0.846338 0.405370
O O4 0.656170 0.933026 0.551941
O O5 0.708885 0.725195 0.404005
O O6 0.667626 0.819772 0.325525
O O7 0.765546 0.689272 0.146943
O O8 0.880386 0.791048 0.074552
O O9 0.500000 0.000000 0.500000
O O10 0.325826 0.059682 0.788913
O O11 0.335659 0.981448 0.608130
O O12 0.500000 0.687354 0.750000
O O13 0.475364 0.180520 0.623519
O O14 0.271302 0.194580 0.938738
O O15 0.000000 0.539709 0.750000
O O16 0.778592 0.573808 0.023739
O O17 0.912830 0.168766 0.216907
O O18 0.000000 0.238500 0.250000
#
# Coordination Sequence:
#
# PCOD8151615 Si02
#       8
#     8   8   8   8   8   8   8   8
#     4  11  25  45  70 102 132 185 237 287 358 414
#     4  11  23  39  68  98 135 190 228 283 351 418
#     4  12  25  40  69 101 134 178 226 291 357 408
#     4  11  27  48  71  96 142 183 246 297 339 423
#     4  11  22  37  61 100 137 174 225 286 354 414
#     4  12  24  42  67 100 143 180 234 299 351 415
#     4  11  21  37  63  98 144 177 224 278 350 421
#     4  11  22  38  62 102 140 177 225 285 354 417
#
# _framework density 22.003782999999999
#
# number of rings (size 3 to 8) (size 9 to 14) (size 15 to 20)
#    0.000    0.750    5.000    2.625    7.000    3.000 
#    0.000    1.875    0.000    3.000    0.000    0.000 
#    0.000    0.000    0.000    0.000    0.000    0.000 
#
# Total GULP energy -396445.499683 kJ/mol
# GULP energy per Si atom -12388.921865 kJ/mol
# Density = 2.195370 g / cm^3
# Si number density = 22.003783 Si / 1000 Ang^3
#
#
#
# Elastic Constant Matrix: (Units=GPa)
#
#
# Indices 1 2 3 4 5 6 
#
# 1 107.6944 23.1747 44.7507 0.0000 -5.1597 0.0000
# 2 23.1747 81.0476 23.0848 0.0000 0.4268 0.0000
# 3 44.7507 23.0848 100.7594 -0.0001 -5.4808 0.0000
# 4 0.0000 0.0000 -0.0001 20.9384 0.0000 -2.0702
# 5 -5.1597 0.4268 -5.4808 0.0000 51.2088 0.0000
# 6 0.0000 0.0000 0.0000 -2.0702 0.0000 37.5204
#
#
#
# Elastic Compliance Matrix: (Units=1/GPa)
#
#
# Indices 1 2 3 4 5 6 
#
# 1 0.011705 -0.002012 -0.004700 0.000000 0.000693 0.000000
# 2 -0.002012 0.013555 -0.002242 0.000000 -0.000556 0.000000
# 3 -0.004700 -0.002242 0.012574 0.000000 0.000891 0.000000
# 4 0.000000 0.000000 0.000000 0.048021 0.000000 0.002650
# 5 0.000693 -0.000556 0.000891 0.000000 0.019698 0.000000
# 6 0.000000 0.000000 0.000000 0.002650 0.000000 0.026798
#
#
# Mechanical properties :
#
#
# Convention : Reuss Voigt Hill
#
# Bulk Modulus (GPa) = 50.18522 52.39129 51.28826
# Shear Modulus (GPa) = 31.86719 35.16627 33.51673
#
# Velocity S-wave (km/s) = 3.80973 4.00208 3.90709
# Velocity P-wave (km/s) = 6.49685 6.72438 6.61160
#
# Compressibility (1/GPa) = 0.01992618
#
# Stress axis : x y z
#
# Youngs Moduli (GPa) = 85.43661 73.77193 79.52812
#
# Poissons Ratio (x) = 0.14842 0.37377
# Poissons Ratio (y) = 0.17188 0.17833
# Poissons Ratio (z) = 0.40153 0.16542
#
# Static dielectric constant tensor:
#      x y z
#    x 4.276830 0.000000 -0.031540 
#    y 0.000000 3.657650 0.000000 
#    z -0.031540 0.000000 3.671650 
# 
# 
# High freq. dielectric constant tensor:
#      x y z
#    x 1.890300 0.000000 0.011600 
#    y 0.000000 1.856490 0.000000 
#    z 0.011600 0.000000 1.847490 
# 
# From -- ./inp_files/174235.got.cif
#   From: 2010.06.25/outbox.cif.g09.slc.cpg/sg15_88_cif.got.tgz:174235.got - 2010.06.28 07:06:18.
