data_PCOD8151105
_publ_section_title
;
Structure prediction by ZEFSAII (Michael W. Deem and Ramdas Pophale) SiO2 
 PCOD8151105
Probable space group: C 2/C
;
_chemical_formula_sum "Si O2"
_cell_formula_units_Z 56
_cell_length_a 13.863264
_cell_length_b 17.880110
_cell_length_c 18.640274
_cell_angle_alpha 90.000000
_cell_angle_beta 34.247610
_cell_angle_gamma 90.000000
_cell_volume 2600.274848
_symmetry_space_group_name_H-M "C 2/C"
_symmetry_group_IT_number 15
_symmetry_cell_setting 'monoclinic'
loop_
_space_group_symop_operation_xyz
x,y,z
-x,y,1/2-z
-x,-y,-z
x,-y,1/2+z
1/2+x,1/2+y,z
1/2-x,1/2+y,1/2-z
1/2-x,1/2-y,-z
1/2+x,1/2-y,1/2+z
loop_
_atom_site_type_symbol
_atom_site_label
_atom_site_fract_x
_atom_site_fract_y
_atom_site_fract_z
Si Si1 0.217061 0.644223 0.785258
Si Si2 0.905995 0.382002 0.375651
Si Si3 0.922962 0.192895 0.456879
Si Si4 0.145750 0.446836 0.608824
Si Si5 0.728510 0.211547 0.326801
Si Si6 0.512821 0.419983 0.024746
Si Si7 0.027674 0.419358 0.522551
O O1 0.306632 0.724349 0.712822
O O2 0.346353 0.582326 0.677345
O O3 0.029627 0.626563 0.866827
O O4 0.176230 0.630738 0.893544
O O5 0.730336 0.338333 0.497379
O O6 0.847041 0.464227 0.388876
O O7 0.000000 0.344566 0.250000
O O8 0.847644 0.262796 0.549358
O O9 0.063668 0.210311 0.308856
O O10 0.008850 0.138392 0.462155
O O11 0.321427 0.409074 0.527202
O O12 0.106309 0.429067 0.551651
O O13 0.000000 0.413507 0.750000
O O14 0.646914 0.129841 0.361642
O O15 0.500000 0.500000 0.000000
O O16 0.000000 0.500000 0.500000
#
# Coordination Sequence:
#
# PCOD8151105 Si02
#       7
#     8   8   8   8   8   8   8
#     4  11  24  44  66  98 145 188 234 294 363 420
#     4  11  19  39  66 102 138 185 232 291 355 439
#     4  11  23  41  68 100 142 188 245 287 360 437
#     4  11  23  41  70 105 137 185 242 296 366 427
#     4  11  24  45  67  99 145 195 234 293 366 427
#     4  11  21  39  70 100 131 185 240 291 351 442
#     4  12  26  45  72 103 146 184 237 307 362 419
#
# _framework density 21.536185
#
# number of rings (size 3 to 8) (size 9 to 14) (size 15 to 20)
#    0.000    0.857    7.143    1.714    2.000    1.143 
#    2.571    2.857    6.286    0.000    0.000    0.000 
#    0.000    0.000    0.000    0.000    0.000    0.000 
#
# Total GULP energy -346886.487164 kJ/mol
# GULP energy per Si atom -12388.803113 kJ/mol
# Density = 2.148717 g / cm^3
# Si number density = 21.536185 Si / 1000 Ang^3
#
#
#
# Elastic Constant Matrix: (Units=GPa)
#
#
# Indices 1 2 3 4 5 6 
#
# 1 130.0101 35.8576 56.7698 0.0057 -14.4623 -0.0006
# 2 35.8576 89.2386 60.7874 0.0002 -8.7851 -0.0034
# 3 56.7698 60.7874 169.5197 0.0167 -5.7484 -0.0077
# 4 0.0057 0.0002 0.0167 42.0589 -0.0052 -4.9517
# 5 -14.4623 -8.7851 -5.7484 -0.0052 37.0564 0.0029
# 6 -0.0006 -0.0034 -0.0077 -4.9517 0.0029 20.5878
#
#
#
# Elastic Compliance Matrix: (Units=1/GPa)
#
#
# Indices 1 2 3 4 5 6 
#
# 1 0.009606 -0.001917 -0.002431 0.000000 0.002918 -0.000001
# 2 -0.001917 0.015485 -0.004837 0.000002 0.002173 0.000001
# 3 -0.002431 -0.004837 0.008421 -0.000003 -0.000789 0.000002
# 4 0.000000 0.000002 -0.000003 0.024469 0.000003 0.005885
# 5 0.002918 0.002173 -0.000789 0.000003 0.028517 -0.000003
# 6 -0.000001 0.000001 0.000002 0.005885 -0.000003 0.049988
#
#
# Mechanical properties :
#
#
# Convention : Reuss Voigt Hill
#
# Bulk Modulus (GPa) = 66.03894 77.28867 71.66381
# Shear Modulus (GPa) = 31.26888 35.63086 33.44987
#
# Velocity S-wave (km/s) = 3.81454 4.07192 3.94533
# Velocity P-wave (km/s) = 7.08038 7.62057 7.35544
#
# Compressibility (1/GPa) = 0.01514258
#
# Stress axis : x y z
#
# Youngs Moduli (GPa) = 104.09748 64.57872 118.75425
#
# Poissons Ratio (x) = 0.12380 0.28865
# Poissons Ratio (y) = 0.19956 0.57442
# Poissons Ratio (z) = 0.25303 0.31237
#
# Static dielectric constant tensor:
#      x y z
#    x 4.096910 -0.000040 -0.398100 
#    y -0.000040 4.586460 0.000060 
#    z -0.398100 0.000060 5.065320 
# 
# 
# High freq. dielectric constant tensor:
#      x y z
#    x 1.826210 0.000000 0.006570 
#    y 0.000000 1.849840 0.000000 
#    z 0.006570 0.000000 1.865220 
# 
# From -- ./inp_files/245120.got.cif
#   From: 2010.06.25/outbox.cif.g09.slc.cpg/sg15_123_cif.got.tgz:245120.got - 2010.06.28 07:06:18.
