data_PCOD8151383
_publ_section_title
;
Structure prediction by ZEFSAII (Michael W. Deem and Ramdas Pophale) SiO2 
 PCOD8151383
Probable space group: C 2/C
;
_chemical_formula_sum "Si O2"
_cell_formula_units_Z 44
_cell_length_a 12.333089
_cell_length_b 7.686031
_cell_length_c 21.114470
_cell_angle_alpha 90.000000
_cell_angle_beta 98.027199
_cell_angle_gamma 90.000000
_cell_volume 1981.882637
_symmetry_space_group_name_H-M "C 2/C"
_symmetry_group_IT_number 15
_symmetry_cell_setting 'monoclinic'
loop_
_space_group_symop_operation_xyz
x,y,z
-x,y,1/2-z
-x,-y,-z
x,-y,1/2+z
1/2+x,1/2+y,z
1/2-x,1/2+y,1/2-z
1/2-x,1/2-y,-z
1/2+x,1/2-y,1/2+z
loop_
_atom_site_type_symbol
_atom_site_label
_atom_site_fract_x
_atom_site_fract_y
_atom_site_fract_z
Si Si1 0.678458 0.061227 0.355069
Si Si2 0.000000 0.662172 0.250000
Si Si3 0.619374 0.945324 0.986752
Si Si4 0.840892 0.224926 0.837788
Si Si5 0.471660 0.603294 0.559389
Si Si6 0.223828 0.957012 0.384741
O O1 0.562514 0.050676 0.308626
O O2 0.656344 0.972813 0.422168
O O3 0.728482 0.257973 0.359696
O O4 0.763335 0.941066 0.325171
O O5 0.908852 0.777420 0.278123
O O6 0.618170 0.740845 0.971784
O O7 0.706440 0.989514 0.046595
O O8 0.500000 0.000000 0.000000
O O9 0.771864 0.405093 0.837977
O O10 0.921780 0.197440 0.904031
O O11 0.500000 0.500000 0.500000
O O12 0.403672 0.496010 0.607631
#
# Coordination Sequence:
#
# PCOD8151383 Si02
#       6
#     8   4   8   8   8   8
#     4  11  26  46  70 102 138 184 229 286 339 411
#     4  12  26  52  66 102 142 176 252 280 324 426
#     4  11  20  40  67 100 146 169 216 290 343 402
#     4  12  26  47  72  98 139 186 228 288 344 401
#     4  11  22  39  66 106 138 174 228 279 341 424
#     4  11  23  45  70 103 141 178 225 286 352 407
#
# _framework density 22.201114
#
# number of rings (size 3 to 8) (size 9 to 14) (size 15 to 20)
#    0.000    0.727    5.455    4.364    5.091    1.455 
#    3.273    1.818    0.000    0.000    0.000    0.000 
#    0.000    0.000    0.000    0.000    0.000    0.000 
#
# Total GULP energy -272670.317714 kJ/mol
# GULP energy per Si atom -12394.105351 kJ/mol
# Density = 2.215058 g / cm^3
# Si number density = 22.201114 Si / 1000 Ang^3
#
#
#
# Elastic Constant Matrix: (Units=GPa)
#
#
# Indices 1 2 3 4 5 6 
#
# 1 139.3845 58.4152 33.2902 0.0000 -24.8678 0.0000
# 2 58.4152 93.3626 31.5560 0.0000 -17.9717 0.0000
# 3 33.2902 31.5560 85.7712 0.0000 -6.6737 0.0000
# 4 0.0000 0.0000 0.0000 16.9308 0.0000 -3.4630
# 5 -24.8678 -17.9717 -6.6737 0.0000 53.3904 0.0000
# 6 0.0000 0.0000 0.0000 -3.4630 0.0000 47.8805
#
#
#
# Elastic Compliance Matrix: (Units=1/GPa)
#
#
# Indices 1 2 3 4 5 6 
#
# 1 0.010338 -0.005307 -0.001842 0.000000 0.002798 0.000000
# 2 -0.005307 0.015678 -0.003524 0.000000 0.002365 0.000000
# 3 -0.001842 -0.003524 0.013644 0.000000 -0.000339 0.000000
# 4 0.000000 0.000000 0.000000 0.059951 0.000000 0.004336
# 5 0.002798 0.002365 -0.000339 0.000000 0.020787 0.000000
# 6 0.000000 0.000000 0.000000 0.004336 0.000000 0.021199
#
#
# Mechanical properties :
#
#
# Convention : Reuss Voigt Hill
#
# Bulk Modulus (GPa) = 54.60564 62.78236 58.69400
# Shear Modulus (GPa) = 29.57754 36.65746 33.11750
#
# Velocity S-wave (km/s) = 3.65397 4.06785 3.86645
# Velocity P-wave (km/s) = 6.51546 7.09954 6.81376
#
# Compressibility (1/GPa) = 0.01831313
#
# Stress axis : x y z
#
# Youngs Moduli (GPa) = 96.73337 63.78490 73.29138
#
# Poissons Ratio (x) = 0.33849 0.13502
# Poissons Ratio (y) = 0.51334 0.25830
# Poissons Ratio (z) = 0.17820 0.22479
#
# Static dielectric constant tensor:
#      x y z
#    x 3.986580 0.000000 0.089040 
#    y 0.000000 3.847040 0.000000 
#    z 0.089040 0.000000 4.051290 
# 
# 
# High freq. dielectric constant tensor:
#      x y z
#    x 1.894870 0.000000 -0.007770 
#    y 0.000000 1.846640 0.000000 
#    z -0.007770 0.000000 1.875420 
# 
# From -- ./inp_files/236121.got.cif
#   From: 2010.06.25/outbox.cif.g09.slc.cpg/sg15_119_cif.got.tgz:236121.got - 2010.06.28 07:06:18.
