data_PCOD8151713
_publ_section_title
;
Structure prediction by ZEFSAII (Michael W. Deem and Ramdas Pophale) SiO2 
 PCOD8151713
Probable space group: C 2/C
;
_chemical_formula_sum "Si O2"
_cell_formula_units_Z 64
_cell_length_a 26.285024
_cell_length_b 18.349212
_cell_length_c 18.275263
_cell_angle_alpha 90.000000
_cell_angle_beta 159.527617
_cell_angle_gamma 90.000000
_cell_volume 3082.864441
_symmetry_space_group_name_H-M "C 2/C"
_symmetry_group_IT_number 15
_symmetry_cell_setting 'monoclinic'
loop_
_space_group_symop_operation_xyz
x,y,z
-x,y,1/2-z
-x,-y,-z
x,-y,1/2+z
1/2+x,1/2+y,z
1/2-x,1/2+y,1/2-z
1/2-x,1/2-y,-z
1/2+x,1/2-y,1/2+z
loop_
_atom_site_type_symbol
_atom_site_label
_atom_site_fract_x
_atom_site_fract_y
_atom_site_fract_z
Si Si1 0.655420 0.435473 0.760841
Si Si2 0.209630 0.840249 0.088946
Si Si3 0.356904 0.521110 0.091713
Si Si4 0.374071 0.942382 0.519606
Si Si5 0.425749 0.056128 0.344979
Si Si6 0.047219 0.688963 0.028841
Si Si7 0.377642 0.354428 0.362085
Si Si8 0.872117 0.682156 0.529511
O O1 0.624167 0.472325 0.796242
O O2 0.774732 0.484603 0.879003
O O3 0.502375 0.416496 0.513826
O O4 0.725502 0.355246 0.860703
O O5 0.380524 0.830845 0.313451
O O6 0.162145 0.861738 0.106416
O O7 0.154638 0.899517 0.958433
O O8 0.135224 0.766750 0.961490
O O9 0.500000 0.482401 0.250000
O O10 0.214502 0.475142 0.883914
O O11 0.450404 0.927371 0.546337
O O12 0.259707 0.875253 0.374942
O O13 0.500000 0.946269 0.750000
O O14 0.371156 0.130975 0.309201
O O15 0.500000 0.000000 0.500000
O O16 0.076760 0.771631 0.095055
O O17 0.102198 0.671929 0.021813
O O18 0.000000 0.646368 0.750000
#
# Coordination Sequence:
#
# PCOD8151713 Si02
#       8
#     8   8   8   8   8   8   8   8
#     4  12  24  40  63 101 133 170 222 274 337 404
#     4  11  21  39  63  95 136 176 214 265 336 407
#     4  12  24  40  65 100 136 177 218 269 340 398
#     4  12  25  46  69  96 131 176 224 284 335 386
#     4  12  24  45  70  93 133 180 225 268 328 403
#     4  11  23  43  66  96 127 185 228 268 334 407
#     4  11  24  44  67  94 134 176 223 277 336 398
#     4  11  24  36  61  98 140 173 216 272 334 407
#
# _framework density 20.759913999999998
#
# number of rings (size 3 to 8) (size 9 to 14) (size 15 to 20)
#    0.000    0.500    6.250    2.625    1.750    1.000 
#    2.250    1.250    0.000    0.000    0.000    0.000 
#    0.000    0.000    0.000    0.000    0.000    0.000 
#
# Total GULP energy -396706.837570 kJ/mol
# GULP energy per Si atom -12397.088674 kJ/mol
# Density = 2.071266 g / cm^3
# Si number density = 20.759914 Si / 1000 Ang^3
#
#
#
# Elastic Constant Matrix: (Units=GPa)
#
#
# Indices 1 2 3 4 5 6 
#
# 1 43.3985 6.4334 -3.7337 0.0000 1.1672 -0.0001
# 2 6.4334 64.9601 19.5954 0.0000 -10.1711 0.0000
# 3 -3.7337 19.5954 107.8157 0.0000 8.0486 -0.0001
# 4 0.0000 0.0000 0.0000 31.9543 0.0000 3.1377
# 5 1.1672 -10.1711 8.0486 0.0000 27.7337 0.0000
# 6 -0.0001 0.0000 -0.0001 3.1377 0.0000 31.6748
#
#
#
# Elastic Compliance Matrix: (Units=1/GPa)
#
#
# Indices 1 2 3 4 5 6 
#
# 1 0.023735 -0.003253 0.001612 0.000000 -0.002660 0.000000
# 2 -0.003253 0.018173 -0.004010 0.000000 0.007966 0.000000
# 3 0.001612 -0.004010 0.010400 0.000000 -0.004557 0.000000
# 4 0.000000 0.000000 0.000000 0.031602 0.000000 -0.003130
# 5 -0.002660 0.007966 -0.004557 0.000000 0.040413 0.000000
# 6 0.000000 0.000000 0.000000 -0.003130 0.000000 0.031881
#
#
# Mechanical properties :
#
#
# Convention : Reuss Voigt Hill
#
# Bulk Modulus (GPa) = 24.38764 28.97383 26.68074
# Shear Modulus (GPa) = 27.59757 31.19783 29.39770
#
# Velocity S-wave (km/s) = 3.65001 3.88079 3.76717
# Velocity P-wave (km/s) = 5.43474 5.83675 5.63933
#
# Compressibility (1/GPa) = 0.04100438
#
# Stress axis : x y z
#
# Youngs Moduli (GPa) = 42.13234 55.02611 96.15444
#
# Poissons Ratio (x) = 0.17901 -0.15498
# Poissons Ratio (y) = 0.13707 0.38561
# Poissons Ratio (z) = -0.06791 0.22067
#
# Static dielectric constant tensor:
#      x y z
#    x 5.545090 0.000000 1.175750 
#    y 0.000000 4.033840 0.000000 
#    z 1.175750 0.000000 4.357250 
# 
# 
# High freq. dielectric constant tensor:
#      x y z
#    x 1.812350 0.000000 0.021200 
#    y 0.000000 1.811070 0.000000 
#    z 0.021200 0.000000 1.819400 
# 
# From -- ./inp_files/223161.got.cif
#   From: 2010.06.25/outbox.cif.g09.slc.cpg/sg15_112_cif.got.tgz:223161.got - 2010.06.28 07:06:18.
