data_PCOD8151180
_publ_section_title
;
Structure prediction by ZEFSAII (Michael W. Deem and Ramdas Pophale) SiO2 
 PCOD8151180
Probable space group: C 2/C
;
_chemical_formula_sum "Si O2"
_cell_formula_units_Z 48
_cell_length_a 9.952512
_cell_length_b 18.195111
_cell_length_c 21.677311
_cell_angle_alpha 90.000000
_cell_angle_beta 136.047935
_cell_angle_gamma 90.000000
_cell_volume 2724.504535
_symmetry_space_group_name_H-M "C 2/C"
_symmetry_group_IT_number 15
_symmetry_cell_setting 'monoclinic'
loop_
_space_group_symop_operation_xyz
x,y,z
-x,y,1/2-z
-x,-y,-z
x,-y,1/2+z
1/2+x,1/2+y,z
1/2-x,1/2+y,1/2-z
1/2-x,1/2-y,-z
1/2+x,1/2-y,1/2+z
loop_
_atom_site_type_symbol
_atom_site_label
_atom_site_fract_x
_atom_site_fract_y
_atom_site_fract_z
Si Si1 0.958817 0.215730 0.570601
Si Si2 0.771540 0.721552 0.575088
Si Si3 0.803112 0.919379 0.965437
Si Si4 0.520738 0.650884 0.187267
Si Si5 0.360317 0.421662 0.516435
Si Si6 0.551174 0.824360 0.697390
O O1 0.750000 0.250000 0.500000
O O2 0.929183 0.127678 0.556918
O O3 0.084390 0.243621 0.553800
O O4 0.059139 0.244885 0.666005
O O5 0.750000 0.750000 0.500000
O O6 0.779250 0.632701 0.570163
O O7 0.959283 0.762025 0.666114
O O8 0.600085 0.880421 0.883471
O O9 0.925701 0.926216 0.942917
O O10 0.760763 0.998472 0.981739
O O11 0.500000 0.620299 0.250000
O O12 0.382988 0.605248 0.094856
O O13 0.739018 0.639405 0.237407
O O14 0.500000 0.806720 0.750000
#
# Coordination Sequence:
#
# PCOD8151180 Si02
#       6
#     8   8   8   8   8   8
#     4   9  18  32  53  76 102 134 174 213 254 314
#     4   9  18  32  53  77 100 136 173 210 261 313
#     4   9  18  35  56  77 104 142 178 213 259 323
#     4  11  20  34  54  79 109 136 175 228 269 302
#     4   9  18  35  56  77 105 141 177 211 262 327
#     4  11  20  34  54  81 104 138 183 222 265 308
#
# _framework density 17.617882999999999
#
# number of rings (size 3 to 8) (size 9 to 14) (size 15 to 20)
#    0.000    2.333    3.333    0.000    2.333    0.000 
#    0.000    4.167    0.000    0.000    0.000    0.000 
#    0.000    0.000    0.000    0.000    0.000    0.000 
#
# Total GULP energy -297335.519053 kJ/mol
# GULP energy per Si atom -12388.979961 kJ/mol
# Density = 1.757778 g / cm^3
# Si number density = 17.617883 Si / 1000 Ang^3
#
#
#
# Elastic Constant Matrix: (Units=GPa)
#
#
# Indices 1 2 3 4 5 6 
#
# 1 104.3614 36.2561 36.9121 0.0000 -13.2260 0.0000
# 2 36.2561 122.7162 46.6986 0.0000 -10.0099 0.0000
# 3 36.9121 46.6986 77.6445 0.0000 -13.2472 0.0000
# 4 0.0000 0.0000 0.0000 23.7648 0.0000 0.8751
# 5 -13.2260 -10.0099 -13.2472 0.0000 34.9431 0.0000
# 6 0.0000 0.0000 0.0000 0.8751 0.0000 20.3525
#
#
#
# Elastic Compliance Matrix: (Units=1/GPa)
#
#
# Indices 1 2 3 4 5 6 
#
# 1 0.011993 -0.001729 -0.004246 0.000000 0.002434 0.000000
# 2 -0.001729 0.010831 -0.005639 0.000000 0.000310 0.000000
# 3 -0.004246 -0.005639 0.018967 0.000000 0.003968 0.000000
# 4 0.000000 0.000000 0.000000 0.042146 0.000000 -0.001812
# 5 0.002434 0.000310 0.003968 0.000000 0.031132 0.000000
# 6 0.000000 0.000000 0.000000 -0.001812 0.000000 0.049212
#
#
# Mechanical properties :
#
#
# Convention : Reuss Voigt Hill
#
# Bulk Modulus (GPa) = 53.87477 60.49505 57.18491
# Shear Modulus (GPa) = 25.81348 28.13577 26.97462
#
# Velocity S-wave (km/s) = 3.83193 4.00058 3.91716
# Velocity P-wave (km/s) = 7.08690 7.46669 7.27927
#
# Compressibility (1/GPa) = 0.01856156
#
# Stress axis : x y z
#
# Youngs Moduli (GPa) = 83.38108 92.32769 52.72425
#
# Poissons Ratio (x) = 0.15962 0.22389
# Poissons Ratio (y) = 0.14415 0.29733
# Poissons Ratio (z) = 0.35407 0.52067
#
# Static dielectric constant tensor:
#      x y z
#    x 3.640030 0.000000 1.017930 
#    y 0.000000 3.566770 0.000000 
#    z 1.017930 0.000000 8.582920 
# 
# 
# High freq. dielectric constant tensor:
#      x y z
#    x 1.686240 0.000000 -0.005790 
#    y 0.000000 1.665820 0.000000 
#    z -0.005790 0.000000 1.667260 
# 
# From -- ./inp_files/145167.got.cif
#   From: 2010.06.25/outbox.cif.g09.slc.cpg/sg15_73_cif.got.tgz:145167.got - 2010.06.28 07:06:18.
