data_PCOD8151275
_publ_section_title
;
Structure prediction by ZEFSAII (Michael W. Deem and Ramdas Pophale) SiO2 
 PCOD8151275
Probable space group: C 2/C
;
_chemical_formula_sum "Si O2"
_cell_formula_units_Z 56
_cell_length_a 16.533811
_cell_length_b 8.058269
_cell_length_c 21.587175
_cell_angle_alpha 90.000000
_cell_angle_beta 118.188373
_cell_angle_gamma 90.000000
_cell_volume 2535.030899
_symmetry_space_group_name_H-M "C 2/C"
_symmetry_group_IT_number 15
_symmetry_cell_setting 'monoclinic'
loop_
_space_group_symop_operation_xyz
x,y,z
-x,y,1/2-z
-x,-y,-z
x,-y,1/2+z
1/2+x,1/2+y,z
1/2-x,1/2+y,1/2-z
1/2-x,1/2-y,-z
1/2+x,1/2-y,1/2+z
loop_
_atom_site_type_symbol
_atom_site_label
_atom_site_fract_x
_atom_site_fract_y
_atom_site_fract_z
Si Si1 0.491791 0.817473 0.587208
Si Si2 0.656776 0.944029 0.462888
Si Si3 0.693977 0.892635 0.336726
Si Si4 0.106775 0.060223 0.296588
Si Si5 0.093599 0.700925 0.246275
Si Si6 0.877720 0.163724 0.958871
Si Si7 0.649426 0.556036 0.943785
O O1 0.573409 0.825792 0.666363
O O2 0.531138 0.735321 0.539311
O O3 0.403029 0.728175 0.586547
O O4 0.444373 0.991598 0.552789
O O5 0.649302 0.895280 0.388629
O O6 0.676462 0.790139 0.515234
O O7 0.741384 0.073307 0.504232
O O8 0.659525 0.723679 0.289203
O O9 0.804677 0.892135 0.380154
O O10 0.666081 0.059275 0.290312
O O11 0.000000 0.092934 0.250000
O O12 0.135184 0.886577 0.272994
O O13 0.131958 0.055754 0.377775
O O14 0.000000 0.677115 0.250000
O O15 0.903423 0.014433 0.014339
#
# Coordination Sequence:
#
# PCOD8151275 Si02
#       7
#     8   8   8   8   8   8   8
#     4  12  24  41  61  98 134 161 211 272 322 384
#     4  11  21  40  68  91 122 167 219 260 317 384
#     4  11  21  42  67  92 126 171 220 263 313 386
#     4  11  20  37  68  95 122 162 229 264 304 379
#     4  11  22  40  65  95 125 171 222 265 308 384
#     4  11  24  41  61  97 137 159 207 270 334 379
#     4  11  20  41  65  91 121 172 214 265 315 381
#
# _framework density 22.090461000000001
#
# number of rings (size 3 to 8) (size 9 to 14) (size 15 to 20)
#    0.000    0.857    7.143    2.571    0.000    1.143 
#    2.571    0.000    0.000    0.000    0.000    0.000 
#    0.000    0.000    0.000    0.000    0.000    0.000 
#
# Total GULP energy -347066.422674 kJ/mol
# GULP energy per Si atom -12395.229381 kJ/mol
# Density = 2.204018 g / cm^3
# Si number density = 22.090461 Si / 1000 Ang^3
#
#
#
# Elastic Constant Matrix: (Units=GPa)
#
#
# Indices 1 2 3 4 5 6 
#
# 1 55.5363 2.9877 14.2617 0.0000 1.5122 0.0000
# 2 2.9877 97.6962 31.1218 0.0000 19.0112 0.0000
# 3 14.2617 31.1218 110.8007 0.0000 15.5929 0.0000
# 4 0.0000 0.0000 0.0000 38.2610 0.0000 13.9186
# 5 1.5122 19.0112 15.5929 0.0000 20.9957 0.0000
# 6 0.0000 0.0000 0.0000 13.9186 0.0000 33.8985
#
#
#
# Elastic Compliance Matrix: (Units=1/GPa)
#
#
# Indices 1 2 3 4 5 6 
#
# 1 0.018628 0.000152 -0.002493 0.000000 0.000372 0.000000
# 2 0.000152 0.012893 -0.002230 0.000000 -0.010030 0.000000
# 3 -0.002493 -0.002230 0.010791 0.000000 -0.005816 0.000000
# 4 0.000000 0.000000 0.000000 0.030726 0.000000 -0.012616
# 5 0.000372 -0.010030 -0.005816 0.000000 0.061003 0.000000
# 6 0.000000 0.000000 0.000000 -0.012616 0.000000 0.034680
#
#
# Mechanical properties :
#
#
# Convention : Reuss Voigt Hill
#
# Bulk Modulus (GPa) = 30.14646 40.08616 35.11631
# Shear Modulus (GPa) = 26.46653 33.00851 29.73752
#
# Velocity S-wave (km/s) = 3.46511 3.86974 3.67300
# Velocity P-wave (km/s) = 5.44846 6.17675 5.82400
#
# Compressibility (1/GPa) = 0.03317139
#
# Stress axis : x y z
#
# Youngs Moduli (GPa) = 53.68245 77.56081 92.67219
#
# Poissons Ratio (x) = -0.01179 0.23101
# Poissons Ratio (y) = -0.00816 0.20662
# Poissons Ratio (z) = 0.13382 0.17292
#
# Static dielectric constant tensor:
#      x y z
#    x 3.468470 0.000000 0.192940 
#    y 0.000000 4.123490 0.000000 
#    z 0.192940 0.000000 4.148840 
# 
# 
# High freq. dielectric constant tensor:
#      x y z
#    x 1.838070 0.000000 0.016050 
#    y 0.000000 1.876240 0.000000 
#    z 0.016050 0.000000 1.872850 
# 
# From -- ./inp_files/247581.got.cif
#   From: 2010.06.25/outbox.cif.g09.slc.cpg/sg15_124_cif.got.tgz:247581.got - 2010.06.28 07:06:18.
