data_PCOD8151049
_publ_section_title
;
Structure prediction by ZEFSAII (Michael W. Deem and Ramdas Pophale) SiO2 
 PCOD8151049
Probable space group: C 2/C
;
_chemical_formula_sum "Si O2"
_cell_formula_units_Z 52
_cell_length_a 17.591158
_cell_length_b 22.042607
_cell_length_c 9.070666
_cell_angle_alpha 90.000000
_cell_angle_beta 130.006775
_cell_angle_gamma 90.000000
_cell_volume 2694.061051
_symmetry_space_group_name_H-M "C 2/C"
_symmetry_group_IT_number 15
_symmetry_cell_setting 'monoclinic'
loop_
_space_group_symop_operation_xyz
x,y,z
-x,y,1/2-z
-x,-y,-z
x,-y,1/2+z
1/2+x,1/2+y,z
1/2-x,1/2+y,1/2-z
1/2-x,1/2-y,-z
1/2+x,1/2-y,1/2+z
loop_
_atom_site_type_symbol
_atom_site_label
_atom_site_fract_x
_atom_site_fract_y
_atom_site_fract_z
Si Si1 0.106730 0.687185 0.914997
Si Si2 0.628372 0.705064 0.658504
Si Si3 0.500000 0.753326 0.750000
Si Si4 0.890298 0.904844 0.553890
Si Si5 0.695776 0.363324 0.765441
Si Si6 0.071416 0.970138 0.468189
Si Si7 0.655785 0.229075 0.657501
O O1 0.159635 0.702530 0.826172
O O2 0.000000 0.655525 0.750000
O O3 0.084373 0.748091 0.981644
O O4 0.183630 0.644154 0.102001
O O5 0.580644 0.713972 0.759617
O O6 0.604661 0.635559 0.587096
O O7 0.746698 0.712236 0.812614
O O8 0.438364 0.794536 0.556089
O O9 0.817861 0.872794 0.577866
O O10 0.000000 0.910621 0.750000
O O11 0.855051 0.974306 0.485075
O O12 0.646506 0.417896 0.613945
O O13 0.641902 0.301773 0.648844
O O14 0.000000 0.944944 0.250000
O O15 0.000000 0.000000 0.500000
#
# Coordination Sequence:
#
# PCOD8151049 Si02
#       7
#     8   8   4   8   8   8   8
#     4  11  20  39  68  84 112 159 216 250 292 357
#     4  11  21  37  57  91 116 164 195 245 301 359
#     4  12  24  32  52  84 140 148 192 238 310 368
#     4  11  19  35  60  82 119 155 192 238 291 365
#     4  11  21  38  59  90 117 155 206 250 287 357
#     4  11  23  36  58  88 125 159 192 234 306 363
#     4  11  22  37  60  86 120 161 200 248 303 361
#
# _framework density 19.301715000000002
#
# number of rings (size 3 to 8) (size 9 to 14) (size 15 to 20)
#    0.000    0.923    7.692    2.769    1.077    0.000 
#    0.000    0.000    0.000    0.923    2.000    0.000 
#    0.000    0.000    0.000    0.000    0.000    0.000 
#
# Total GULP energy -322205.594158 kJ/mol
# GULP energy per Si atom -12392.522852 kJ/mol
# Density = 1.925778 g / cm^3
# Si number density = 19.301715 Si / 1000 Ang^3
#
#
#
# Elastic Constant Matrix: (Units=GPa)
#
#
# Indices 1 2 3 4 5 6 
#
# 1 97.1493 25.4799 33.5627 0.0000 -0.8219 0.0000
# 2 25.4799 97.7306 44.6084 0.0000 9.6131 0.0000
# 3 33.5627 44.6084 113.8020 0.0000 10.3524 0.0000
# 4 0.0000 0.0000 0.0000 -10.4548 0.0000 -2.0887
# 5 -0.8219 9.6131 10.3524 0.0000 34.5644 0.0000
# 6 0.0000 0.0000 0.0000 -2.0887 0.0000 13.0650
#
#
#
# Elastic Compliance Matrix: (Units=1/GPa)
#
#
# Indices 1 2 3 4 5 6 
#
# 1 0.011808 -0.001930 -0.002879 0.000000 0.001680 0.000000
# 2 -0.001930 0.012921 -0.004281 0.000000 -0.002357 0.000000
# 3 -0.002879 -0.004281 0.011526 0.000000 -0.002330 0.000000
# 4 0.000000 0.000000 0.000000 -0.092689 0.000000 -0.014818
# 5 0.001680 -0.002357 -0.002330 0.000000 0.030325 0.000000
# 6 0.000000 0.000000 0.000000 -0.014818 0.000000 0.074171
#
#
# Mechanical properties :
#
#
# Convention : Reuss Voigt Hill
#
# Bulk Modulus (GPa) = 55.32189 57.33155 56.32672
# Shear Modulus (GPa) = 69.18625 21.10365 45.14495
#
# Velocity S-wave (km/s) = 5.99353 3.31018 4.84147
# Velocity P-wave (km/s) = 8.75331 6.66161 7.77809
#
# Compressibility (1/GPa) = 0.01807603
#
# Stress axis : x y z
#
# Youngs Moduli (GPa) = 84.68562 77.39092 86.75720
#
# Poissons Ratio (x) = 0.14935 0.24977
# Poissons Ratio (y) = 0.16343 0.37144
# Poissons Ratio (z) = 0.24380 0.33134
#
# Static dielectric constant tensor:
#      x y z
#    x 3.457660 0.000000 0.074930 
#    y 0.000000 3.961660 0.000000 
#    z 0.074930 0.000000 3.437510 
# 
# 
# High freq. dielectric constant tensor:
#      x y z
#    x 1.751160 0.000000 -0.006220 
#    y 0.000000 1.713180 0.000000 
#    z -0.006220 0.000000 1.760870 
# 
# From -- ./inp_files/50732.got.cif
#   From: 2010.06.25/outbox.cif.g09.slc.cpg/sg15_26_cif.got.tgz:50732.got - 2010.06.28 07:06:18.
