data_PCOD8151682
_publ_section_title
;
Structure prediction by ZEFSAII (Michael W. Deem and Ramdas Pophale) SiO2 
 PCOD8151682
Probable space group: C 2/C
;
_chemical_formula_sum "Si O2"
_cell_formula_units_Z 52
_cell_length_a 20.680550
_cell_length_b 16.596652
_cell_length_c 10.165188
_cell_angle_alpha 90.000000
_cell_angle_beta 47.835392
_cell_angle_gamma 90.000000
_cell_volume 2586.096665
_symmetry_space_group_name_H-M "C 2/C"
_symmetry_group_IT_number 15
_symmetry_cell_setting 'monoclinic'
loop_
_space_group_symop_operation_xyz
x,y,z
-x,y,1/2-z
-x,-y,-z
x,-y,1/2+z
1/2+x,1/2+y,z
1/2-x,1/2+y,1/2-z
1/2-x,1/2-y,-z
1/2+x,1/2-y,1/2+z
loop_
_atom_site_type_symbol
_atom_site_label
_atom_site_fract_x
_atom_site_fract_y
_atom_site_fract_z
Si Si1 0.321702 0.148371 0.210506
Si Si2 0.944423 0.966867 0.953564
Si Si3 0.839035 0.827483 0.230579
Si Si4 0.500000 0.255100 0.250000
Si Si5 0.631840 0.367600 0.005057
Si Si6 0.849302 0.632717 0.456406
Si Si7 0.940979 0.485580 0.453166
O O1 0.365696 0.236740 0.152890
O O2 0.219875 0.155959 0.306499
O O3 0.318995 0.101006 0.355077
O O4 0.376898 0.090731 0.041902
O O5 0.000000 0.941169 0.750000
O O6 0.885774 0.890472 0.071114
O O7 0.880582 0.037991 0.996270
O O8 0.000000 0.000000 0.000000
O O9 0.865383 0.845006 0.344130
O O10 0.734035 0.829572 0.356988
O O11 0.453572 0.314359 0.424810
O O12 0.421547 0.197666 0.312238
O O13 0.886297 0.566145 0.503356
O O14 0.000000 0.466115 0.250000
O O15 0.000000 0.500000 0.500000
#
# Coordination Sequence:
#
# PCOD8151682 Si02
#       7
#     8   8   8   4   8   8   8
#     4  11  22  41  65  97 132 168 218 272 327 378
#     4  12  24  42  65  97 133 173 214 267 328 390
#     4  11  22  41  65  97 132 168 218 272 327 378
#     4  12  16  34  64  96 116 162 226 264 298 380
#     4  11  21  38  66  96 127 166 219 267 317 386
#     4  11  21  38  66  96 127 166 219 267 317 386
#     4  12  24  42  65  97 133 173 214 267 328 390
#
# _framework density 20.107524000000002
#
# number of rings (size 3 to 8) (size 9 to 14) (size 15 to 20)
#    0.000    0.615    7.692    1.846    0.000    0.615 
#    0.000    0.000    0.000    1.846    0.000    0.000 
#    0.000    0.000    0.000    0.000    0.000    0.000 
#
# Total GULP energy -322103.638391 kJ/mol
# GULP energy per Si atom -12388.601477 kJ/mol
# Density = 2.006176 g / cm^3
# Si number density = 20.107524 Si / 1000 Ang^3
#
#
#
# Elastic Constant Matrix: (Units=GPa)
#
#
# Indices 1 2 3 4 5 6 
#
# 1 78.4281 51.8308 48.5798 0.0000 -19.3810 0.0000
# 2 51.8308 163.3299 57.5049 0.0000 -12.4850 0.0000
# 3 48.5798 57.5049 120.2959 0.0000 -15.8538 0.0000
# 4 0.0000 0.0000 0.0000 41.0867 0.0000 -4.7939
# 5 -19.3810 -12.4850 -15.8538 0.0000 29.5667 0.0000
# 6 0.0000 0.0000 0.0000 -4.7939 0.0000 27.3969
#
#
#
# Elastic Compliance Matrix: (Units=1/GPa)
#
#
# Indices 1 2 3 4 5 6 
#
# 1 0.021027 -0.004096 -0.005321 0.000000 0.009200 0.000000
# 2 -0.004096 0.008207 -0.002331 0.000000 -0.000469 0.000000
# 3 -0.005321 -0.002331 0.011822 0.000000 0.001867 0.000000
# 4 0.000000 0.000000 0.000000 0.024846 0.000000 0.004348
# 5 0.009200 -0.000469 0.001867 0.000000 0.040656 0.000000
# 6 0.000000 0.000000 0.000000 0.004348 0.000000 0.037261
#
#
# Mechanical properties :
#
#
# Convention : Reuss Voigt Hill
#
# Bulk Modulus (GPa) = 56.94672 75.32055 66.13363
# Shear Modulus (GPa) = 28.87367 33.21928 31.04648
#
# Velocity S-wave (km/s) = 3.79352 4.06899 3.93367
# Velocity P-wave (km/s) = 6.89712 7.72113 7.32073
#
# Compressibility (1/GPa) = 0.01756027
#
# Stress axis : x y z
#
# Youngs Moduli (GPa) = 47.55814 121.84380 84.58869
#
# Poissons Ratio (x) = 0.49907 0.45009
# Poissons Ratio (y) = 0.19480 0.19718
# Poissons Ratio (z) = 0.25305 0.28402
#
# Static dielectric constant tensor:
#      x y z
#    x 3.834880 0.000000 -0.417110 
#    y 0.000000 3.927260 0.000000 
#    z -0.417110 0.000000 3.654010 
# 
# 
# High freq. dielectric constant tensor:
#      x y z
#    x 1.785970 0.000000 -0.036660 
#    y 0.000000 1.798420 0.000000 
#    z -0.036660 0.000000 1.763770 
# 
# From -- ./inp_files/56934.got.cif
#   From: 2010.06.25/outbox.cif.g09.slc.cpg/sg15_29_cif.got.tgz:56934.got - 2010.06.28 07:06:18.
