data_PCOD8151182
_publ_section_title
;
Structure prediction by ZEFSAII (Michael W. Deem and Ramdas Pophale) SiO2 
 PCOD8151182
Probable space group: C 2/C
;
_chemical_formula_sum "Si O2"
_cell_formula_units_Z 48
_cell_length_a 24.782453
_cell_length_b 11.764425
_cell_length_c 9.072565
_cell_angle_alpha 90.000000
_cell_angle_beta 114.368724
_cell_angle_gamma 90.000000
_cell_volume 2409.462050
_symmetry_space_group_name_H-M "C 2/C"
_symmetry_group_IT_number 15
_symmetry_cell_setting 'monoclinic'
loop_
_space_group_symop_operation_xyz
x,y,z
-x,y,1/2-z
-x,-y,-z
x,-y,1/2+z
1/2+x,1/2+y,z
1/2-x,1/2+y,1/2-z
1/2-x,1/2-y,-z
1/2+x,1/2-y,1/2+z
loop_
_atom_site_type_symbol
_atom_site_label
_atom_site_fract_x
_atom_site_fract_y
_atom_site_fract_z
Si Si1 0.806820 0.993156 0.197257
Si Si2 0.267828 0.085043 0.629313
Si Si3 0.432607 0.896140 0.210159
Si Si4 0.374595 0.071010 0.331448
Si Si5 0.678728 0.735185 0.917837
Si Si6 0.351377 0.734038 0.288663
O O1 0.851978 0.097922 0.268190
O O2 0.789576 0.934775 0.332904
O O3 0.837342 0.895850 0.133849
O O4 0.747100 0.039025 0.049875
O O5 0.290318 0.215795 0.647856
O O6 0.321742 0.018466 0.764578
O O7 0.500000 0.869792 0.250000
O O8 0.409038 0.788533 0.277992
O O9 0.428178 0.013699 0.298160
O O10 0.393489 0.907137 0.019559
O O11 0.352807 0.189482 0.240535
O O12 0.750000 0.750000 0.000000
O O13 0.649920 0.766697 0.040890
#
# Coordination Sequence:
#
# PCOD8151182 Si02
#       6
#     8   8   8   8   8   8
#     4  12  22  34  56  86 133 165 197 232 302 373
#     4  11  20  34  55  88 125 161 195 241 291 383
#     4  11  25  44  67  88 118 159 217 273 307 345
#     4  11  22  39  63  93 123 159 204 250 312 362
#     4  12  22  37  58  92 137 164 193 240 304 390
#     4  11  23  38  58  88 123 167 210 250 305 364
#
# _framework density 19.92146
#
# number of rings (size 3 to 8) (size 9 to 14) (size 15 to 20)
#    0.000    0.667    5.000    5.000    2.333    0.000 
#    0.000    0.000    0.000    5.000    0.000    0.000 
#    0.000    0.000    0.000    0.000    0.000    0.000 
#
# Total GULP energy -297581.817524 kJ/mol
# GULP energy per Si atom -12399.242397 kJ/mol
# Density = 1.987612 g / cm^3
# Si number density = 19.921460 Si / 1000 Ang^3
#
#
#
# Elastic Constant Matrix: (Units=GPa)
#
#
# Indices 1 2 3 4 5 6 
#
# 1 95.0899 23.7013 5.7258 0.0000 -14.4883 0.0000
# 2 23.7013 105.2544 -11.0811 0.0000 -6.1707 0.0000
# 3 5.7258 -11.0811 44.7796 0.0000 -15.0001 0.0000
# 4 0.0000 0.0000 0.0000 31.1475 0.0000 -5.6858
# 5 -14.4883 -6.1707 -15.0001 0.0000 25.6530 0.0000
# 6 0.0000 0.0000 0.0000 -5.6858 0.0000 22.4299
#
#
#
# Elastic Compliance Matrix: (Units=1/GPa)
#
#
# Indices 1 2 3 4 5 6 
#
# 1 0.012053 -0.002354 -0.000041 0.000000 0.006217 0.000000
# 2 -0.002354 0.010687 0.004180 0.000000 0.003686 0.000000
# 3 -0.000041 0.004180 0.029473 0.000000 0.018216 0.000000
# 4 0.000000 0.000000 0.000000 0.033663 0.000000 0.008533
# 5 0.006217 0.003686 0.018216 0.000000 0.054031 0.000000
# 6 0.000000 0.000000 0.000000 0.008533 0.000000 0.046747
#
#
# Mechanical properties :
#
#
# Convention : Reuss Voigt Hill
#
# Bulk Modulus (GPa) = 17.92651 31.31287 24.61969
# Shear Modulus (GPa) = 24.79198 30.96458 27.87828
#
# Velocity S-wave (km/s) = 3.53155 3.94678 3.74493
# Velocity P-wave (km/s) = 5.06432 6.04332 5.57535
#
# Compressibility (1/GPa) = 0.05578330
#
# Stress axis : x y z
#
# Youngs Moduli (GPa) = 82.96830 93.57165 33.92904
#
# Poissons Ratio (x) = 0.22026 0.00140
# Poissons Ratio (y) = 0.19530 -0.14183
# Poissons Ratio (z) = 0.00341 -0.39114
#
# Static dielectric constant tensor:
#      x y z
#    x 3.317420 0.000000 -0.338560 
#    y 0.000000 3.880720 0.000000 
#    z -0.338560 0.000000 3.677480 
# 
# 
# High freq. dielectric constant tensor:
#      x y z
#    x 1.734020 0.000000 -0.034180 
#    y 0.000000 1.788440 0.000000 
#    z -0.034180 0.000000 1.784560 
# 
# From -- ./inp_files/60528.got.cif
#   From: 2010.06.25/outbox.cif.g09.slc.cpg/sg15_31_cif.got.tgz:60528.got - 2010.06.28 07:06:18.
