data_PCOD8151059
_publ_section_title
;
Structure prediction by ZEFSAII (Michael W. Deem and Ramdas Pophale) SiO2 
 PCOD8151059
Probable space group: C 2/C
;
_chemical_formula_sum "Si O2"
_cell_formula_units_Z 52
_cell_length_a 18.440082
_cell_length_b 10.480618
_cell_length_c 12.165037
_cell_angle_alpha 90.000000
_cell_angle_beta 66.900007
_cell_angle_gamma 90.000000
_cell_volume 2162.552961
_symmetry_space_group_name_H-M "C 2/C"
_symmetry_group_IT_number 15
_symmetry_cell_setting 'monoclinic'
loop_
_space_group_symop_operation_xyz
x,y,z
-x,y,1/2-z
-x,-y,-z
x,-y,1/2+z
1/2+x,1/2+y,z
1/2-x,1/2+y,1/2-z
1/2-x,1/2-y,-z
1/2+x,1/2-y,1/2+z
loop_
_atom_site_type_symbol
_atom_site_label
_atom_site_fract_x
_atom_site_fract_y
_atom_site_fract_z
Si Si1 0.176509 0.633870 0.354314
Si Si2 0.500000 0.936857 0.250000
Si Si3 0.176693 0.762670 0.655256
Si Si4 0.118941 0.424993 0.529709
Si Si5 0.253777 0.013340 0.393621
Si Si6 0.103880 0.140679 0.986381
Si Si7 0.558191 0.260668 0.897245
O O1 0.243476 0.655098 0.410992
O O2 0.116532 0.524752 0.428888
O O3 0.225444 0.610203 0.215805
O O4 0.128668 0.767563 0.369524
O O5 0.470628 0.853075 0.165438
O O6 0.431889 0.030417 0.335391
O O7 0.201139 0.617232 0.662316
O O8 0.119769 0.773734 0.585442
O O9 0.132213 0.821089 0.789193
O O10 0.210121 0.418932 0.518290
O O11 0.086470 0.292690 0.499304
O O12 0.157532 0.988514 0.458202
O O13 0.008334 0.128155 0.042131
#
# Coordination Sequence:
#
# PCOD8151059 Si02
#       7
#     8   4   8   8   8   8   8
#     4  11  20  35  59  86 114 160 207 247 296 365
#     4  12  20  30  52  90 120 144 188 246 320 346
#     4  11  19  36  60  87 116 159 202 249 301 362
#     4  12  21  33  56  89 124 149 193 254 312 356
#     4  11  21  37  57  85 122 160 199 249 309 359
#     4  11  21  37  59  89 122 156 202 255 301 361
#     4  12  21  34  58  90 121 153 198 258 304 355
#
# _framework density 24.045653000000001
#
# number of rings (size 3 to 8) (size 9 to 14) (size 15 to 20)
#    0.000    0.615    9.231    1.385    2.154    0.000 
#    0.000    1.538    0.000    0.000    0.000    0.000 
#    0.000    0.000    0.000    0.000    0.000    0.000 
#
# Total GULP energy -322126.746263 kJ/mol
# GULP energy per Si atom -12389.490241 kJ/mol
# Density = 2.399092 g / cm^3
# Si number density = 24.045653 Si / 1000 Ang^3
#
#
#
# Elastic Constant Matrix: (Units=GPa)
#
#
# Indices 1 2 3 4 5 6 
#
# 1 90.1678 9.6726 28.6928 0.0000 -20.1263 0.0000
# 2 9.6726 23.8806 16.9734 0.0000 0.0997 0.0000
# 3 28.6928 16.9734 89.1964 0.0000 -17.7586 0.0000
# 4 0.0000 0.0000 0.0000 29.8982 0.0000 -4.9216
# 5 -20.1263 0.0997 -17.7586 0.0000 40.9537 0.0000
# 6 0.0000 0.0000 0.0000 -4.9216 0.0000 26.4290
#
#
#
# Elastic Compliance Matrix: (Units=1/GPa)
#
#
# Indices 1 2 3 4 5 6 
#
# 1 0.013538 -0.003698 -0.002544 0.000000 0.005559 0.000000
# 2 -0.003698 0.050205 -0.009577 0.000000 -0.006092 0.000000
# 3 -0.002544 -0.009577 0.014894 0.000000 0.005231 0.000000
# 4 0.000000 0.000000 0.000000 0.034505 0.000000 0.006425
# 5 0.005559 -0.006092 0.005231 0.000000 0.029433 0.000000
# 6 0.000000 0.000000 0.000000 0.006425 0.000000 0.039034
#
#
# Mechanical properties :
#
#
# Convention : Reuss Voigt Hill
#
# Bulk Modulus (GPa) = 21.27775 34.88028 28.07902
# Shear Modulus (GPa) = 21.84244 29.31659 25.57951
#
# Velocity S-wave (km/s) = 3.01719 3.49550 3.26512
# Velocity P-wave (km/s) = 4.58324 5.55236 5.09091
#
# Compressibility (1/GPa) = 0.04699745
#
# Stress axis : x y z
#
# Youngs Moduli (GPa) = 73.86879 19.91824 67.14275
#
# Poissons Ratio (x) = 0.07366 0.17084
# Poissons Ratio (y) = 0.27317 0.64303
# Poissons Ratio (z) = 0.18795 0.19076
#
# Static dielectric constant tensor:
#      x y z
#    x 4.699090 0.000000 -0.355410 
#    y 0.000000 3.751890 0.000000 
#    z -0.355410 0.000000 4.342140 
# 
# 
# High freq. dielectric constant tensor:
#      x y z
#    x 1.965160 0.000000 -0.015820 
#    y 0.000000 1.898230 0.000000 
#    z -0.015820 0.000000 1.951420 
# 
# From -- ./inp_files/110927.got.cif
#   From: 2010.06.25/outbox.cif.g09.slc.cpg/sg15_56_cif.got.tgz:110927.got - 2010.06.28 07:06:18.
