data_PCOD8151625
_publ_section_title
;
Structure prediction by ZEFSAII (Michael W. Deem and Ramdas Pophale) SiO2 
 PCOD8151625
Probable space group: C 2/C
;
_chemical_formula_sum "Si O2"
_cell_formula_units_Z 40
_cell_length_a 9.763058
_cell_length_b 12.012555
_cell_length_c 18.688927
_cell_angle_alpha 90.000000
_cell_angle_beta 66.611136
_cell_angle_gamma 90.000000
_cell_volume 2011.725522
_symmetry_space_group_name_H-M "C 2/C"
_symmetry_group_IT_number 15
_symmetry_cell_setting 'monoclinic'
loop_
_space_group_symop_operation_xyz
x,y,z
-x,y,1/2-z
-x,-y,-z
x,-y,1/2+z
1/2+x,1/2+y,z
1/2-x,1/2+y,1/2-z
1/2-x,1/2-y,-z
1/2+x,1/2-y,1/2+z
loop_
_atom_site_type_symbol
_atom_site_label
_atom_site_fract_x
_atom_site_fract_y
_atom_site_fract_z
Si Si1 0.100875 0.798444 0.563196
Si Si2 0.898183 0.999063 0.839272
Si Si3 0.425577 0.912447 0.105505
Si Si4 0.899010 0.613724 0.449680
Si Si5 0.937340 0.139091 0.957736
O O1 0.250000 0.750000 0.500000
O O2 0.146269 0.879397 0.618964
O O3 0.990231 0.705054 0.622205
O O4 0.030282 0.867119 0.511387
O O5 0.000000 0.981228 0.750000
O O6 0.751268 0.069748 0.846273
O O7 0.994745 0.061650 0.880908
O O8 0.517119 0.020469 0.116696
O O9 0.467040 0.898017 0.014205
O O10 0.931499 0.740241 0.420203
O O11 0.723623 0.591941 0.485628
#
# Coordination Sequence:
#
# PCOD8151625 Si02
#       5
#     8   8   8   8   8
#     4  11  21  37  65  90 113 159 212 256 295 360
#     4  11  23  39  56  86 127 160 193 255 318 364
#     4   9  18  35  55  85 116 150 193 242 302 355
#     4   8  14  30  60  85 109 141 194 248 283 342
#     4   9  17  32  59  87 111 150 202 241 292 362
#
# _framework density 19.883429
#
# number of rings (size 3 to 8) (size 9 to 14) (size 15 to 20)
#    0.000    2.400    0.000    6.600    0.000    0.000 
#    7.200    0.000    0.000    0.000    0.000    0.000 
#    0.000    0.000    0.000    0.000    0.000    0.000 
#
# Total GULP energy -247768.408784 kJ/mol
# GULP energy per Si atom -12388.420439 kJ/mol
# Density = 1.983817 g / cm^3
# Si number density = 19.883429 Si / 1000 Ang^3
#
#
#
# Elastic Constant Matrix: (Units=GPa)
#
#
# Indices 1 2 3 4 5 6 
#
# 1 80.1631 29.6255 26.5413 0.0000 -7.5030 0.0000
# 2 29.6255 97.8988 46.3771 0.0000 -10.1435 0.0000
# 3 26.5413 46.3771 91.9612 0.0000 -11.3955 0.0000
# 4 0.0000 0.0000 0.0000 16.9723 0.0000 -3.9939
# 5 -7.5030 -10.1435 -11.3955 0.0000 16.1594 0.0000
# 6 0.0000 0.0000 0.0000 -3.9939 0.0000 40.9692
#
#
#
# Elastic Compliance Matrix: (Units=1/GPa)
#
#
# Indices 1 2 3 4 5 6 
#
# 1 0.014656 -0.003000 -0.002309 0.000000 0.003294 0.000000
# 2 -0.003000 0.014275 -0.005912 0.000000 0.003399 0.000000
# 3 -0.002309 -0.005912 0.015263 0.000000 0.005980 0.000000
# 4 0.000000 0.000000 0.000000 0.060303 0.000000 0.005879
# 5 0.003294 0.003399 0.005980 0.000000 0.069763 0.000000
# 6 0.000000 0.000000 0.000000 0.005879 0.000000 0.024982
#
#
# Mechanical properties :
#
#
# Convention : Reuss Voigt Hill
#
# Bulk Modulus (GPa) = 45.97217 52.79009 49.38113
# Shear Modulus (GPa) = 21.84019 25.98545 23.91282
#
# Velocity S-wave (km/s) = 3.31783 3.61902 3.47169
# Velocity P-wave (km/s) = 6.15210 6.63856 6.39995
#
# Compressibility (1/GPa) = 0.02175229
#
# Stress axis : x y z
#
# Youngs Moduli (GPa) = 68.23143 70.05051 65.51717
#
# Poissons Ratio (x) = 0.21016 0.15127
# Poissons Ratio (y) = 0.20470 0.38735
# Poissons Ratio (z) = 0.15753 0.41416
#
# Static dielectric constant tensor:
#      x y z
#    x 3.757140 0.000000 0.087990 
#    y 0.000000 4.364090 0.000000 
#    z 0.087990 0.000000 3.045710 
# 
# 
# High freq. dielectric constant tensor:
#      x y z
#    x 1.774970 0.000000 -0.010680 
#    y 0.000000 1.803530 0.000000 
#    z -0.010680 0.000000 1.701860 
# 
# From -- ./inp_files/229773.got.cif
#   From: 2010.06.25/outbox.cif.g09.slc.cpg/sg15_115_cif.got.tgz:229773.got - 2010.06.28 07:06:18.
