data_PCOD8151201
_publ_section_title
;
Structure prediction by ZEFSAII (Michael W. Deem and Ramdas Pophale) SiO2 
 PCOD8151201
Probable space group: C 2/C
;
_chemical_formula_sum "Si O2"
_cell_formula_units_Z 56
_cell_length_a 21.205131
_cell_length_b 15.323148
_cell_length_c 8.412870
_cell_angle_alpha 90.000000
_cell_angle_beta 119.566115
_cell_angle_gamma 90.000000
_cell_volume 2377.639434
_symmetry_space_group_name_H-M "C 2/C"
_symmetry_group_IT_number 15
_symmetry_cell_setting 'monoclinic'
loop_
_space_group_symop_operation_xyz
x,y,z
-x,y,1/2-z
-x,-y,-z
x,-y,1/2+z
1/2+x,1/2+y,z
1/2-x,1/2+y,1/2-z
1/2-x,1/2-y,-z
1/2+x,1/2-y,1/2+z
loop_
_atom_site_type_symbol
_atom_site_label
_atom_site_fract_x
_atom_site_fract_y
_atom_site_fract_z
Si Si1 0.224191 0.092492 0.089286
Si Si2 0.654296 0.969111 0.205858
Si Si3 0.919754 0.837313 0.221611
Si Si4 0.803659 0.197420 0.171075
Si Si5 0.426109 0.693923 0.082989
Si Si6 0.422675 0.101844 0.593259
Si Si7 0.166016 0.317665 0.992679
O O1 0.264355 0.998742 0.137499
O O2 0.231734 0.114199 0.286930
O O3 0.139248 0.096037 0.931557
O O4 0.264237 0.168176 0.034783
O O5 0.629546 0.910549 0.321498
O O6 0.647955 0.914846 0.033186
O O7 0.604819 0.053802 0.102754
O O8 0.917055 0.856933 0.405942
O O9 0.000000 0.854222 0.250000
O O10 0.898568 0.734377 0.176163
O O11 0.867705 0.164031 0.139226
O O12 0.823969 0.260610 0.339263
O O13 0.750000 0.250000 0.000000
O O14 0.500000 0.661674 0.250000
O O15 0.425339 0.797255 0.051768
O O16 0.500000 0.066255 0.750000
#
# Coordination Sequence:
#
# PCOD8151201 Si02
#       7
#     8   8   8   8   8   8   8
#     4  11  24  41  61  94 136 178 226 273 343 401
#     4  12  23  41  59  91 134 185 224 270 330 403
#     4  11  24  43  69  97 135 176 222 282 342 401
#     4  11  20  35  60  87 123 162 215 273 315 384
#     4  11  22  39  63  97 126 165 219 276 333 397
#     4  11  24  38  60  90 133 175 226 270 330 398
#     4  11  22  39  60  91 128 172 218 269 333 396
#
# _framework density 23.552772000000001
#
# number of rings (size 3 to 8) (size 9 to 14) (size 15 to 20)
#    0.000    0.857    2.857    7.286    2.000    0.571 
#    0.000    0.000    0.000    0.857    0.000    2.000 
#    0.000    0.000    0.000    0.000    0.000    0.000 
#
# Total GULP energy -346976.340122 kJ/mol
# GULP energy per Si atom -12392.012147 kJ/mol
# Density = 2.349917 g / cm^3
# Si number density = 23.552772 Si / 1000 Ang^3
#
#
#
# Elastic Constant Matrix: (Units=GPa)
#
#
# Indices 1 2 3 4 5 6 
#
# 1 168.9620 7.3886 50.9355 0.0000 -7.2857 0.0000
# 2 7.3886 25.2694 6.5315 0.0000 8.2537 0.0000
# 3 50.9355 6.5315 119.4653 0.0000 -7.6591 0.0000
# 4 0.0000 0.0000 0.0000 23.9271 0.0000 -4.6685
# 5 -7.2857 8.2537 -7.6591 0.0000 50.1453 0.0000
# 6 0.0000 0.0000 0.0000 -4.6685 0.0000 19.4492
#
#
#
# Elastic Compliance Matrix: (Units=1/GPa)
#
#
# Indices 1 2 3 4 5 6 
#
# 1 0.006863 -0.001556 -0.002788 0.000000 0.000827 0.000000
# 2 -0.001556 0.043092 -0.002183 0.000000 -0.007652 0.000000
# 3 -0.002788 -0.002183 0.009771 0.000000 0.001447 0.000000
# 4 0.000000 0.000000 0.000000 0.043847 0.000000 0.010525
# 5 0.000827 -0.007652 0.001447 0.000000 0.021543 0.000000
# 6 0.000000 0.000000 0.000000 0.010525 0.000000 0.053942
#
#
# Mechanical properties :
#
#
# Convention : Reuss Voigt Hill
#
# Bulk Modulus (GPa) = 21.42612 49.26754 35.34683
# Shear Modulus (GPa) = 24.07662 35.29373 29.68518
#
# Velocity S-wave (km/s) = 3.20072 3.87524 3.55402
# Velocity P-wave (km/s) = 4.77245 6.40208 5.64637
#
# Compressibility (1/GPa) = 0.04667201
#
# Stress axis : x y z
#
# Youngs Moduli (GPa) = 145.71624 23.20601 102.33977
#
# Poissons Ratio (x) = 0.03611 0.28531
# Poissons Ratio (y) = 0.22677 0.22341
# Poissons Ratio (z) = 0.40623 0.05066
#
# Static dielectric constant tensor:
#      x y z
#    x 4.366460 0.000000 -0.181600 
#    y 0.000000 4.835980 0.000000 
#    z -0.181600 0.000000 4.148090 
# 
# 
# High freq. dielectric constant tensor:
#      x y z
#    x 1.935780 0.000000 -0.014510 
#    y 0.000000 1.905100 0.000000 
#    z -0.014510 0.000000 1.951790 
# 
# From -- ./inp_files/56735.got.cif
#   From: 2010.06.25/outbox.cif.g09.slc.cpg/sg15_29_cif.got.tgz:56735.got - 2010.06.28 07:06:18.
