data_PCOD8151177
_publ_section_title
;
Structure prediction by ZEFSAII (Michael W. Deem and Ramdas Pophale) SiO2 
 PCOD8151177
Probable space group: C 2/C
;
_chemical_formula_sum "Si O2"
_cell_formula_units_Z 48
_cell_length_a 17.459043
_cell_length_b 13.365567
_cell_length_c 12.027965
_cell_angle_alpha 90.000000
_cell_angle_beta 57.331141
_cell_angle_gamma 90.000000
_cell_volume 2362.713756
_symmetry_space_group_name_H-M "C 2/C"
_symmetry_group_IT_number 15
_symmetry_cell_setting 'monoclinic'
loop_
_space_group_symop_operation_xyz
x,y,z
-x,y,1/2-z
-x,-y,-z
x,-y,1/2+z
1/2+x,1/2+y,z
1/2-x,1/2+y,1/2-z
1/2-x,1/2-y,-z
1/2+x,1/2-y,1/2+z
loop_
_atom_site_type_symbol
_atom_site_label
_atom_site_fract_x
_atom_site_fract_y
_atom_site_fract_z
Si Si1 0.266044 0.373436 0.081743
Si Si2 0.562659 0.014087 0.287133
Si Si3 0.907937 0.718213 0.888371
Si Si4 0.258800 0.092735 0.437968
Si Si5 0.968549 0.355500 0.020706
Si Si6 0.777689 0.291697 0.146402
O O1 0.160247 0.361458 0.119863
O O2 0.296908 0.490171 0.045498
O O3 0.268592 0.334615 0.206433
O O4 0.341718 0.314205 0.952456
O O5 0.500000 0.948235 0.250000
O O6 0.638990 0.058303 0.151027
O O7 0.504006 0.108929 0.374342
O O8 0.586764 0.946225 0.373729
O O9 0.000000 0.748189 0.750000
O O10 0.942839 0.681635 0.981311
O O11 0.247628 0.176374 0.352073
O O12 0.241707 0.137363 0.574258
O O13 0.887392 0.277848 0.066164
#
# Coordination Sequence:
#
# PCOD8151177 Si02
#       6
#     8   8   8   8   8   8
#     4  11  24  41  67  90 122 166 204 249 310 360
#     4  11  20  33  61  88 117 158 200 255 313 352
#     4  11  22  40  64  93 122 156 209 253 298 363
#     4  11  23  40  60  90 125 161 206 248 307 368
#     4  11  21  35  59  91 122 152 201 260 305 350
#     4  11  23  39  61  89 126 161 197 258 306 362
#
# _framework density 20.315622000000001
#
# number of rings (size 3 to 8) (size 9 to 14) (size 15 to 20)
#    0.000    1.000    5.000    2.500    2.333    2.667 
#    0.000    0.833    7.333    0.000    0.000    0.000 
#    0.000    0.000    0.000    0.000    0.000    0.000 
#
# Total GULP energy -297316.328330 kJ/mol
# GULP energy per Si atom -12388.180347 kJ/mol
# Density = 2.026938 g / cm^3
# Si number density = 20.315622 Si / 1000 Ang^3
#
#
#
# Elastic Constant Matrix: (Units=GPa)
#
#
# Indices 1 2 3 4 5 6 
#
# 1 72.1024 27.9917 8.8440 0.0000 0.8365 0.0000
# 2 27.9917 128.9449 26.5274 0.0000 3.0356 0.0000
# 3 8.8440 26.5274 70.9910 0.0000 -4.3938 0.0000
# 4 0.0000 0.0000 0.0000 13.5567 0.0000 9.5133
# 5 0.8365 3.0356 -4.3938 0.0000 35.9986 0.0000
# 6 0.0000 0.0000 0.0000 9.5133 0.0000 25.5010
#
#
#
# Elastic Compliance Matrix: (Units=1/GPa)
#
#
# Indices 1 2 3 4 5 6 
#
# 1 0.015180 -0.003141 -0.000728 0.000000 -0.000177 0.000000
# 2 -0.003141 0.009095 -0.003073 0.000000 -0.001069 0.000000
# 3 -0.000728 -0.003073 0.015459 0.000000 0.002163 0.000000
# 4 0.000000 0.000000 0.000000 0.099923 0.000000 -0.037277
# 5 -0.000177 -0.001069 0.002163 0.000000 0.028137 0.000000
# 6 0.000000 0.000000 0.000000 -0.037277 0.000000 0.053120
#
#
# Mechanical properties :
#
#
# Convention : Reuss Voigt Hill
#
# Bulk Modulus (GPa) = 38.68720 44.30717 41.49718
# Shear Modulus (GPa) = 20.54094 28.92295 24.73195
#
# Velocity S-wave (km/s) = 3.18322 3.77726 3.49289
# Velocity P-wave (km/s) = 5.70919 6.39378 6.06116
#
# Compressibility (1/GPa) = 0.02584834
#
# Stress axis : x y z
#
# Youngs Moduli (GPa) = 65.87578 109.95547 64.68620
#
# Poissons Ratio (x) = 0.34541 0.04711
# Poissons Ratio (y) = 0.20694 0.19879
# Poissons Ratio (z) = 0.04797 0.33792
#
# Static dielectric constant tensor:
#      x y z
#    x 3.685940 0.000000 0.046640 
#    y 0.000000 3.828570 0.000000 
#    z 0.046640 0.000000 3.699140 
# 
# 
# High freq. dielectric constant tensor:
#      x y z
#    x 1.788530 0.000000 0.009890 
#    y 0.000000 1.787410 0.000000 
#    z 0.009890 0.000000 1.801920 
# 
# From -- ./inp_files/96834.got.cif
#   From: 2010.06.25/outbox.cif.g09.slc.cpg/sg15_49_cif.got.tgz:96834.got - 2010.06.28 07:06:18.
