data_PCOD8151420
_publ_section_title
;
Structure prediction by ZEFSAII (Michael W. Deem and Ramdas Pophale) SiO2 
 PCOD8151420
Probable space group: C 2/C
;
_chemical_formula_sum "Si O2"
_cell_formula_units_Z 44
_cell_length_a 11.488925
_cell_length_b 22.557325
_cell_length_c 9.605952
_cell_angle_alpha 90.000000
_cell_angle_beta 116.913047
_cell_angle_gamma 90.000000
_cell_volume 2219.849248
_symmetry_space_group_name_H-M "C 2/C"
_symmetry_group_IT_number 15
_symmetry_cell_setting 'monoclinic'
loop_
_space_group_symop_operation_xyz
x,y,z
-x,y,1/2-z
-x,-y,-z
x,-y,1/2+z
1/2+x,1/2+y,z
1/2-x,1/2+y,1/2-z
1/2-x,1/2-y,-z
1/2+x,1/2-y,1/2+z
loop_
_atom_site_type_symbol
_atom_site_label
_atom_site_fract_x
_atom_site_fract_y
_atom_site_fract_z
Si Si1 0.653583 0.214737 0.046075
Si Si2 0.000000 0.640692 0.750000
Si Si3 0.143595 0.014728 0.323316
Si Si4 0.260596 0.571709 0.841602
Si Si5 0.539303 0.325574 0.114900
Si Si6 0.881587 0.142987 0.284746
O O1 0.594195 0.259028 0.128715
O O2 0.738586 0.164450 0.165523
O O3 0.750000 0.250000 0.000000
O O4 0.537083 0.183153 0.898905
O O5 0.883394 0.597463 0.728057
O O6 0.202897 0.031435 0.505240
O O7 0.124190 0.072292 0.216705
O O8 0.000000 0.984376 0.250000
O O9 0.236900 0.968229 0.295862
O O10 0.357541 0.627210 0.888203
O O11 0.500000 0.338566 0.250000
O O12 0.408332 0.332910 0.953549
O O13 0.000000 0.166590 0.250000
#
# Coordination Sequence:
#
# PCOD8151420 Si02
#       6
#     8   4   8   8   8   8
#     4  12  21  42  69  93 130 180 220 265 335 407
#     4  12  24  44  70  98 132 178 224 260 342 404
#     4  11  22  42  68  98 128 173 225 273 325 385
#     4  12  25  42  67  99 132 175 219 275 329 395
#     4  12  26  41  66 104 132 165 228 288 326 382
#     4  11  20  41  68  93 126 174 225 269 325 393
#
# _framework density 19.821165000000001
#
# number of rings (size 3 to 8) (size 9 to 14) (size 15 to 20)
#    0.000    0.364    9.091    2.182    2.545    1.455 
#    0.000    0.000    0.000    0.000    0.000    0.000 
#    0.000    0.000    0.000    0.000    0.000    0.000 
#
# Total GULP energy -272867.150539 kJ/mol
# GULP energy per Si atom -12403.052297 kJ/mol
# Density = 1.977605 g / cm^3
# Si number density = 19.821165 Si / 1000 Ang^3
#
#
#
# Elastic Constant Matrix: (Units=GPa)
#
#
# Indices 1 2 3 4 5 6 
#
# 1 80.6641 45.5849 54.1651 0.0000 5.9237 0.0000
# 2 45.5849 88.3474 40.1097 0.0000 -2.3241 0.0000
# 3 54.1651 40.1097 132.7400 0.0000 4.1586 0.0000
# 4 0.0000 0.0000 0.0000 29.8170 0.0000 -10.9749
# 5 5.9237 -2.3241 4.1586 0.0000 33.5427 0.0000
# 6 0.0000 0.0000 0.0000 -10.9749 0.0000 24.7205
#
#
#
# Elastic Compliance Matrix: (Units=1/GPa)
#
#
# Indices 1 2 3 4 5 6 
#
# 1 0.021543 -0.008428 -0.006130 0.000000 -0.003628 0.000000
# 2 -0.008428 0.016482 -0.001630 0.000000 0.002832 0.000000
# 3 -0.006130 -0.001630 0.010538 0.000000 -0.000337 0.000000
# 4 0.000000 0.000000 0.000000 0.040089 0.000000 0.017798
# 5 -0.003628 0.002832 -0.000337 0.000000 0.030692 0.000000
# 6 0.000000 0.000000 0.000000 0.017798 0.000000 0.048354
#
#
# Mechanical properties :
#
#
# Convention : Reuss Voigt Hill
#
# Bulk Modulus (GPa) = 61.77977 64.60791 63.19384
# Shear Modulus (GPa) = 24.33461 28.40882 26.37172
#
# Velocity S-wave (km/s) = 3.50767 3.78994 3.65154
# Velocity P-wave (km/s) = 6.90226 7.19845 7.05191
#
# Compressibility (1/GPa) = 0.01618653
#
# Stress axis : x y z
#
# Youngs Moduli (GPa) = 46.41952 60.67216 94.89339
#
# Poissons Ratio (x) = 0.51133 0.58173
# Poissons Ratio (y) = 0.39121 0.15469
# Poissons Ratio (z) = 0.28457 0.09890
#
# Static dielectric constant tensor:
#      x y z
#    x 3.471340 0.000000 0.078550 
#    y 0.000000 3.783110 0.000000 
#    z 0.078550 0.000000 4.450380 
# 
# 
# High freq. dielectric constant tensor:
#      x y z
#    x 1.749790 0.000000 0.009090 
#    y 0.000000 1.785160 0.000000 
#    z 0.009090 0.000000 1.777540 
# 
# From -- ./inp_files/32429.got.cif
#   From: 2010.06.25/outbox.cif.g09.slc.cpg/sg15_17_cif.got.tgz:32429.got - 2010.06.28 07:06:18.
