data_PCOD8151293
_publ_section_title
;
Structure prediction by ZEFSAII (Michael W. Deem and Ramdas Pophale) SiO2 
 PCOD8151293
Probable space group: C 2/C
;
_chemical_formula_sum "Si O2"
_cell_formula_units_Z 52
_cell_length_a 13.336853
_cell_length_b 26.776953
_cell_length_c 10.082617
_cell_angle_alpha 90.000000
_cell_angle_beta 129.673466
_cell_angle_gamma 90.000000
_cell_volume 2771.447268
_symmetry_space_group_name_H-M "C 2/C"
_symmetry_group_IT_number 15
_symmetry_cell_setting 'monoclinic'
loop_
_space_group_symop_operation_xyz
x,y,z
-x,y,1/2-z
-x,-y,-z
x,-y,1/2+z
1/2+x,1/2+y,z
1/2-x,1/2+y,1/2-z
1/2-x,1/2-y,-z
1/2+x,1/2-y,1/2+z
loop_
_atom_site_type_symbol
_atom_site_label
_atom_site_fract_x
_atom_site_fract_y
_atom_site_fract_z
Si Si1 0.947714 0.711220 0.009757
Si Si2 0.138538 0.769011 0.806450
Si Si3 0.334747 0.961514 0.483396
Si Si4 0.230306 0.141813 0.918114
Si Si5 0.500000 0.294677 0.250000
Si Si6 0.216529 0.344148 0.739693
Si Si7 0.634338 0.953181 0.682828
O O1 0.888933 0.723378 0.816879
O O2 0.868382 0.665132 0.999227
O O3 0.926014 0.760197 0.081258
O O4 0.097859 0.695389 0.139885
O O5 0.180612 0.820870 0.774633
O O6 0.000000 0.782811 0.750000
O O7 0.250000 0.750000 0.000000
O O8 0.237090 0.915155 0.371026
O O9 0.478807 0.950222 0.551805
O O10 0.324544 0.969575 0.633536
O O11 0.295668 0.009783 0.363859
O O12 0.104086 0.171077 0.756214
O O13 0.214484 0.147388 0.061948
O O14 0.174817 0.399296 0.661087
#
# Coordination Sequence:
#
# PCOD8151293 Si02
#       7
#     8   8   8   8   4   8   8
#     4  12  21  37  59  89 117 152 196 243 292 350
#     4  12  26  41  54  81 126 169 199 231 288 363
#     4   9  18  35  57  83 116 143 190 247 297 353
#     4  11  21  35  61  89 115 148 196 253 297 341
#     4  12  22  32  58  90 116 148 194 246 288 342
#     4  11  20  38  62  84 117 154 195 245 301 344
#     4   9  18  35  58  86 111 146 190 246 302 348
#
# _framework density 18.76276
#
# number of rings (size 3 to 8) (size 9 to 14) (size 15 to 20)
#    0.000    1.231    6.154    1.385    0.000    0.000 
#    2.769    1.538    1.692    1.846    0.000    0.000 
#    0.000    0.000    0.000    0.000    0.000    0.000 
#
# Total GULP energy -322221.273084 kJ/mol
# GULP energy per Si atom -12393.125888 kJ/mol
# Density = 1.872005 g / cm^3
# Si number density = 18.762760 Si / 1000 Ang^3
#
#
#
# Elastic Constant Matrix: (Units=GPa)
#
#
# Indices 1 2 3 4 5 6 
#
# 1 95.3396 45.5463 16.3475 0.0000 -2.6018 0.0000
# 2 45.5463 130.0213 20.9929 0.0000 -12.4655 0.0000
# 3 16.3475 20.9929 48.0767 0.0000 -7.6246 0.0000
# 4 0.0000 0.0000 0.0000 19.2255 0.0000 -2.5016
# 5 -2.6018 -12.4655 -7.6246 0.0000 25.0429 0.0000
# 6 0.0000 0.0000 0.0000 -2.5016 0.0000 30.6997
#
#
#
# Elastic Compliance Matrix: (Units=1/GPa)
#
#
# Indices 1 2 3 4 5 6 
#
# 1 0.012951 -0.004238 -0.002810 0.000000 -0.001620 0.000000
# 2 -0.004238 0.009908 -0.002283 0.000000 0.003797 0.000000
# 3 -0.002810 -0.002283 0.023669 0.000000 0.005778 0.000000
# 4 0.000000 0.000000 0.000000 0.052572 0.000000 0.004284
# 5 -0.001620 0.003797 0.005778 0.000000 0.043412 0.000000
# 6 0.000000 0.000000 0.000000 0.004284 0.000000 0.032923
#
#
# Mechanical properties :
#
#
# Convention : Reuss Voigt Hill
#
# Bulk Modulus (GPa) = 35.88695 48.80120 42.34408
# Shear Modulus (GPa) = 24.58372 27.69701 26.14036
#
# Velocity S-wave (km/s) = 3.62365 3.84626 3.73661
# Velocity P-wave (km/s) = 6.05607 6.76691 6.42133
#
# Compressibility (1/GPa) = 0.02786528
#
# Stress axis : x y z
#
# Youngs Moduli (GPa) = 77.21277 100.92459 42.24956
#
# Poissons Ratio (x) = 0.42776 0.11872
# Poissons Ratio (y) = 0.32726 0.09647
# Poissons Ratio (z) = 0.21696 0.23044
#
# Static dielectric constant tensor:
#      x y z
#    x 3.397110 0.000000 -0.088840 
#    y 0.000000 3.582080 0.000000 
#    z -0.088840 0.000000 3.375670 
# 
# 
# High freq. dielectric constant tensor:
#      x y z
#    x 1.719980 0.000000 -0.002700 
#    y 0.000000 1.730740 0.000000 
#    z -0.002700 0.000000 1.713620 
# 
# From -- ./inp_files/34436.got.cif
#   From: 2010.06.25/outbox.cif.g09.slc.cpg/sg15_18_cif.got.tgz:34436.got - 2010.06.28 07:06:18.
