data_PCOD8151740
_publ_section_title
;
Structure prediction by ZEFSAII (Michael W. Deem and Ramdas Pophale) SiO2 
 PCOD8151740
Probable space group: C 2/C
;
_chemical_formula_sum "Si O2"
_cell_formula_units_Z 64
_cell_length_a 13.271127
_cell_length_b 24.672204
_cell_length_c 16.710479
_cell_angle_alpha 90.000000
_cell_angle_beta 145.882188
_cell_angle_gamma 90.000000
_cell_volume 3068.932235
_symmetry_space_group_name_H-M "C 2/C"
_symmetry_group_IT_number 15
_symmetry_cell_setting 'monoclinic'
loop_
_space_group_symop_operation_xyz
x,y,z
-x,y,1/2-z
-x,-y,-z
x,-y,1/2+z
1/2+x,1/2+y,z
1/2-x,1/2+y,1/2-z
1/2-x,1/2-y,-z
1/2+x,1/2-y,1/2+z
loop_
_atom_site_type_symbol
_atom_site_label
_atom_site_fract_x
_atom_site_fract_y
_atom_site_fract_z
Si Si1 0.794528 0.721456 0.309124
Si Si2 0.022261 0.631544 0.976797
Si Si3 0.552282 0.372915 0.580244
Si Si4 0.161894 0.325843 0.294992
Si Si5 0.918238 0.902437 0.078221
Si Si6 0.570810 0.281471 0.382256
Si Si7 0.763863 0.442262 0.392921
Si Si8 0.333099 0.440645 0.694697
O O1 0.932908 0.689624 0.456461
O O2 0.679705 0.679911 0.178487
O O3 0.671592 0.761285 0.282412
O O4 0.916108 0.762856 0.340064
O O5 0.884642 0.639565 0.814419
O O6 0.945639 0.590887 0.994566
O O7 0.209544 0.604651 0.070922
O O8 0.348294 0.350679 0.450703
O O9 0.594285 0.406815 0.526426
O O10 0.590825 0.418335 0.671736
O O11 0.000000 0.334407 0.250000
O O12 0.866580 0.841453 0.060423
O O13 0.779521 0.939438 0.039506
O O14 0.115355 0.913145 0.241067
O O15 0.500000 0.272715 0.250000
O O16 0.750000 0.250000 0.500000
O O17 0.780959 0.503874 0.372955
O O18 0.500000 0.455639 0.750000
#
# Coordination Sequence:
#
# PCOD8151740 Si02
#       8
#     8   8   8   8   8   8   8   8
#     4  11  25  40  64  97 136 176 215 270 334 411
#     4  11  24  43  66  94 133 172 224 273 339 402
#     4  11  24  43  66  99 135 169 233 274 330 401
#     4  12  25  42  65  94 131 178 225 277 328 394
#     4  11  21  39  67  96 130 167 216 269 330 403
#     4  12  23  36  63  97 133 172 211 258 332 402
#     4  11  21  43  68  95 128 173 219 277 345 398
#     4  11  24  44  67  95 128 177 226 283 339 387
#
# _framework density 20.854158999999999
#
# number of rings (size 3 to 8) (size 9 to 14) (size 15 to 20)
#    0.000    0.750    5.000    3.375    1.750    4.500 
#    0.000    1.875    0.000    1.500    0.000    0.000 
#    0.000    0.000    0.000    0.000    0.000    0.000 
#
# Total GULP energy -396642.557186 kJ/mol
# GULP energy per Si atom -12395.079912 kJ/mol
# Density = 2.080669 g / cm^3
# Si number density = 20.854159 Si / 1000 Ang^3
#
#
#
# Elastic Constant Matrix: (Units=GPa)
#
#
# Indices 1 2 3 4 5 6 
#
# 1 102.7131 35.9590 24.3047 0.0000 -7.7722 0.0000
# 2 35.9590 113.1042 32.7767 0.0000 -13.9749 0.0000
# 3 24.3047 32.7767 96.8306 0.0001 -8.9827 0.0000
# 4 0.0000 0.0000 0.0001 34.0195 0.0000 0.9193
# 5 -7.7722 -13.9749 -8.9827 0.0000 28.0493 0.0000
# 6 0.0000 0.0000 0.0000 0.9193 0.0000 36.2647
#
#
#
# Elastic Compliance Matrix: (Units=1/GPa)
#
#
# Indices 1 2 3 4 5 6 
#
# 1 0.011258 -0.002943 -0.001728 0.000000 0.001100 0.000000
# 2 -0.002943 0.011013 -0.002634 0.000000 0.003828 0.000000
# 3 -0.001728 -0.002634 0.011838 0.000000 0.002000 0.000000
# 4 0.000000 0.000000 0.000000 0.029415 0.000000 -0.000746
# 5 0.001100 0.003828 0.002000 0.000000 0.038504 0.000000
# 6 0.000000 0.000000 0.000000 -0.000746 0.000000 0.027594
#
#
# Mechanical properties :
#
#
# Convention : Reuss Voigt Hill
#
# Bulk Modulus (GPa) = 51.28078 55.41430 53.34754
# Shear Modulus (GPa) = 33.17145 34.30720 33.73933
#
# Velocity S-wave (km/s) = 3.99261 4.06039 4.02664
# Velocity P-wave (km/s) = 6.77482 6.97225 6.87424
#
# Compressibility (1/GPa) = 0.01950048
#
# Stress axis : x y z
#
# Youngs Moduli (GPa) = 88.82473 90.79895 84.47256
#
# Poissons Ratio (x) = 0.26719 0.14594
# Poissons Ratio (y) = 0.26138 0.22252
# Poissons Ratio (z) = 0.15346 0.23918
#
# Static dielectric constant tensor:
#      x y z
#    x 3.913670 0.000000 -0.044460 
#    y 0.000000 3.821670 0.000000 
#    z -0.044460 0.000000 3.794940 
# 
# 
# High freq. dielectric constant tensor:
#      x y z
#    x 1.818220 0.000000 0.005810 
#    y 0.000000 1.823090 0.000000 
#    z 0.005810 0.000000 1.819430 
# 
# From -- ./inp_files/207385.got.cif
#   From: 2010.06.25/outbox.cif.g09.slc.cpg/sg15_104_cif.got.tgz:207385.got - 2010.06.28 07:06:18.
