data_PCOD8151831
_publ_section_title
;
Structure prediction by ZEFSAII (Michael W. Deem and Ramdas Pophale) SiO2 
 PCOD8151831
Probable space group: C 2/C
;
_chemical_formula_sum "Si O2"
_cell_formula_units_Z 44
_cell_length_a 9.298956
_cell_length_b 17.176944
_cell_length_c 16.992784
_cell_angle_alpha 90.000000
_cell_angle_beta 133.488841
_cell_angle_gamma 90.000000
_cell_volume 1969.187580
_symmetry_space_group_name_H-M "C 2/C"
_symmetry_group_IT_number 15
_symmetry_cell_setting 'monoclinic'
loop_
_space_group_symop_operation_xyz
x,y,z
-x,y,1/2-z
-x,-y,-z
x,-y,1/2+z
1/2+x,1/2+y,z
1/2-x,1/2+y,1/2-z
1/2-x,1/2-y,-z
1/2+x,1/2-y,1/2+z
loop_
_atom_site_type_symbol
_atom_site_label
_atom_site_fract_x
_atom_site_fract_y
_atom_site_fract_z
Si Si1 0.168102 0.488221 0.865883
Si Si2 0.457230 0.455247 0.597326
Si Si3 0.500000 0.421236 0.250000
Si Si4 0.526572 0.828059 0.874937
Si Si5 0.070066 0.206851 0.194266
Si Si6 0.807302 0.295481 0.397396
O O1 0.352372 0.455889 0.886330
O O2 0.047673 0.415815 0.854753
O O3 0.000000 0.533614 0.750000
O O4 0.255141 0.540673 0.969488
O O5 0.471593 0.527661 0.661577
O O6 0.451859 0.374429 0.642281
O O7 0.691108 0.366320 0.312041
O O8 0.304440 0.801514 0.780648
O O9 0.661976 0.772087 0.873519
O O10 0.572517 0.827799 0.984121
O O11 0.030865 0.262566 0.104340
O O12 0.000000 0.245643 0.250000
#
# Coordination Sequence:
#
# PCOD8151831 Si02
#       6
#     8   8   4   8   8   8
#     4  11  21  41  67 102 140 179 234 286 349 412
#     4  11  24  39  69 106 138 180 230 294 346 413
#     4  12  22  44  66 108 136 176 236 292 336 422
#     4  11  21  41  74  98 131 189 236 288 342 425
#     4  12  24  44  68  99 149 183 229 290 360 414
#     4  11  23  42  73 100 132 182 244 280 347 420
#
# _framework density 22.344241
#
# number of rings (size 3 to 8) (size 9 to 14) (size 15 to 20)
#    0.000    0.727    8.182    0.000    0.000    0.727 
#    3.273    3.636    0.000    0.000    0.000    0.000 
#    0.000    0.000    0.000    0.000    0.000    0.000 
#
# Total GULP energy -272803.033869 kJ/mol
# GULP energy per Si atom -12400.137903 kJ/mol
# Density = 2.229338 g / cm^3
# Si number density = 22.344241 Si / 1000 Ang^3
#
#
#
# Elastic Constant Matrix: (Units=GPa)
#
#
# Indices 1 2 3 4 5 6 
#
# 1 89.9199 16.9253 21.5903 0.0000 -36.3680 0.0000
# 2 16.9253 72.2970 23.7632 0.0000 -19.3563 0.0000
# 3 21.5903 23.7632 148.7686 0.0000 -22.1384 0.0000
# 4 0.0000 0.0000 0.0000 21.2976 0.0000 -3.8014
# 5 -36.3680 -19.3563 -22.1384 0.0000 35.4903 0.0000
# 6 0.0000 0.0000 0.0000 -3.8014 0.0000 28.6036
#
#
#
# Elastic Compliance Matrix: (Units=1/GPa)
#
#
# Indices 1 2 3 4 5 6 
#
# 1 0.019043 0.000883 0.000078 0.000000 0.020044 0.000000
# 2 0.000883 0.016508 -0.001423 0.000000 0.009020 0.000000
# 3 0.000078 -0.001423 0.007534 0.000000 0.004004 0.000000
# 4 0.000000 0.000000 0.000000 0.048094 0.000000 0.006392
# 5 0.020044 0.009020 0.004004 0.000000 0.056133 0.000000
# 6 0.000000 0.000000 0.000000 0.006392 0.000000 0.035810
#
#
# Mechanical properties :
#
#
# Convention : Reuss Voigt Hill
#
# Bulk Modulus (GPa) = 23.71879 48.39366 36.05622
# Shear Modulus (GPa) = 25.23985 33.65875 29.44930
#
# Velocity S-wave (km/s) = 3.36458 3.88541 3.63434
# Velocity P-wave (km/s) = 5.07268 6.46791 5.81231
#
# Compressibility (1/GPa) = 0.04216067
#
# Stress axis : x y z
#
# Youngs Moduli (GPa) = 52.51307 60.57725 132.74020
#
# Poissons Ratio (x) = -0.05347 -0.01037
# Poissons Ratio (y) = -0.04635 0.18884
# Poissons Ratio (z) = -0.00410 0.08618
#
# Static dielectric constant tensor:
#      x y z
#    x 3.991540 0.000000 -0.279490 
#    y 0.000000 3.868080 0.000000 
#    z -0.279490 0.000000 4.564600 
# 
# 
# High freq. dielectric constant tensor:
#      x y z
#    x 1.872110 0.000000 -0.016580 
#    y 0.000000 1.862330 0.000000 
#    z -0.016580 0.000000 1.904550 
# 
# From -- ./inp_files/134743.got.cif
#   From: 2010.06.25/outbox.cif.g09.slc.cpg/sg15_68_cif.got.tgz:134743.got - 2010.06.28 07:06:18.
