data_PCOD8151848
_publ_section_title
;
Structure prediction by ZEFSAII (Michael W. Deem and Ramdas Pophale) SiO2 
 PCOD8151848
Probable space group: C 2/C
;
_chemical_formula_sum "Si O2"
_cell_formula_units_Z 56
_cell_length_a 18.129962
_cell_length_b 15.544662
_cell_length_c 8.939093
_cell_angle_alpha 90.000000
_cell_angle_beta 102.379411
_cell_angle_gamma 90.000000
_cell_volume 2460.677945
_symmetry_space_group_name_H-M "C 2/C"
_symmetry_group_IT_number 15
_symmetry_cell_setting 'monoclinic'
loop_
_space_group_symop_operation_xyz
x,y,z
-x,y,1/2-z
-x,-y,-z
x,-y,1/2+z
1/2+x,1/2+y,z
1/2-x,1/2+y,1/2-z
1/2-x,1/2-y,-z
1/2+x,1/2-y,1/2+z
loop_
_atom_site_type_symbol
_atom_site_label
_atom_site_fract_x
_atom_site_fract_y
_atom_site_fract_z
Si Si1 0.767310 0.728521 0.176304
Si Si2 0.570967 0.380277 0.350301
Si Si3 0.188381 0.016257 0.355602
Si Si4 0.075651 0.674165 0.846201
Si Si5 0.234791 0.600868 0.833774
Si Si6 0.389667 0.658837 0.316792
Si Si7 0.572541 0.796132 0.693337
O O1 0.773337 0.813739 0.282784
O O2 0.700213 0.670364 0.204274
O O3 0.844709 0.672010 0.214858
O O4 0.750000 0.750000 0.000000
O O5 0.500000 0.434508 0.250000
O O6 0.648188 0.432266 0.407590
O O7 0.559670 0.337190 0.509996
O O8 0.576973 0.305738 0.228016
O O9 0.226058 0.078883 0.492342
O O10 0.114066 0.063126 0.252946
O O11 0.252363 0.981000 0.269488
O O12 0.146045 0.616768 0.822657
O O13 0.078343 0.770468 0.781297
O O14 0.000000 0.628814 0.750000
O O15 0.066965 0.679973 0.018904
O O16 0.500000 0.836822 0.750000
#
# Coordination Sequence:
#
# PCOD8151848 Si02
#       7
#     8   8   8   8   8   8   8
#     4  11  21  41  69 100 129 180 226 286 336 400
#     4  11  23  40  61  96 139 184 223 269 344 416
#     4  12  23  44  64  99 136 189 227 273 337 414
#     4  11  25  45  69 103 137 175 229 295 350 397
#     4  11  25  44  70  99 140 179 237 279 336 416
#     4  11  23  40  69  95 135 176 228 283 342 404
#     4  11  22  39  66 101 136 172 224 283 345 412
#
# _framework density 22.757956
#
# number of rings (size 3 to 8) (size 9 to 14) (size 15 to 20)
#    0.000    0.857    4.286    3.429    2.000    3.429 
#    0.000    0.714    0.000    0.857    0.000    0.000 
#    0.000    0.000    0.000    0.000    0.000    0.000 
#
# Total GULP energy -346916.323378 kJ/mol
# GULP energy per Si atom -12389.868692 kJ/mol
# Density = 2.270616 g / cm^3
# Si number density = 22.757956 Si / 1000 Ang^3
#
#
#
# Elastic Constant Matrix: (Units=GPa)
#
#
# Indices 1 2 3 4 5 6 
#
# 1 142.7459 3.0092 62.0167 0.0000 8.4698 0.0000
# 2 3.0092 46.4162 25.3070 0.0000 -2.3751 0.0000
# 3 62.0167 25.3070 176.5997 0.0000 3.8493 0.0000
# 4 0.0000 0.0000 0.0000 31.8201 0.0000 0.4741
# 5 8.4698 -2.3751 3.8493 0.0000 41.2648 0.0000
# 6 0.0000 0.0000 0.0000 0.4741 0.0000 24.8175
#
#
#
# Elastic Compliance Matrix: (Units=1/GPa)
#
#
# Indices 1 2 3 4 5 6 
#
# 1 0.008399 0.001060 -0.003071 0.000000 -0.001376 0.000000
# 2 0.001060 0.023618 -0.003789 0.000000 0.001495 0.000000
# 3 -0.003071 -0.003789 0.007290 0.000000 -0.000268 0.000000
# 4 0.000000 0.000000 0.000000 0.031436 0.000000 -0.000601
# 5 -0.001376 0.001495 -0.000268 0.000000 0.024627 0.000000
# 6 0.000000 0.000000 0.000000 -0.000601 0.000000 0.040306
#
#
# Mechanical properties :
#
#
# Convention : Reuss Voigt Hill
#
# Bulk Modulus (GPa) = 36.09435 60.71417 48.40426
# Shear Modulus (GPa) = 31.94631 37.94241 34.94436
#
# Velocity S-wave (km/s) = 3.75072 4.08758 3.92277
# Velocity P-wave (km/s) = 5.88657 7.00099 6.46783
#
# Compressibility (1/GPa) = 0.02770517
#
# Stress axis : x y z
#
# Youngs Moduli (GPa) = 119.05942 42.34062 137.17538
#
# Poissons Ratio (x) = -0.04487 0.42132
# Poissons Ratio (y) = -0.12616 0.51978
# Poissons Ratio (z) = 0.36568 0.16044
#
# Static dielectric constant tensor:
#      x y z
#    x 4.792840 0.000000 0.148670 
#    y 0.000000 0.970810 0.000000 
#    z 0.148670 0.000000 4.179170 
# 
# 
# High freq. dielectric constant tensor:
#      x y z
#    x 1.915070 0.000000 0.002610 
#    y 0.000000 1.862860 0.000000 
#    z 0.002610 0.000000 1.913220 
# 
# From -- ./inp_files/49172.got.cif
#   From: 2010.06.25/outbox.cif.g09.slc.cpg/sg15_25_cif.got.tgz:49172.got - 2010.06.28 07:06:18.
