data_PCOD8151552
_publ_section_title
;
Structure prediction by ZEFSAII (Michael W. Deem and Ramdas Pophale) SiO2 
 PCOD8151552
Probable space group: C 2/C
;
_chemical_formula_sum "Si O2"
_cell_formula_units_Z 48
_cell_length_a 31.119114
_cell_length_b 7.613177
_cell_length_c 23.110419
_cell_angle_alpha 90.000000
_cell_angle_beta 154.474643
_cell_angle_gamma 90.000000
_cell_volume 2359.326536
_symmetry_space_group_name_H-M "C 2/C"
_symmetry_group_IT_number 15
_symmetry_cell_setting 'monoclinic'
loop_
_space_group_symop_operation_xyz
x,y,z
-x,y,1/2-z
-x,-y,-z
x,-y,1/2+z
1/2+x,1/2+y,z
1/2-x,1/2+y,1/2-z
1/2-x,1/2-y,-z
1/2+x,1/2-y,1/2+z
loop_
_atom_site_type_symbol
_atom_site_label
_atom_site_fract_x
_atom_site_fract_y
_atom_site_fract_z
Si Si1 0.247348 0.622781 0.654193
Si Si2 0.025592 0.195795 0.412710
Si Si3 0.974071 0.548507 0.152262
Si Si4 0.947929 0.314734 0.436339
Si Si5 0.759094 0.272969 0.783001
Si Si6 0.557734 0.338104 0.175900
O O1 0.138001 0.615156 0.494117
O O2 0.266525 0.458974 0.719979
O O3 0.262413 0.787462 0.716547
O O4 0.325704 0.632262 0.696939
O O5 0.009805 0.345001 0.345121
O O6 0.140827 0.189171 0.570180
O O7 0.955793 0.231418 0.382933
O O8 0.988233 0.005416 0.344984
O O9 0.000000 0.573050 0.250000
O O10 0.048695 0.666446 0.204855
O O11 0.833412 0.353428 0.313066
O O12 0.000000 0.500000 0.500000
O O13 0.996815 0.184482 0.542467
#
# Coordination Sequence:
#
# PCOD8151552 Si02
#       6
#     8   8   8   8   8   8
#     4  11  23  38  65  96 129 166 207 264 327 382
#     4  11  23  41  65  94 132 165 207 272 319 383
#     4  11  27  47  63  89 129 176 222 259 312 383
#     4  12  20  35  61 101 131 161 199 260 334 380
#     4  11  21  35  61  99 131 161 200 254 336 387
#     4  12  23  40  67  96 126 163 215 270 321 378
#
# _framework density 20.344788999999999
#
# number of rings (size 3 to 8) (size 9 to 14) (size 15 to 20)
#    0.000    0.667    6.667    2.500    0.000    1.333 
#    0.000    0.833    0.000    0.000    0.000    0.000 
#    0.000    0.000    0.000    0.000    0.000    0.000 
#
# Total GULP energy -297638.184372 kJ/mol
# GULP energy per Si atom -12401.591016 kJ/mol
# Density = 2.029848 g / cm^3
# Si number density = 20.344789 Si / 1000 Ang^3
#
#
#
# Elastic Constant Matrix: (Units=GPa)
#
#
# Indices 1 2 3 4 5 6 
#
# 1 99.5349 27.3283 63.1893 0.0000 10.9545 0.0000
# 2 27.3283 93.6766 43.1881 0.0000 6.0898 0.0000
# 3 63.1893 43.1881 79.8705 0.0000 5.8874 0.0000
# 4 0.0000 0.0000 0.0000 18.2854 0.0000 5.8710
# 5 10.9545 6.0898 5.8874 0.0000 44.5485 0.0000
# 6 0.0000 0.0000 0.0000 5.8710 0.0000 25.9057
#
#
#
# Elastic Compliance Matrix: (Units=1/GPa)
#
#
# Indices 1 2 3 4 5 6 
#
# 1 0.020880 0.002160 -0.017456 0.000000 -0.003123 0.000000
# 2 0.002160 0.014482 -0.009447 0.000000 -0.001262 0.000000
# 3 -0.017456 -0.009447 0.031333 0.000000 0.001443 0.000000
# 4 0.000000 0.000000 0.000000 0.058980 0.000000 -0.013367
# 5 -0.003123 -0.001262 0.001443 0.000000 0.023197 0.000000
# 6 0.000000 0.000000 0.000000 -0.013367 0.000000 0.041631
#
#
# Mechanical properties :
#
#
# Convention : Reuss Voigt Hill
#
# Bulk Modulus (GPa) = 58.11320 60.05482 59.08401
# Shear Modulus (GPa) = 20.34796 27.03968 23.69382
#
# Velocity S-wave (km/s) = 3.16596 3.64960 3.41635
# Velocity P-wave (km/s) = 6.48001 6.88055 6.68328
#
# Compressibility (1/GPa) = 0.01720779
#
# Stress axis : x y z
#
# Youngs Moduli (GPa) = 47.89378 69.05029 31.91573
#
# Poissons Ratio (x) = -0.14914 0.55714
# Poissons Ratio (y) = -0.10344 0.30149
# Poissons Ratio (z) = 0.83606 0.65229
#
# Static dielectric constant tensor:
#      x y z
#    x 4.225090 0.000000 0.512730 
#    y 0.000000 0.747520 0.000000 
#    z 0.512730 0.000000 3.638940 
# 
# 
# High freq. dielectric constant tensor:
#      x y z
#    x 1.786570 0.000000 0.033490 
#    y 0.000000 1.807870 0.000000 
#    z 0.033490 0.000000 1.776920 
# 
# From -- ./inp_files/257253.got.cif
#   From: 2010.06.25/outbox.cif.g09.slc.cpg/sg15_129_cif.got.tgz:257253.got - 2010.06.28 07:06:18.
