data_PCOD8151329
_publ_section_title
;
Structure prediction by ZEFSAII (Michael W. Deem and Ramdas Pophale) SiO2 
 PCOD8151329
Probable space group: C 2/C
;
_chemical_formula_sum "Si O2"
_cell_formula_units_Z 64
_cell_length_a 21.179541
_cell_length_b 16.155119
_cell_length_c 9.467813
_cell_angle_alpha 90.000000
_cell_angle_beta 94.427233
_cell_angle_gamma 90.000000
_cell_volume 3229.821943
_symmetry_space_group_name_H-M "C 2/C"
_symmetry_group_IT_number 15
_symmetry_cell_setting 'monoclinic'
loop_
_space_group_symop_operation_xyz
x,y,z
-x,y,1/2-z
-x,-y,-z
x,-y,1/2+z
1/2+x,1/2+y,z
1/2-x,1/2+y,1/2-z
1/2-x,1/2-y,-z
1/2+x,1/2-y,1/2+z
loop_
_atom_site_type_symbol
_atom_site_label
_atom_site_fract_x
_atom_site_fract_y
_atom_site_fract_z
Si Si1 0.615716 0.402347 0.568428
Si Si2 0.874999 0.161802 0.956446
Si Si3 0.806298 0.321336 0.263777
Si Si4 0.429722 0.269127 0.750119
Si Si5 0.746350 0.067121 0.958537
Si Si6 0.572326 0.545591 0.751140
Si Si7 0.243053 0.625906 0.455270
Si Si8 0.207081 0.304782 0.669762
O O1 0.569170 0.330184 0.614245
O O2 0.614734 0.474654 0.685622
O O3 0.598195 0.436516 0.411746
O O4 0.684476 0.358980 0.578007
O O5 0.820064 0.093157 0.969445
O O6 0.923832 0.126146 0.848416
O O7 0.851139 0.247797 0.886110
O O8 0.911113 0.177924 0.108599
O O9 0.881519 0.306730 0.269935
O O10 0.787782 0.409903 0.194768
O O11 0.776441 0.319331 0.414063
O O12 0.772160 0.248749 0.166186
O O13 0.500000 0.231162 0.750000
O O14 0.736059 0.971026 0.985475
O O15 0.709448 0.115269 0.073276
O O16 0.500000 0.515659 0.750000
O O17 0.197177 0.659637 0.325057
#
# Coordination Sequence:
#
# PCOD8151329 Si02
#       8
#     8   8   8   8   8   8   8   8
#     4  12  24  39  59  90 128 164 208 247 301 371
#     4  11  21  41  63  87 123 165 208 251 310 362
#     4  11  22  38  60  91 121 158 204 253 312 363
#     4  12  24  41  62  86 123 170 213 251 298 367
#     4  11  20  39  62  89 119 161 196 253 315 376
#     4  12  25  40  58  86 128 174 212 244 290 369
#     4  12  24  35  63  94 125 151 199 262 321 365
#     4  11  21  38  61  88 122 157 200 257 318 363
#
# _framework density 19.815334
#
# number of rings (size 3 to 8) (size 9 to 14) (size 15 to 20)
#    0.000    0.500    5.000    5.625    3.500    0.000 
#    0.000    0.000    0.000    0.750    0.000    0.000 
#    0.000    0.000    0.000    0.000    0.000    0.000 
#
# Total GULP energy -396865.171176 kJ/mol
# GULP energy per Si atom -12402.036599 kJ/mol
# Density = 1.977023 g / cm^3
# Si number density = 19.815334 Si / 1000 Ang^3
#
#
#
# Elastic Constant Matrix: (Units=GPa)
#
#
# Indices 1 2 3 4 5 6 
#
# 1 104.0681 22.2384 31.5123 0.0000 -9.7220 0.0000
# 2 22.2384 53.2180 3.8932 0.0000 -4.1587 0.0000
# 3 31.5123 3.8932 110.4190 0.0000 -4.6088 0.0000
# 4 0.0000 0.0000 0.0000 40.1226 0.0000 -7.2151
# 5 -9.7220 -4.1587 -4.6088 0.0000 22.6830 0.0000
# 6 0.0000 0.0000 0.0000 -7.2151 0.0000 24.8861
#
#
#
# Elastic Compliance Matrix: (Units=1/GPa)
#
#
# Indices 1 2 3 4 5 6 
#
# 1 0.011824 -0.004433 -0.003067 0.000000 0.003632 0.000000
# 2 -0.004433 0.020757 0.000618 0.000000 0.002031 0.000000
# 3 -0.003067 0.000618 0.009944 0.000000 0.000819 0.000000
# 4 0.000000 0.000000 0.000000 0.026295 0.000000 0.007623
# 5 0.003632 0.002031 0.000819 0.000000 0.046181 0.000000
# 6 0.000000 0.000000 0.000000 0.007623 0.000000 0.042393
#
#
# Mechanical properties :
#
#
# Convention : Reuss Voigt Hill
#
# Bulk Modulus (GPa) = 34.76828 42.55478 38.66153
# Shear Modulus (GPa) = 27.66340 31.54241 29.60290
#
# Velocity S-wave (km/s) = 3.74044 3.99409 3.86934
# Velocity P-wave (km/s) = 6.01987 6.54161 6.28615
#
# Compressibility (1/GPa) = 0.02876185
#
# Stress axis : x y z
#
# Youngs Moduli (GPa) = 84.57197 48.17758 100.56319
#
# Poissons Ratio (x) = 0.21357 0.30839
# Poissons Ratio (y) = 0.37490 -0.06215
# Poissons Ratio (z) = 0.25935 -0.02977
#
# Static dielectric constant tensor:
#      x y z
#    x 3.411410 0.000000 -0.026840 
#    y 0.000000 3.562530 0.000000 
#    z -0.026840 0.000000 3.875560 
# 
# 
# High freq. dielectric constant tensor:
#      x y z
#    x 1.738160 0.000000 -0.005400 
#    y 0.000000 1.765880 0.000000 
#    z -0.005400 0.000000 1.797870 
# 
# From -- ./inp_files/56612.got.cif
#   From: 2010.06.25/outbox.cif.g09.slc.cpg/sg15_29_cif.got.tgz:56612.got - 2010.06.28 07:06:18.
