data_PCOD8151480
_publ_section_title
;
Structure prediction by ZEFSAII (Michael W. Deem and Ramdas Pophale) SiO2 
 PCOD8151480
Probable space group: C 2/C
;
_chemical_formula_sum "Si O2"
_cell_formula_units_Z 56
_cell_length_a 13.814344
_cell_length_b 22.189853
_cell_length_c 17.070059
_cell_angle_alpha 90.000000
_cell_angle_beta 150.657713
_cell_angle_gamma 90.000000
_cell_volume 2564.122622
_symmetry_space_group_name_H-M "C 2/C"
_symmetry_group_IT_number 15
_symmetry_cell_setting 'monoclinic'
loop_
_space_group_symop_operation_xyz
x,y,z
-x,y,1/2-z
-x,-y,-z
x,-y,1/2+z
1/2+x,1/2+y,z
1/2-x,1/2+y,1/2-z
1/2-x,1/2-y,-z
1/2+x,1/2-y,1/2+z
loop_
_atom_site_type_symbol
_atom_site_label
_atom_site_fract_x
_atom_site_fract_y
_atom_site_fract_z
Si Si1 0.782737 0.980111 0.626665
Si Si2 0.234801 0.846842 0.922929
Si Si3 0.513571 0.925472 0.850078
Si Si4 0.231323 0.735472 0.193699
Si Si5 0.872105 0.169991 0.988872
Si Si6 0.103763 0.950046 0.625344
Si Si7 0.427040 0.794562 0.612294
O O1 0.698551 0.915343 0.541577
O O2 0.801863 0.983469 0.733543
O O3 0.000000 0.995592 0.750000
O O4 0.623059 0.025795 0.480135
O O5 0.337834 0.806156 0.929005
O O6 0.000000 0.843083 0.750000
O O7 0.277457 0.824734 0.042153
O O8 0.500000 0.945214 0.750000
O O9 0.284025 0.916751 0.710301
O O10 0.627355 0.862948 0.950893
O O11 0.441339 0.714496 0.372657
O O12 0.078652 0.734212 0.157705
O O13 0.242382 0.804806 0.168813
O O14 0.941129 0.100620 0.031643
O O15 0.000000 0.000000 0.500000
O O16 0.500000 0.804853 0.750000
O O17 0.250000 0.750000 0.500000
#
# Coordination Sequence:
#
# PCOD8151480 Si02
#       7
#     8   8   8   8   8   8   8
#     4  11  20  43  70  95 136 178 218 284 346 407
#     4   9  18  38  68  91 129 168 203 269 348 402
#     4  11  25  42  67  98 134 178 233 283 339 410
#     4  11  21  41  66  91 129 172 220 266 345 407
#     4  11  22  42  66  97 131 172 217 282 348 411
#     4  12  24  45  69  98 138 182 229 285 350 415
#     4  11  24  43  63  90 133 177 225 287 339 400
#
# _framework density 21.839829999999999
#
# number of rings (size 3 to 8) (size 9 to 14) (size 15 to 20)
#    0.000    1.143    5.714    2.571    2.000    0.571 
#    7.714    0.000    0.000    0.000    0.000    0.000 
#    0.000    0.000    0.000    0.000    0.000    0.000 
#
# Total GULP energy -347021.310971 kJ/mol
# GULP energy per Si atom -12393.618249 kJ/mol
# Density = 2.179012 g / cm^3
# Si number density = 21.839830 Si / 1000 Ang^3
#
#
#
# Elastic Constant Matrix: (Units=GPa)
#
#
# Indices 1 2 3 4 5 6 
#
# 1 137.6418 25.8199 11.2720 0.0024 -13.5670 0.0002
# 2 25.8199 120.0974 39.6057 0.0016 -7.7345 -0.0005
# 3 11.2720 39.6057 43.6779 0.0068 -12.2810 0.0015
# 4 0.0024 0.0016 0.0068 15.6422 -0.0004 -13.8169
# 5 -13.5670 -7.7345 -12.2810 -0.0004 35.1514 0.0003
# 6 0.0002 -0.0005 0.0015 -13.8169 0.0003 31.7059
#
#
#
# Elastic Compliance Matrix: (Units=1/GPa)
#
#
# Indices 1 2 3 4 5 6 
#
# 1 0.007813 -0.001558 0.000164 -0.000002 0.002730 -0.000001
# 2 -0.001558 0.012241 -0.011211 0.000007 -0.001825 0.000004
# 3 0.000164 -0.011211 0.035866 -0.000026 0.010127 -0.000013
# 4 -0.000002 0.000007 -0.000026 0.103939 -0.000007 0.045295
# 5 0.002730 -0.001825 0.010127 -0.000007 0.032639 -0.000004
# 6 -0.000001 0.000004 -0.000013 0.045295 -0.000004 0.051279
#
#
# Mechanical properties :
#
#
# Convention : Reuss Voigt Hill
#
# Bulk Modulus (GPa) = 32.56237 50.53470 41.54853
# Shear Modulus (GPa) = 17.90686 31.48120 24.69403
#
# Velocity S-wave (km/s) = 2.86653 3.80077 3.36622
# Velocity P-wave (km/s) = 5.08900 6.51538 5.84586
#
# Compressibility (1/GPa) = 0.03071030
#
# Stress axis : x y z
#
# Youngs Moduli (GPa) = 127.98911 81.69178 27.88184
#
# Poissons Ratio (x) = 0.12728 -0.00457
# Poissons Ratio (y) = 0.19941 0.31258
# Poissons Ratio (z) = -0.02100 0.91583
#
# Static dielectric constant tensor:
#      x y z
#    x 4.160220 0.000000 -0.270510 
#    y 0.000000 3.966520 0.000000 
#    z -0.270510 0.000000 3.664450 
# 
# 
# High freq. dielectric constant tensor:
#      x y z
#    x 1.879040 0.000000 -0.013180 
#    y 0.000000 1.864090 0.000000 
#    z -0.013180 0.000000 1.834070 
# 
# From -- ./inp_files/206993.got.cif
#   From: 2010.06.25/outbox.cif.g09.slc.cpg/sg15_104_cif.got.tgz:206993.got - 2010.06.28 07:06:18.
