data_PCOD8151166
_publ_section_title
;
Structure prediction by ZEFSAII (Michael W. Deem and Ramdas Pophale) SiO2 
 PCOD8151166
Probable space group: C 2/C
;
_chemical_formula_sum "Si O2"
_cell_formula_units_Z 48
_cell_length_a 20.466596
_cell_length_b 25.770657
_cell_length_c 5.131277
_cell_angle_alpha 90.000000
_cell_angle_beta 106.622479
_cell_angle_gamma 90.000000
_cell_volume 2593.328033
_symmetry_space_group_name_H-M "C 2/C"
_symmetry_group_IT_number 15
_symmetry_cell_setting 'monoclinic'
loop_
_space_group_symop_operation_xyz
x,y,z
-x,y,1/2-z
-x,-y,-z
x,-y,1/2+z
1/2+x,1/2+y,z
1/2-x,1/2+y,1/2-z
1/2-x,1/2-y,-z
1/2+x,1/2-y,1/2+z
loop_
_atom_site_type_symbol
_atom_site_label
_atom_site_fract_x
_atom_site_fract_y
_atom_site_fract_z
Si Si1 0.879948 0.647628 0.670902
Si Si2 0.781347 0.970036 0.540780
Si Si3 0.381070 0.970042 0.152889
Si Si4 0.220002 0.852496 0.968025
Si Si5 0.188679 0.209777 0.936398
Si Si6 0.422965 0.792415 0.725361
O O1 0.907410 0.588807 0.701571
O O2 0.800546 0.650720 0.508710
O O3 0.921637 0.678975 0.501763
O O4 0.890713 0.670588 0.969647
O O5 0.700135 0.970560 0.438418
O O6 0.807321 0.911078 0.587968
O O7 0.810401 0.997761 0.317083
O O8 0.410127 0.003093 0.427075
O O9 0.183369 0.817078 0.711644
O O10 0.200530 0.833580 0.232482
O O11 0.118012 0.238836 0.803058
O O12 0.250000 0.250000 0.000000
O O13 0.500000 0.777628 0.750000
#
# Coordination Sequence:
#
# PCOD8151166 Si02
#       6
#     8   8   8   8   8   8
#     4  11  20  36  56  76 105 141 181 223 265 316
#     4   9  17  29  46  76 114 137 160 209 270 319
#     4   9  17  29  49  75  99 132 174 221 269 306
#     4  11  20  33  57  84 106 141 181 218 267 315
#     4  12  21  36  56  80 110 137 181 229 262 313
#     4  12  25  38  54  76 107 145 180 219 267 320
#
# _framework density 18.509034
#
# number of rings (size 3 to 8) (size 9 to 14) (size 15 to 20)
#    0.000    1.333    3.333    4.000    0.000    5.333 
#    0.000    0.000    0.000   10.000    0.000    0.000 
#    0.000   13.333    0.000    0.000    0.000    0.000 
#
# Total GULP energy -297713.552623 kJ/mol
# GULP energy per Si atom -12404.731359 kJ/mol
# Density = 1.846691 g / cm^3
# Si number density = 18.509034 Si / 1000 Ang^3
#
#
#
# Elastic Constant Matrix: (Units=GPa)
#
#
# Indices 1 2 3 4 5 6 
#
# 1 56.6248 26.5377 10.4254 0.0000 -0.1025 0.0000
# 2 26.5377 118.7107 33.8645 0.0000 -2.6244 0.0000
# 3 10.4254 33.8645 83.2002 0.0000 -28.9033 0.0000
# 4 0.0000 0.0000 0.0000 37.1409 0.0000 -14.1508
# 5 -0.1025 -2.6244 -28.9033 0.0000 21.5125 0.0000
# 6 0.0000 0.0000 0.0000 -14.1508 0.0000 15.7759
#
#
#
# Elastic Compliance Matrix: (Units=1/GPa)
#
#
# Indices 1 2 3 4 5 6 
#
# 1 0.019862 -0.003964 -0.001894 0.000000 -0.002934 0.000000
# 2 -0.003964 0.011033 -0.006625 0.000000 -0.007574 0.000000
# 3 -0.001894 -0.006625 0.027509 0.000000 0.036142 0.000000
# 4 0.000000 0.000000 0.000000 0.040904 0.000000 0.036690
# 5 -0.002934 -0.007574 0.036142 0.000000 0.094105 0.000000
# 6 0.000000 0.000000 0.000000 0.036690 0.000000 0.096298
#
#
# Mechanical properties :
#
#
# Convention : Reuss Voigt Hill
#
# Bulk Modulus (GPa) = 29.90866 44.46563 37.18715
# Shear Modulus (GPa) = 15.34578 27.39976 21.37277
#
# Velocity S-wave (km/s) = 2.88253 3.85170 3.40181
# Velocity P-wave (km/s) = 5.22232 6.62244 5.96361
#
# Compressibility (1/GPa) = 0.03343513
#
# Stress axis : x y z
#
# Youngs Moduli (GPa) = 50.34848 90.64121 36.35233
#
# Poissons Ratio (x) = 0.35934 0.06887
# Poissons Ratio (y) = 0.19961 0.24083
# Poissons Ratio (z) = 0.09538 0.60048
#
# Static dielectric constant tensor:
#      x y z
#    x 3.097590 0.000000 -0.271650 
#    y 0.000000 3.615450 0.000000 
#    z -0.271650 0.000000 3.515590 
# 
# 
# High freq. dielectric constant tensor:
#      x y z
#    x 1.674620 0.000000 -0.032980 
#    y 0.000000 1.728930 0.000000 
#    z -0.032980 0.000000 1.724870 
# 
# From -- ./inp_files/10731.got.cif
#   From: 2010.06.25/outbox.cif.g09.slc.cpg/sg15_6_cif.got.tgz:10731.got - 2010.06.28 07:06:18.
