data_PCOD8151331
_publ_section_title
;
Structure prediction by ZEFSAII (Michael W. Deem and Ramdas Pophale) SiO2 
 PCOD8151331
Probable space group: C 2/C
;
_chemical_formula_sum "Si O2"
_cell_formula_units_Z 52
_cell_length_a 18.857962
_cell_length_b 18.534544
_cell_length_c 8.960983
_cell_angle_alpha 90.000000
_cell_angle_beta 55.195994
_cell_angle_gamma 90.000000
_cell_volume 2571.776885
_symmetry_space_group_name_H-M "C 2/C"
_symmetry_group_IT_number 15
_symmetry_cell_setting 'monoclinic'
loop_
_space_group_symop_operation_xyz
x,y,z
-x,y,1/2-z
-x,-y,-z
x,-y,1/2+z
1/2+x,1/2+y,z
1/2-x,1/2+y,1/2-z
1/2-x,1/2-y,-z
1/2+x,1/2-y,1/2+z
loop_
_atom_site_type_symbol
_atom_site_label
_atom_site_fract_x
_atom_site_fract_y
_atom_site_fract_z
Si Si1 0.013873 0.722932 0.408381
Si Si2 0.964429 0.568863 0.458382
Si Si3 0.000000 0.031746 0.750000
Si Si4 0.328022 0.454764 0.858909
Si Si5 0.094094 0.143220 0.463238
Si Si6 0.760605 0.425718 0.232642
Si Si7 0.180086 0.800912 0.153576
O O1 0.110017 0.751623 0.323999
O O2 0.000000 0.716006 0.250000
O O3 0.997724 0.643461 0.497650
O O4 0.945721 0.782058 0.550414
O O5 0.861719 0.568445 0.582415
O O6 0.000000 0.564245 0.250000
O O7 0.000000 0.500000 0.500000
O O8 0.019712 0.082710 0.581969
O O9 0.918722 0.980542 0.817437
O O10 0.341040 0.383580 0.742070
O O11 0.287459 0.514536 0.803859
O O12 0.259988 0.435501 0.068813
O O13 0.140096 0.150861 0.568975
O O14 0.726261 0.348378 0.222803
O O15 0.250000 0.750000 0.000000
#
# Coordination Sequence:
#
# PCOD8151331 Si02
#       7
#     8   8   4   8   8   8   8
#     4   9  19  38  63  87 117 167 212 251 314 382
#     4  11  24  45  68  89 120 167 216 268 318 379
#     4  12  20  38  62  94 136 172 206 248 338 388
#     4  12  25  36  63  96 135 170 203 270 322 394
#     4  11  20  39  62  91 129 167 210 251 318 396
#     4  12  23  41  61  99 127 167 217 268 319 381
#     4  11  21  38  64  90 122 164 218 268 316 384
#
# _framework density 20.219484000000001
#
# number of rings (size 3 to 8) (size 9 to 14) (size 15 to 20)
#    0.000    0.923    5.385    4.154    2.154    1.231 
#    0.000    4.615    0.000    0.000    0.000    0.000 
#    0.000    0.000    0.000    0.000    0.000    0.000 
#
# Total GULP energy -322424.784997 kJ/mol
# GULP energy per Si atom -12400.953269 kJ/mol
# Density = 2.017346 g / cm^3
# Si number density = 20.219484 Si / 1000 Ang^3
#
#
#
# Elastic Constant Matrix: (Units=GPa)
#
#
# Indices 1 2 3 4 5 6 
#
# 1 85.6477 37.0950 27.5994 0.0000 -27.5826 0.0000
# 2 37.0950 120.9905 25.1904 0.0000 -9.3617 0.0000
# 3 27.5994 25.1904 113.4855 0.0000 -14.4216 0.0000
# 4 0.0000 0.0000 0.0000 39.4267 0.0000 -8.6538
# 5 -27.5826 -9.3617 -14.4216 0.0000 30.5581 0.0000
# 6 0.0000 0.0000 0.0000 -8.6538 0.0000 -3.9193
#
#
#
# Elastic Compliance Matrix: (Units=1/GPa)
#
#
# Indices 1 2 3 4 5 6 
#
# 1 0.018896 -0.004275 -0.001751 0.000000 0.014921 0.000000
# 2 -0.004275 0.009733 -0.001311 0.000000 -0.001495 0.000000
# 3 -0.001751 -0.001311 0.009868 0.000000 0.002676 0.000000
# 4 0.000000 0.000000 0.000000 0.017084 0.000000 -0.037721
# 5 0.014921 -0.001495 0.002676 0.000000 0.046997 0.000000
# 6 0.000000 0.000000 0.000000 -0.037721 0.000000 -0.171858
#
#
# Mechanical properties :
#
#
# Convention : Reuss Voigt Hill
#
# Bulk Modulus (GPa) = 41.97163 55.54369 48.75766
# Shear Modulus (GPa) = -107.14530 28.56234 -39.29148
#
# Velocity S-wave (km/s) = -7.28740 3.76255 -4.41301
# Velocity P-wave (km/s) = 7.07143 6.81218 1.34152
#
# Compressibility (1/GPa) = 0.02382562
#
# Stress axis : x y z
#
# Youngs Moduli (GPa) = 52.92019 102.74439 101.33324
#
# Poissons Ratio (x) = 0.43918 0.17740
# Poissons Ratio (y) = 0.22621 0.13283
# Poissons Ratio (z) = 0.09264 0.13468
#
# Static dielectric constant tensor:
#      x y z
#    x 3.740170 0.000000 -0.268230 
#    y 0.000000 4.207240 0.000000 
#    z -0.268230 0.000000 3.689480 
# 
# 
# High freq. dielectric constant tensor:
#      x y z
#    x 1.777000 0.000000 -0.022540 
#    y 0.000000 1.805900 0.000000 
#    z -0.022540 0.000000 1.780880 
# 
# From -- ./inp_files/48635.got.cif
#   From: 2010.06.25/outbox.cif.g09.slc.cpg/sg15_25_cif.got.tgz:48635.got - 2010.06.28 07:06:18.
