data_PCOD8151422
_publ_section_title
;
Structure prediction by ZEFSAII (Michael W. Deem and Ramdas Pophale) SiO2 
 PCOD8151422
Probable space group: C 2/C
;
_chemical_formula_sum "Si O2"
_cell_formula_units_Z 60
_cell_length_a 12.521910
_cell_length_b 14.073623
_cell_length_c 16.823127
_cell_angle_alpha 90.000000
_cell_angle_beta 77.227784
_cell_angle_gamma 90.000000
_cell_volume 2891.359846
_symmetry_space_group_name_H-M "C 2/C"
_symmetry_group_IT_number 15
_symmetry_cell_setting 'monoclinic'
loop_
_space_group_symop_operation_xyz
x,y,z
-x,y,1/2-z
-x,-y,-z
x,-y,1/2+z
1/2+x,1/2+y,z
1/2-x,1/2+y,1/2-z
1/2-x,1/2-y,-z
1/2+x,1/2-y,1/2+z
loop_
_atom_site_type_symbol
_atom_site_label
_atom_site_fract_x
_atom_site_fract_y
_atom_site_fract_z
Si Si1 0.617856 0.275884 0.772240
Si Si2 0.102615 0.352588 0.605577
Si Si3 0.652018 0.789450 0.964395
Si Si4 0.608968 0.035703 0.374621
Si Si5 0.316259 0.655454 0.676883
Si Si6 0.919824 0.672928 0.562691
Si Si7 0.500000 0.281523 0.250000
Si Si8 0.751685 0.053090 0.201417
O O1 0.500000 0.266653 0.750000
O O2 0.702544 0.210812 0.709738
O O3 0.621333 0.243813 0.863245
O O4 0.655876 0.385821 0.767765
O O5 0.132743 0.304461 0.515541
O O6 0.210576 0.388675 0.631655
O O7 0.019619 0.439276 0.600907
O O8 0.034858 0.280204 0.669632
O O9 0.680716 0.887080 0.912474
O O10 0.622656 0.705918 0.906755
O O11 0.750000 0.750000 0.000000
O O12 0.550630 0.813257 0.038084
O O13 0.650350 0.034187 0.277053
O O14 0.620952 0.932120 0.408909
O O15 0.395115 0.656850 0.741096
O O16 0.297674 0.545483 0.660590
#
# Coordination Sequence:
#
# PCOD8151422 Si02
#       8
#     8   8   8   8   8   8   4   8
#     4  12  26  46  65 101 141 176 225 278 338 413
#     4  11  20  41  68  93 133 167 229 284 319 388
#     4  11  22  40  64  99 138 171 220 282 349 402
#     4  11  21  40  65 102 132 167 227 287 329 391
#     4  12  25  43  70  97 130 189 221 271 343 406
#     4  11  25  40  67 103 134 173 227 288 339 382
#     4  12  20  46  68  90 132 184 228 270 328 406
#     4  12  25  42  66  99 131 179 226 267 344 401
#
# _framework density 20.751481999999999
#
# number of rings (size 3 to 8) (size 9 to 14) (size 15 to 20)
#    0.000    0.533    8.000    2.400    6.533    0.533 
#    0.000    0.667    0.000    0.000    0.000    0.000 
#    0.000    0.000    0.000    0.000    0.000    0.000 
#
# Total GULP energy -371949.617862 kJ/mol
# GULP energy per Si atom -12398.320595 kJ/mol
# Density = 2.070425 g / cm^3
# Si number density = 20.751482 Si / 1000 Ang^3
#
#
#
# Elastic Constant Matrix: (Units=GPa)
#
#
# Indices 1 2 3 4 5 6 
#
# 1 112.6142 37.6393 12.7243 0.0000 23.9710 0.0000
# 2 37.6393 114.0176 28.3788 0.0000 -1.2937 0.0000
# 3 12.7243 28.3788 97.8201 0.0000 8.8485 0.0000
# 4 0.0000 0.0000 0.0000 -5.1676 0.0000 -10.9711
# 5 23.9710 -1.2937 8.8485 0.0000 27.3152 0.0000
# 6 0.0000 0.0000 0.0000 -10.9711 0.0000 27.9390
#
#
#
# Elastic Compliance Matrix: (Units=1/GPa)
#
#
# Indices 1 2 3 4 5 6 
#
# 1 0.012801 -0.004534 0.000707 0.000000 -0.011678 0.000000
# 2 -0.004534 0.011110 -0.003133 0.000000 0.005520 0.000000
# 3 0.000707 -0.003133 0.011445 0.000000 -0.004476 0.000000
# 4 0.000000 0.000000 0.000000 -0.105532 0.000000 -0.041440
# 5 -0.011678 0.005520 -0.004476 0.000000 0.048569 0.000000
# 6 0.000000 0.000000 0.000000 -0.041440 0.000000 0.019519
#
#
# Mechanical properties :
#
#
# Convention : Reuss Voigt Hill
#
# Bulk Modulus (GPa) = 46.65257 53.54852 50.10055
# Shear Modulus (GPa) = 263.46999 26.39793 144.93396
#
# Velocity S-wave (km/s) = 11.28007 3.57052 8.36626
# Velocity P-wave (km/s) = 13.86304 6.54667 10.84072
#
# Compressibility (1/GPa) = 0.02143505
#
# Stress axis : x y z
#
# Youngs Moduli (GPa) = 78.11734 90.01086 87.37739
#
# Poissons Ratio (x) = 0.40814 -0.06174
# Poissons Ratio (y) = 0.35421 0.27372
# Poissons Ratio (z) = -0.05520 0.28197
#
# Static dielectric constant tensor:
#      x y z
#    x 4.783800 0.000000 0.230190 
#    y 0.000000 3.715800 0.000000 
#    z 0.230190 0.000000 4.019900 
# 
# 
# High freq. dielectric constant tensor:
#      x y z
#    x 1.800790 0.000000 0.007590 
#    y 0.000000 1.805230 0.000000 
#    z 0.007590 0.000000 1.823370 
# 
# From -- ./inp_files/197829.got.cif
#   From: 2010.06.25/outbox.cif.g09.slc.cpg/sg15_99_cif.got.tgz:197829.got - 2010.06.28 07:06:18.
