data_PCOD8151044
_publ_section_title
;
Structure prediction by ZEFSAII (Michael W. Deem and Ramdas Pophale) SiO2 
 PCOD8151044
Probable space group: C 2/C
;
_chemical_formula_sum "Si O2"
_cell_formula_units_Z 40
_cell_length_a 14.159482
_cell_length_b 18.128529
_cell_length_c 14.863269
_cell_angle_alpha 90.000000
_cell_angle_beta 150.355829
_cell_angle_gamma 90.000000
_cell_volume 1887.074092
_symmetry_space_group_name_H-M "C 2/C"
_symmetry_group_IT_number 15
_symmetry_cell_setting 'monoclinic'
loop_
_space_group_symop_operation_xyz
x,y,z
-x,y,1/2-z
-x,-y,-z
x,-y,1/2+z
1/2+x,1/2+y,z
1/2-x,1/2+y,1/2-z
1/2-x,1/2-y,-z
1/2+x,1/2-y,1/2+z
loop_
_atom_site_type_symbol
_atom_site_label
_atom_site_fract_x
_atom_site_fract_y
_atom_site_fract_z
Si Si1 0.588082 0.347184 0.738635
Si Si2 0.932979 0.918207 0.966252
Si Si3 0.490739 0.184694 0.642942
Si Si4 0.241100 0.822750 0.296548
Si Si5 0.070894 0.335133 0.707301
O O1 0.500000 0.393357 0.750000
O O2 0.534698 0.381326 0.601570
O O3 0.468201 0.271355 0.640350
O O4 0.814544 0.342541 0.937359
O O5 0.713356 0.905804 0.816678
O O6 0.061669 0.878428 0.149373
O O7 0.000000 0.000000 0.000000
O O8 0.500000 0.145732 0.750000
O O9 0.676142 0.169840 0.735760
O O10 0.180590 0.738470 0.265442
O O11 0.388246 0.849853 0.493833
O O12 0.000000 0.324934 0.750000
#
# Coordination Sequence:
#
# PCOD8151044 Si02
#       5
#     8   8   8   8   8
#     4  11  20  37  60  96 132 172 216 271 338 409
#     4  12  27  46  66 100 143 183 229 288 355 415
#     4  11  19  34  67 101 130 166 219 278 337 400
#     4  12  22  43  74 100 142 177 232 294 343 410
#     4  12  25  45  74 107 134 184 245 290 339 411
#
# _framework density 21.196836000000001
#
# number of rings (size 3 to 8) (size 9 to 14) (size 15 to 20)
#    0.000    0.400    6.000    5.400    0.000    0.800 
#    3.600    1.000    0.000    0.000    0.000    0.000 
#    0.000    0.000    0.000    0.000    0.000    0.000 
#
# Total GULP energy -247900.809261 kJ/mol
# GULP energy per Si atom -12395.040463 kJ/mol
# Density = 2.114859 g / cm^3
# Si number density = 21.196836 Si / 1000 Ang^3
#
#
#
# Elastic Constant Matrix: (Units=GPa)
#
#
# Indices 1 2 3 4 5 6 
#
# 1 114.7685 4.8499 37.7220 0.0107 -10.3433 0.0031
# 2 4.8499 77.4602 48.4823 0.0081 7.1301 0.0035
# 3 37.7220 48.4823 167.5159 0.0126 -6.5287 0.0078
# 4 0.0107 0.0081 0.0126 13.8552 0.0080 7.2073
# 5 -10.3433 7.1301 -6.5287 0.0080 33.3796 0.0033
# 6 0.0031 0.0035 0.0078 7.2073 0.0033 6.4864
#
#
#
# Elastic Compliance Matrix: (Units=1/GPa)
#
#
# Indices 1 2 3 4 5 6 
#
# 1 0.009645 0.000578 -0.002245 -0.000013 0.002426 0.000011
# 2 0.000578 0.016435 -0.005055 -0.000006 -0.004320 0.000006
# 3 -0.002245 -0.005055 0.008014 0.000000 0.001952 -0.000007
# 4 -0.000013 -0.000006 0.000000 0.171032 -0.000025 -0.190041
# 5 0.002426 -0.004320 0.001952 -0.000025 0.032015 0.000011
# 6 0.000011 0.000006 -0.000007 -0.190041 0.000011 0.365332
#
#
# Mechanical properties :
#
#
# Convention : Reuss Voigt Hill
#
# Bulk Modulus (GPa) = 48.42487 60.20589 54.31538
# Shear Modulus (GPa) = 8.02824 28.65693 18.34258
#
# Velocity S-wave (km/s) = 1.94825 3.68087 2.94487
# Velocity P-wave (km/s) = 5.28733 6.82129 6.10270
#
# Compressibility (1/GPa) = 0.02065055
#
# Stress axis : x y z
#
# Youngs Moduli (GPa) = 103.67858 60.84421 124.77916
#
# Poissons Ratio (x) = -0.03515 0.28007
# Poissons Ratio (y) = -0.05989 0.63078
# Poissons Ratio (z) = 0.23271 0.30758
#
# Static dielectric constant tensor:
#      x y z
#    x 3.995380 0.000000 0.040050 
#    y 0.000000 3.104540 0.000000 
#    z 0.040050 0.000000 3.989410 
# 
# 
# High freq. dielectric constant tensor:
#      x y z
#    x 1.850420 0.000000 -0.004900 
#    y 0.000000 1.767910 0.000000 
#    z -0.004900 0.000000 1.859450 
# 
# From -- ./inp_files/155356.got.cif
#   From: 2010.06.25/outbox.cif.g09.slc.cpg/sg15_78_cif.got.tgz:155356.got - 2010.06.28 07:06:18.
