data_PCOD8151591
_publ_section_title
;
Structure prediction by ZEFSAII (Michael W. Deem and Ramdas Pophale) SiO2 
 PCOD8151591
Probable space group: C 2/C
;
_chemical_formula_sum "Si O2"
_cell_formula_units_Z 48
_cell_length_a 12.320023
_cell_length_b 23.883008
_cell_length_c 8.590864
_cell_angle_alpha 90.000000
_cell_angle_beta 100.269841
_cell_angle_gamma 90.000000
_cell_volume 2487.271677
_symmetry_space_group_name_H-M "C 2/C"
_symmetry_group_IT_number 15
_symmetry_cell_setting 'monoclinic'
loop_
_space_group_symop_operation_xyz
x,y,z
-x,y,1/2-z
-x,-y,-z
x,-y,1/2+z
1/2+x,1/2+y,z
1/2-x,1/2+y,1/2-z
1/2-x,1/2-y,-z
1/2+x,1/2-y,1/2+z
loop_
_atom_site_type_symbol
_atom_site_label
_atom_site_fract_x
_atom_site_fract_y
_atom_site_fract_z
Si Si1 0.274695 0.843027 0.645657
Si Si2 0.379013 0.948571 0.792208
Si Si3 0.841416 0.751357 0.385087
Si Si4 0.944315 0.778473 0.880480
Si Si5 0.880537 0.434067 0.159998
Si Si6 0.191234 0.672492 0.692860
O O1 0.284527 0.906681 0.706325
O O2 0.340841 0.806842 0.790200
O O3 0.151155 0.820095 0.584989
O O4 0.331094 0.842726 0.491515
O O5 0.500000 0.936240 0.750000
O O6 0.337089 0.010216 0.734548
O O7 0.384291 0.944207 0.978188
O O8 0.750000 0.750000 0.500000
O O9 0.810805 0.800206 0.254909
O O10 0.966406 0.764057 0.465589
O O11 0.897331 0.721061 0.792256
O O12 0.000000 0.810822 0.750000
O O13 0.809527 0.380363 0.191080
O O14 0.000000 0.418134 0.250000
#
# Coordination Sequence:
#
# PCOD8151591 Si02
#       6
#     8   8   8   8   8   8
#     4  11  24  37  56  89 120 158 197 239 296 350
#     4  11  23  39  61  89 119 153 194 242 295 356
#     4  11  21  37  58  86 115 162 200 241 300 342
#     4  11  22  37  59  85 123 155 200 244 290 355
#     4  11  22  38  61  87 120 153 193 243 301 349
#     4  11  23  37  58  89 122 154 197 241 296 353
#
# _framework density 19.298252999999999
#
# number of rings (size 3 to 8) (size 9 to 14) (size 15 to 20)
#    0.000    1.000    3.333    7.500    4.667    2.000 
#    0.000    0.000    0.000    1.000    0.000    0.000 
#    0.000    0.000    0.000    0.000    0.000    0.000 
#
# Total GULP energy -297448.902271 kJ/mol
# GULP energy per Si atom -12393.704261 kJ/mol
# Density = 1.925433 g / cm^3
# Si number density = 19.298253 Si / 1000 Ang^3
#
#
#
# Elastic Constant Matrix: (Units=GPa)
#
#
# Indices 1 2 3 4 5 6 
#
# 1 80.0301 34.8467 15.5761 0.0000 21.2031 0.0000
# 2 34.8467 122.4535 20.9190 0.0000 3.0919 0.0000
# 3 15.5761 20.9190 109.8110 0.0000 -3.3963 0.0000
# 4 0.0000 0.0000 0.0000 36.5595 0.0000 0.1233
# 5 21.2031 3.0919 -3.3963 0.0000 39.1117 0.0000
# 6 0.0000 0.0000 0.0000 0.1233 0.0000 20.1756
#
#
#
# Elastic Compliance Matrix: (Units=1/GPa)
#
#
# Indices 1 2 3 4 5 6 
#
# 1 0.017168 -0.004332 -0.001892 0.000000 -0.009129 0.000000
# 2 -0.004332 0.009560 -0.001161 0.000000 0.001492 0.000000
# 3 -0.001892 -0.001161 0.009657 0.000000 0.001956 0.000000
# 4 0.000000 0.000000 0.000000 0.027353 0.000000 -0.000167
# 5 -0.009129 0.001492 0.001956 0.000000 0.030569 0.000000
# 6 0.000000 0.000000 0.000000 -0.000167 0.000000 0.049566
#
#
# Mechanical properties :
#
#
# Convention : Reuss Voigt Hill
#
# Bulk Modulus (GPa) = 46.26383 50.55313 48.40848
# Shear Modulus (GPa) = 30.14825 35.23287 32.69056
#
# Velocity S-wave (km/s) = 3.95679 4.27746 4.12025
# Velocity P-wave (km/s) = 6.70075 7.11675 6.91188
#
# Compressibility (1/GPa) = 0.02161516
#
# Stress axis : x y z
#
# Youngs Moduli (GPa) = 58.24636 104.60609 103.55655
#
# Poissons Ratio (x) = 0.45314 0.19597
# Poissons Ratio (y) = 0.25231 0.12018
# Poissons Ratio (z) = 0.11022 0.12140
#
# Static dielectric constant tensor:
#      x y z
#    x 3.375670 0.000000 0.183620 
#    y 0.000000 3.599980 0.000000 
#    z 0.183620 0.000000 3.972530 
# 
# 
# High freq. dielectric constant tensor:
#      x y z
#    x 1.722400 0.000000 0.002200 
#    y 0.000000 1.743330 0.000000 
#    z 0.002200 0.000000 1.779980 
# 
# From -- ./inp_files/32009.got.cif
#   From: 2010.06.25/outbox.cif.g09.slc.cpg/sg15_17_cif.got.tgz:32009.got - 2010.06.28 07:06:18.
