data_PCOD8151282
_publ_section_title
;
Structure prediction by ZEFSAII (Michael W. Deem and Ramdas Pophale) SiO2 
 PCOD8151282
Probable space group: C 2/C
;
_chemical_formula_sum "Si O2"
_cell_formula_units_Z 64
_cell_length_a 17.449340
_cell_length_b 17.717654
_cell_length_c 18.844109
_cell_angle_alpha 90.000000
_cell_angle_beta 32.302980
_cell_angle_gamma 90.000000
_cell_volume 3113.323722
_symmetry_space_group_name_H-M "C 2/C"
_symmetry_group_IT_number 15
_symmetry_cell_setting 'monoclinic'
loop_
_space_group_symop_operation_xyz
x,y,z
-x,y,1/2-z
-x,-y,-z
x,-y,1/2+z
1/2+x,1/2+y,z
1/2-x,1/2+y,1/2-z
1/2-x,1/2-y,-z
1/2+x,1/2-y,1/2+z
loop_
_atom_site_type_symbol
_atom_site_label
_atom_site_fract_x
_atom_site_fract_y
_atom_site_fract_z
Si Si1 0.840613 0.967538 0.705019
Si Si2 0.413590 0.131861 0.122903
Si Si3 0.255860 0.645444 0.106509
Si Si4 0.348870 0.573854 0.567812
Si Si5 0.804336 0.555969 0.566004
Si Si6 0.851660 0.799705 0.327097
Si Si7 0.165252 0.500203 0.104478
Si Si8 0.937917 0.198373 0.597268
O O1 0.722099 0.902915 0.812422
O O2 0.997963 0.933366 0.590859
O O3 0.820753 0.002563 0.641905
O O4 0.816003 0.031429 0.783415
O O5 0.373948 0.137960 0.236487
O O6 0.453069 0.214453 0.060140
O O7 0.545471 0.073481 0.012001
O O8 0.223814 0.722238 0.087945
O O9 0.257624 0.573576 0.054490
O O10 0.410020 0.654427 0.024127
O O11 0.229530 0.570923 0.598365
O O12 0.337735 0.652508 0.619951
O O13 0.754152 0.633312 0.567825
O O14 0.818807 0.492183 0.493179
O O15 0.868034 0.802328 0.229236
O O16 0.000000 0.811970 0.250000
O O17 0.000000 0.511197 0.250000
#
# Coordination Sequence:
#
# PCOD8151282 Si02
#       8
#     8   8   8   8   8   8   8   8
#     4  11  22  40  63  91 122 165 210 276 312 376
#     4  11  22  39  62  91 128 162 212 264 320 376
#     4  11  20  38  57  85 128 170 208 235 320 386
#     4  11  22  42  66  86 126 175 219 250 319 386
#     4  12  24  37  57  93 127 161 211 266 319 369
#     4  11  24  33  54  90 131 164 202 248 304 388
#     4  12  24  39  62  91 126 175 209 260 320 383
#     4  11  22  39  62  91 120 174 210 256 311 384
#
# _framework density 20.556809000000001
#
# number of rings (size 3 to 8) (size 9 to 14) (size 15 to 20)
#    0.000    0.750    6.250    2.250    3.500    1.000 
#    0.000    0.000    0.000    0.750    0.000    0.000 
#    0.000    0.000    0.000    0.000    0.000    0.000 
#
# Total GULP energy -396845.567648 kJ/mol
# GULP energy per Si atom -12401.423989 kJ/mol
# Density = 2.051002 g / cm^3
# Si number density = 20.556809 Si / 1000 Ang^3
#
#
#
# Elastic Constant Matrix: (Units=GPa)
#
#
# Indices 1 2 3 4 5 6 
#
# 1 79.0467 43.3791 22.8933 0.0039 -9.5208 -0.0023
# 2 43.3791 73.1830 11.7878 0.0107 -6.5720 0.0010
# 3 22.8933 11.7878 47.5822 0.0230 -5.2607 -0.0040
# 4 0.0039 0.0107 0.0230 30.0199 -0.0062 -12.3261
# 5 -9.5208 -6.5720 -5.2607 -0.0062 31.1730 0.0015
# 6 -0.0023 0.0010 -0.0040 -12.3261 0.0015 12.2098
#
#
#
# Elastic Compliance Matrix: (Units=1/GPa)
#
#
# Indices 1 2 3 4 5 6 
#
# 1 0.021177 -0.011146 -0.007105 0.000014 0.002919 0.000016
# 2 -0.011146 0.020285 0.000442 -0.000013 0.000947 -0.000017
# 3 -0.007105 0.000442 0.024554 -0.000026 0.002067 -0.000020
# 4 0.000014 -0.000013 -0.000026 0.056894 0.000006 0.057436
# 5 0.002919 0.000947 0.002067 0.000006 0.033519 0.000003
# 6 0.000016 -0.000017 -0.000020 0.057436 0.000003 0.139885
#
#
# Mechanical properties :
#
#
# Convention : Reuss Voigt Hill
#
# Bulk Modulus (GPa) = 32.89704 39.54804 36.22254
# Shear Modulus (GPa) = 14.61719 22.79734 18.70727
#
# Velocity S-wave (km/s) = 2.66947 3.33377 3.01994
# Velocity P-wave (km/s) = 5.05363 5.83942 5.46068
#
# Compressibility (1/GPa) = 0.03039787
#
# Stress axis : x y z
#
# Youngs Moduli (GPa) = 47.22188 49.29769 40.72722
#
# Poissons Ratio (x) = 0.54947 0.28936
# Poissons Ratio (y) = 0.52633 -0.01800
# Poissons Ratio (z) = 0.33550 -0.02179
#
# Static dielectric constant tensor:
#      x y z
#    x 3.532160 0.000000 -0.036390 
#    y 0.000000 3.757430 0.000010 
#    z -0.036390 0.000010 3.728170 
# 
# 
# High freq. dielectric constant tensor:
#      x y z
#    x 1.776450 0.000000 -0.004870 
#    y 0.000000 1.787140 0.000000 
#    z -0.004870 0.000000 1.813120 
# 
# From -- ./inp_files/249621.got.cif
#   From: 2010.06.25/outbox.cif.g09.slc.cpg/sg15_125_cif.got.tgz:249621.got - 2010.06.28 07:06:18.
