data_PCOD8151464
_publ_section_title
;
Structure prediction by ZEFSAII (Michael W. Deem and Ramdas Pophale) SiO2 
 PCOD8151464
Probable space group: C 2/C
;
_chemical_formula_sum "Si O2"
_cell_formula_units_Z 64
_cell_length_a 26.598162
_cell_length_b 14.573880
_cell_length_c 11.569240
_cell_angle_alpha 90.000000
_cell_angle_beta 137.308744
_cell_angle_gamma 90.000000
_cell_volume 3040.827394
_symmetry_space_group_name_H-M "C 2/C"
_symmetry_group_IT_number 15
_symmetry_cell_setting 'monoclinic'
loop_
_space_group_symop_operation_xyz
x,y,z
-x,y,1/2-z
-x,-y,-z
x,-y,1/2+z
1/2+x,1/2+y,z
1/2-x,1/2+y,1/2-z
1/2-x,1/2-y,-z
1/2+x,1/2-y,1/2+z
loop_
_atom_site_type_symbol
_atom_site_label
_atom_site_fract_x
_atom_site_fract_y
_atom_site_fract_z
Si Si1 0.702738 0.361550 0.311469
Si Si2 0.840717 0.331342 0.706020
Si Si3 0.377511 0.258996 0.846621
Si Si4 0.082826 0.372548 0.888753
Si Si5 0.424496 0.214906 0.686608
Si Si6 0.777427 0.829704 0.409466
Si Si7 0.691397 0.437483 0.816781
Si Si8 0.844500 0.558350 0.443781
O O1 0.763295 0.350385 0.513188
O O2 0.650067 0.272538 0.230717
O O3 0.741177 0.366602 0.250266
O O4 0.660321 0.458039 0.261140
O O5 0.905404 0.347086 0.724286
O O6 0.848502 0.403743 0.821329
O O7 0.433537 0.225467 0.840467
O O8 0.292839 0.231080 0.668488
O O9 0.373034 0.370260 0.841968
O O10 0.405039 0.219054 0.014160
O O11 0.000000 0.409167 0.750000
O O12 0.136878 0.451035 0.027456
O O13 0.500000 0.246891 0.750000
O O14 0.353939 0.274095 0.526653
O O15 0.406500 0.109331 0.626189
O O16 0.788121 0.913687 0.515904
O O17 0.763483 0.427057 0.858906
#
# Coordination Sequence:
#
# PCOD8151464 Si02
#       8
#     8   8   8   8   8   8   8   8
#     4  11  23  38  65  97 128 165 219 277 330 376
#     4  11  25  40  61  95 133 171 211 271 330 387
#     4  11  22  43  66  91 130 173 227 268 320 390
#     4  12  29  43  64  98 139 179 211 265 339 405
#     4  11  23  39  65  92 127 173 215 273 327 391
#     4  11  20  43  62  94 130 170 224 272 323 390
#     4  11  22  37  70  98 123 171 220 278 318 380
#     4  12  23  40  63  95 133 171 215 261 331 402
#
# _framework density 21.046904000000001
#
# number of rings (size 3 to 8) (size 9 to 14) (size 15 to 20)
#    0.000    0.750    6.250    1.125    8.750    0.500 
#    0.000    0.000    0.000   10.500    0.000    0.000 
#    0.000    0.000    0.000    0.000    0.000    0.000 
#
# Total GULP energy -396780.989217 kJ/mol
# GULP energy per Si atom -12399.405913 kJ/mol
# Density = 2.099900 g / cm^3
# Si number density = 21.046904 Si / 1000 Ang^3
#
#
#
# Elastic Constant Matrix: (Units=GPa)
#
#
# Indices 1 2 3 4 5 6 
#
# 1 150.9328 55.7550 38.6989 0.0000 -15.8119 0.0000
# 2 55.7550 135.2705 26.4525 0.0000 -23.5309 0.0000
# 3 38.6989 26.4525 46.8998 0.0000 -12.4816 0.0000
# 4 0.0000 0.0000 0.0000 12.1799 0.0000 -1.5171
# 5 -15.8119 -23.5309 -12.4816 0.0000 39.4713 0.0000
# 6 0.0000 0.0000 0.0000 -1.5171 0.0000 22.6711
#
#
#
# Elastic Compliance Matrix: (Units=1/GPa)
#
#
# Indices 1 2 3 4 5 6 
#
# 1 0.009140 -0.002545 -0.006044 0.000000 0.000233 0.000000
# 2 -0.002545 0.009572 -0.002240 0.000000 0.003978 0.000000
# 3 -0.006044 -0.002240 0.029015 0.000000 0.005418 0.000000
# 4 0.000000 0.000000 0.000000 0.082793 0.000000 0.005540
# 5 0.000233 0.003978 0.005418 0.000000 0.029513 0.000000
# 6 0.000000 0.000000 0.000000 0.005540 0.000000 0.044480
#
#
# Mechanical properties :
#
#
# Convention : Reuss Voigt Hill
#
# Bulk Modulus (GPa) = 38.36111 63.87953 51.12032
# Shear Modulus (GPa) = 21.28936 29.01090 25.15013
#
# Velocity S-wave (km/s) = 3.18389 3.71670 3.46056
# Velocity P-wave (km/s) = 5.63758 6.98823 6.34892
#
# Compressibility (1/GPa) = 0.02606807
#
# Stress axis : x y z
#
# Youngs Moduli (GPa) = 109.41418 104.47650 34.46513
#
# Poissons Ratio (x) = 0.26585 0.20831
# Poissons Ratio (y) = 0.27842 0.07721
# Poissons Ratio (z) = 0.66132 0.23404
#
# Static dielectric constant tensor:
#      x y z
#    x 3.954100 0.000000 -0.263820 
#    y 0.000000 3.980790 0.000000 
#    z -0.263820 0.000000 3.524820 
# 
# 
# High freq. dielectric constant tensor:
#      x y z
#    x 1.828980 0.000000 -0.025640 
#    y 0.000000 1.826830 0.000000 
#    z -0.025640 0.000000 1.803200 
# 
# From -- ./inp_files/123538.got.cif
#   From: 2010.06.25/outbox.cif.g09.slc.cpg/sg15_62_cif.got.tgz:123538.got - 2010.06.28 07:06:18.
