data_PCOD8151964
_publ_section_title
;
Structure prediction by ZEFSAII (Michael W. Deem and Ramdas Pophale) SiO2 
 PCOD8151964
Probable space group: C 2/C
;
_chemical_formula_sum "Si O2"
_cell_formula_units_Z 64
_cell_length_a 12.933530
_cell_length_b 18.198483
_cell_length_c 12.893382
_cell_angle_alpha 90.000000
_cell_angle_beta 82.548821
_cell_angle_gamma 90.000000
_cell_volume 3009.097340
_symmetry_space_group_name_H-M "C 2/C"
_symmetry_group_IT_number 15
_symmetry_cell_setting 'monoclinic'
loop_
_space_group_symop_operation_xyz
x,y,z
-x,y,1/2-z
-x,-y,-z
x,-y,1/2+z
1/2+x,1/2+y,z
1/2-x,1/2+y,1/2-z
1/2-x,1/2-y,-z
1/2+x,1/2-y,1/2+z
loop_
_atom_site_type_symbol
_atom_site_label
_atom_site_fract_x
_atom_site_fract_y
_atom_site_fract_z
Si Si1 0.268023 0.820699 0.304396
Si Si2 0.159261 0.093555 0.993584
Si Si3 0.774374 0.939358 0.581484
Si Si4 0.467293 0.356408 0.639187
Si Si5 0.035893 0.302829 0.088635
Si Si6 0.821558 0.326861 0.616320
Si Si7 0.886869 0.537083 0.223756
Si Si8 0.840947 0.399001 0.101381
O O1 0.185821 0.867336 0.381744
O O2 0.386569 0.828513 0.330205
O O3 0.235051 0.735347 0.308221
O O4 0.268726 0.851813 0.188373
O O5 0.234080 0.123779 0.073568
O O6 0.041441 0.109390 0.042068
O O7 0.166059 0.006167 0.981263
O O8 0.851162 0.884699 0.632248
O O9 0.692862 0.973852 0.672110
O O10 0.713743 0.893187 0.502501
O O11 0.500000 0.382162 0.750000
O O12 0.470318 0.268304 0.630545
O O13 0.957355 0.368180 0.074456
O O14 0.105818 0.286543 0.977819
O O15 0.888446 0.379173 0.682434
O O16 0.852103 0.483080 0.136127
O O17 0.000000 0.515314 0.250000
#
# Coordination Sequence:
#
# PCOD8151964 Si02
#       8
#     8   8   8   8   8   8   8   8
#     4  11  21  43  72 101 132 179 231 284 327 402
#     4  11  21  45  70 100 135 174 232 280 331 402
#     4  12  28  45  66 103 141 177 225 284 343 408
#     4  12  25  44  72 101 138 178 229 278 339 412
#     4  11  23  41  71 106 129 180 239 277 330 403
#     4  11  22  43  73  98 138 176 233 285 330 399
#     4  12  26  45  70 100 139 183 224 280 346 406
#     4  12  26  43  69 100 139 177 226 289 339 401
#
# _framework density 21.268837000000001
#
# number of rings (size 3 to 8) (size 9 to 14) (size 15 to 20)
#    0.000    0.500    5.000    4.500    3.500    1.500 
#    2.250    0.625    0.000    0.000    0.000    0.000 
#    0.000    0.000    0.000    0.000    0.000    0.000 
#
# Total GULP energy -397068.089681 kJ/mol
# GULP energy per Si atom -12408.377803 kJ/mol
# Density = 2.122043 g / cm^3
# Si number density = 21.268837 Si / 1000 Ang^3
#
#
#
# Elastic Constant Matrix: (Units=GPa)
#
#
# Indices 1 2 3 4 5 6 
#
# 1 110.9878 34.4458 48.6641 0.0000 2.1761 0.0000
# 2 34.4458 87.7727 17.2163 0.0000 10.0449 0.0000
# 3 48.6641 17.2163 57.6252 0.0000 16.2173 0.0000
# 4 0.0000 0.0000 0.0000 33.4353 0.0000 -3.4274
# 5 2.1761 10.0449 16.2173 0.0000 30.5644 0.0000
# 6 0.0000 0.0000 0.0000 -3.4274 0.0000 34.5115
#
#
#
# Elastic Compliance Matrix: (Units=1/GPa)
#
#
# Indices 1 2 3 4 5 6 
#
# 1 0.017024 -0.004634 -0.015375 0.000000 0.008469 0.000000
# 2 -0.004634 0.013518 0.001214 0.000000 -0.004757 0.000000
# 3 -0.015375 0.001214 0.035007 0.000000 -0.017879 0.000000
# 4 0.000000 0.000000 0.000000 0.030216 0.000000 0.003001
# 5 0.008469 -0.004757 -0.017879 0.000000 0.043164 0.000000
# 6 0.000000 0.000000 0.000000 0.003001 0.000000 0.029274
#
#
# Mechanical properties :
#
#
# Convention : Reuss Voigt Hill
#
# Bulk Modulus (GPa) = 35.76975 50.78201 43.27588
# Shear Modulus (GPa) = 23.24349 30.10620 26.67485
#
# Velocity S-wave (km/s) = 3.30940 3.76640 3.54528
# Velocity P-wave (km/s) = 5.60868 6.54542 6.09507
#
# Compressibility (1/GPa) = 0.02795658
#
# Stress axis : x y z
#
# Youngs Moduli (GPa) = 58.74146 73.97499 28.56583
#
# Poissons Ratio (x) = 0.34282 0.43921
# Poissons Ratio (y) = 0.27222 -0.03467
# Poissons Ratio (z) = 0.90317 -0.08977
#
# Static dielectric constant tensor:
#      x y z
#    x 3.723800 0.000000 -0.190920 
#    y 0.000000 3.794000 0.000000 
#    z -0.190920 0.000000 3.818070 
# 
# 
# High freq. dielectric constant tensor:
#      x y z
#    x 1.826980 0.000000 -0.020920 
#    y 0.000000 1.841340 0.000000 
#    z -0.020920 0.000000 1.836130 
# 
# From -- ./inp_files/146097.got.cif
#   From: 2010.06.25/outbox.cif.g09.slc.cpg/sg15_74_cif.got.tgz:146097.got - 2010.06.28 07:06:18.
