data_PCOD8151118
_publ_section_title
;
Structure prediction by ZEFSAII (Michael W. Deem and Ramdas Pophale) SiO2 
 PCOD8151118
Probable space group: C 2/C
;
_chemical_formula_sum "Si O2"
_cell_formula_units_Z 56
_cell_length_a 20.172148
_cell_length_b 16.934744
_cell_length_c 8.873124
_cell_angle_alpha 90.000000
_cell_angle_beta 112.159179
_cell_angle_gamma 90.000000
_cell_volume 2807.267266
_symmetry_space_group_name_H-M "C 2/C"
_symmetry_group_IT_number 15
_symmetry_cell_setting 'monoclinic'
loop_
_space_group_symop_operation_xyz
x,y,z
-x,y,1/2-z
-x,-y,-z
x,-y,1/2+z
1/2+x,1/2+y,z
1/2-x,1/2+y,1/2-z
1/2-x,1/2-y,-z
1/2+x,1/2-y,1/2+z
loop_
_atom_site_type_symbol
_atom_site_label
_atom_site_fract_x
_atom_site_fract_y
_atom_site_fract_z
Si Si1 0.152881 0.749761 0.726852
Si Si2 0.801267 0.464219 0.509329
Si Si3 0.725624 0.807246 0.842205
Si Si4 0.371859 0.284766 0.453450
Si Si5 0.746460 0.098419 0.818549
Si Si6 0.462314 0.065892 0.061440
Si Si7 0.986042 0.742549 0.060395
O O1 0.214707 0.812491 0.738240
O O2 0.187142 0.663970 0.724347
O O3 0.090373 0.775918 0.558314
O O4 0.131389 0.749683 0.882311
O O5 0.791632 0.395037 0.621991
O O6 0.783072 0.548332 0.566793
O O7 0.745770 0.455160 0.323708
O O8 0.880365 0.459824 0.508287
O O9 0.654917 0.774296 0.700243
O O10 0.750000 0.750000 0.000000
O O11 0.325190 0.365071 0.416146
O O12 0.455228 0.293337 0.482003
O O13 0.500000 0.069421 0.250000
O O14 0.477770 0.151224 0.999775
O O15 0.500000 0.000000 0.000000
O O16 0.000000 0.753045 0.250000
#
# Coordination Sequence:
#
# PCOD8151118 Si02
#       7
#     8   8   8   8   8   8   8
#     4  11  23  41  62  95 126 165 220 272 321 376
#     4  12  24  40  63  91 133 169 216 263 331 389
#     4  11  19  40  65  88 123 170 219 272 310 386
#     4  11  24  40  64  94 131 164 227 269 319 383
#     4  11  25  40  62  98 129 172 216 265 325 388
#     4  11  23  37  55  87 129 171 204 249 318 393
#     4  11  23  41  64  90 122 173 218 260 329 382
#
# _framework density 19.948225000000001
#
# number of rings (size 3 to 8) (size 9 to 14) (size 15 to 20)
#    0.000    0.857    4.286    5.571    6.000    0.000 
#    0.000    0.000    0.000    0.857    0.000    0.000 
#    0.000    0.000    0.000    0.000    0.000    0.000 
#
# Total GULP energy -347035.506327 kJ/mol
# GULP energy per Si atom -12394.125226 kJ/mol
# Density = 1.990282 g / cm^3
# Si number density = 19.948225 Si / 1000 Ang^3
#
#
#
# Elastic Constant Matrix: (Units=GPa)
#
#
# Indices 1 2 3 4 5 6 
#
# 1 129.2200 56.0112 15.1537 0.0000 -4.9527 0.0000
# 2 56.0112 70.7031 15.5921 0.0000 -0.0680 0.0000
# 3 15.1537 15.5921 73.9347 0.0000 -0.8601 0.0000
# 4 0.0000 0.0000 0.0000 41.6434 0.0000 -1.8450
# 5 -4.9527 -0.0680 -0.8601 0.0000 37.1101 0.0000
# 6 0.0000 0.0000 0.0000 -1.8450 0.0000 32.9504
#
#
#
# Elastic Compliance Matrix: (Units=1/GPa)
#
#
# Indices 1 2 3 4 5 6 
#
# 1 0.011891 -0.009318 -0.000454 0.000000 0.001559 0.000000
# 2 -0.009318 0.022136 -0.002773 0.000000 -0.001267 0.000000
# 3 -0.000454 -0.002773 0.014206 0.000000 0.000264 0.000000
# 4 0.000000 0.000000 0.000000 0.024073 0.000000 0.001348
# 5 0.001559 -0.001267 0.000264 0.000000 0.027159 0.000000
# 6 0.000000 0.000000 0.000000 0.001348 0.000000 0.030424
#
#
# Mechanical properties :
#
#
# Convention : Reuss Voigt Hill
#
# Bulk Modulus (GPa) = 43.21050 49.70801 46.45925
# Shear Modulus (GPa) = 30.73251 34.81415 32.77333
#
# Velocity S-wave (km/s) = 3.92932 4.18212 4.05769
# Velocity P-wave (km/s) = 6.50342 6.94930 6.73005
#
# Compressibility (1/GPa) = 0.02314253
#
# Stress axis : x y z
#
# Youngs Moduli (GPa) = 84.09838 45.17520 70.39097
#
# Poissons Ratio (x) = 0.42096 0.03195
# Poissons Ratio (y) = 0.78366 0.19520
# Poissons Ratio (z) = 0.03817 0.12528
#
# Static dielectric constant tensor:
#      x y z
#    x 3.847810 0.000000 -0.104620 
#    y 0.000000 3.424060 0.000000 
#    z -0.104620 0.000000 3.917240 
# 
# 
# High freq. dielectric constant tensor:
#      x y z
#    x 1.780840 0.000000 -0.005390 
#    y 0.000000 1.747630 0.000000 
#    z -0.005390 0.000000 1.799150 
# 
# From -- ./inp_files/49166.got.cif
#   From: 2010.06.25/outbox.cif.g09.slc.cpg/sg15_25_cif.got.tgz:49166.got - 2010.06.28 07:06:18.
