data_PCOD8151006
_publ_section_title
;
Structure prediction by ZEFSAII (Michael W. Deem and Ramdas Pophale) SiO2 
 PCOD8151006
Probable space group: C 2/C
;
_chemical_formula_sum "Si O2"
_cell_formula_units_Z 60
_cell_length_a 25.512415
_cell_length_b 14.254468
_cell_length_c 11.419621
_cell_angle_alpha 90.000000
_cell_angle_beta 129.723830
_cell_angle_gamma 90.000000
_cell_volume 3194.156432
_symmetry_space_group_name_H-M "C 2/C"
_symmetry_group_IT_number 15
_symmetry_cell_setting 'monoclinic'
loop_
_space_group_symop_operation_xyz
x,y,z
-x,y,1/2-z
-x,-y,-z
x,-y,1/2+z
1/2+x,1/2+y,z
1/2-x,1/2+y,1/2-z
1/2-x,1/2-y,-z
1/2+x,1/2-y,1/2+z
loop_
_atom_site_type_symbol
_atom_site_label
_atom_site_fract_x
_atom_site_fract_y
_atom_site_fract_z
Si Si1 0.892775 0.531322 0.767364
Si Si2 0.411840 0.152496 0.418008
Si Si3 0.260080 0.172096 0.269913
Si Si4 0.000000 0.608180 0.750000
Si Si5 0.276523 0.007737 0.928789
Si Si6 0.071444 0.254073 0.799498
Si Si7 0.660254 0.156695 0.629715
Si Si8 0.703087 0.656075 0.954154
O O1 0.912172 0.459755 0.899300
O O2 0.826245 0.490262 0.610401
O O3 0.880594 0.634130 0.808942
O O4 0.949605 0.540407 0.748921
O O5 0.337828 0.195783 0.343340
O O6 0.459489 0.173444 0.598783
O O7 0.443102 0.190843 0.341502
O O8 0.218971 0.267090 0.241272
O O9 0.256473 0.099806 0.373311
O O10 0.222563 0.119292 0.110252
O O11 0.307562 0.056138 0.858071
O O12 0.213750 0.074336 0.875234
O O13 0.121995 0.170937 0.834920
O O14 0.000000 0.217001 0.750000
O O15 0.110443 0.314825 0.953039
O O16 0.750000 0.750000 0.000000
#
# Coordination Sequence:
#
# PCOD8151006 Si02
#       8
#     8   8   8   4   8   8   8   8
#     4  12  22  36  55  81 121 159 193 232 291 356
#     4  12  21  37  53  82 121 158 191 236 286 362
#     4  11  21  36  60  86 116 152 202 244 290 346
#     4  12  26  34  48  80 126 164 184 224 300 364
#     4  12  19  37  59  88 117 155 196 242 293 346
#     4  11  22  36  62  89 114 153 203 241 292 349
#     4  11  21  38  58  86 120 151 195 251 293 345
#     4  11  18  38  62  84 116 158 197 250 287 342
#
# _framework density 18.784300999999999
#
# number of rings (size 3 to 8) (size 9 to 14) (size 15 to 20)
#    0.000    0.533    9.333    1.200    0.933    0.533 
#    0.000    0.000    0.000    3.200    1.733    0.000 
#    0.000    0.000    0.000    0.000    0.000    0.000 
#
# Total GULP energy -371811.420474 kJ/mol
# GULP energy per Si atom -12393.714016 kJ/mol
# Density = 1.874155 g / cm^3
# Si number density = 18.784301 Si / 1000 Ang^3
#
#
#
# Elastic Constant Matrix: (Units=GPa)
#
#
# Indices 1 2 3 4 5 6 
#
# 1 135.2735 40.6515 44.8374 0.0000 6.5995 0.0000
# 2 40.6515 47.2479 38.1025 0.0000 -7.2995 0.0000
# 3 44.8374 38.1025 96.1416 0.0000 6.8216 0.0000
# 4 0.0000 0.0000 0.0000 18.0424 0.0000 -1.8353
# 5 6.5995 -7.2995 6.8216 0.0000 25.9810 0.0000
# 6 0.0000 0.0000 0.0000 -1.8353 0.0000 22.6784
#
#
#
# Elastic Compliance Matrix: (Units=1/GPa)
#
#
# Indices 1 2 3 4 5 6 
#
# 1 0.010739 -0.009217 -0.000997 0.000000 -0.005056 0.000000
# 2 -0.009217 0.043343 -0.014173 0.000000 0.018240 0.000000
# 3 -0.000997 -0.014173 0.017066 0.000000 -0.008210 0.000000
# 4 0.000000 0.000000 0.000000 0.055885 0.000000 0.004523
# 5 -0.005056 0.018240 -0.008210 0.000000 0.047054 0.000000
# 6 0.000000 0.000000 0.000000 0.004523 0.000000 0.044461
#
#
# Mechanical properties :
#
#
# Convention : Reuss Voigt Hill
#
# Bulk Modulus (GPa) = 44.69513 58.42731 51.56122
# Shear Modulus (GPa) = 18.19632 23.67846 20.93739
#
# Velocity S-wave (km/s) = 3.11577 3.55427 3.34222
# Velocity P-wave (km/s) = 6.06544 6.92933 6.51173
#
# Compressibility (1/GPa) = 0.02237380
#
# Stress axis : x y z
#
# Youngs Moduli (GPa) = 93.11512 23.07169 58.59668
#
# Poissons Ratio (x) = 0.21266 0.05841
# Poissons Ratio (y) = 0.85826 0.83050
# Poissons Ratio (z) = 0.09282 0.32700
#
# Static dielectric constant tensor:
#      x y z
#    x 3.605720 0.000000 -0.052760 
#    y 0.000000 3.129200 0.000000 
#    z -0.052760 0.000000 3.524020 
# 
# 
# High freq. dielectric constant tensor:
#      x y z
#    x 1.738440 0.000000 -0.012690 
#    y 0.000000 1.688460 0.000000 
#    z -0.012690 0.000000 1.730450 
# 
# From -- ./inp_files/118792.got.cif
#   From: 2010.06.25/outbox.cif.g09.slc.cpg/sg15_60_cif.got.tgz:118792.got - 2010.06.28 07:06:18.
