data_PCOD8151113
_publ_section_title
;
Structure prediction by ZEFSAII (Michael W. Deem and Ramdas Pophale) SiO2 
 PCOD8151113
Probable space group: C 2/C
;
_chemical_formula_sum "Si O2"
_cell_formula_units_Z 44
_cell_length_a 6.463392
_cell_length_b 17.560852
_cell_length_c 21.672842
_cell_angle_alpha 90.000000
_cell_angle_beta 124.515103
_cell_angle_gamma 90.000000
_cell_volume 2026.921633
_symmetry_space_group_name_H-M "C 2/C"
_symmetry_group_IT_number 15
_symmetry_cell_setting 'monoclinic'
loop_
_space_group_symop_operation_xyz
x,y,z
-x,y,1/2-z
-x,-y,-z
x,-y,1/2+z
1/2+x,1/2+y,z
1/2-x,1/2+y,1/2-z
1/2-x,1/2-y,-z
1/2+x,1/2-y,1/2+z
loop_
_atom_site_type_symbol
_atom_site_label
_atom_site_fract_x
_atom_site_fract_y
_atom_site_fract_z
Si Si1 0.396127 0.622411 0.091524
Si Si2 0.371150 0.602122 0.948652
Si Si3 0.864947 0.330286 0.501990
Si Si4 0.447229 0.790210 0.379970
Si Si5 0.000000 0.876879 0.250000
Si Si6 0.214649 0.987830 0.183221
O O1 0.560881 0.699444 0.112600
O O2 0.551062 0.565063 0.160808
O O3 0.340462 0.582634 0.015870
O O4 0.131368 0.646738 0.078541
O O5 0.667415 0.605954 0.987352
O O6 0.266140 0.537800 0.885078
O O7 0.225901 0.681335 0.906698
O O8 0.750000 0.250000 0.500000
O O9 0.899267 0.333136 0.435198
O O10 0.235375 0.820442 0.298164
O O11 0.071767 0.927379 0.202667
O O12 0.500000 0.004639 0.250000
#
# Coordination Sequence:
#
# PCOD8151113 Si02
#       6
#     8   8   8   8   4   8
#     4  11  25  40  69 105 127 165 233 279 323 389
#     4  11  21  43  72  94 130 177 217 273 337 389
#     4  11  19  39  70  99 130 159 215 282 327 382
#     4  11  22  41  68  99 124 172 225 267 322 405
#     4  12  26  44  64  90 138 184 220 256 344 418
#     4  12  27  46  62  94 142 179 213 276 339 400
#
# _framework density 21.707796999999999
#
# number of rings (size 3 to 8) (size 9 to 14) (size 15 to 20)
#    0.000    0.727    7.273    1.636    1.273    2.182 
#    0.000    1.818    0.000    0.000    0.000    0.000 
#    0.000    0.000    0.000    0.000    0.000    0.000 
#
# Total GULP energy -272683.063752 kJ/mol
# GULP energy per Si atom -12394.684716 kJ/mol
# Density = 2.165839 g / cm^3
# Si number density = 21.707797 Si / 1000 Ang^3
#
#
#
# Elastic Constant Matrix: (Units=GPa)
#
#
# Indices 1 2 3 4 5 6 
#
# 1 108.6683 32.3806 47.5927 0.0000 28.8758 0.0000
# 2 32.3806 87.1680 60.1108 0.0000 15.3886 0.0000
# 3 47.5927 60.1108 105.6647 0.0000 30.4766 0.0000
# 4 0.0000 0.0000 0.0000 38.2683 0.0000 7.5377
# 5 28.8758 15.3886 30.4766 0.0000 34.6807 0.0000
# 6 0.0000 0.0000 0.0000 7.5377 0.0000 31.7443
#
#
#
# Elastic Compliance Matrix: (Units=1/GPa)
#
#
# Indices 1 2 3 4 5 6 
#
# 1 0.012890 -0.001573 -0.002701 0.000000 -0.007660 0.000000
# 2 -0.001573 0.019122 -0.010850 0.000000 0.002360 0.000000
# 3 -0.002701 -0.010850 0.019846 0.000000 -0.010376 0.000000
# 4 0.000000 0.000000 0.000000 0.027413 0.000000 -0.006509
# 5 -0.007660 0.002360 -0.010376 0.000000 0.043284 0.000000
# 6 0.000000 0.000000 0.000000 -0.006509 0.000000 0.033047
#
#
# Mechanical properties :
#
#
# Convention : Reuss Voigt Hill
#
# Bulk Modulus (GPa) = 46.27828 64.62993 55.45410
# Shear Modulus (GPa) = 25.89930 31.69979 28.79955
#
# Velocity S-wave (km/s) = 3.45786 3.82553 3.64633
# Velocity P-wave (km/s) = 6.10798 7.02497 6.58246
#
# Compressibility (1/GPa) = 0.02160841
#
# Stress axis : x y z
#
# Youngs Moduli (GPa) = 77.58155 52.29504 50.38758
#
# Poissons Ratio (x) = 0.08226 0.13612
# Poissons Ratio (y) = 0.12203 0.54673
# Poissons Ratio (z) = 0.20958 0.56743
#
# Static dielectric constant tensor:
#      x y z
#    x 4.500640 0.000000 0.346670 
#    y 0.000000 3.815400 0.000000 
#    z 0.346670 0.000000 3.943610 
# 
# 
# High freq. dielectric constant tensor:
#      x y z
#    x 1.860600 0.000000 0.019620 
#    y 0.000000 1.844710 0.000000 
#    z 0.019620 0.000000 1.843580 
# 
# From -- ./inp_files/184875.got.cif
#   From: 2010.06.25/outbox.cif.g09.slc.cpg/sg15_93_cif.got.tgz:184875.got - 2010.06.28 07:06:18.
