data_PCOD8151919
_publ_section_title
;
Structure prediction by ZEFSAII (Michael W. Deem and Ramdas Pophale) SiO2 
 PCOD8151919
Probable space group: C 2/C
;
_chemical_formula_sum "Si O2"
_cell_formula_units_Z 44
_cell_length_a 29.326201
_cell_length_b 10.627972
_cell_length_c 7.878393
_cell_angle_alpha 90.000000
_cell_angle_beta 50.386159
_cell_angle_gamma 90.000000
_cell_volume 1891.634142
_symmetry_space_group_name_H-M "C 2/C"
_symmetry_group_IT_number 15
_symmetry_cell_setting 'monoclinic'
loop_
_space_group_symop_operation_xyz
x,y,z
-x,y,1/2-z
-x,-y,-z
x,-y,1/2+z
1/2+x,1/2+y,z
1/2-x,1/2+y,1/2-z
1/2-x,1/2-y,-z
1/2+x,1/2-y,1/2+z
loop_
_atom_site_type_symbol
_atom_site_label
_atom_site_fract_x
_atom_site_fract_y
_atom_site_fract_z
Si Si1 0.320786 0.132252 0.604402
Si Si2 0.627838 0.113589 0.374377
Si Si3 0.500000 0.812756 0.250000
Si Si4 0.151616 0.886373 0.012470
Si Si5 0.190636 0.862159 0.275853
Si Si6 0.519217 0.364095 0.397214
O O1 0.365943 0.135340 0.339507
O O2 0.331267 0.272855 0.660992
O O3 0.252740 0.117331 0.717825
O O4 0.339118 0.019060 0.680637
O O5 0.559066 0.102102 0.592118
O O6 0.659820 0.229270 0.398870
O O7 0.508470 0.732264 0.401554
O O8 0.199974 0.874345 0.050416
O O9 0.089354 0.859155 0.249184
O O10 0.149144 0.021077 0.929333
O O11 0.500000 0.331585 0.250000
O O12 0.500000 0.500000 0.500000
#
# Coordination Sequence:
#
# PCOD8151919 Si02
#       6
#     8   8   4   8   8   8
#     4  11  23  43  66  99 135 186 232 290 362 430
#     4  11  25  44  67  98 144 186 241 294 361 434
#     4  12  24  48  66 104 152 192 240 296 356 436
#     4  11  23  42  63 102 133 175 234 287 364 420
#     4  11  21  42  70  98 136 174 234 306 353 424
#     4  12  23  41  70 104 145 184 238 298 359 425
#
# _framework density 23.26031
#
# number of rings (size 3 to 8) (size 9 to 14) (size 15 to 20)
#    0.000    0.727    4.545    6.545    0.000    3.636 
#    1.636    3.636    0.000    0.000    0.000    0.000 
#    0.000    0.000    0.000    0.000    0.000    0.000 
#
# Total GULP energy -272703.937706 kJ/mol
# GULP energy per Si atom -12395.633532 kJ/mol
# Density = 2.320737 g / cm^3
# Si number density = 23.260310 Si / 1000 Ang^3
#
#
#
# Elastic Constant Matrix: (Units=GPa)
#
#
# Indices 1 2 3 4 5 6 
#
# 1 63.1000 6.8632 7.8576 0.0000 -8.7204 0.0000
# 2 6.8632 110.5949 -7.6030 0.0000 -9.5371 0.0000
# 3 7.8576 -7.6030 63.4189 0.0000 -11.2187 0.0000
# 4 0.0000 0.0000 0.0000 30.5110 0.0000 -2.9776
# 5 -8.7204 -9.5371 -11.2187 0.0000 37.1009 0.0000
# 6 0.0000 0.0000 0.0000 -2.9776 0.0000 25.3699
#
#
#
# Elastic Compliance Matrix: (Units=1/GPa)
#
#
# Indices 1 2 3 4 5 6 
#
# 1 0.016581 -0.000863 -0.001593 0.000000 0.003194 0.000000
# 2 -0.000863 0.009451 0.001726 0.000000 0.002749 0.000000
# 3 -0.001593 0.001726 0.017099 0.000000 0.005240 0.000000
# 4 0.000000 0.000000 0.000000 0.033155 0.000000 0.003891
# 5 0.003194 0.002749 0.005240 0.000000 0.029995 0.000000
# 6 0.000000 0.000000 0.000000 0.003891 0.000000 0.039874
#
#
# Mechanical properties :
#
#
# Convention : Reuss Voigt Hill
#
# Bulk Modulus (GPa) = 23.99657 27.92770 25.96214
# Shear Modulus (GPa) = 30.95856 33.92942 32.44399
#
# Velocity S-wave (km/s) = 3.65219 3.82341 3.73878
# Velocity P-wave (km/s) = 5.30317 5.61462 5.46112
#
# Compressibility (1/GPa) = 0.04167263
#
# Stress axis : x y z
#
# Youngs Moduli (GPa) = 60.30819 105.80590 58.48162
#
# Poissons Ratio (x) = 0.09132 0.09316
# Poissons Ratio (y) = 0.05205 -0.10095
# Poissons Ratio (z) = 0.09607 -0.18264
#
# Static dielectric constant tensor:
#      x y z
#    x 4.489180 0.000000 -0.941300 
#    y 0.000000 4.420630 0.000000 
#    z -0.941300 0.000000 5.643040 
# 
# 
# High freq. dielectric constant tensor:
#      x y z
#    x 1.908950 0.000000 -0.017790 
#    y 0.000000 1.938390 0.000000 
#    z -0.017790 0.000000 1.912350 
# 
# From -- ./inp_files/68979.got.cif
#   From: 2010.06.25/outbox.cif.g09.slc.cpg/sg15_35_cif.got.tgz:68979.got - 2010.06.28 07:06:18.
