data_PCOD8151325
_publ_section_title
;
Structure prediction by ZEFSAII (Michael W. Deem and Ramdas Pophale) SiO2 
 PCOD8151325
Probable space group: C 2/C
;
_chemical_formula_sum "Si O2"
_cell_formula_units_Z 64
_cell_length_a 32.902743
_cell_length_b 16.610042
_cell_length_c 9.151516
_cell_angle_alpha 90.000000
_cell_angle_beta 40.423920
_cell_angle_gamma 90.000000
_cell_volume 3243.128713
_symmetry_space_group_name_H-M "C 2/C"
_symmetry_group_IT_number 15
_symmetry_cell_setting 'monoclinic'
loop_
_space_group_symop_operation_xyz
x,y,z
-x,y,1/2-z
-x,-y,-z
x,-y,1/2+z
1/2+x,1/2+y,z
1/2-x,1/2+y,1/2-z
1/2-x,1/2-y,-z
1/2+x,1/2-y,1/2+z
loop_
_atom_site_type_symbol
_atom_site_label
_atom_site_fract_x
_atom_site_fract_y
_atom_site_fract_z
Si Si1 0.126481 0.432901 0.447752
Si Si2 0.562538 0.781838 0.144483
Si Si3 0.832049 0.182746 0.531655
Si Si4 0.060550 0.556606 0.818119
Si Si5 0.268281 0.309929 0.721233
Si Si6 0.643918 0.821293 0.641461
Si Si7 0.727624 0.423952 0.526360
Si Si8 0.240815 0.102845 0.539126
O O1 0.111526 0.516861 0.569802
O O2 0.089644 0.427542 0.397176
O O3 0.103632 0.361455 0.620127
O O4 0.200296 0.421474 0.219776
O O5 0.500000 0.741485 0.250000
O O6 0.542112 0.858317 0.297469
O O7 0.596971 0.715699 0.153513
O O8 0.605231 0.807520 0.892665
O O9 0.788570 0.251478 0.578058
O O10 0.820682 0.100611 0.471229
O O11 0.810609 0.165013 0.756545
O O12 0.000000 0.500000 0.000000
O O13 0.327500 0.261421 0.497251
O O14 0.288770 0.360765 0.803496
O O15 0.242887 0.371783 0.669725
O O16 0.696769 0.888614 0.534274
O O17 0.712489 0.513395 0.622448
#
# Coordination Sequence:
#
# PCOD8151325 Si02
#       8
#     8   8   8   8   8   8   8   8
#     4  12  24  37  61  90 130 168 215 255 317 376
#     4  12  24  42  66  86 121 172 222 258 307 389
#     4  11  22  39  60  91 125 162 211 267 333 382
#     4  12  26  43  61  90 133 179 219 261 302 374
#     4  11  21  37  60  87 133 161 202 259 333 385
#     4  11  22  40  60  91 125 169 209 262 315 383
#     4  12  24  34  60  99 126 161 207 268 335 388
#     4  11  20  39  59  90 127 165 201 259 329 391
#
# _framework density 19.734031000000002
#
# number of rings (size 3 to 8) (size 9 to 14) (size 15 to 20)
#    0.000    0.500    5.000    6.750    3.500    0.000 
#    0.000    0.000    0.000    0.750    0.000    0.000 
#    0.000    0.000    0.000    0.000    0.000    0.000 
#
# Total GULP energy -396774.553805 kJ/mol
# GULP energy per Si atom -12399.204806 kJ/mol
# Density = 1.968912 g / cm^3
# Si number density = 19.734031 Si / 1000 Ang^3
#
#
#
# Elastic Constant Matrix: (Units=GPa)
#
#
# Indices 1 2 3 4 5 6 
#
# 1 116.1490 35.7721 39.1801 0.0000 -1.0630 0.0000
# 2 35.7721 86.4169 30.2609 0.0000 -9.1079 0.0000
# 3 39.1801 30.2609 60.0582 0.0000 -2.1593 0.0000
# 4 0.0000 0.0000 0.0000 26.9336 0.0000 3.1132
# 5 -1.0630 -9.1079 -2.1593 0.0000 31.4283 0.0000
# 6 0.0000 0.0000 0.0000 3.1132 0.0000 43.2328
#
#
#
# Elastic Compliance Matrix: (Units=1/GPa)
#
#
# Indices 1 2 3 4 5 6 
#
# 1 0.011517 -0.002686 -0.006189 0.000000 -0.000814 0.000000
# 2 -0.002686 0.015094 -0.005713 0.000000 0.003891 0.000000
# 3 -0.006189 -0.005713 0.023558 0.000000 -0.000246 0.000000
# 4 0.000000 0.000000 0.000000 0.037440 0.000000 -0.002696
# 5 -0.000814 0.003891 -0.000246 0.000000 0.032902 0.000000
# 6 0.000000 0.000000 0.000000 -0.002696 0.000000 0.023325
#
#
# Mechanical properties :
#
#
# Convention : Reuss Voigt Hill
#
# Bulk Modulus (GPa) = 47.63632 52.56115 50.09873
# Shear Modulus (GPa) = 27.77606 30.81299 29.29453
#
# Velocity S-wave (km/s) = 3.75576 3.95576 3.85706
# Velocity P-wave (km/s) = 6.55738 6.89613 6.72889
#
# Compressibility (1/GPa) = 0.02099239
#
# Stress axis : x y z
#
# Youngs Moduli (GPa) = 86.82605 66.24961 42.44814
#
# Poissons Ratio (x) = 0.17795 0.26273
# Poissons Ratio (y) = 0.23321 0.24252
# Poissons Ratio (z) = 0.53740 0.37851
#
# Static dielectric constant tensor:
#      x y z
#    x 3.741750 0.000000 0.198030 
#    y 0.000000 3.708650 0.000000 
#    z 0.198030 0.000000 3.553480 
# 
# 
# High freq. dielectric constant tensor:
#      x y z
#    x 1.773120 0.000000 0.030190 
#    y 0.000000 1.763240 0.000000 
#    z 0.030190 0.000000 1.750000 
# 
# From -- ./inp_files/70586.got.cif
#   From: 2010.06.25/outbox.cif.g09.slc.cpg/sg15_36_cif.got.tgz:70586.got - 2010.06.28 07:06:18.
