data_PCOD8151686
_publ_section_title
;
Structure prediction by ZEFSAII (Michael W. Deem and Ramdas Pophale) SiO2 
 PCOD8151686
Probable space group: C 2/C
;
_chemical_formula_sum "Si O2"
_cell_formula_units_Z 64
_cell_length_a 32.610148
_cell_length_b 11.656233
_cell_length_c 18.752705
_cell_angle_alpha 90.000000
_cell_angle_beta 26.670309
_cell_angle_gamma 90.000000
_cell_volume 3199.498679
_symmetry_space_group_name_H-M "C 2/C"
_symmetry_group_IT_number 15
_symmetry_cell_setting 'monoclinic'
loop_
_space_group_symop_operation_xyz
x,y,z
-x,y,1/2-z
-x,-y,-z
x,-y,1/2+z
1/2+x,1/2+y,z
1/2-x,1/2+y,1/2-z
1/2-x,1/2-y,-z
1/2+x,1/2-y,1/2+z
loop_
_atom_site_type_symbol
_atom_site_label
_atom_site_fract_x
_atom_site_fract_y
_atom_site_fract_z
Si Si1 0.123787 0.328149 0.362797
Si Si2 0.415296 0.433861 0.098738
Si Si3 0.158283 0.754873 0.184456
Si Si4 0.086913 0.405368 0.162182
Si Si5 0.156368 0.421064 0.813946
Si Si6 0.262651 0.610020 0.289752
Si Si7 0.980877 0.650296 0.199842
Si Si8 0.010845 0.717784 0.902140
O O1 0.163917 0.448932 0.273711
O O2 0.204798 0.238871 0.246886
O O3 0.051465 0.278726 0.418591
O O4 0.078515 0.357896 0.509316
O O5 0.357576 0.375184 0.251587
O O6 0.345756 0.520457 0.168534
O O7 0.500000 0.500000 0.000000
O O8 0.454870 0.337934 0.981324
O O9 0.167617 0.655148 0.227243
O O10 0.077245 0.742045 0.253542
O O11 0.250000 0.750000 0.000000
O O12 0.073533 0.530813 0.216388
O O13 0.089175 0.306398 0.220798
O O14 0.000000 0.371636 0.250000
O O15 0.180188 0.410589 0.972830
O O16 0.232954 0.398250 0.754053
O O17 0.057393 0.390484 0.001204
O O18 0.000000 0.694241 0.250000
#
# Coordination Sequence:
#
# PCOD8151686 Si02
#       8
#     8   8   8   8   8   8   8   8
#     4  12  23  42  68  98 127 175 227 270 334 411
#     4  11  23  46  65  93 135 180 212 270 341 410
#     4  11  24  41  65  95 131 170 218 273 331 387
#     4  11  22  40  63 101 131 167 221 280 330 390
#     4  11  23  40  69  96 132 174 224 277 326 397
#     4  12  26  41  68 102 132 178 224 271 344 401
#     4  11  21  38  67  94 128 170 223 274 322 401
#     4  11  21  43  71  90 134 172 220 274 338 395
#
# _framework density 20.003132999999998
#
# number of rings (size 3 to 8) (size 9 to 14) (size 15 to 20)
#    0.000    0.750    6.250    2.625    5.250    0.500 
#    2.250    0.000    0.000    0.000    0.000    0.000 
#    0.000    0.000    0.000    0.000    0.000    0.000 
#
# Total GULP energy -396758.849080 kJ/mol
# GULP energy per Si atom -12398.714034 kJ/mol
# Density = 1.995760 g / cm^3
# Si number density = 20.003133 Si / 1000 Ang^3
#
#
#
# Elastic Constant Matrix: (Units=GPa)
#
#
# Indices 1 2 3 4 5 6 
#
# 1 119.2719 25.7750 32.6094 0.0000 -4.6007 0.0000
# 2 25.7750 99.6127 27.2226 0.0001 -7.8615 0.0000
# 3 32.6094 27.2226 78.5381 0.0000 -3.0196 0.0000
# 4 0.0000 0.0001 0.0000 31.2483 0.0000 -5.8352
# 5 -4.6007 -7.8615 -3.0196 0.0000 33.0512 0.0000
# 6 0.0000 0.0000 0.0000 -5.8352 0.0000 19.4772
#
#
#
# Elastic Compliance Matrix: (Units=1/GPa)
#
#
# Indices 1 2 3 4 5 6 
#
# 1 0.009685 -0.001503 -0.003474 0.000000 0.000673 0.000000
# 2 -0.001503 0.011499 -0.003276 0.000000 0.002227 0.000000
# 3 -0.003474 -0.003276 0.015316 0.000000 0.000136 0.000000
# 4 0.000000 0.000000 0.000000 0.033898 0.000000 0.010156
# 5 0.000673 0.002227 0.000136 0.000000 0.030892 0.000000
# 6 0.000000 0.000000 0.000000 0.010156 0.000000 0.054385
#
#
# Mechanical properties :
#
#
# Convention : Reuss Voigt Hill
#
# Bulk Modulus (GPa) = 50.01837 52.07075 51.04456
# Shear Modulus (GPa) = 27.95706 30.87637 29.41672
#
# Velocity S-wave (km/s) = 3.74255 3.93310 3.83901
# Velocity P-wave (km/s) = 6.61325 6.83473 6.72490
#
# Compressibility (1/GPa) = 0.01999265
#
# Stress axis : x y z
#
# Youngs Moduli (GPa) = 103.25312 86.96517 65.29151
#
# Poissons Ratio (x) = 0.13074 0.22684
# Poissons Ratio (y) = 0.15523 0.21389
# Poissons Ratio (z) = 0.35873 0.28489
#
# Static dielectric constant tensor:
#      x y z
#    x 3.772250 0.000000 0.378460 
#    y 0.000000 3.732800 0.000000 
#    z 0.378460 0.000000 5.050030 
# 
# 
# High freq. dielectric constant tensor:
#      x y z
#    x 1.786250 0.000000 -0.000270 
#    y 0.000000 1.780660 0.000000 
#    z -0.000270 0.000000 1.777000 
# 
# From -- ./inp_files/225178.got.cif
#   From: 2010.06.25/outbox.cif.g09.slc.cpg/sg15_113_cif.got.tgz:225178.got - 2010.06.28 07:06:18.
