data_PCOD8151567
_publ_section_title
;
Structure prediction by ZEFSAII (Michael W. Deem and Ramdas Pophale) SiO2 
 PCOD8151567
Probable space group: C 2/C
;
_chemical_formula_sum "Si O2"
_cell_formula_units_Z 56
_cell_length_a 20.608847
_cell_length_b 18.464835
_cell_length_c 14.231621
_cell_angle_alpha 90.000000
_cell_angle_beta 153.992370
_cell_angle_gamma 90.000000
_cell_volume 2374.728779
_symmetry_space_group_name_H-M "C 2/C"
_symmetry_group_IT_number 15
_symmetry_cell_setting 'monoclinic'
loop_
_space_group_symop_operation_xyz
x,y,z
-x,y,1/2-z
-x,-y,-z
x,-y,1/2+z
1/2+x,1/2+y,z
1/2-x,1/2+y,1/2-z
1/2-x,1/2-y,-z
1/2+x,1/2-y,1/2+z
loop_
_atom_site_type_symbol
_atom_site_label
_atom_site_fract_x
_atom_site_fract_y
_atom_site_fract_z
Si Si1 0.896814 0.557546 0.472434
Si Si2 0.473308 0.751131 0.495262
Si Si3 0.766425 0.175225 0.366468
Si Si4 0.277690 0.098932 0.018587
Si Si5 0.711444 0.062198 0.959252
Si Si6 0.388414 0.300532 0.684852
Si Si7 0.891864 0.606193 0.974270
O O1 0.823124 0.610272 0.301082
O O2 0.833431 0.575735 0.491649
O O3 0.864547 0.474489 0.396707
O O4 0.072913 0.572450 0.708199
O O5 0.649639 0.760355 0.734183
O O6 0.409224 0.700247 0.494461
O O7 0.456039 0.709929 0.375177
O O8 0.386231 0.829065 0.389791
O O9 0.821302 0.148788 0.541072
O O10 0.447609 0.105638 0.270378
O O11 0.220411 0.017552 0.959020
O O12 0.270365 0.121202 0.898934
O O13 0.842217 0.117172 0.103513
O O14 0.500000 0.274068 0.750000
O O15 0.250000 0.250000 0.500000
#
# Coordination Sequence:
#
# PCOD8151567 Si02
#       7
#     8   8   8   8   8   8   8
#     4   9  17  33  61  85 111 153 197 249 281 342
#     4  11  23  37  56  85 120 154 191 243 293 351
#     4  11  21  36  59  86 120 151 198 236 295 347
#     4   8  17  34  61  87 108 150 197 251 283 332
#     4   9  18  35  57  83 115 150 203 241 288 337
#     4  12  25  37  56  84 123 162 195 235 291 353
#     4   8  17  35  58  89 116 144 201 246 288 335
#
# _framework density 23.581641000000001
#
# number of rings (size 3 to 8) (size 9 to 14) (size 15 to 20)
#    0.000    2.286    1.429    3.429    2.000    6.857 
#    0.000    0.000    6.286    1.714    0.000    0.000 
#    0.000    0.000    0.000    0.000    0.000    0.000 
#
# Total GULP energy -346986.912966 kJ/mol
# GULP energy per Si atom -12392.389749 kJ/mol
# Density = 2.352797 g / cm^3
# Si number density = 23.581641 Si / 1000 Ang^3
#
#
#
# Elastic Constant Matrix: (Units=GPa)
#
#
# Indices 1 2 3 4 5 6 
#
# 1 159.6370 47.3127 23.0638 0.0000 8.9751 0.0000
# 2 47.3127 98.1601 18.6176 0.0000 -1.1143 0.0000
# 3 23.0638 18.6176 22.5921 0.0000 1.6159 0.0000
# 4 0.0000 0.0000 0.0000 26.0913 0.0000 0.1458
# 5 8.9751 -1.1143 1.6159 0.0000 21.2110 0.0000
# 6 0.0000 0.0000 0.0000 0.1458 0.0000 35.6314
#
#
#
# Elastic Compliance Matrix: (Units=1/GPa)
#
#
# Indices 1 2 3 4 5 6 
#
# 1 0.008114 -0.002866 -0.005696 0.000000 -0.003150 0.000000
# 2 -0.002866 0.013129 -0.008073 0.000000 0.002517 0.000000
# 3 -0.005696 -0.008073 0.056899 0.000000 -0.002349 0.000000
# 4 0.000000 0.000000 0.000000 0.038328 0.000000 -0.000157
# 5 -0.003150 0.002517 -0.002349 0.000000 0.048789 0.000000
# 6 0.000000 0.000000 0.000000 -0.000157 0.000000 0.028066
#
#
# Mechanical properties :
#
#
# Convention : Reuss Voigt Hill
#
# Bulk Modulus (GPa) = 22.28611 50.93081 36.60846
# Shear Modulus (GPa) = 20.69955 29.34642 25.02298
#
# Velocity S-wave (km/s) = 2.96595 3.53152 3.26102
# Velocity P-wave (km/s) = 4.60438 6.18655 5.45315
#
# Compressibility (1/GPa) = 0.04487101
#
# Stress axis : x y z
#
# Youngs Moduli (GPa) = 123.24840 76.16913 17.57508
#
# Poissons Ratio (x) = 0.21832 0.10010
# Poissons Ratio (y) = 0.35326 0.14188
# Poissons Ratio (z) = 0.70200 0.61491
#
# Static dielectric constant tensor:
#      x y z
#    x 4.681160 0.000000 -0.095150 
#    y 0.000000 3.855920 0.000000 
#    z -0.095150 0.000000 3.504530 
# 
# 
# High freq. dielectric constant tensor:
#      x y z
#    x 1.956670 0.000000 -0.010290 
#    y 0.000000 1.943030 0.000000 
#    z -0.010290 0.000000 1.876200 
# 
# From -- ./inp_files/169184.got.cif
#   From: 2010.06.25/outbox.cif.g09.slc.cpg/sg15_85_cif.got.tgz:169184.got - 2010.06.28 07:06:18.
