data_PCOD8151246
_publ_section_title
;
Structure prediction by ZEFSAII (Michael W. Deem and Ramdas Pophale) SiO2 
 PCOD8151246
Probable space group: C 2/C
;
_chemical_formula_sum "Si O2"
_cell_formula_units_Z 64
_cell_length_a 12.052501
_cell_length_b 18.510244
_cell_length_c 21.222481
_cell_angle_alpha 90.000000
_cell_angle_beta 141.536651
_cell_angle_gamma 90.000000
_cell_volume 2945.001743
_symmetry_space_group_name_H-M "C 2/C"
_symmetry_group_IT_number 15
_symmetry_cell_setting 'monoclinic'
loop_
_space_group_symop_operation_xyz
x,y,z
-x,y,1/2-z
-x,-y,-z
x,-y,1/2+z
1/2+x,1/2+y,z
1/2-x,1/2+y,1/2-z
1/2-x,1/2-y,-z
1/2+x,1/2-y,1/2+z
loop_
_atom_site_type_symbol
_atom_site_label
_atom_site_fract_x
_atom_site_fract_y
_atom_site_fract_z
Si Si1 0.018864 0.213930 0.666907
Si Si2 0.764269 0.558288 0.076648
Si Si3 0.813405 0.585695 0.655509
Si Si4 0.890338 0.081629 0.262216
Si Si5 0.448921 0.441610 0.355582
Si Si6 0.991909 0.644872 0.411193
Si Si7 0.977878 0.857870 0.936055
Si Si8 0.696805 0.215563 0.606502
O O1 0.956552 0.136076 0.614139
O O2 0.062111 0.272857 0.632691
O O3 0.195772 0.190036 0.784069
O O4 0.852631 0.248291 0.630942
O O5 0.873325 0.490012 0.150491
O O6 0.681595 0.600975 0.099136
O O7 0.891670 0.607683 0.091170
O O8 0.598388 0.520893 0.965833
O O9 0.733022 0.570725 0.688329
O O10 0.676060 0.628671 0.550379
O O11 0.000000 0.628951 0.750000
O O12 0.684336 0.098251 0.156999
O O13 0.962445 0.124329 0.355294
O O14 0.000000 0.106643 0.250000
O O15 0.912682 0.994670 0.280803
O O16 0.096344 0.650643 0.524575
O O17 0.946862 0.773557 0.935035
#
# Coordination Sequence:
#
# PCOD8151246 Si02
#       8
#     8   8   8   8   8   8   8   8
#     4  11  23  40  70 105 137 165 218 293 350 390
#     4  11  20  36  72 102 135 166 224 292 339 394
#     4  11  22  38  66 102 134 181 227 276 332 408
#     4  12  27  45  65  94 143 194 223 266 333 417
#     4  11  22  44  66 101 141 174 224 284 346 394
#     4  12  23  43  69 109 133 170 233 281 343 406
#     4  11  21  44  68  99 134 178 225 284 344 391
#     4  11  23  40  70 106 131 170 221 289 351 391
#
# _framework density 21.731736999999999
#
# number of rings (size 3 to 8) (size 9 to 14) (size 15 to 20)
#    0.000    0.750    6.250    3.375    1.750    0.000 
#    2.250    4.375    0.000    0.000    0.000    0.000 
#    0.000    0.000    0.000    0.000    0.000    0.000 
#
# Total GULP energy -396617.516469 kJ/mol
# GULP energy per Si atom -12394.297390 kJ/mol
# Density = 2.168227 g / cm^3
# Si number density = 21.731737 Si / 1000 Ang^3
#
#
#
# Elastic Constant Matrix: (Units=GPa)
#
#
# Indices 1 2 3 4 5 6 
#
# 1 123.4883 33.4420 63.2717 0.0001 2.8915 0.0000
# 2 33.4420 71.6445 11.2260 0.0000 4.4304 0.0000
# 3 63.2717 11.2260 122.1422 0.0010 14.6532 0.0005
# 4 0.0001 0.0000 0.0010 28.5624 0.0004 0.5951
# 5 2.8915 4.4304 14.6532 0.0004 34.3644 0.0002
# 6 0.0000 0.0000 0.0005 0.5951 0.0002 24.7736
#
#
#
# Elastic Compliance Matrix: (Units=1/GPa)
#
#
# Indices 1 2 3 4 5 6 
#
# 1 0.012686 -0.005064 -0.006383 0.000000 0.002307 0.000000
# 2 -0.005064 0.016242 0.001402 0.000000 -0.002266 0.000000
# 3 -0.006383 0.001402 0.011932 0.000000 -0.004732 0.000000
# 4 0.000000 0.000000 0.000000 0.035029 0.000000 -0.000841
# 5 0.002307 -0.002266 -0.004732 0.000000 0.031215 0.000000
# 6 0.000000 0.000000 0.000000 -0.000841 0.000000 0.040386
#
#
# Mechanical properties :
#
#
# Convention : Reuss Voigt Hill
#
# Bulk Modulus (GPa) = 48.14390 59.23936 53.69163
# Shear Modulus (GPa) = 28.65295 31.49577 30.07436
#
# Velocity S-wave (km/s) = 3.63503 3.81109 3.72410
# Velocity P-wave (km/s) = 6.31029 6.83260 6.57663
#
# Compressibility (1/GPa) = 0.02077106
#
# Stress axis : x y z
#
# Youngs Moduli (GPa) = 78.82969 61.56909 83.80610
#
# Poissons Ratio (x) = 0.31178 0.53491
# Poissons Ratio (y) = 0.39918 -0.11752
# Poissons Ratio (z) = 0.50315 -0.08633
#
# Static dielectric constant tensor:
#      x y z
#    x 3.732570 0.000000 -0.061800 
#    y 0.000000 3.769740 0.000000 
#    z -0.061800 0.000000 4.094510 
# 
# 
# High freq. dielectric constant tensor:
#      x y z
#    x 1.833290 0.000000 0.000190 
#    y 0.000000 1.838050 0.000000 
#    z 0.000190 0.000000 1.870990 
# 
# From -- ./inp_files/240426.got.cif
#   From: 2010.06.25/outbox.cif.g09.slc.cpg/sg15_121_cif.got.tgz:240426.got - 2010.06.28 07:06:18.
