data_PCOD8151586
_publ_section_title
;
Structure prediction by ZEFSAII (Michael W. Deem and Ramdas Pophale) SiO2 
 PCOD8151586
Probable space group: C 2/C
;
_chemical_formula_sum "Si O2"
_cell_formula_units_Z 36
_cell_length_a 9.324495
_cell_length_b 10.131065
_cell_length_c 16.445844
_cell_angle_alpha 90.000000
_cell_angle_beta 98.105243
_cell_angle_gamma 90.000000
_cell_volume 1538.071424
_symmetry_space_group_name_H-M "C 2/C"
_symmetry_group_IT_number 15
_symmetry_cell_setting 'monoclinic'
loop_
_space_group_symop_operation_xyz
x,y,z
-x,y,1/2-z
-x,-y,-z
x,-y,1/2+z
1/2+x,1/2+y,z
1/2-x,1/2+y,1/2-z
1/2-x,1/2-y,-z
1/2+x,1/2-y,1/2+z
loop_
_atom_site_type_symbol
_atom_site_label
_atom_site_fract_x
_atom_site_fract_y
_atom_site_fract_z
Si Si1 0.500000 0.057801 0.750000
Si Si2 0.155251 0.665432 0.620336
Si Si3 0.986803 0.178848 0.654169
Si Si4 0.623968 0.539611 0.070717
Si Si5 0.057359 0.446218 0.918053
O O1 0.584503 0.971391 0.823197
O O2 0.619083 0.145673 0.712236
O O3 0.322594 0.634507 0.619665
O O4 0.101539 0.810409 0.596033
O O5 0.055467 0.560981 0.556069
O O6 0.014012 0.300204 0.592481
O O7 0.000000 0.218395 0.750000
O O8 0.102068 0.062529 0.644315
O O9 0.778762 0.535907 0.036421
O O10 0.500000 0.500000 0.000000
#
# Coordination Sequence:
#
# PCOD8151586 Si02
#       5
#     4   8   8   8   8
#     4   8  16  40  58  86 116 142 196 252 288 334
#     4   9  21  38  58  85 119 151 189 246 295 343
#     4  11  21  36  64  90 109 154 200 244 295 341
#     4  11  25  39  56  90 125 156 197 237 287 359
#     4   9  20  40  60  84 123 149 193 250 291 342
#
# _framework density 23.405934999999999
#
# number of rings (size 3 to 8) (size 9 to 14) (size 15 to 20)
#    1.333    0.889    1.111    1.333    1.556    6.222 
#    0.000    2.222    0.000    0.000    0.000    0.000 
#    0.000    0.000    0.000    0.000    0.000    0.000 
#
# Total GULP energy -223001.651409 kJ/mol
# GULP energy per Si atom -12388.980634 kJ/mol
# Density = 2.335266 g / cm^3
# Si number density = 23.405935 Si / 1000 Ang^3
#
#
#
# Elastic Constant Matrix: (Units=GPa)
#
#
# Indices 1 2 3 4 5 6 
#
# 1 90.3709 74.7340 23.8736 0.0000 7.9639 0.0000
# 2 74.7340 162.0673 21.9964 0.0000 2.2657 0.0000
# 3 23.8736 21.9964 51.8061 0.0000 14.2457 0.0000
# 4 0.0000 0.0000 0.0000 40.7916 0.0000 2.4382
# 5 7.9639 2.2657 14.2457 0.0000 39.5140 0.0000
# 6 0.0000 0.0000 0.0000 2.4382 0.0000 36.1485
#
#
#
# Elastic Compliance Matrix: (Units=1/GPa)
#
#
# Indices 1 2 3 4 5 6 
#
# 1 0.019307 -0.008207 -0.004964 0.000000 -0.001631 0.000000
# 2 -0.008207 0.010053 -0.000869 0.000000 0.001391 0.000000
# 3 -0.004964 -0.000869 0.024055 0.000000 -0.007622 0.000000
# 4 0.000000 0.000000 0.000000 0.024614 0.000000 -0.001660
# 5 -0.001631 0.001391 -0.007622 0.000000 0.028304 0.000000
# 6 0.000000 0.000000 0.000000 -0.001660 0.000000 0.027776
#
#
# Mechanical properties :
#
#
# Convention : Reuss Voigt Hill
#
# Bulk Modulus (GPa) = 39.47006 60.60583 50.03794
# Shear Modulus (GPa) = 29.30227 35.53350 32.41788
#
# Velocity S-wave (km/s) = 3.54208 3.90056 3.72563
# Velocity P-wave (km/s) = 5.79899 6.79966 6.31917
#
# Compressibility (1/GPa) = 0.02533566
#
# Stress axis : x y z
#
# Youngs Moduli (GPa) = 51.79398 99.47209 41.57063
#
# Poissons Ratio (x) = 0.81632 0.20637
# Poissons Ratio (y) = 0.42505 0.03613
# Poissons Ratio (z) = 0.25713 0.08645
#
# Static dielectric constant tensor:
#      x y z
#    x 4.267880 0.000000 -0.218180 
#    y 0.000000 4.480560 0.000000 
#    z -0.218180 0.000000 4.672180 
# 
# 
# High freq. dielectric constant tensor:
#      x y z
#    x 1.921430 0.000000 -0.004830 
#    y 0.000000 1.926450 0.000000 
#    z -0.004830 0.000000 1.958420 
# 
# From -- ./inp_files/267216.got.cif
#   From: 2010.06.25/outbox.cif.g09.slc.cpg/sg15_134_cif.got.tgz:267216.got - 2010.06.28 07:06:18.
