data_PCOD8151771
_publ_section_title
;
Structure prediction by ZEFSAII (Michael W. Deem and Ramdas Pophale) SiO2 
 PCOD8151771
Probable space group: C 2/C
;
_chemical_formula_sum "Si O2"
_cell_formula_units_Z 40
_cell_length_a 16.179154
_cell_length_b 9.116647
_cell_length_c 14.086657
_cell_angle_alpha 90.000000
_cell_angle_beta 115.883584
_cell_angle_gamma 90.000000
_cell_volume 1869.340219
_symmetry_space_group_name_H-M "C 2/C"
_symmetry_group_IT_number 15
_symmetry_cell_setting 'monoclinic'
loop_
_space_group_symop_operation_xyz
x,y,z
-x,y,1/2-z
-x,-y,-z
x,-y,1/2+z
1/2+x,1/2+y,z
1/2-x,1/2+y,1/2-z
1/2-x,1/2-y,-z
1/2+x,1/2-y,1/2+z
loop_
_atom_site_type_symbol
_atom_site_label
_atom_site_fract_x
_atom_site_fract_y
_atom_site_fract_z
Si Si1 0.737524 0.499755 0.364323
Si Si2 0.786395 0.491857 0.599320
Si Si3 0.174451 0.721268 0.735923
Si Si4 0.913369 0.104940 0.454907
Si Si5 0.905820 0.213763 0.652175
O O1 0.790570 0.527830 0.489765
O O2 0.782161 0.370111 0.327301
O O3 0.741287 0.649967 0.307362
O O4 0.633443 0.445301 0.335540
O O5 0.845955 0.615461 0.684859
O O6 0.681968 0.488094 0.587287
O O7 0.830916 0.334923 0.641702
O O8 0.085825 0.800776 0.643188
O O9 0.921254 0.215489 0.547079
O O10 0.000000 0.000000 0.500000
O O11 0.000000 0.251147 0.750000
#
# Coordination Sequence:
#
# PCOD8151771 Si02
#       5
#     8   8   8   8   8
#     4  11  21  40  64 100 129 178 218 275 332 400
#     4  11  23  43  65  98 135 175 222 282 340 390
#     4  12  21  40  69  95 133 171 228 267 337 396
#     4  11  22  39  68  98 131 176 229 271 330 407
#     4  11  22  41  65  94 139 176 220 280 338 388
#
# _framework density 21.397925000000001
#
# number of rings (size 3 to 8) (size 9 to 14) (size 15 to 20)
#    0.000    0.800    6.000    3.000    0.000    0.000 
#    0.000    8.000    0.000    0.000    0.000    0.000 
#    0.000    0.000    0.000    0.000    0.000    0.000 
#
# Total GULP energy -247907.975875 kJ/mol
# GULP energy per Si atom -12395.398794 kJ/mol
# Density = 2.134922 g / cm^3
# Si number density = 21.397925 Si / 1000 Ang^3
#
#
#
# Elastic Constant Matrix: (Units=GPa)
#
#
# Indices 1 2 3 4 5 6 
#
# 1 68.8093 40.7564 45.4614 0.0000 3.7542 0.0000
# 2 40.7564 130.0793 81.0540 0.0000 -7.4300 0.0000
# 3 45.4614 81.0540 188.7781 0.0000 -8.4848 0.0000
# 4 0.0000 0.0000 0.0000 53.8578 0.0000 -6.3706
# 5 3.7542 -7.4300 -8.4848 0.0000 28.0386 0.0000
# 6 0.0000 0.0000 0.0000 -6.3706 0.0000 23.5107
#
#
#
# Elastic Compliance Matrix: (Units=1/GPa)
#
#
# Indices 1 2 3 4 5 6 
#
# 1 0.019408 -0.004512 -0.002947 0.000000 -0.004686 0.000000
# 2 -0.004512 0.011602 -0.003781 0.000000 0.002534 0.000000
# 3 -0.002947 -0.003781 0.007708 0.000000 0.001725 0.000000
# 4 0.000000 0.000000 0.000000 0.019182 0.000000 0.005198
# 5 -0.004686 0.002534 0.001725 0.000000 0.037486 0.000000
# 6 0.000000 0.000000 0.000000 0.005198 0.000000 0.043942
#
#
# Mechanical properties :
#
#
# Convention : Reuss Voigt Hill
#
# Bulk Modulus (GPa) = 61.58528 80.24560 70.91544
# Shear Modulus (GPa) = 29.90028 35.77442 32.83735
#
# Velocity S-wave (km/s) = 3.74216 4.09328 3.92165
# Velocity P-wave (km/s) = 6.89312 7.74099 7.32933
#
# Compressibility (1/GPa) = 0.01623765
#
# Stress axis : x y z
#
# Youngs Moduli (GPa) = 51.52405 86.19113 129.73733
#
# Poissons Ratio (x) = 0.38892 0.38235
# Poissons Ratio (y) = 0.23249 0.49053
# Poissons Ratio (z) = 0.15185 0.32588
#
# Static dielectric constant tensor:
#      x y z
#    x 3.443270 0.000000 -0.139210 
#    y 0.000000 3.933360 0.000000 
#    z -0.139210 0.000000 4.374740 
# 
# 
# High freq. dielectric constant tensor:
#      x y z
#    x 1.793550 0.000000 -0.015150 
#    y 0.000000 1.839840 0.000000 
#    z -0.015150 0.000000 1.872870 
# 
# From -- ./inp_files/150549.got.cif
#   From: 2010.06.25/outbox.cif.g09.slc.cpg/sg15_76_cif.got.tgz:150549.got - 2010.06.28 07:06:18.
