data_PCOD8151658
_publ_section_title
;
Structure prediction by ZEFSAII (Michael W. Deem and Ramdas Pophale) SiO2 
 PCOD8151658
Probable space group: C 2/C
;
_chemical_formula_sum "Si O2"
_cell_formula_units_Z 60
_cell_length_a 23.608441
_cell_length_b 15.920937
_cell_length_c 11.823615
_cell_angle_alpha 90.000000
_cell_angle_beta 40.158860
_cell_angle_gamma 90.000000
_cell_volume 2866.056277
_symmetry_space_group_name_H-M "C 2/C"
_symmetry_group_IT_number 15
_symmetry_cell_setting 'monoclinic'
loop_
_space_group_symop_operation_xyz
x,y,z
-x,y,1/2-z
-x,-y,-z
x,-y,1/2+z
1/2+x,1/2+y,z
1/2-x,1/2+y,1/2-z
1/2-x,1/2-y,-z
1/2+x,1/2-y,1/2+z
loop_
_atom_site_type_symbol
_atom_site_label
_atom_site_fract_x
_atom_site_fract_y
_atom_site_fract_z
Si Si1 0.118219 0.806504 0.739965
Si Si2 0.153765 0.251184 0.774150
Si Si3 0.396263 0.178767 0.916683
Si Si4 0.750249 0.943207 0.887952
Si Si5 0.260650 0.385023 0.490084
Si Si6 0.616509 0.545812 0.514036
Si Si7 0.487479 0.696213 0.892004
Si Si8 0.500000 0.602124 0.250000
O O1 0.144462 0.723208 0.632078
O O2 0.195785 0.874851 0.621224
O O3 0.030189 0.841586 0.810604
O O4 0.096157 0.776414 0.902718
O O5 0.186450 0.342561 0.682051
O O6 0.225083 0.178472 0.638052
O O7 0.071254 0.218676 0.833473
O O8 0.128578 0.258358 0.943379
O O9 0.500000 0.160185 0.750000
O O10 0.344366 0.091487 0.007058
O O11 0.805846 0.967188 0.693393
O O12 0.728567 0.025125 0.994908
O O13 0.348660 0.400713 0.431007
O O14 0.531441 0.596051 0.595501
O O15 0.584779 0.452629 0.588979
O O16 0.500000 0.740634 0.750000
#
# Coordination Sequence:
#
# PCOD8151658 Si02
#       8
#     8   8   8   8   8   8   8   4
#     4  11  24  37  66  98 132 171 218 276 340 397
#     4  11  23  42  69  95 132 172 222 270 333 389
#     4  12  24  46  68  93 133 178 232 277 323 390
#     4  11  26  41  65  96 135 176 220 275 338 392
#     4  11  23  42  65  95 132 178 214 273 330 396
#     4  11  22  37  63  98 138 159 214 277 336 407
#     4  11  21  38  61  96 129 165 208 268 332 394
#     4  12  20  36  64 104 126 174 208 272 350 402
#
# _framework density 20.934688999999999
#
# number of rings (size 3 to 8) (size 9 to 14) (size 15 to 20)
#    0.000    0.800    6.667    0.400    3.733    1.067 
#    0.000    2.667    0.000    0.000    0.000    0.000 
#    0.000    0.000    0.000    0.000    0.000    0.000 
#
# Total GULP energy -371805.703329 kJ/mol
# GULP energy per Si atom -12393.523444 kJ/mol
# Density = 2.088704 g / cm^3
# Si number density = 20.934689 Si / 1000 Ang^3
#
#
#
# Elastic Constant Matrix: (Units=GPa)
#
#
# Indices 1 2 3 4 5 6 
#
# 1 67.0164 31.2727 29.4982 0.0000 7.8622 0.0000
# 2 31.2727 86.2486 38.7038 0.0000 -5.4028 0.0000
# 3 29.4982 38.7038 108.0738 0.0000 8.2856 0.0000
# 4 0.0000 0.0000 0.0000 22.4418 0.0000 -5.2850
# 5 7.8622 -5.4028 8.2856 0.0000 33.8436 0.0000
# 6 0.0000 0.0000 0.0000 -5.2850 0.0000 33.7016
#
#
#
# Elastic Compliance Matrix: (Units=1/GPa)
#
#
# Indices 1 2 3 4 5 6 
#
# 1 0.019586 -0.006165 -0.002766 0.000000 -0.004857 0.000000
# 2 -0.006165 0.016170 -0.004500 0.000000 0.005115 0.000000
# 3 -0.002766 -0.004500 0.011848 0.000000 -0.002976 0.000000
# 4 0.000000 0.000000 0.000000 0.046268 0.000000 0.007256
# 5 -0.004857 0.005115 -0.002976 0.000000 0.032221 0.000000
# 6 0.000000 0.000000 0.000000 0.007256 0.000000 0.030810
#
#
# Mechanical properties :
#
#
# Convention : Reuss Voigt Hill
#
# Bulk Modulus (GPa) = 48.21237 51.14313 49.67775
# Shear Modulus (GPa) = 26.22230 28.78835 27.50532
#
# Velocity S-wave (km/s) = 3.54302 3.71233 3.62866
# Velocity P-wave (km/s) = 6.31008 6.54660 6.42943
#
# Compressibility (1/GPa) = 0.02074156
#
# Stress axis : x y z
#
# Youngs Moduli (GPa) = 51.05798 61.84483 84.40486
#
# Poissons Ratio (x) = 0.38125 0.23344
# Poissons Ratio (y) = 0.31475 0.37984
# Poissons Ratio (z) = 0.14121 0.27832
#
# Static dielectric constant tensor:
#      x y z
#    x 3.909520 0.000000 0.380940 
#    y 0.000000 3.650200 0.000000 
#    z 0.380940 0.000000 4.249640 
# 
# 
# High freq. dielectric constant tensor:
#      x y z
#    x 1.810570 0.000000 0.011680 
#    y 0.000000 1.797430 0.000000 
#    z 0.011680 0.000000 1.835050 
# 
# From -- ./inp_files/119456.got.cif
#   From: 2010.06.25/outbox.cif.g09.slc.cpg/sg15_60_cif.got.tgz:119456.got - 2010.06.28 07:06:18.
