data_PCOD8151559
_publ_section_title
;
Structure prediction by ZEFSAII (Michael W. Deem and Ramdas Pophale) SiO2 
 PCOD8151559
Probable space group: C 2/C
;
_chemical_formula_sum "Si O2"
_cell_formula_units_Z 36
_cell_length_a 10.738804
_cell_length_b 33.782342
_cell_length_c 5.120421
_cell_angle_alpha 90.000000
_cell_angle_beta 109.560548
_cell_angle_gamma 90.000000
_cell_volume 1750.391105
_symmetry_space_group_name_H-M "C 2/C"
_symmetry_group_IT_number 15
_symmetry_cell_setting 'monoclinic'
loop_
_space_group_symop_operation_xyz
x,y,z
-x,y,1/2-z
-x,-y,-z
x,-y,1/2+z
1/2+x,1/2+y,z
1/2-x,1/2+y,1/2-z
1/2-x,1/2-y,-z
1/2+x,1/2-y,1/2+z
loop_
_atom_site_type_symbol
_atom_site_label
_atom_site_fract_x
_atom_site_fract_y
_atom_site_fract_z
Si Si1 0.848255 0.889004 0.731996
Si Si2 0.500000 0.711918 0.750000
Si Si3 0.710750 0.341869 0.278307
Si Si4 0.641731 0.233258 0.720146
Si Si5 0.155853 0.021217 0.325025
O O1 0.758986 0.871618 0.436008
O O2 0.806050 0.934498 0.734284
O O3 0.000000 0.886306 0.750000
O O4 0.813968 0.865489 0.971165
O O5 0.421475 0.683220 0.894041
O O6 0.379476 0.736409 0.535308
O O7 0.828954 0.310095 0.378056
O O8 0.500000 0.230378 0.750000
O O9 0.750000 0.250000 0.000000
O O10 0.000000 0.016213 0.250000
O O11 0.215693 0.008058 0.645843
#
# Coordination Sequence:
#
# PCOD8151559 Si02
#       5
#     8   4   8   8   8
#     4  11  21  36  56  87 124 163 204 257 316 379
#     4  12  24  42  62  88 120 170 218 268 312 382
#     4  12  24  38  60  88 122 162 216 259 316 374
#     4  12  27  44  65  89 124 167 226 275 324 376
#     4   9  17  30  51  79 117 161 199 239 301 382
#
# _framework density 20.566832000000002
#
# number of rings (size 3 to 8) (size 9 to 14) (size 15 to 20)
#    0.000    0.889    4.444    3.333    3.111    3.556 
#    0.000    0.000    0.000    0.000    0.000    0.000 
#    0.000   17.778    0.000    0.000    0.000    0.000 
#
# Total GULP energy -223048.719218 kJ/mol
# GULP energy per Si atom -12391.595512 kJ/mol
# Density = 2.052002 g / cm^3
# Si number density = 20.566832 Si / 1000 Ang^3
#
#
#
# Elastic Constant Matrix: (Units=GPa)
#
#
# Indices 1 2 3 4 5 6 
#
# 1 52.8402 46.9919 31.8667 0.0000 5.5140 0.0000
# 2 46.9919 153.1015 72.4974 0.0000 -19.0471 0.0000
# 3 31.8667 72.4974 146.5776 0.0000 -21.0588 0.0000
# 4 0.0000 0.0000 0.0000 35.6216 0.0000 -4.7962
# 5 5.5140 -19.0471 -21.0588 0.0000 26.9085 0.0000
# 6 0.0000 0.0000 0.0000 -4.7962 0.0000 18.3561
#
#
#
# Elastic Compliance Matrix: (Units=1/GPa)
#
#
# Indices 1 2 3 4 5 6 
#
# 1 0.032270 -0.009862 -0.004609 0.000000 -0.017201 0.000000
# 2 -0.009862 0.011776 -0.002470 0.000000 0.008424 0.000000
# 3 -0.004609 -0.002470 0.010062 0.000000 0.007070 0.000000
# 4 0.000000 0.000000 0.000000 0.029097 0.000000 0.007603
# 5 -0.017201 0.008424 0.007070 0.000000 0.052184 0.000000
# 6 0.000000 0.000000 0.000000 0.007603 0.000000 0.056464
#
#
# Mechanical properties :
#
#
# Convention : Reuss Voigt Hill
#
# Bulk Modulus (GPa) = 49.44276 72.80348 61.12312
# Shear Modulus (GPa) = 21.50740 29.58813 25.54777
#
# Velocity S-wave (km/s) = 3.23729 3.79705 3.52828
# Velocity P-wave (km/s) = 6.16973 7.39586 6.81045
#
# Compressibility (1/GPa) = 0.02022541
#
# Stress axis : x y z
#
# Youngs Moduli (GPa) = 30.98828 84.91594 99.38386
#
# Poissons Ratio (x) = 0.83746 0.45807
# Poissons Ratio (y) = 0.30561 0.24551
# Poissons Ratio (z) = 0.14283 0.20977
#
# Static dielectric constant tensor:
#      x y z
#    x 3.371120 0.000000 -0.495920 
#    y 0.000000 3.990570 0.000000 
#    z -0.495920 0.000000 3.459690 
# 
# 
# High freq. dielectric constant tensor:
#      x y z
#    x 1.763110 0.000000 -0.034490 
#    y 0.000000 1.818980 0.000000 
#    z -0.034490 0.000000 1.802420 
# 
# From -- ./inp_files/4802.got.cif
#   From: 2010.06.25/outbox.cif.g09.slc.cpg/sg15_3_cif.got.tgz:4802.got - 2010.06.28 07:06:18.
