data_PCOD8151315
_publ_section_title
;
Structure prediction by ZEFSAII (Michael W. Deem and Ramdas Pophale) SiO2 
 PCOD8151315
Probable space group: C 2/C
;
_chemical_formula_sum "Si O2"
_cell_formula_units_Z 64
_cell_length_a 15.611883
_cell_length_b 17.890007
_cell_length_c 20.820247
_cell_angle_alpha 90.000000
_cell_angle_beta 148.087519
_cell_angle_gamma 90.000000
_cell_volume 3073.958093
_symmetry_space_group_name_H-M "C 2/C"
_symmetry_group_IT_number 15
_symmetry_cell_setting 'monoclinic'
loop_
_space_group_symop_operation_xyz
x,y,z
-x,y,1/2-z
-x,-y,-z
x,-y,1/2+z
1/2+x,1/2+y,z
1/2-x,1/2+y,1/2-z
1/2-x,1/2-y,-z
1/2+x,1/2-y,1/2+z
loop_
_atom_site_type_symbol
_atom_site_label
_atom_site_fract_x
_atom_site_fract_y
_atom_site_fract_z
Si Si1 0.535282 0.429006 0.978269
Si Si2 0.405587 0.115496 0.831467
Si Si3 0.974067 0.642760 0.019906
Si Si4 0.736203 0.070886 0.989485
Si Si5 0.826913 0.212696 0.112016
Si Si6 0.643785 0.283493 0.108017
Si Si7 0.813477 0.946700 0.130545
Si Si8 0.241771 0.472316 0.714957
O O1 0.706704 0.429461 0.048818
O O2 0.531383 0.353376 0.017100
O O3 0.500000 0.500000 0.000000
O O4 0.396155 0.425093 0.835997
O O5 0.549115 0.098125 0.872097
O O6 0.302886 0.188387 0.746543
O O7 0.284329 0.044556 0.756053
O O8 0.483269 0.130800 0.949521
O O9 0.032689 0.725891 0.078556
O O10 0.085725 0.579583 0.122719
O O11 0.791680 0.629172 0.929601
O O12 0.841428 0.125346 0.102975
O O13 0.764574 0.987181 0.033280
O O14 0.695868 0.231091 0.082417
O O15 0.000000 0.241217 0.250000
O O16 0.750000 0.250000 0.000000
O O17 0.000000 0.922288 0.250000
O O18 0.769907 0.003185 0.160024
#
# Coordination Sequence:
#
# PCOD8151315 Si02
#       8
#     8   8   8   8   8   8   8   8
#     4  12  27  43  60  97 137 186 220 270 346 419
#     4  11  22  42  64  99 131 179 219 280 341 396
#     4  11  24  40  66 101 136 173 228 279 341 403
#     4  12  22  40  69  95 134 174 226 286 336 413
#     4  12  25  39  58 101 139 175 216 273 347 413
#     4  12  26  40  64  95 144 177 218 274 347 418
#     4  11  20  38  69 103 124 172 231 290 325 387
#     4  11  21  41  68  93 136 170 230 276 330 406
#
# _framework density 20.820063000000001
#
# number of rings (size 3 to 8) (size 9 to 14) (size 15 to 20)
#    0.000    0.500    7.500    1.875    3.500    0.000 
#    0.000    0.000    0.000    8.250    0.000    0.000 
#    0.000    0.000    0.000    0.000    0.000    0.000 
#
# Total GULP energy -396732.531974 kJ/mol
# GULP energy per Si atom -12397.891624 kJ/mol
# Density = 2.077268 g / cm^3
# Si number density = 20.820063 Si / 1000 Ang^3
#
#
#
# Elastic Constant Matrix: (Units=GPa)
#
#
# Indices 1 2 3 4 5 6 
#
# 1 74.8186 51.0165 22.9322 -0.0012 18.9733 0.0001
# 2 51.0165 124.5688 43.3196 0.0041 17.3742 0.0022
# 3 22.9322 43.3196 103.7039 -0.0098 23.1112 0.0014
# 4 -0.0012 0.0041 -0.0098 42.3955 0.0001 3.3590
# 5 18.9733 17.3742 23.1112 0.0001 34.6665 0.0013
# 6 0.0001 0.0022 0.0014 3.3590 0.0013 28.1808
#
#
#
# Elastic Compliance Matrix: (Units=1/GPa)
#
#
# Indices 1 2 3 4 5 6 
#
# 1 0.020182 -0.007306 0.000275 0.000001 -0.007568 0.000001
# 2 -0.007306 0.012218 -0.003541 -0.000002 0.000236 0.000000
# 3 0.000275 -0.003541 0.012566 0.000003 -0.006754 0.000000
# 4 0.000001 -0.000002 0.000003 0.023812 -0.000002 -0.002838
# 5 -0.007568 0.000236 -0.006754 -0.000002 0.037373 -0.000001
# 6 0.000001 0.000000 0.000000 -0.002838 -0.000001 0.035824
#
#
# Mechanical properties :
#
#
# Convention : Reuss Voigt Hill
#
# Bulk Modulus (GPa) = 41.97407 59.73642 50.85525
# Shear Modulus (GPa) = 29.22982 33.43675 31.33329
#
# Velocity S-wave (km/s) = 3.75096 4.01182 3.88359
# Velocity P-wave (km/s) = 6.24210 7.08616 6.67748
#
# Compressibility (1/GPa) = 0.02382423
#
# Stress axis : x y z
#
# Youngs Moduli (GPa) = 49.54930 81.84522 79.57912
#
# Poissons Ratio (x) = 0.59793 -0.02192
# Poissons Ratio (y) = 0.36199 0.28177
# Poissons Ratio (z) = -0.01365 0.28980
#
# Static dielectric constant tensor:
#      x y z
#    x 3.788340 0.000010 0.153070 
#    y 0.000010 3.902110 -0.000010 
#    z 0.153070 -0.000010 3.826320 
# 
# 
# High freq. dielectric constant tensor:
#      x y z
#    x 1.791700 0.000000 0.009670 
#    y 0.000000 1.808860 0.000000 
#    z 0.009670 0.000000 1.824490 
# 
# From -- ./inp_files/277655.got.cif
#   From: 2010.06.25/outbox.cif.g09.slc.cpg/sg15_139_cif.got.tgz:277655.got - 2010.06.28 07:06:18.
