data_PCOD8151135
_publ_section_title
;
Structure prediction by ZEFSAII (Michael W. Deem and Ramdas Pophale) SiO2 
 PCOD8151135
Probable space group: C 2/C
;
_chemical_formula_sum "Si O2"
_cell_formula_units_Z 48
_cell_length_a 19.186781
_cell_length_b 8.183950
_cell_length_c 19.635827
_cell_angle_alpha 90.000000
_cell_angle_beta 125.879009
_cell_angle_gamma 90.000000
_cell_volume 2498.254963
_symmetry_space_group_name_H-M "C 2/C"
_symmetry_group_IT_number 15
_symmetry_cell_setting 'monoclinic'
loop_
_space_group_symop_operation_xyz
x,y,z
-x,y,1/2-z
-x,-y,-z
x,-y,1/2+z
1/2+x,1/2+y,z
1/2-x,1/2+y,1/2-z
1/2-x,1/2-y,-z
1/2+x,1/2-y,1/2+z
loop_
_atom_site_type_symbol
_atom_site_label
_atom_site_fract_x
_atom_site_fract_y
_atom_site_fract_z
Si Si1 0.834262 0.738795 0.306703
Si Si2 0.493392 0.141281 0.166766
Si Si3 0.835501 0.773314 0.006044
Si Si4 0.495123 0.878941 0.062557
Si Si5 0.178275 0.613751 0.640417
Si Si6 0.406685 0.430964 0.465592
O O1 0.918372 0.715531 0.309550
O O2 0.811261 0.576536 0.335881
O O3 0.757617 0.780769 0.212031
O O4 0.850684 0.889961 0.366776
O O5 0.500000 0.111567 0.250000
O O6 0.471562 0.969978 0.118529
O O7 0.415747 0.261895 0.103368
O O8 0.832405 0.631448 0.947240
O O9 0.847223 0.949352 0.976324
O O10 0.750000 0.750000 0.000000
O O11 0.592306 0.808425 0.125272
O O12 0.424312 0.738843 0.014699
O O13 0.500000 0.000000 0.000000
O O14 0.500000 0.500000 0.500000
#
# Coordination Sequence:
#
# PCOD8151135 Si02
#       6
#     8   8   8   8   8   8
#     4  11  22  37  64  95 120 169 222 268 315 400
#     4  11  22  41  62  89 132 169 206 268 343 382
#     4  12  24  40  61  93 130 166 211 272 336 390
#     4  11  19  42  68  90 120 174 225 265 323 402
#     4  11  21  38  61  93 127 161 220 270 314 392
#     4  12  20  40  70  92 118 176 225 264 329 407
#
# _framework density 19.213412999999999
#
# number of rings (size 3 to 8) (size 9 to 14) (size 15 to 20)
#    0.000    0.667    8.333    2.000    0.000    1.333 
#    0.000    7.500    0.000    0.000    0.000    0.000 
#    0.000    0.000    0.000    0.000    0.000    0.000 
#
# Total GULP energy -297553.737644 kJ/mol
# GULP energy per Si atom -12398.072402 kJ/mol
# Density = 1.916968 g / cm^3
# Si number density = 19.213413 Si / 1000 Ang^3
#
#
#
# Elastic Constant Matrix: (Units=GPa)
#
#
# Indices 1 2 3 4 5 6 
#
# 1 107.2318 59.0144 40.8174 0.0000 -5.9528 0.0000
# 2 59.0144 85.9696 46.7816 0.0000 -11.7303 0.0000
# 3 40.8174 46.7816 138.2694 0.0000 -8.2886 0.0000
# 4 0.0000 0.0000 0.0000 39.3176 0.0000 2.3365
# 5 -5.9528 -11.7303 -8.2886 0.0000 41.7388 0.0000
# 6 0.0000 0.0000 0.0000 2.3365 0.0000 27.4191
#
#
#
# Elastic Compliance Matrix: (Units=1/GPa)
#
#
# Indices 1 2 3 4 5 6 
#
# 1 0.015169 -0.009884 -0.001185 0.000000 -0.000850 0.000000
# 2 -0.009884 0.021101 -0.003998 0.000000 0.003727 0.000000
# 3 -0.001185 -0.003998 0.008964 0.000000 0.000487 0.000000
# 4 0.000000 0.000000 0.000000 0.025563 0.000000 -0.002178
# 5 -0.000850 0.003727 0.000487 0.000000 0.024981 0.000000
# 6 0.000000 0.000000 0.000000 -0.002178 0.000000 0.036657
#
#
# Mechanical properties :
#
#
# Convention : Reuss Voigt Hill
#
# Bulk Modulus (GPa) = 66.22410 69.41087 67.81748
# Shear Modulus (GPa) = 29.83243 34.01894 31.92568
#
# Velocity S-wave (km/s) = 3.94469 4.21239 4.08074
# Velocity P-wave (km/s) = 7.43572 7.73716 7.58794
#
# Compressibility (1/GPa) = 0.01510024
#
# Stress axis : x y z
#
# Youngs Moduli (GPa) = 65.92358 47.39072 111.55853
#
# Poissons Ratio (x) = 0.46842 0.13216
# Poissons Ratio (y) = 0.65160 0.44602
# Poissons Ratio (z) = 0.07810 0.18947
#
# Static dielectric constant tensor:
#      x y z
#    x 3.473600 0.000000 0.224980 
#    y 0.000000 3.688070 0.000000 
#    z 0.224980 0.000000 3.874740 
# 
# 
# High freq. dielectric constant tensor:
#      x y z
#    x 1.734010 0.000000 0.020100 
#    y 0.000000 1.745420 0.000000 
#    z 0.020100 0.000000 1.763550 
# 
# From -- ./inp_files/209265.got.cif
#   From: 2010.06.25/outbox.cif.g09.slc.cpg/sg15_105_cif.got.tgz:209265.got - 2010.06.28 07:06:18.
