data_PCOD8151849
_publ_section_title
;
Structure prediction by ZEFSAII (Michael W. Deem and Ramdas Pophale) SiO2 
 PCOD8151849
Probable space group: C 2/C
;
_chemical_formula_sum "Si O2"
_cell_formula_units_Z 52
_cell_length_a 15.327538
_cell_length_b 16.623676
_cell_length_c 14.898221
_cell_angle_alpha 90.000000
_cell_angle_beta 40.530981
_cell_angle_gamma 90.000000
_cell_volume 2466.908822
_symmetry_space_group_name_H-M "C 2/C"
_symmetry_group_IT_number 15
_symmetry_cell_setting 'monoclinic'
loop_
_space_group_symop_operation_xyz
x,y,z
-x,y,1/2-z
-x,-y,-z
x,-y,1/2+z
1/2+x,1/2+y,z
1/2-x,1/2+y,1/2-z
1/2-x,1/2-y,-z
1/2+x,1/2-y,1/2+z
loop_
_atom_site_type_symbol
_atom_site_label
_atom_site_fract_x
_atom_site_fract_y
_atom_site_fract_z
Si Si1 0.000000 0.834929 0.750000
Si Si2 0.813430 0.724571 0.545489
Si Si3 0.735458 0.920073 0.001033
Si Si4 0.403388 0.266778 0.130898
Si Si5 0.868923 0.458888 0.057499
Si Si6 0.024587 0.306111 0.101414
Si Si7 0.252750 0.906616 0.311280
O O1 0.127644 0.892530 0.650896
O O2 0.992263 0.781413 0.666254
O O3 0.750000 0.750000 0.500000
O O4 0.707396 0.750301 0.705744
O O5 0.865828 0.632562 0.519713
O O6 0.948166 0.777817 0.444564
O O7 0.629651 0.846484 0.088096
O O8 0.757567 0.951005 0.085446
O O9 0.670498 0.991686 0.998130
O O10 0.373963 0.349176 0.101215
O O11 0.405143 0.198211 0.051891
O O12 0.757228 0.467990 0.223848
O O13 0.000000 0.500000 0.000000
O O14 0.890341 0.356183 0.193158
#
# Coordination Sequence:
#
# PCOD8151849 Si02
#       7
#     4   8   8   8   8   8   8
#     4  12  24  36  66 104 130 170 220 270 360 412
#     4  11  25  47  71 102 134 186 241 289 347 421
#     4  12  24  41  64  99 139 178 226 281 351 418
#     4  11  21  41  69 100 136 171 229 289 346 404
#     4  11  24  46  66  94 138 183 230 285 347 423
#     4  12  20  38  67 101 133 169 220 288 336 415
#     4  11  22  41  68  97 134 175 222 290 342 397
#
# _framework density 21.079013
#
# number of rings (size 3 to 8) (size 9 to 14) (size 15 to 20)
#    0.000    0.615    7.692    1.846    0.000    0.000 
#   13.846    0.769    0.000    0.000    0.000    0.000 
#    0.000    0.000    0.000    0.000    0.000    0.000 
#
# Total GULP energy -322142.464063 kJ/mol
# GULP energy per Si atom -12390.094772 kJ/mol
# Density = 2.103104 g / cm^3
# Si number density = 21.079013 Si / 1000 Ang^3
#
#
#
# Elastic Constant Matrix: (Units=GPa)
#
#
# Indices 1 2 3 4 5 6 
#
# 1 137.7041 46.6887 54.9010 0.0000 12.6215 0.0000
# 2 46.6887 70.4193 40.3847 0.0001 6.5586 0.0000
# 3 54.9010 40.3847 125.4075 0.0002 5.9928 -0.0001
# 4 0.0000 0.0001 0.0002 25.8004 -0.0001 4.1932
# 5 12.6215 6.5586 5.9928 -0.0001 49.3894 0.0000
# 6 0.0000 0.0000 -0.0001 4.1932 0.0000 38.3022
#
#
#
# Elastic Compliance Matrix: (Units=1/GPa)
#
#
# Indices 1 2 3 4 5 6 
#
# 1 0.010224 -0.005036 -0.002777 0.000000 -0.001607 0.000000
# 2 -0.005036 0.020031 -0.004205 0.000000 -0.000863 0.000000
# 3 -0.002777 -0.004205 0.010544 0.000000 -0.000011 0.000000
# 4 0.000000 0.000000 0.000000 0.039461 0.000000 -0.004320
# 5 -0.001607 -0.000863 -0.000011 0.000000 0.020774 0.000000
# 6 0.000000 0.000000 0.000000 -0.004320 0.000000 0.026581
#
#
# Mechanical properties :
#
#
# Convention : Reuss Voigt Hill
#
# Bulk Modulus (GPa) = 59.65346 68.60884 64.13115
# Shear Modulus (GPa) = 31.79849 35.46885 33.63367
#
# Velocity S-wave (km/s) = 3.88820 4.10648 3.99883
# Velocity P-wave (km/s) = 6.96555 7.42316 7.19799
#
# Compressibility (1/GPa) = 0.01676349
#
# Stress axis : x y z
#
# Youngs Moduli (GPa) = 97.80863 49.92165 94.83698
#
# Poissons Ratio (x) = 0.25142 0.26339
# Poissons Ratio (y) = 0.49259 0.39876
# Poissons Ratio (z) = 0.27164 0.20990
#
# Static dielectric constant tensor:
#      x y z
#    x 4.170500 0.000000 0.163910 
#    y 0.000000 3.703950 0.000000 
#    z 0.163910 0.000000 4.011600 
# 
# 
# High freq. dielectric constant tensor:
#      x y z
#    x 1.845340 0.000000 0.011840 
#    y 0.000000 1.792780 0.000000 
#    z 0.011840 0.000000 1.837500 
# 
# From -- ./inp_files/155453.got.cif
#   From: 2010.06.25/outbox.cif.g09.slc.cpg/sg15_78_cif.got.tgz:155453.got - 2010.06.28 07:06:18.
