data_PCOD8151063
_publ_section_title
;
Structure prediction by ZEFSAII (Michael W. Deem and Ramdas Pophale) SiO2 
 PCOD8151063
Probable space group: C 2/C
;
_chemical_formula_sum "Si O2"
_cell_formula_units_Z 48
_cell_length_a 9.281733
_cell_length_b 20.202960
_cell_length_c 16.944535
_cell_angle_alpha 90.000000
_cell_angle_beta 50.034345
_cell_angle_gamma 90.000000
_cell_volume 2435.263768
_symmetry_space_group_name_H-M "C 2/C"
_symmetry_group_IT_number 15
_symmetry_cell_setting 'monoclinic'
loop_
_space_group_symop_operation_xyz
x,y,z
-x,y,1/2-z
-x,-y,-z
x,-y,1/2+z
1/2+x,1/2+y,z
1/2-x,1/2+y,1/2-z
1/2-x,1/2-y,-z
1/2+x,1/2-y,1/2+z
loop_
_atom_site_type_symbol
_atom_site_label
_atom_site_fract_x
_atom_site_fract_y
_atom_site_fract_z
Si Si1 0.455081 0.144739 0.853810
Si Si2 0.725478 0.671943 0.176848
Si Si3 0.911353 0.804040 0.058779
Si Si4 0.305626 0.741169 0.161331
Si Si5 0.487020 0.077838 0.507031
Si Si6 0.892509 0.144913 0.857658
O O1 0.500000 0.118934 0.750000
O O2 0.229768 0.148581 0.938682
O O3 0.553605 0.215671 0.833491
O O4 0.517094 0.094044 0.898766
O O5 0.500000 0.660335 0.250000
O O6 0.803400 0.734017 0.100304
O O7 0.782116 0.686402 0.248479
O O8 0.839599 0.608583 0.103357
O O9 0.960525 0.835826 0.125973
O O10 0.096786 0.799072 0.942693
O O11 0.159003 0.786800 0.168065
O O12 0.287173 0.105629 0.544024
O O13 0.500000 0.000000 0.500000
O O14 0.000000 0.103318 0.750000
#
# Coordination Sequence:
#
# PCOD8151063 Si02
#       6
#     8   8   8   8   8   8
#     4  11  19  36  63  90 120 159 203 256 310 371
#     4  12  21  37  66  96 125 159 208 260 316 376
#     4  12  19  34  61 102 129 147 199 267 337 357
#     4  11  20  32  57  97 130 153 193 256 328 376
#     4  11  27  46  60  84 130 179 215 245 297 376
#     4  11  22  37  63  93 127 162 198 259 326 374
#
# _framework density 19.710391000000001
#
# number of rings (size 3 to 8) (size 9 to 14) (size 15 to 20)
#    0.000    0.667    8.333    3.000    0.000    0.667 
#    0.000    2.500    0.000    0.000    0.000    0.000 
#    0.000    0.000    0.000    0.000    0.000    0.000 
#
# Total GULP energy -297425.484501 kJ/mol
# GULP energy per Si atom -12392.728521 kJ/mol
# Density = 1.966553 g / cm^3
# Si number density = 19.710391 Si / 1000 Ang^3
#
#
#
# Elastic Constant Matrix: (Units=GPa)
#
#
# Indices 1 2 3 4 5 6 
#
# 1 78.1442 29.4848 1.8286 0.0000 -6.1532 0.0000
# 2 29.4848 91.9411 36.1667 0.0000 -0.7710 0.0000
# 3 1.8286 36.1667 104.9642 0.0000 0.1463 0.0000
# 4 0.0000 0.0000 0.0000 19.6495 0.0000 1.5839
# 5 -6.1532 -0.7710 0.1463 0.0000 41.5988 0.0000
# 6 0.0000 0.0000 0.0000 1.5839 0.0000 7.6679
#
#
#
# Elastic Compliance Matrix: (Units=1/GPa)
#
#
# Indices 1 2 3 4 5 6 
#
# 1 0.014967 -0.005412 0.001601 0.000000 0.002108 0.000000
# 2 -0.005412 0.014541 -0.004915 0.000000 -0.000514 0.000000
# 3 0.001601 -0.004915 0.011193 0.000000 0.000106 0.000000
# 4 0.000000 0.000000 0.000000 0.051754 0.000000 -0.010690
# 5 0.002108 -0.000514 0.000106 0.000000 0.024341 0.000000
# 6 0.000000 0.000000 0.000000 -0.010690 0.000000 0.132622
#
#
# Mechanical properties :
#
#
# Convention : Reuss Voigt Hill
#
# Bulk Modulus (GPa) = 43.01309 45.55662 44.28485
# Shear Modulus (GPa) = 18.20691 27.62121 22.91406
#
# Velocity S-wave (km/s) = 3.04258 3.74753 3.41330
# Velocity P-wave (km/s) = 5.84918 6.47213 6.16852
#
# Compressibility (1/GPa) = 0.02324874
#
# Stress axis : x y z
#
# Youngs Moduli (GPa) = 66.81178 68.76915 89.34411
#
# Poissons Ratio (x) = 0.37218 -0.14305
# Poissons Ratio (y) = 0.36159 0.43916
# Poissons Ratio (z) = -0.10697 0.33803
#
# Static dielectric constant tensor:
#      x y z
#    x 4.001890 0.000000 -0.294670 
#    y 0.000000 3.088470 0.000000 
#    z -0.294670 0.000000 4.285430 
# 
# 
# High freq. dielectric constant tensor:
#      x y z
#    x 1.780740 0.000000 -0.003340 
#    y 0.000000 1.698870 0.000000 
#    z -0.003340 0.000000 1.795060 
# 
# From -- ./inp_files/191937.got.cif
#   From: 2010.06.25/outbox.cif.g09.slc.cpg/sg15_96_cif.got.tgz:191937.got - 2010.06.28 07:06:18.
