data_PCOD8151260
_publ_section_title
;
Structure prediction by ZEFSAII (Michael W. Deem and Ramdas Pophale) SiO2 
 PCOD8151260
Probable space group: C 2/C
;
_chemical_formula_sum "Si O2"
_cell_formula_units_Z 60
_cell_length_a 17.842997
_cell_length_b 21.759096
_cell_length_c 11.389181
_cell_angle_alpha 90.000000
_cell_angle_beta 43.995193
_cell_angle_gamma 90.000000
_cell_volume 3071.388011
_symmetry_space_group_name_H-M "C 2/C"
_symmetry_group_IT_number 15
_symmetry_cell_setting 'monoclinic'
loop_
_space_group_symop_operation_xyz
x,y,z
-x,y,1/2-z
-x,-y,-z
x,-y,1/2+z
1/2+x,1/2+y,z
1/2-x,1/2+y,1/2-z
1/2-x,1/2-y,-z
1/2+x,1/2-y,1/2+z
loop_
_atom_site_type_symbol
_atom_site_label
_atom_site_fract_x
_atom_site_fract_y
_atom_site_fract_z
Si Si1 0.469987 0.799082 0.653352
Si Si2 0.254354 0.671232 0.184051
Si Si3 0.855364 0.276652 0.222547
Si Si4 0.104100 0.168042 0.693194
Si Si5 0.685408 0.369907 0.498325
Si Si6 0.000000 0.213052 0.250000
Si Si7 0.868293 0.929106 0.694143
Si Si8 0.880157 0.931915 0.143262
O O1 0.500000 0.822960 0.750000
O O2 0.372734 0.835899 0.700104
O O3 0.578434 0.808633 0.456377
O O4 0.436717 0.727412 0.689818
O O5 0.279374 0.722279 0.256199
O O6 0.299894 0.604375 0.169437
O O7 0.310595 0.691299 0.999152
O O8 0.789792 0.327342 0.368972
O O9 0.938846 0.252202 0.222807
O O10 0.158228 0.118644 0.718715
O O11 0.000000 0.136172 0.750000
O O12 0.582173 0.328535 0.583797
O O13 0.672569 0.398686 0.640397
O O14 0.688310 0.423561 0.398408
O O15 0.994052 0.921286 0.525419
O O16 0.846426 0.001499 0.728003
#
# Coordination Sequence:
#
# PCOD8151260 Si02
#       8
#     8   8   8   8   8   4   8   8
#     4  11  24  39  61  94 128 163 208 256 317 380
#     4  12  22  40  62  92 133 166 209 257 316 381
#     4  12  24  38  62  93 129 171 201 257 316 377
#     4  11  20  37  62  93 126 161 206 253 316 376
#     4  12  24  40  62  92 129 162 209 252 312 381
#     4  12  22  40  60  94 134 168 200 252 314 390
#     4  11  24  39  61  92 124 166 203 255 316 371
#     4  11  23  40  62  89 128 161 207 259 308 372
#
# _framework density 19.535142
#
# number of rings (size 3 to 8) (size 9 to 14) (size 15 to 20)
#    0.000    0.533    6.667    3.200    5.600    0.000 
#    0.000    0.000    0.000    0.800    5.200    0.000 
#    0.000    0.000    0.000    0.000    0.000    0.000 
#
# Total GULP energy -372006.538258 kJ/mol
# GULP energy per Si atom -12400.217942 kJ/mol
# Density = 1.949068 g / cm^3
# Si number density = 19.535142 Si / 1000 Ang^3
#
#
#
# Elastic Constant Matrix: (Units=GPa)
#
#
# Indices 1 2 3 4 5 6 
#
# 1 107.7429 32.0728 32.4195 0.0000 4.8307 0.0000
# 2 32.0728 87.3639 46.9581 0.0000 7.2889 0.0000
# 3 32.4195 46.9581 96.9276 0.0001 6.6219 -0.0001
# 4 0.0000 0.0000 0.0001 25.0938 -0.0001 -0.9927
# 5 4.8307 7.2889 6.6219 -0.0001 28.2386 0.0001
# 6 0.0000 0.0000 -0.0001 -0.9927 0.0001 23.0714
#
#
#
# Elastic Compliance Matrix: (Units=1/GPa)
#
#
# Indices 1 2 3 4 5 6 
#
# 1 0.010792 -0.002694 -0.002262 0.000000 -0.000620 0.000000
# 2 -0.002694 0.016294 -0.006847 0.000000 -0.002139 0.000000
# 3 -0.002262 -0.006847 0.014475 0.000000 -0.001240 0.000000
# 4 0.000000 0.000000 0.000000 0.039918 0.000000 0.001717
# 5 -0.000620 -0.002139 -0.001240 0.000000 0.036362 0.000000
# 6 0.000000 0.000000 0.000000 0.001717 0.000000 0.043418
#
#
# Mechanical properties :
#
#
# Convention : Reuss Voigt Hill
#
# Bulk Modulus (GPa) = 55.69339 57.21503 56.45421
# Shear Modulus (GPa) = 26.19868 27.31970 26.75919
#
# Velocity S-wave (km/s) = 3.66608 3.74370 3.70509
# Velocity P-wave (km/s) = 6.81846 6.93101 6.87497
#
# Compressibility (1/GPa) = 0.01795545
#
# Stress axis : x y z
#
# Youngs Moduli (GPa) = 92.66288 61.37211 69.08394
#
# Poissons Ratio (x) = 0.16536 0.15626
# Poissons Ratio (y) = 0.24967 0.47299
# Poissons Ratio (z) = 0.20959 0.42019
#
# Static dielectric constant tensor:
#      x y z
#    x 3.697970 0.000000 0.149170 
#    y 0.000000 3.397070 0.000000 
#    z 0.149170 0.000000 3.655140 
# 
# 
# High freq. dielectric constant tensor:
#      x y z
#    x 1.766790 0.000000 0.018300 
#    y 0.000000 1.732450 0.000000 
#    z 0.018300 0.000000 1.761360 
# 
# From -- ./inp_files/107603.got.cif
#   From: 2010.06.25/outbox.cif.g09.slc.cpg/sg15_54_cif.got.tgz:107603.got - 2010.06.28 07:06:18.
