data_PCOD8151585
_publ_section_title
;
Structure prediction by ZEFSAII (Michael W. Deem and Ramdas Pophale) SiO2 
 PCOD8151585
Probable space group: C 2/C
;
_chemical_formula_sum "Si O2"
_cell_formula_units_Z 60
_cell_length_a 17.013644
_cell_length_b 9.837350
_cell_length_c 19.142293
_cell_angle_alpha 90.000000
_cell_angle_beta 60.214561
_cell_angle_gamma 90.000000
_cell_volume 2780.577291
_symmetry_space_group_name_H-M "C 2/C"
_symmetry_group_IT_number 15
_symmetry_cell_setting 'monoclinic'
loop_
_space_group_symop_operation_xyz
x,y,z
-x,y,1/2-z
-x,-y,-z
x,-y,1/2+z
1/2+x,1/2+y,z
1/2-x,1/2+y,1/2-z
1/2-x,1/2-y,-z
1/2+x,1/2-y,1/2+z
loop_
_atom_site_type_symbol
_atom_site_label
_atom_site_fract_x
_atom_site_fract_y
_atom_site_fract_z
Si Si1 0.703187 0.729866 0.901119
Si Si2 0.103411 0.561107 0.223073
Si Si3 0.000000 0.071575 0.250000
Si Si4 0.785234 0.217682 0.756726
Si Si5 0.545140 0.112574 0.527582
Si Si6 0.294062 0.007457 0.952214
Si Si7 0.093250 0.278675 0.307532
Si Si8 0.190480 0.991081 0.132569
O O1 0.698465 0.655251 0.828094
O O2 0.734372 0.631464 0.949245
O O3 0.773986 0.856177 0.869190
O O4 0.601019 0.779689 0.957837
O O5 0.137647 0.669409 0.264706
O O6 0.172172 0.585850 0.127011
O O7 0.110915 0.407191 0.248035
O O8 0.000000 0.595729 0.250000
O O9 0.040137 0.161281 0.293099
O O10 0.080752 0.982827 0.179770
O O11 0.685992 0.284972 0.795891
O O12 0.777793 0.101097 0.817557
O O13 0.611362 0.054339 0.557095
O O14 0.461910 0.183761 0.600377
O O15 0.500000 0.000000 0.500000
O O16 0.232559 0.936445 0.039951
#
# Coordination Sequence:
#
# PCOD8151585 Si02
#       8
#     8   8   4   8   8   8   8   8
#     4  11  22  41  68  97 134 176 230 275 337 394
#     4  12  24  43  69  96 131 179 229 273 343 412
#     4  12  22  40  66  94 124 176 222 274 316 414
#     4  12  26  41  64  98 140 175 213 283 344 397
#     4  11  21  36  64 100 131 167 222 282 324 395
#     4  11  22  42  69  97 133 176 228 282 329 399
#     4  12  21  41  66  98 124 173 228 268 326 397
#     4  11  24  42  64  97 136 177 221 277 342 393
#
# _framework density 21.578254000000001
#
# number of rings (size 3 to 8) (size 9 to 14) (size 15 to 20)
#    0.000    0.533    4.667    6.400    0.933    0.533 
#    0.000    1.333    0.000    3.200    0.000    0.000 
#    0.000    0.000    0.000    0.000    0.000    0.000 
#
# Total GULP energy -371851.301389 kJ/mol
# GULP energy per Si atom -12395.043380 kJ/mol
# Density = 2.152914 g / cm^3
# Si number density = 21.578254 Si / 1000 Ang^3
#
#
#
# Elastic Constant Matrix: (Units=GPa)
#
#
# Indices 1 2 3 4 5 6 
#
# 1 143.8083 27.8159 49.9324 0.0000 2.9500 0.0000
# 2 27.8159 19.4042 7.3449 0.0000 11.3142 0.0001
# 3 49.9324 7.3449 145.0556 0.0000 -14.3827 0.0000
# 4 0.0000 0.0000 0.0000 6.9990 0.0000 -11.2338
# 5 2.9500 11.3142 -14.3827 0.0000 35.9068 0.0000
# 6 0.0000 0.0001 0.0000 -11.2338 0.0000 18.0331
#
#
#
# Elastic Compliance Matrix: (Units=1/GPa)
#
#
# Indices 1 2 3 4 5 6 
#
# 1 0.011040 -0.016775 -0.002621 0.000759 0.003329 0.000473
# 2 -0.016775 0.092936 -0.001769 -0.004734 -0.028614 -0.002949
# 3 -0.002621 -0.001769 0.008292 0.000087 0.004094 0.000054
# 4 0.000759 -0.004734 0.000087********** 0.001356724.339445
# 5 0.003329 -0.028614 0.004094 0.001356 0.038232 0.000845
# 6 0.000473 -0.002949 0.000054724.339445 0.000845451.284732
#
#
# Mechanical properties :
#
#
# Convention : Reuss Voigt Hill
#
# Bulk Modulus (GPa) = 14.29825 53.16162 33.72994
# Shear Modulus (GPa) = 0.00310 27.06611 13.53460
#
# Velocity S-wave (km/s) = 0.03793 3.54549 2.50718
# Velocity P-wave (km/s) = 2.57731 6.43823 4.90374
#
# Compressibility (1/GPa) = 0.06993863
#
# Stress axis : x y z
#
# Youngs Moduli (GPa) = 90.57929 10.76014 120.60469
#
# Poissons Ratio (x) = 0.18050 0.31609
# Poissons Ratio (y) = 1.51945 0.21330
# Poissons Ratio (z) = 0.23739 0.01903
#
# Static dielectric constant tensor:
#      x y z
#    x 4.168440 0.000000 -0.141100 
#    y 0.000000 3.344980 0.000000 
#    z -0.141100 0.000000 5.610180 
# 
# 
# High freq. dielectric constant tensor:
#      x y z
#    x 1.863690 0.000000 -0.003370 
#    y 0.000000 1.806650 0.000000 
#    z -0.003370 0.000000 1.871640 
# 
# From -- ./inp_files/204411.got.cif
#   From: 2010.06.25/outbox.cif.g09.slc.cpg/sg15_103_cif.got.tgz:204411.got - 2010.06.28 07:06:18.
