data_PCOD8151777
_publ_section_title
;
Structure prediction by ZEFSAII (Michael W. Deem and Ramdas Pophale) SiO2 
 PCOD8151777
Probable space group: C 2/C
;
_chemical_formula_sum "Si O2"
_cell_formula_units_Z 48
_cell_length_a 9.337728
_cell_length_b 18.109571
_cell_length_c 20.848235
_cell_angle_alpha 90.000000
_cell_angle_beta 44.260542
_cell_angle_gamma 90.000000
_cell_volume 2460.513286
_symmetry_space_group_name_H-M "C 2/C"
_symmetry_group_IT_number 15
_symmetry_cell_setting 'monoclinic'
loop_
_space_group_symop_operation_xyz
x,y,z
-x,y,1/2-z
-x,-y,-z
x,-y,1/2+z
1/2+x,1/2+y,z
1/2-x,1/2+y,1/2-z
1/2-x,1/2-y,-z
1/2+x,1/2-y,1/2+z
loop_
_atom_site_type_symbol
_atom_site_label
_atom_site_fract_x
_atom_site_fract_y
_atom_site_fract_z
Si Si1 0.206454 0.580547 0.721978
Si Si2 0.927069 0.075799 0.991682
Si Si3 0.255882 0.162367 0.333119
Si Si4 0.429671 0.551960 0.201715
Si Si5 0.693561 0.952810 0.451993
Si Si6 0.737518 0.334016 0.174823
O O1 0.388126 0.603323 0.614168
O O2 0.244581 0.506763 0.752665
O O3 0.172396 0.645665 0.784267
O O4 0.000000 0.566057 0.750000
O O5 0.714668 0.073469 0.018749
O O6 0.863518 0.131994 0.067088
O O7 0.000000 0.000000 0.000000
O O8 0.500000 0.144999 0.250000
O O9 0.137909 0.128039 0.309999
O O10 0.213958 0.248913 0.351039
O O11 0.500000 0.572872 0.250000
O O12 0.617191 0.508927 0.110734
O O13 0.674816 0.882970 0.411002
O O14 0.500000 0.000000 0.500000
O O15 0.500000 0.353272 0.250000
#
# Coordination Sequence:
#
# PCOD8151777 Si02
#       6
#     8   8   8   8   8   8
#     4  11  22  39  71  92 127 176 217 262 330 395
#     4  11  23  40  65  99 126 161 224 273 319 390
#     4  11  26  42  67  96 135 172 220 279 336 385
#     4  11  21  40  65  92 128 167 226 261 315 394
#     4  11  23  38  68  94 123 172 220 265 329 395
#     4  11  22  47  62  94 135 179 211 273 341 389
#
# _framework density 19.508125
#
# number of rings (size 3 to 8) (size 9 to 14) (size 15 to 20)
#    0.000    1.000    8.333    0.500    4.667    1.333 
#    0.000    3.333    0.000    0.000    0.000    0.000 
#    0.000    0.000    0.000    0.000    0.000    0.000 
#
# Total GULP energy -297374.294666 kJ/mol
# GULP energy per Si atom -12390.595611 kJ/mol
# Density = 1.946372 g / cm^3
# Si number density = 19.508125 Si / 1000 Ang^3
#
#
#
# Elastic Constant Matrix: (Units=GPa)
#
#
# Indices 1 2 3 4 5 6 
#
# 1 177.2294 69.3226 55.1940 -0.0030 17.4777 0.0019
# 2 69.3226 137.4365 57.4151 -0.0052 8.1717 0.0009
# 3 55.1940 57.4151 78.8192 -0.0104 23.5271 0.0025
# 4 -0.0030 -0.0052 -0.0104 32.8117 0.0014 3.9909
# 5 17.4777 8.1717 23.5271 0.0014 35.7714 -0.0004
# 6 0.0019 0.0009 0.0025 3.9909 -0.0004 30.5853
#
#
#
# Elastic Compliance Matrix: (Units=1/GPa)
#
#
# Indices 1 2 3 4 5 6 
#
# 1 0.007739 -0.002454 -0.003323 -0.000001 -0.001035 0.000000
# 2 -0.002454 0.011552 -0.007798 -0.000001 0.003689 0.000001
# 3 -0.003323 -0.007798 0.024485 0.000007 -0.012699 -0.000003
# 4 -0.000001 -0.000001 0.000007 0.030968 -0.000005 -0.004041
# 5 -0.001035 0.003689 -0.012699 -0.000005 0.035971 0.000002
# 6 0.000000 0.000001 -0.000003 -0.004041 0.000002 0.033223
#
#
# Mechanical properties :
#
#
# Convention : Reuss Voigt Hill
#
# Bulk Modulus (GPa) = 60.14237 84.14983 72.14610
# Shear Modulus (GPa) = 28.30793 33.93725 31.12259
#
# Velocity S-wave (km/s) = 3.81344 4.17543 3.99854
# Velocity P-wave (km/s) = 7.09127 8.15323 7.64072
#
# Compressibility (1/GPa) = 0.01662721
#
# Stress axis : x y z
#
# Youngs Moduli (GPa) = 129.21284 86.56505 40.84167
#
# Poissons Ratio (x) = 0.21242 0.13571
# Poissons Ratio (y) = 0.31707 0.31847
# Poissons Ratio (z) = 0.42936 0.67500
#
# Static dielectric constant tensor:
#      x y z
#    x 0.286580 0.000310 0.562860 
#    y 0.000310 3.500920 -0.000030 
#    z 0.562860 -0.000030 3.557900 
# 
# 
# High freq. dielectric constant tensor:
#      x y z
#    x 1.781890 0.000000 0.013620 
#    y 0.000000 1.747480 0.000000 
#    z 0.013620 0.000000 1.754060 
# 
# From -- ./inp_files/232518.got.cif
#   From: 2010.06.25/outbox.cif.g09.slc.cpg/sg15_117_cif.got.tgz:232518.got - 2010.06.28 07:06:18.
