data_PCOD8151188
_publ_section_title
;
Structure prediction by ZEFSAII (Michael W. Deem and Ramdas Pophale) SiO2 
 PCOD8151188
Probable space group: C 2/C
;
_chemical_formula_sum "Si O2"
_cell_formula_units_Z 48
_cell_length_a 16.822802
_cell_length_b 12.995896
_cell_length_c 11.915318
_cell_angle_alpha 90.000000
_cell_angle_beta 101.365406
_cell_angle_gamma 90.000000
_cell_volume 2553.931357
_symmetry_space_group_name_H-M "C 2/C"
_symmetry_group_IT_number 15
_symmetry_cell_setting 'monoclinic'
loop_
_space_group_symop_operation_xyz
x,y,z
-x,y,1/2-z
-x,-y,-z
x,-y,1/2+z
1/2+x,1/2+y,z
1/2-x,1/2+y,1/2-z
1/2-x,1/2-y,-z
1/2+x,1/2-y,1/2+z
loop_
_atom_site_type_symbol
_atom_site_label
_atom_site_fract_x
_atom_site_fract_y
_atom_site_fract_z
Si Si1 0.766770 0.121368 0.899975
Si Si2 0.272074 0.094205 0.079990
Si Si3 0.369918 0.190310 0.467519
Si Si4 0.531170 0.155446 0.641736
Si Si5 0.917589 0.429573 0.771843
Si Si6 0.705203 0.802485 0.145960
O O1 0.846012 0.189217 0.949859
O O2 0.734880 0.144016 0.767056
O O3 0.790258 0.000782 0.917346
O O4 0.694331 0.138671 0.967974
O O5 0.359916 0.054422 0.147656
O O6 0.246301 0.192313 0.144772
O O7 0.273411 0.120878 0.949288
O O8 0.461515 0.173523 0.532004
O O9 0.366540 0.138909 0.344343
O O10 0.500000 0.202107 0.750000
O O11 0.609093 0.218343 0.622226
O O12 0.556437 0.036430 0.662863
O O13 0.000000 0.374736 0.750000
#
# Coordination Sequence:
#
# PCOD8151188 Si02
#       6
#     8   8   8   8   8   8
#     4  11  22  39  61  89 119 160 200 250 293 361
#     4  11  23  38  61  89 118 162 200 242 304 358
#     4  11  22  36  60  89 120 152 201 245 303 353
#     4  11  20  36  57  87 120 152 194 247 302 350
#     4  11  20  34  59  90 122 151 189 251 310 353
#     4  11  22  40  60  86 127 156 199 249 296 363
#
# _framework density 18.794554999999999
#
# number of rings (size 3 to 8) (size 9 to 14) (size 15 to 20)
#    0.000    1.000    5.000    3.500    0.000    0.000 
#    0.000    0.833    0.000    1.000    0.000    0.000 
#    0.000    0.000    0.000    0.000    0.000    0.000 
#
# Total GULP energy -297589.795511 kJ/mol
# GULP energy per Si atom -12399.574813 kJ/mol
# Density = 1.875178 g / cm^3
# Si number density = 18.794555 Si / 1000 Ang^3
#
#
#
# Elastic Constant Matrix: (Units=GPa)
#
#
# Indices 1 2 3 4 5 6 
#
# 1 86.1781 46.2530 33.4710 0.0000 -2.3962 0.0000
# 2 46.2530 118.2255 57.0223 0.0000 5.1794 0.0000
# 3 33.4710 57.0223 92.7179 0.0000 -8.9453 0.0000
# 4 0.0000 0.0000 0.0000 17.6858 0.0000 3.9712
# 5 -2.3962 5.1794 -8.9453 0.0000 36.7762 0.0000
# 6 0.0000 0.0000 0.0000 3.9712 0.0000 22.5023
#
#
#
# Elastic Compliance Matrix: (Units=1/GPa)
#
#
# Indices 1 2 3 4 5 6 
#
# 1 0.015152 -0.004816 -0.002404 0.000000 0.001081 0.000000
# 2 -0.004816 0.014034 -0.007284 0.000000 -0.004062 0.000000
# 3 -0.002404 -0.007284 0.016607 0.000000 0.004909 0.000000
# 4 0.000000 0.000000 0.000000 0.058876 0.000000 -0.010390
# 5 0.001081 -0.004062 0.004909 0.000000 0.029028 0.000000
# 6 0.000000 0.000000 0.000000 -0.010390 0.000000 0.046274
#
#
# Mechanical properties :
#
#
# Convention : Reuss Voigt Hill
#
# Bulk Modulus (GPa) = 59.57807 63.40157 61.48982
# Shear Modulus (GPa) = 23.30208 26.08454 24.69331
#
# Velocity S-wave (km/s) = 3.52494 3.72946 3.62865
# Velocity P-wave (km/s) = 6.95237 7.23550 7.09535
#
# Compressibility (1/GPa) = 0.01678470
#
# Stress axis : x y z
#
# Youngs Moduli (GPa) = 65.99635 71.25629 60.21679
#
# Poissons Ratio (x) = 0.34317 0.14475
# Poissons Ratio (y) = 0.31783 0.43864
# Poissons Ratio (z) = 0.15864 0.51905
#
# Static dielectric constant tensor:
#      x y z
#    x 3.557440 0.000000 -0.107290 
#    y 0.000000 3.458970 0.000000 
#    z -0.107290 0.000000 3.560750 
# 
# 
# High freq. dielectric constant tensor:
#      x y z
#    x 1.721300 0.000000 -0.008990 
#    y 0.000000 1.714820 0.000000 
#    z -0.008990 0.000000 1.749240 
# 
# From -- ./inp_files/96529.got.cif
#   From: 2010.06.25/outbox.cif.g09.slc.cpg/sg15_49_cif.got.tgz:96529.got - 2010.06.28 07:06:18.
