data_PCOD8151970
_publ_section_title
;
Structure prediction by ZEFSAII (Michael W. Deem and Ramdas Pophale) SiO2 
 PCOD8151970
Probable space group: C 2/C
;
_chemical_formula_sum "Si O2"
_cell_formula_units_Z 40
_cell_length_a 14.448615
_cell_length_b 15.679200
_cell_length_c 8.487993
_cell_angle_alpha 90.000000
_cell_angle_beta 65.726358
_cell_angle_gamma 90.000000
_cell_volume 1752.894872
_symmetry_space_group_name_H-M "C 2/C"
_symmetry_group_IT_number 15
_symmetry_cell_setting 'monoclinic'
loop_
_space_group_symop_operation_xyz
x,y,z
-x,y,1/2-z
-x,-y,-z
x,-y,1/2+z
1/2+x,1/2+y,z
1/2-x,1/2+y,1/2-z
1/2-x,1/2-y,-z
1/2+x,1/2-y,1/2+z
loop_
_atom_site_type_symbol
_atom_site_label
_atom_site_fract_x
_atom_site_fract_y
_atom_site_fract_z
Si Si1 0.937944 0.931163 0.639388
Si Si2 0.147773 0.301794 0.066218
Si Si3 0.047029 0.254746 0.456389
Si Si4 0.106144 0.406103 0.612852
Si Si5 0.789349 0.540129 0.153270
O O1 0.922824 0.844863 0.547304
O O2 0.831761 0.973339 0.765106
O O3 0.000000 0.902573 0.750000
O O4 0.000000 0.000000 0.500000
O O5 0.096085 0.297819 0.270333
O O6 0.074706 0.265831 0.978049
O O7 0.250000 0.250000 0.000000
O O8 0.176482 0.399276 0.013243
O O9 0.087469 0.306706 0.580097
O O10 0.149929 0.452995 0.425766
O O11 0.186818 0.416477 0.695998
O O12 0.000000 0.445941 0.750000
#
# Coordination Sequence:
#
# PCOD8151970 Si02
#       5
#     8   8   8   8   8
#     4  12  26  50  72 101 141 185 240 293 355 427
#     4  11  21  43  72  98 138 183 234 284 352 418
#     4  11  24  43  71 102 139 183 233 296 346 420
#     4  12  26  43  69 108 147 183 237 295 357 422
#     4  12  25  45  72 105 143 192 235 291 362 425
#
# _framework density 22.819393999999999
#
# number of rings (size 3 to 8) (size 9 to 14) (size 15 to 20)
#    0.000    0.400    6.000    3.000    2.800    3.200 
#    0.000    0.000    0.000    0.000    0.000    0.000 
#    0.000    0.000    0.000    0.000    0.000    0.000 
#
# Total GULP energy -248038.812568 kJ/mol
# GULP energy per Si atom -12401.940628 kJ/mol
# Density = 2.276746 g / cm^3
# Si number density = 22.819394 Si / 1000 Ang^3
#
#
#
# Elastic Constant Matrix: (Units=GPa)
#
#
# Indices 1 2 3 4 5 6 
#
# 1 126.9756 36.7131 46.4339 0.0000 -16.1017 0.0000
# 2 36.7131 148.8295 58.5767 0.0000 -10.2932 0.0000
# 3 46.4339 58.5767 98.2631 0.0000 -7.5370 0.0000
# 4 0.0000 0.0000 0.0000 41.0058 0.0000 -3.9890
# 5 -16.1017 -10.2932 -7.5370 0.0000 47.6086 0.0000
# 6 0.0000 0.0000 0.0000 -3.9890 0.0000 32.5277
#
#
#
# Elastic Compliance Matrix: (Units=1/GPa)
#
#
# Indices 1 2 3 4 5 6 
#
# 1 0.009882 -0.000654 -0.004084 0.000000 0.002554 0.000000
# 2 -0.000654 0.008878 -0.004913 0.000000 0.000921 0.000000
# 3 -0.004084 -0.004913 0.015030 0.000000 -0.000064 0.000000
# 4 0.000000 0.000000 0.000000 0.024681 0.000000 0.003027
# 5 0.002554 0.000921 -0.000064 0.000000 0.022057 0.000000
# 6 0.000000 0.000000 0.000000 0.003027 0.000000 0.031114
#
#
# Mechanical properties :
#
#
# Convention : Reuss Voigt Hill
#
# Bulk Modulus (GPa) = 69.01734 73.05726 71.03730
# Shear Modulus (GPa) = 36.82619 39.71807 38.27213
#
# Velocity S-wave (km/s) = 4.02158 4.17650 4.09978
# Velocity P-wave (km/s) = 7.20242 7.43925 7.32180
#
# Compressibility (1/GPa) = 0.01448911
#
# Stress axis : x y z
#
# Youngs Moduli (GPa) = 101.19463 112.64421 66.53214
#
# Poissons Ratio (x) = 0.07362 0.27173
# Poissons Ratio (y) = 0.06614 0.32685
# Poissons Ratio (z) = 0.41329 0.55338
#
# Static dielectric constant tensor:
#      x y z
#    x 4.264010 0.000000 -0.088490 
#    y 0.000000 4.010630 0.000000 
#    z -0.088490 0.000000 4.036250 
# 
# 
# High freq. dielectric constant tensor:
#      x y z
#    x 1.906920 0.000000 -0.012640 
#    y 0.000000 1.896460 0.000000 
#    z -0.012640 0.000000 1.901040 
# 
# From -- ./inp_files/37861.got.cif
#   From: 2010.06.25/outbox.cif.g09.slc.cpg/sg15_19_cif.got.tgz:37861.got - 2010.06.28 07:06:18.
