data_PCOD8151766
_publ_section_title
;
Structure prediction by ZEFSAII (Michael W. Deem and Ramdas Pophale) SiO2 
 PCOD8151766
Probable space group: C 2/C
;
_chemical_formula_sum "Si O2"
_cell_formula_units_Z 48
_cell_length_a 18.302040
_cell_length_b 18.216849
_cell_length_c 15.417246
_cell_angle_alpha 90.000000
_cell_angle_beta 28.947387
_cell_angle_gamma 90.000000
_cell_volume 2487.886459
_symmetry_space_group_name_H-M "C 2/C"
_symmetry_group_IT_number 15
_symmetry_cell_setting 'monoclinic'
loop_
_space_group_symop_operation_xyz
x,y,z
-x,y,1/2-z
-x,-y,-z
x,-y,1/2+z
1/2+x,1/2+y,z
1/2-x,1/2+y,1/2-z
1/2-x,1/2-y,-z
1/2+x,1/2-y,1/2+z
loop_
_atom_site_type_symbol
_atom_site_label
_atom_site_fract_x
_atom_site_fract_y
_atom_site_fract_z
Si Si1 0.670028 0.520801 0.339550
Si Si2 0.500000 0.021377 0.750000
Si Si3 0.000000 0.876360 0.250000
Si Si4 0.576875 0.939897 0.356160
Si Si5 0.439428 0.820695 0.993873
Si Si6 0.213314 0.825344 0.884917
Si Si7 0.245577 0.441290 0.411823
O O1 0.500000 0.500000 0.500000
O O2 0.746981 0.465682 0.330089
O O3 0.690320 0.604362 0.347537
O O4 0.754522 0.505379 0.160367
O O5 0.487582 0.067124 0.674184
O O6 0.648365 0.970196 0.593671
O O7 0.083901 0.925710 0.234765
O O8 0.872569 0.829857 0.432968
O O9 0.554654 0.859112 0.418286
O O10 0.500000 0.000000 0.500000
O O11 0.609545 0.812364 0.780030
O O12 0.360931 0.742311 0.089092
O O13 0.334634 0.867795 0.038932
#
# Coordination Sequence:
#
# PCOD8151766 Si02
#       7
#     8   4   4   8   8   8   8
#     4  11  21  40  62  87 127 161 208 251 302 366
#     4  12  20  37  70  89 122 164 210 262 298 369
#     4  12  24  35  56  95 124 160 206 250 314 375
#     4  11  21  42  63  93 117 164 209 251 305 368
#     4  11  24  42  60  87 127 163 206 248 316 371
#     4  12  24  39  59  88 125 164 199 259 306 376
#     4  11  22  37  62  91 123 163 204 256 306 366
#
# _framework density 19.293485
#
# number of rings (size 3 to 8) (size 9 to 14) (size 15 to 20)
#    0.000    0.667    6.667    3.000    2.333    3.333 
#    0.000    0.000    0.000    5.000    0.000    0.000 
#    0.000    0.000    0.000    0.000    0.000    0.000 
#
# Total GULP energy -297476.596574 kJ/mol
# GULP energy per Si atom -12394.858191 kJ/mol
# Density = 1.924957 g / cm^3
# Si number density = 19.293485 Si / 1000 Ang^3
#
#
#
# Elastic Constant Matrix: (Units=GPa)
#
#
# Indices 1 2 3 4 5 6 
#
# 1 132.1304 38.3837 49.4445 0.0003 -3.0540 0.0003
# 2 38.3837 112.1427 46.5959 0.0009 7.2697 -0.0002
# 3 49.4445 46.5959 106.5649 -0.0025 -16.8656 0.0029
# 4 0.0003 0.0009 -0.0025 25.4627 0.0002 -3.3078
# 5 -3.0540 7.2697 -16.8656 0.0002 38.9985 -0.0004
# 6 0.0003 -0.0002 0.0029 -3.3078 -0.0004 26.5455
#
#
#
# Elastic Compliance Matrix: (Units=1/GPa)
#
#
# Indices 1 2 3 4 5 6 
#
# 1 0.009434 -0.001631 -0.003756 0.000000 -0.000582 0.000000
# 2 -0.001631 0.011928 -0.005186 -0.000001 -0.004594 0.000001
# 3 -0.003756 -0.005186 0.014493 0.000001 0.006940 -0.000001
# 4 0.000000 -0.000001 0.000001 0.039919 0.000001 0.004974
# 5 -0.000582 -0.004594 0.006940 0.000001 0.029454 0.000000
# 6 0.000000 0.000001 -0.000001 0.004974 0.000000 0.038291
#
#
# Mechanical properties :
#
#
# Convention : Reuss Voigt Hill
#
# Bulk Modulus (GPa) = 67.98578 68.85404 68.41991
# Shear Modulus (GPa) = 29.48657 32.62894 31.05776
#
# Velocity S-wave (km/s) = 3.91361 4.11687 4.01653
# Velocity P-wave (km/s) = 7.46565 7.63959 7.55312
#
# Compressibility (1/GPa) = 0.01470896
#
# Stress axis : x y z
#
# Youngs Moduli (GPa) = 105.99725 83.83658 68.99915
#
# Poissons Ratio (x) = 0.13670 0.25919
# Poissons Ratio (y) = 0.17283 0.35783
# Poissons Ratio (z) = 0.39817 0.43478
#
# Static dielectric constant tensor:
#      x y z
#    x 3.652450 0.000000 -0.276630 
#    y 0.000000 3.406140 0.000010 
#    z -0.276630 0.000010 3.935430 
# 
# 
# High freq. dielectric constant tensor:
#      x y z
#    x 1.756860 0.000000 -0.021530 
#    y 0.000000 1.723080 0.000000 
#    z -0.021530 0.000000 1.767990 
# 
# From -- ./inp_files/48742.got.cif
#   From: 2010.06.25/outbox.cif.g09.slc.cpg/sg15_25_cif.got.tgz:48742.got - 2010.06.28 07:06:18.
