data_PCOD8151403
_publ_section_title
;
Structure prediction by ZEFSAII (Michael W. Deem and Ramdas Pophale) SiO2 
 PCOD8151403
Probable space group: C 2/C
;
_chemical_formula_sum "Si O2"
_cell_formula_units_Z 48
_cell_length_a 14.607586
_cell_length_b 11.488226
_cell_length_c 15.184379
_cell_angle_alpha 90.000000
_cell_angle_beta 109.858831
_cell_angle_gamma 90.000000
_cell_volume 2396.636922
_symmetry_space_group_name_H-M "C 2/C"
_symmetry_group_IT_number 15
_symmetry_cell_setting 'monoclinic'
loop_
_space_group_symop_operation_xyz
x,y,z
-x,y,1/2-z
-x,-y,-z
x,-y,1/2+z
1/2+x,1/2+y,z
1/2-x,1/2+y,1/2-z
1/2-x,1/2-y,-z
1/2+x,1/2-y,1/2+z
loop_
_atom_site_type_symbol
_atom_site_label
_atom_site_fract_x
_atom_site_fract_y
_atom_site_fract_z
Si Si1 0.179091 0.784533 0.555641
Si Si2 0.160163 0.424661 0.482300
Si Si3 0.698536 0.453710 0.121910
Si Si4 0.451582 0.259003 0.450126
Si Si5 0.699948 0.936352 0.162414
Si Si6 0.514099 0.054162 0.152705
O O1 0.250000 0.750000 0.500000
O O2 0.211527 0.699582 0.644756
O O3 0.065646 0.772633 0.499543
O O4 0.193860 0.916399 0.586375
O O5 0.225558 0.390024 0.419247
O O6 0.101899 0.306686 0.486440
O O7 0.221600 0.478297 0.585167
O O8 0.085525 0.527907 0.431578
O O9 0.596691 0.384729 0.082595
O O10 0.728409 0.461557 0.233500
O O11 0.438643 0.176402 0.361011
O O12 0.588769 0.951441 0.155849
O O13 0.500000 0.062032 0.250000
#
# Coordination Sequence:
#
# PCOD8151403 Si02
#       6
#     8   8   8   8   8   8
#     4  12  24  46  70  93 135 179 217 271 334 397
#     4  11  21  45  65  96 126 179 220 270 315 392
#     4  12  26  40  69  97 136 173 211 274 344 392
#     4  11  24  42  66  98 136 166 220 278 331 385
#     4  11  23  40  68  98 127 168 229 269 317 387
#     4  11  20  40  72  96 124 173 235 269 314 390
#
# _framework density 20.028065000000002
#
# number of rings (size 3 to 8) (size 9 to 14) (size 15 to 20)
#    0.000    0.667    6.667    2.000    4.667    0.000 
#    0.000    0.000    0.000    0.000    0.000    0.000 
#    0.000    0.000    0.000    0.000    0.000    0.000 
#
# Total GULP energy -297522.579011 kJ/mol
# GULP energy per Si atom -12396.774125 kJ/mol
# Density = 1.998248 g / cm^3
# Si number density = 20.028065 Si / 1000 Ang^3
#
#
#
# Elastic Constant Matrix: (Units=GPa)
#
#
# Indices 1 2 3 4 5 6 
#
# 1 91.6687 41.7601 46.3960 0.0000 -1.0026 0.0000
# 2 41.7601 108.8725 67.1603 0.0000 -1.0256 0.0000
# 3 46.3960 67.1603 104.5258 0.0000 -6.1433 0.0000
# 4 0.0000 0.0000 0.0000 24.2198 0.0000 1.8079
# 5 -1.0026 -1.0256 -6.1433 0.0000 31.4488 0.0000
# 6 0.0000 0.0000 0.0000 1.8079 0.0000 33.2738
#
#
#
# Elastic Compliance Matrix: (Units=1/GPa)
#
#
# Indices 1 2 3 4 5 6 
#
# 1 0.014523 -0.002616 -0.004799 0.000000 -0.000560 0.000000
# 2 -0.002616 0.015751 -0.009038 0.000000 -0.001335 0.000000
# 3 -0.004799 -0.009038 0.017681 0.000000 0.003006 0.000000
# 4 0.000000 0.000000 0.000000 0.041457 0.000000 -0.002253
# 5 -0.000560 -0.001335 0.003006 0.000000 0.032324 0.000000
# 6 0.000000 0.000000 0.000000 -0.002253 0.000000 0.030176
#
#
# Mechanical properties :
#
#
# Convention : Reuss Voigt Hill
#
# Bulk Modulus (GPa) = 66.44339 68.41110 67.42724
# Shear Modulus (GPa) = 26.33909 27.77185 27.05547
#
# Velocity S-wave (km/s) = 3.63038 3.72781 3.67942
# Velocity P-wave (km/s) = 7.12882 7.26364 7.19655
#
# Compressibility (1/GPa) = 0.01505041
#
# Stress axis : x y z
#
# Youngs Moduli (GPa) = 68.85616 63.48825 56.55910
#
# Poissons Ratio (x) = 0.16607 0.27140
# Poissons Ratio (y) = 0.18011 0.51117
# Poissons Ratio (z) = 0.33041 0.57379
#
# Static dielectric constant tensor:
#      x y z
#    x 3.670360 0.000000 -0.262250 
#    y 0.000000 3.848340 0.000000 
#    z -0.262250 0.000000 3.569740 
# 
# 
# High freq. dielectric constant tensor:
#      x y z
#    x 1.786360 0.000000 -0.010030 
#    y 0.000000 1.784450 0.000000 
#    z -0.010030 0.000000 1.777130 
# 
# From -- ./inp_files/152164.got.cif
#   From: 2010.06.25/outbox.cif.g09.slc.cpg/sg15_77_cif.got.tgz:152164.got - 2010.06.28 07:06:18.
