data_PCOD8151524
_publ_section_title
;
Structure prediction by ZEFSAII (Michael W. Deem and Ramdas Pophale) SiO2 
 PCOD8151524
Probable space group: C 2/C
;
_chemical_formula_sum "Si O2"
_cell_formula_units_Z 48
_cell_length_a 11.681522
_cell_length_b 22.492761
_cell_length_c 10.514779
_cell_angle_alpha 90.000000
_cell_angle_beta 127.949666
_cell_angle_gamma 90.000000
_cell_volume 2178.573935
_symmetry_space_group_name_H-M "C 2/C"
_symmetry_group_IT_number 15
_symmetry_cell_setting 'monoclinic'
loop_
_space_group_symop_operation_xyz
x,y,z
-x,y,1/2-z
-x,-y,-z
x,-y,1/2+z
1/2+x,1/2+y,z
1/2-x,1/2+y,1/2-z
1/2-x,1/2-y,-z
1/2+x,1/2-y,1/2+z
loop_
_atom_site_type_symbol
_atom_site_label
_atom_site_fract_x
_atom_site_fract_y
_atom_site_fract_z
Si Si1 0.834631 0.007257 0.495371
Si Si2 0.168979 0.487834 0.620043
Si Si3 0.668359 0.160419 0.730268
Si Si4 0.386504 0.707324 0.287053
Si Si5 0.141589 0.637252 0.009309
Si Si6 0.043509 0.897662 0.036259
O O1 0.727357 0.000990 0.300881
O O2 0.950987 0.060170 0.565546
O O3 0.749039 0.025613 0.564514
O O4 0.911129 0.941573 0.550704
O O5 0.215417 0.422168 0.609007
O O6 0.000000 0.500000 0.500000
O O7 0.646051 0.228836 0.672818
O O8 0.662799 0.150603 0.876717
O O9 0.528708 0.129333 0.570842
O O10 0.818361 0.129115 0.789868
O O11 0.500000 0.715142 0.250000
O O12 0.451098 0.659094 0.428013
O O13 0.224347 0.690509 0.134395
#
# Coordination Sequence:
#
# PCOD8151524 Si02
#       6
#     8   8   8   8   8   8
#     4  11  25  42  65  99 135 189 222 277 346 414
#     4  12  24  42  68  98 138 177 226 281 344 410
#     4  11  21  33  57  93 136 176 216 285 348 392
#     4  12  19  34  58  94 135 177 220 287 351 399
#     4  11  21  35  56  92 137 166 222 279 339 402
#     4  11  23  38  62  91 143 174 224 279 342 416
#
# _framework density 22.032762000000002
#
# number of rings (size 3 to 8) (size 9 to 14) (size 15 to 20)
#    0.000    0.667    6.667    3.000    2.333    2.000 
#    0.000    0.000    0.000    0.000    0.000   21.000 
#    0.000    0.000    0.000    0.000    0.000    0.000 
#
# Total GULP energy -297347.930789 kJ/mol
# GULP energy per Si atom -12389.497116 kJ/mol
# Density = 2.198261 g / cm^3
# Si number density = 22.032762 Si / 1000 Ang^3
#
#
#
# Elastic Constant Matrix: (Units=GPa)
#
#
# Indices 1 2 3 4 5 6 
#
# 1 108.8605 28.1821 40.6498 0.0000 24.7811 0.0000
# 2 28.1821 136.5006 21.6872 0.0000 9.6317 0.0000
# 3 40.6498 21.6872 105.5802 0.0000 24.5112 0.0000
# 4 0.0000 0.0000 0.0000 38.0782 0.0000 18.3177
# 5 24.7811 9.6317 24.5112 0.0000 34.0191 0.0000
# 6 0.0000 0.0000 0.0000 18.3177 0.0000 20.9327
#
#
#
# Elastic Compliance Matrix: (Units=1/GPa)
#
#
# Indices 1 2 3 4 5 6 
#
# 1 0.012105 -0.001599 -0.002870 0.000000 -0.006297 0.000000
# 2 -0.001599 0.007827 -0.000898 0.000000 -0.000404 0.000000
# 3 -0.002870 -0.000898 0.012269 0.000000 -0.006495 0.000000
# 4 0.000000 0.000000 0.000000 0.045354 0.000000 -0.039688
# 5 -0.006297 -0.000404 -0.006495 0.000000 0.038776 0.000000
# 6 0.000000 0.000000 0.000000 -0.039688 0.000000 0.082502
#
#
# Mechanical properties :
#
#
# Convention : Reuss Voigt Hill
#
# Bulk Modulus (GPa) = 46.58455 59.10882 52.84669
# Shear Modulus (GPa) = 23.07073 35.96748 29.51910
#
# Velocity S-wave (km/s) = 3.23942 4.04475 3.66427
# Velocity P-wave (km/s) = 5.93136 6.97848 6.47612
#
# Compressibility (1/GPa) = 0.02146635
#
# Stress axis : x y z
#
# Youngs Moduli (GPa) = 82.60825 127.75735 81.50682
#
# Poissons Ratio (x) = 0.20427 0.23395
# Poissons Ratio (y) = 0.13208 0.07323
# Poissons Ratio (z) = 0.23711 0.11478
#
# Static dielectric constant tensor:
#      x y z
#    x 3.907300 0.000000 0.608830 
#    y 0.000000 4.358720 0.000000 
#    z 0.608830 0.000000 4.130900 
# 
# 
# High freq. dielectric constant tensor:
#      x y z
#    x 1.836250 0.000000 0.046330 
#    y 0.000000 1.884180 0.000000 
#    z 0.046330 0.000000 1.863320 
# 
# From -- ./inp_files/90984.got.cif
#   From: 2010.06.25/outbox.cif.g09.slc.cpg/sg15_46_cif.got.tgz:90984.got - 2010.06.28 07:06:18.
