data_PCOD8151358
_publ_section_title
;
Structure prediction by ZEFSAII (Michael W. Deem and Ramdas Pophale) SiO2 
 PCOD8151358
Probable space group: C 2/C
;
_chemical_formula_sum "Si O2"
_cell_formula_units_Z 64
_cell_length_a 28.045770
_cell_length_b 11.842696
_cell_length_c 14.653255
_cell_angle_alpha 90.000000
_cell_angle_beta 41.080703
_cell_angle_gamma 90.000000
_cell_volume 3198.141499
_symmetry_space_group_name_H-M "C 2/C"
_symmetry_group_IT_number 15
_symmetry_cell_setting 'monoclinic'
loop_
_space_group_symop_operation_xyz
x,y,z
-x,y,1/2-z
-x,-y,-z
x,-y,1/2+z
1/2+x,1/2+y,z
1/2-x,1/2+y,1/2-z
1/2-x,1/2-y,-z
1/2+x,1/2-y,1/2+z
loop_
_atom_site_type_symbol
_atom_site_label
_atom_site_fract_x
_atom_site_fract_y
_atom_site_fract_z
Si Si1 0.579255 0.234393 0.669321
Si Si2 0.077979 0.259769 0.683478
Si Si3 0.397467 0.004043 0.576128
Si Si4 0.055396 0.498200 0.288220
Si Si5 0.925861 0.859046 0.639481
Si Si6 0.162848 0.733260 0.884938
Si Si7 0.912765 0.879786 0.150106
Si Si8 0.328887 0.233496 0.137023
O O1 0.500000 0.271687 0.750000
O O2 0.600504 0.304094 0.728427
O O3 0.637897 0.266322 0.508487
O O4 0.583329 0.100415 0.681863
O O5 0.089702 0.384007 0.708176
O O6 0.140577 0.234985 0.519857
O O7 0.087496 0.166992 0.747459
O O8 0.000000 0.246721 0.750000
O O9 0.467875 0.005076 0.408756
O O10 0.341865 0.098382 0.621217
O O11 0.421236 0.034235 0.643871
O O12 0.359614 0.883932 0.628983
O O13 0.892659 0.793165 0.602751
O O14 0.012569 0.847913 0.508029
O O15 0.899735 0.987346 0.674216
O O16 0.243131 0.776177 0.749469
O O17 0.847630 0.828321 0.184673
#
# Coordination Sequence:
#
# PCOD8151358 Si02
#       8
#     8   8   8   8   8   8   8   8
#     4  12  22  41  70 100 127 169 223 270 328 386
#     4  12  22  41  70 100 127 169 223 270 328 386
#     4  11  21  42  71  99 134 166 211 281 334 381
#     4  11  20  39  76 105 123 157 227 286 322 380
#     4  11  24  44  67  95 130 172 222 267 311 391
#     4  12  27  44  65  98 137 173 213 271 337 390
#     4  11  24  44  67  95 130 172 222 267 311 391
#     4  12  27  44  65  98 137 173 213 271 337 390
#
# _framework density 20.011621999999999
#
# number of rings (size 3 to 8) (size 9 to 14) (size 15 to 20)
#    0.000    0.500    7.500    1.125    1.750    2.500 
#    0.000    0.000    0.000    0.000    0.000    0.000 
#    0.000    0.000    0.000    0.000    0.000    0.000 
#
# Total GULP energy -397063.934225 kJ/mol
# GULP energy per Si atom -12408.247945 kJ/mol
# Density = 1.996607 g / cm^3
# Si number density = 20.011622 Si / 1000 Ang^3
#
#
#
# Elastic Constant Matrix: (Units=GPa)
#
#
# Indices 1 2 3 4 5 6 
#
# 1 42.0051 23.0625 12.7443 0.0000 17.6950 0.0000
# 2 23.0625 99.4837 22.1412 0.0000 10.0048 0.0000
# 3 12.7443 22.1412 102.1486 0.0000 12.5825 0.0000
# 4 0.0000 0.0000 0.0000 12.9377 0.0000 1.4928
# 5 17.6950 10.0048 12.5825 0.0000 36.6647 0.0000
# 6 0.0000 0.0000 0.0000 1.4928 0.0000 18.7763
#
#
#
# Elastic Compliance Matrix: (Units=1/GPa)
#
#
# Indices 1 2 3 4 5 6 
#
# 1 0.033418 -0.006082 -0.001116 0.000000 -0.014085 0.000000
# 2 -0.006082 0.011839 -0.001849 0.000000 0.000339 0.000000
# 3 -0.001116 -0.001849 0.010651 0.000000 -0.002612 0.000000
# 4 0.000000 0.000000 0.000000 0.078009 0.000000 -0.006202
# 5 -0.014085 0.000339 -0.002612 0.000000 0.034876 0.000000
# 6 0.000000 0.000000 0.000000 -0.006202 0.000000 0.053752
#
#
# Mechanical properties :
#
#
# Convention : Reuss Voigt Hill
#
# Bulk Modulus (GPa) = 26.44503 39.94815 33.19659
# Shear Modulus (GPa) = 19.74371 26.05503 22.89937
#
# Velocity S-wave (km/s) = 3.14445 3.61223 3.38643
# Velocity P-wave (km/s) = 5.14071 6.11583 5.64935
#
# Compressibility (1/GPa) = 0.03781430
#
# Stress axis : x y z
#
# Youngs Moduli (GPa) = 29.92385 84.46434 93.88371
#
# Poissons Ratio (x) = 0.51373 0.10477
# Poissons Ratio (y) = 0.18200 0.17361
# Poissons Ratio (z) = 0.03339 0.15619
#
# Static dielectric constant tensor:
#      x y z
#    x 3.622190 0.000000 0.222650 
#    y 0.000000 3.654440 0.000000 
#    z 0.222650 0.000000 3.580580 
# 
# 
# High freq. dielectric constant tensor:
#      x y z
#    x 1.786020 0.000000 0.024000 
#    y 0.000000 1.788400 0.000000 
#    z 0.024000 0.000000 1.771380 
# 
# From -- ./inp_files/177826.got.cif
#   From: 2010.06.25/outbox.cif.g09.slc.cpg/sg15_89_cif.got.tgz:177826.got - 2010.06.28 07:06:18.
