data_PCOD8151794
_publ_section_title
;
Structure prediction by ZEFSAII (Michael W. Deem and Ramdas Pophale) SiO2 
 PCOD8151794
Probable space group: C 2/C
;
_chemical_formula_sum "Si O2"
_cell_formula_units_Z 48
_cell_length_a 28.238290
_cell_length_b 12.434284
_cell_length_c 21.322939
_cell_angle_alpha 90.000000
_cell_angle_beta 17.132345
_cell_angle_gamma 90.000000
_cell_volume 2205.511244
_symmetry_space_group_name_H-M "C 2/C"
_symmetry_group_IT_number 15
_symmetry_cell_setting 'monoclinic'
loop_
_space_group_symop_operation_xyz
x,y,z
-x,y,1/2-z
-x,-y,-z
x,-y,1/2+z
1/2+x,1/2+y,z
1/2-x,1/2+y,1/2-z
1/2-x,1/2-y,-z
1/2+x,1/2-y,1/2+z
loop_
_atom_site_type_symbol
_atom_site_label
_atom_site_fract_x
_atom_site_fract_y
_atom_site_fract_z
Si Si1 0.403637 0.005765 0.809262
Si Si2 0.437405 0.603748 0.757716
Si Si3 0.041018 0.685243 0.341895
Si Si4 0.227856 0.564093 0.212224
Si Si5 0.028730 0.319674 0.064121
Si Si6 0.694145 0.183856 0.757575
O O1 0.500000 0.028325 0.750000
O O2 0.499583 0.910557 0.653973
O O3 0.416427 0.115541 0.753877
O O4 0.215000 0.975784 0.054350
O O5 0.500000 0.616655 0.750000
O O6 0.386737 0.717669 0.790791
O O7 0.579180 0.557210 0.534564
O O8 0.170442 0.643419 0.229082
O O9 0.874520 0.717245 0.586952
O O10 0.163085 0.604413 0.361139
O O11 0.164593 0.442862 0.282545
O O12 0.123486 0.223774 0.979677
O O13 0.913854 0.260453 0.159316
#
# Coordination Sequence:
#
# PCOD8151794 Si02
#       6
#     8   8   8   8   8   8
#     4  12  26  42  65  98 142 174 214 283 341 388
#     4  12  24  40  67 105 138 175 217 271 344 405
#     4  11  21  40  68 100 134 171 212 280 336 393
#     4  11  22  44  69  98 136 177 226 274 329 399
#     4  11  23  46  67  98 133 182 227 275 329 396
#     4  11  22  42  74  95 132 177 233 269 325 399
#
# _framework density 21.763660999999999
#
# number of rings (size 3 to 8) (size 9 to 14) (size 15 to 20)
#    0.000    0.667    6.667    2.000    2.333    1.333 
#    0.000    5.833    0.000    0.000    0.000    0.000 
#    0.000    0.000    0.000    0.000    0.000    0.000 
#
# Total GULP energy -297545.515027 kJ/mol
# GULP energy per Si atom -12397.729793 kJ/mol
# Density = 2.171413 g / cm^3
# Si number density = 21.763661 Si / 1000 Ang^3
#
#
#
# Elastic Constant Matrix: (Units=GPa)
#
#
# Indices 1 2 3 4 5 6 
#
# 1 93.4460 12.9514 36.7964 0.0031 -5.6085 -0.0024
# 2 12.9514 47.8252 18.5122 0.0026 -8.8895 -0.0030
# 3 36.7964 18.5122 79.5383 0.0023 -9.5990 -0.0025
# 4 0.0031 0.0026 0.0023 41.2895 -0.0027 -0.6632
# 5 -5.6085 -8.8895 -9.5990 -0.0027 29.7855 0.0020
# 6 -0.0024 -0.0030 -0.0025 -0.6632 0.0020 22.4207
#
#
#
# Elastic Compliance Matrix: (Units=1/GPa)
#
#
# Indices 1 2 3 4 5 6 
#
# 1 0.013163 -0.001291 -0.005760 -0.000001 0.000237 0.000001
# 2 -0.001291 0.023954 -0.004312 -0.000001 0.005516 0.000002
# 3 -0.005760 -0.004312 0.016601 0.000000 0.002978 0.000000
# 4 -0.000001 -0.000001 0.000000 0.024231 0.000002 0.000717
# 5 0.000237 0.005516 0.002978 0.000002 0.036224 -0.000002
# 6 0.000001 0.000002 0.000000 0.000717 -0.000002 0.044623
#
#
# Mechanical properties :
#
#
# Convention : Reuss Voigt Hill
#
# Bulk Modulus (GPa) = 32.26847 39.70327 35.98587
# Shear Modulus (GPa) = 26.06186 28.86912 27.46549
#
# Velocity S-wave (km/s) = 3.46424 3.64604 3.55630
# Velocity P-wave (km/s) = 5.55520 6.00061 5.78219
#
# Compressibility (1/GPa) = 0.03099000
#
# Stress axis : x y z
#
# Youngs Moduli (GPa) = 75.97189 41.74750 60.23903
#
# Poissons Ratio (x) = 0.05389 0.34700
# Poissons Ratio (y) = 0.09806 0.25976
# Poissons Ratio (z) = 0.43763 0.18002
#
# Static dielectric constant tensor:
#      x y z
#    x 3.886680 0.000000 0.178720 
#    y 0.000000 3.738180 0.000000 
#    z 0.178720 0.000000 4.115180 
# 
# 
# High freq. dielectric constant tensor:
#      x y z
#    x 1.852520 0.000000 0.004150 
#    y 0.000000 1.838800 0.000000 
#    z 0.004150 0.000000 1.863450 
# 
# From -- ./inp_files/257587.got.cif
#   From: 2010.06.25/outbox.cif.g09.slc.cpg/sg15_129_cif.got.tgz:257587.got - 2010.06.28 07:06:18.
