data_PCOD8151579
_publ_section_title
;
Structure prediction by ZEFSAII (Michael W. Deem and Ramdas Pophale) SiO2 
 PCOD8151579
Probable space group: C 2/C
;
_chemical_formula_sum "Si O2"
_cell_formula_units_Z 48
_cell_length_a 23.699887
_cell_length_b 10.866347
_cell_length_c 8.937138
_cell_angle_alpha 90.000000
_cell_angle_beta 87.786047
_cell_angle_gamma 90.000000
_cell_volume 2299.873788
_symmetry_space_group_name_H-M "C 2/C"
_symmetry_group_IT_number 15
_symmetry_cell_setting 'monoclinic'
loop_
_space_group_symop_operation_xyz
x,y,z
-x,y,1/2-z
-x,-y,-z
x,-y,1/2+z
1/2+x,1/2+y,z
1/2-x,1/2+y,1/2-z
1/2-x,1/2-y,-z
1/2+x,1/2-y,1/2+z
loop_
_atom_site_type_symbol
_atom_site_label
_atom_site_fract_x
_atom_site_fract_y
_atom_site_fract_z
Si Si1 0.949140 0.848372 0.178396
Si Si2 0.649663 0.511903 0.246570
Si Si3 0.906134 0.647027 0.392631
Si Si4 0.306922 0.672849 0.990099
Si Si5 0.445176 0.682123 0.348434
Si Si6 0.937040 0.565595 0.708452
O O1 0.946294 0.740343 0.301226
O O2 0.000000 0.930116 0.250000
O O3 0.890289 0.918578 0.157915
O O4 0.966860 0.797990 0.014809
O O5 0.683591 0.602597 0.353205
O O6 0.692757 0.432117 0.139691
O O7 0.605689 0.584923 0.147450
O O8 0.852452 0.721995 0.455343
O O9 0.935406 0.580788 0.530295
O O10 0.893038 0.537991 0.273642
O O11 0.250000 0.750000 0.000000
O O12 0.500000 0.640673 0.250000
O O13 0.419266 0.807034 0.286642
O O14 0.000000 0.525981 0.750000
#
# Coordination Sequence:
#
# PCOD8151579 Si02
#       6
#     8   8   8   8   8   8
#     4  11  22  36  63  99 138 178 213 255 327 397
#     4  11  23  44  68  95 132 167 216 277 323 400
#     4  11  23  40  62  94 134 176 225 269 320 387
#     4  11  26  48  70  95 126 168 225 284 339 383
#     4  11  22  36  63 100 141 180 213 255 325 399
#     4  11  21  36  61  93 139 177 216 259 315 393
#
# _framework density 20.870712000000001
#
# number of rings (size 3 to 8) (size 9 to 14) (size 15 to 20)
#    0.000    1.000    3.333    4.500    2.333    2.667 
#    0.000    0.833    0.000    0.000    0.000    0.000 
#    0.000    0.000    0.000    0.000    0.000    0.000 
#
# Total GULP energy -297392.440843 kJ/mol
# GULP energy per Si atom -12391.351702 kJ/mol
# Density = 2.082321 g / cm^3
# Si number density = 20.870712 Si / 1000 Ang^3
#
#
#
# Elastic Constant Matrix: (Units=GPa)
#
#
# Indices 1 2 3 4 5 6 
#
# 1 102.8483 48.9736 63.9418 0.0000 -6.1503 0.0000
# 2 48.9736 124.9527 58.0536 0.0000 -5.5071 0.0000
# 3 63.9418 58.0536 166.4207 0.0000 3.5124 0.0000
# 4 0.0000 0.0000 0.0000 33.6649 0.0000 2.1701
# 5 -6.1503 -5.5071 3.5124 0.0000 23.3983 0.0000
# 6 0.0000 0.0000 0.0000 2.1701 0.0000 34.8601
#
#
#
# Elastic Compliance Matrix: (Units=1/GPa)
#
#
# Indices 1 2 3 4 5 6 
#
# 1 0.014280 -0.003405 -0.004375 0.000000 0.003609 0.000000
# 2 -0.003405 0.010544 -0.002411 0.000000 0.001948 0.000000
# 3 -0.004375 -0.002411 0.008594 0.000000 -0.003008 0.000000
# 4 0.000000 0.000000 0.000000 0.029824 0.000000 -0.001857
# 5 0.003609 0.001948 -0.003008 0.000000 0.044597 0.000000
# 6 0.000000 0.000000 0.000000 -0.001857 0.000000 0.028802
#
#
# Mechanical properties :
#
#
# Convention : Reuss Voigt Hill
#
# Bulk Modulus (GPa) = 76.71012 81.79553 79.25283
# Shear Modulus (GPa) = 30.98496 33.26816 32.12656
#
# Velocity S-wave (km/s) = 3.85725 3.99684 3.92766
# Velocity P-wave (km/s) = 7.52812 7.78307 7.65666
#
# Compressibility (1/GPa) = 0.01303609
#
# Stress axis : x y z
#
# Youngs Moduli (GPa) = 70.02601 94.84420 116.35654
#
# Poissons Ratio (x) = 0.32297 0.50907
# Poissons Ratio (y) = 0.23846 0.28051
# Poissons Ratio (z) = 0.30637 0.22864
#
# Static dielectric constant tensor:
#      x y z
#    x 3.337100 0.000000 -0.093910 
#    y 0.000000 4.015610 0.000000 
#    z -0.093910 0.000000 3.838300 
# 
# 
# High freq. dielectric constant tensor:
#      x y z
#    x 1.773550 0.000000 -0.005250 
#    y 0.000000 1.836260 0.000000 
#    z -0.005250 0.000000 1.834710 
# 
# From -- ./inp_files/60630.got.cif
#   From: 2010.06.25/outbox.cif.g09.slc.cpg/sg15_31_cif.got.tgz:60630.got - 2010.06.28 07:06:18.
