data_PCOD8151700
_publ_section_title
;
Structure prediction by ZEFSAII (Michael W. Deem and Ramdas Pophale) SiO2 
 PCOD8151700
Probable space group: C 2/C
;
_chemical_formula_sum "Si O2"
_cell_formula_units_Z 64
_cell_length_a 26.196245
_cell_length_b 14.060774
_cell_length_c 9.229718
_cell_angle_alpha 90.000000
_cell_angle_beta 99.359678
_cell_angle_gamma 90.000000
_cell_volume 3354.409252
_symmetry_space_group_name_H-M "C 2/C"
_symmetry_group_IT_number 15
_symmetry_cell_setting 'monoclinic'
loop_
_space_group_symop_operation_xyz
x,y,z
-x,y,1/2-z
-x,-y,-z
x,-y,1/2+z
1/2+x,1/2+y,z
1/2-x,1/2+y,1/2-z
1/2-x,1/2-y,-z
1/2+x,1/2-y,1/2+z
loop_
_atom_site_type_symbol
_atom_site_label
_atom_site_fract_x
_atom_site_fract_y
_atom_site_fract_z
Si Si1 0.125916 0.659974 0.353505
Si Si2 0.382777 0.841135 0.159904
Si Si3 0.944024 0.604816 0.932629
Si Si4 0.305071 0.995631 0.192715
Si Si5 0.700463 0.301902 0.534506
Si Si6 0.796581 0.201580 0.116320
Si Si7 0.232252 0.004100 0.916881
Si Si8 0.554774 0.110049 0.084632
O O1 0.100131 0.596713 0.466186
O O2 0.168857 0.599932 0.282150
O O3 0.149547 0.754022 0.439564
O O4 0.079520 0.679972 0.217447
O O5 0.427733 0.820599 0.298497
O O6 0.345487 0.911571 0.235466
O O7 0.350744 0.748927 0.094509
O O8 0.407671 0.890841 0.034783
O O9 0.950664 0.499681 0.865089
O O10 0.997406 0.646840 0.021190
O O11 0.252441 0.981292 0.261941
O O12 0.287045 0.987334 0.019020
O O13 0.750000 0.250000 0.500000
O O14 0.706337 0.290330 0.710140
O O15 0.700333 0.409805 0.474395
O O16 0.802114 0.090496 0.082333
O O17 0.750000 0.250000 0.000000
#
# Coordination Sequence:
#
# PCOD8151700 Si02
#       8
#     8   8   8   8   8   8   8   8
#     4  12  22  38  60  86 122 165 200 240 304 361
#     4  12  22  36  58  87 121 162 196 244 301 359
#     4  11  21  39  58  86 128 156 200 251 296 366
#     4  12  21  34  58  85 121 164 202 241 291 354
#     4  12  25  40  59  88 121 163 204 248 298 357
#     4  12  26  39  61  88 120 162 205 246 298 360
#     4  12  24  39  56  84 125 162 209 245 287 348
#     4  11  23  35  59  92 119 161 200 245 304 362
#
# _framework density 19.079364999999999
#
# number of rings (size 3 to 8) (size 9 to 14) (size 15 to 20)
#    0.000    0.250    7.500    3.000    1.750    2.000 
#    0.000    0.000    0.000    0.000    0.000    5.250 
#    0.000    0.000    0.000    0.000    0.000    0.000 
#
# Total GULP energy -396515.484161 kJ/mol
# GULP energy per Si atom -12391.108880 kJ/mol
# Density = 1.903594 g / cm^3
# Si number density = 19.079365 Si / 1000 Ang^3
#
#
#
# Elastic Constant Matrix: (Units=GPa)
#
#
# Indices 1 2 3 4 5 6 
#
# 1 83.8326 45.2343 43.1893 0.0000 19.6798 0.0000
# 2 45.2343 102.3697 43.2627 0.0000 11.4721 0.0000
# 3 43.1893 43.2627 106.1647 0.0000 26.7228 0.0000
# 4 0.0000 0.0000 0.0000 24.6379 0.0000 3.7417
# 5 19.6798 11.4721 26.7228 0.0000 41.8032 0.0000
# 6 0.0000 0.0000 0.0000 3.7417 0.0000 20.7586
#
#
#
# Elastic Compliance Matrix: (Units=1/GPa)
#
#
# Indices 1 2 3 4 5 6 
#
# 1 0.018138 -0.005884 -0.003859 0.000000 -0.004457 0.000000
# 2 -0.005884 0.013711 -0.003508 0.000000 0.001250 0.000000
# 3 -0.003859 -0.003508 0.013967 0.000000 -0.006149 0.000000
# 4 0.000000 0.000000 0.000000 0.041730 0.000000 -0.007522
# 5 -0.004457 0.001250 -0.006149 0.000000 0.029607 0.000000
# 6 0.000000 0.000000 0.000000 -0.007522 0.000000 0.049529
#
#
# Mechanical properties :
#
#
# Convention : Reuss Voigt Hill
#
# Bulk Modulus (GPa) = 51.77949 61.74882 56.76415
# Shear Modulus (GPa) = 25.04729 28.15200 26.59964
#
# Velocity S-wave (km/s) = 3.62718 3.84542 3.73789
# Velocity P-wave (km/s) = 6.68879 7.22155 6.96027
#
# Compressibility (1/GPa) = 0.01931267
#
# Stress axis : x y z
#
# Youngs Moduli (GPa) = 55.13284 72.93335 71.59985
#
# Poissons Ratio (x) = 0.42916 0.27630
# Poissons Ratio (y) = 0.32442 0.25119
# Poissons Ratio (z) = 0.21276 0.25586
#
# Static dielectric constant tensor:
#      x y z
#    x 3.578570 0.000000 0.172630 
#    y 0.000000 4.072850 0.000000 
#    z 0.172630 0.000000 3.895450 
# 
# 
# High freq. dielectric constant tensor:
#      x y z
#    x 1.725980 0.000000 0.006660 
#    y 0.000000 1.697990 0.000000 
#    z 0.006660 0.000000 1.771870 
# 
# From -- ./inp_files/66254.got.cif
#   From: 2010.06.25/outbox.cif.g09.slc.cpg/sg15_34_cif.got.tgz:66254.got - 2010.06.28 07:06:18.
