data_PCOD8151226
_publ_section_title
;
Structure prediction by ZEFSAII (Michael W. Deem and Ramdas Pophale) SiO2 
 PCOD8151226
Probable space group: C 2/C
;
_chemical_formula_sum "Si O2"
_cell_formula_units_Z 52
_cell_length_a 25.793811
_cell_length_b 13.422333
_cell_length_c 8.282367
_cell_angle_alpha 90.000000
_cell_angle_beta 56.838135
_cell_angle_gamma 90.000000
_cell_volume 2400.436159
_symmetry_space_group_name_H-M "C 2/C"
_symmetry_group_IT_number 15
_symmetry_cell_setting 'monoclinic'
loop_
_space_group_symop_operation_xyz
x,y,z
-x,y,1/2-z
-x,-y,-z
x,-y,1/2+z
1/2+x,1/2+y,z
1/2-x,1/2+y,1/2-z
1/2-x,1/2-y,-z
1/2+x,1/2-y,1/2+z
loop_
_atom_site_type_symbol
_atom_site_label
_atom_site_fract_x
_atom_site_fract_y
_atom_site_fract_z
Si Si1 0.299782 0.736196 0.639323
Si Si2 0.902495 0.212546 0.197658
Si Si3 0.598223 0.475624 0.011871
Si Si4 0.695226 0.071652 0.184056
Si Si5 0.000000 0.142084 0.250000
Si Si6 0.831670 0.635142 0.623811
Si Si7 0.173410 0.083705 0.665308
O O1 0.343707 0.701706 0.418048
O O2 0.305753 0.854591 0.658804
O O3 0.229956 0.698123 0.723352
O O4 0.319937 0.696199 0.782493
O O5 0.920186 0.110568 0.078485
O O6 0.890042 0.299785 0.088804
O O7 0.965793 0.222548 0.191917
O O8 0.664916 0.517624 0.840551
O O9 0.549937 0.566772 0.086510
O O10 0.610794 0.428890 0.166387
O O11 0.663382 0.969218 0.291076
O O12 0.662998 0.116343 0.077344
O O13 0.766346 0.046772 0.028662
#
# Coordination Sequence:
#
# PCOD8151226 Si02
#       7
#     8   8   8   8   4   8   8
#     4  11  22  39  62  96 133 170 212 265 324 398
#     4  12  24  41  61  90 127 172 219 266 328 379
#     4  12  22  39  61  92 133 171 212 263 327 385
#     4  11  22  39  64 100 133 173 211 258 330 394
#     4  12  26  42  62  92 130 176 224 272 324 380
#     4  11  23  39  63  95 130 173 211 267 325 389
#     4  11  20  36  61  96 133 169 205 262 324 398
#
# _framework density 21.66273
#
# number of rings (size 3 to 8) (size 9 to 14) (size 15 to 20)
#    0.000    0.615    3.077    8.308    0.000    0.000 
#    0.000    0.000    0.000    3.692    0.000    1.077 
#    0.000    0.000    0.000    0.000    0.000    0.000 
#
# Total GULP energy -322123.908301 kJ/mol
# GULP energy per Si atom -12389.381088 kJ/mol
# Density = 2.161342 g / cm^3
# Si number density = 21.662730 Si / 1000 Ang^3
#
#
#
# Elastic Constant Matrix: (Units=GPa)
#
#
# Indices 1 2 3 4 5 6 
#
# 1 138.8439 60.5852 30.8199 0.0000 17.9058 0.0000
# 2 60.5852 108.0466 12.7951 0.0000 8.1649 0.0000
# 3 30.8199 12.7951 43.2984 0.0000 17.2682 0.0000
# 4 0.0000 0.0000 0.0000 28.0367 0.0000 11.4041
# 5 17.9058 8.1649 17.2682 0.0000 19.3993 0.0000
# 6 0.0000 0.0000 0.0000 11.4041 0.0000 39.9350
#
#
#
# Elastic Compliance Matrix: (Units=1/GPa)
#
#
# Indices 1 2 3 4 5 6 
#
# 1 0.011094 -0.005370 -0.004849 0.000000 -0.003664 0.000000
# 2 -0.005370 0.012259 0.000435 0.000000 -0.000591 0.000000
# 3 -0.004849 0.000435 0.038305 0.000000 -0.029805 0.000000
# 4 0.000000 0.000000 0.000000 0.040355 0.000000 -0.011524
# 5 -0.003664 -0.000591 -0.029805 0.000000 0.081709 0.000000
# 6 0.000000 0.000000 0.000000 -0.011524 0.000000 0.028332
#
#
# Mechanical properties :
#
#
# Convention : Reuss Voigt Hill
#
# Bulk Modulus (GPa) = 23.75780 55.39880 39.57830
# Shear Modulus (GPa) = 20.35393 29.87343 25.11368
#
# Velocity S-wave (km/s) = 3.06859 3.71755 3.40855
# Velocity P-wave (km/s) = 4.85241 6.63745 5.81385
#
# Compressibility (1/GPa) = 0.04209144
#
# Stress axis : x y z
#
# Youngs Moduli (GPa) = 90.13610 81.56984 26.10619
#
# Poissons Ratio (x) = 0.43802 0.12659
# Poissons Ratio (y) = 0.48402 -0.01136
# Poissons Ratio (z) = 0.43706 -0.03548
#
# Static dielectric constant tensor:
#      x y z
#    x 3.932890 0.000000 0.307030 
#    y 0.000000 3.950210 0.000000 
#    z 0.307030 0.000000 3.963820 
# 
# 
# High freq. dielectric constant tensor:
#      x y z
#    x 1.838820 0.000000 0.036160 
#    y 0.000000 1.847570 0.000000 
#    z 0.036160 0.000000 1.842880 
# 
# From -- ./inp_files/65372.got.cif
#   From: 2010.06.25/outbox.cif.g09.slc.cpg/sg15_33_cif.got.tgz:65372.got - 2010.06.28 07:06:18.
