data_PCOD8151131
_publ_section_title
;
Structure prediction by ZEFSAII (Michael W. Deem and Ramdas Pophale) SiO2 
 PCOD8151131
Probable space group: C 2/C
;
_chemical_formula_sum "Si O2"
_cell_formula_units_Z 64
_cell_length_a 18.488110
_cell_length_b 14.344889
_cell_length_c 11.476631
_cell_angle_alpha 90.000000
_cell_angle_beta 95.598447
_cell_angle_gamma 90.000000
_cell_volume 3029.197607
_symmetry_space_group_name_H-M "C 2/C"
_symmetry_group_IT_number 15
_symmetry_cell_setting 'monoclinic'
loop_
_space_group_symop_operation_xyz
x,y,z
-x,y,1/2-z
-x,-y,-z
x,-y,1/2+z
1/2+x,1/2+y,z
1/2-x,1/2+y,1/2-z
1/2-x,1/2-y,-z
1/2+x,1/2-y,1/2+z
loop_
_atom_site_type_symbol
_atom_site_label
_atom_site_fract_x
_atom_site_fract_y
_atom_site_fract_z
Si Si1 0.219244 0.838659 0.633216
Si Si2 0.926437 0.414297 0.171143
Si Si3 0.798365 0.866778 0.610602
Si Si4 0.822211 0.068068 0.598253
Si Si5 0.323149 0.131109 0.855291
Si Si6 0.359240 0.202210 0.470785
Si Si7 0.919455 0.791785 0.243831
Si Si8 0.881877 0.615947 0.102428
O O1 0.184753 0.867486 0.749632
O O2 0.169257 0.876014 0.521033
O O3 0.220743 0.726910 0.627841
O O4 0.299035 0.881719 0.633117
O O5 0.857787 0.376472 0.234028
O O6 0.922747 0.525689 0.158919
O O7 0.000000 0.386216 0.250000
O O8 0.918517 0.365472 0.043084
O O9 0.711685 0.858740 0.573283
O O10 0.839490 0.782097 0.558055
O O11 0.838695 0.960184 0.571425
O O12 0.740884 0.056646 0.638608
O O13 0.870402 0.119573 0.702680
O O14 0.385240 0.114223 0.962180
O O15 0.394183 0.249055 0.362763
O O16 0.921443 0.708526 0.150816
O O17 0.000000 0.833202 0.250000
#
# Coordination Sequence:
#
# PCOD8151131 Si02
#       8
#     8   8   8   8   8   8   8   8
#     4  11  19  41  68  98 127 169 220 278 328 380
#     4  12  28  42  63  96 138 182 218 267 336 409
#     4  11  23  41  72 100 131 166 223 288 328 385
#     4  11  23  40  69 101 127 175 225 271 329 391
#     4  11  21  41  66  93 130 171 222 277 321 392
#     4  11  25  45  65 102 133 174 219 279 338 386
#     4  12  26  44  66  96 138 175 215 273 333 398
#     4  11  22  41  63  95 130 173 219 267 330 393
#
# _framework density 21.127707999999998
#
# number of rings (size 3 to 8) (size 9 to 14) (size 15 to 20)
#    0.000    0.750    5.000    3.375    7.000    0.500 
#    0.000    1.250    0.000    0.000    0.000    0.000 
#    0.000    0.000    0.000    0.000    0.000    0.000 
#
# Total GULP energy -396795.282858 kJ/mol
# GULP energy per Si atom -12399.852589 kJ/mol
# Density = 2.107962 g / cm^3
# Si number density = 21.127708 Si / 1000 Ang^3
#
#
#
# Elastic Constant Matrix: (Units=GPa)
#
#
# Indices 1 2 3 4 5 6 
#
# 1 61.3438 24.8734 26.4474 0.0000 17.6085 0.0000
# 2 24.8734 113.0955 31.0194 0.0000 8.8676 0.0000
# 3 26.4474 31.0194 102.5650 0.0000 11.2799 0.0000
# 4 0.0000 0.0000 0.0000 30.3285 0.0000 5.7948
# 5 17.6085 8.8676 11.2799 0.0000 23.1927 0.0000
# 6 0.0000 0.0000 0.0000 5.7948 0.0000 22.3966
#
#
#
# Elastic Compliance Matrix: (Units=1/GPa)
#
#
# Indices 1 2 3 4 5 6 
#
# 1 0.023270 -0.003006 -0.003460 0.000000 -0.014836 0.000000
# 2 -0.003006 0.010158 -0.002241 0.000000 -0.000512 0.000000
# 3 -0.003460 -0.002241 0.011555 0.000000 -0.002136 0.000000
# 4 0.000000 0.000000 0.000000 0.034687 0.000000 -0.008975
# 5 -0.014836 -0.000512 -0.002136 0.000000 0.055615 0.000000
# 6 0.000000 0.000000 0.000000 -0.008975 0.000000 0.046972
#
#
# Mechanical properties :
#
#
# Convention : Reuss Voigt Hill
#
# Bulk Modulus (GPa) = 36.27093 49.07607 42.67350
# Shear Modulus (GPa) = 23.93949 28.16116 26.05033
#
# Velocity S-wave (km/s) = 3.36978 3.65485 3.51521
# Velocity P-wave (km/s) = 5.68730 6.41010 6.05948
#
# Compressibility (1/GPa) = 0.02757029
#
# Stress axis : x y z
#
# Youngs Moduli (GPa) = 42.97293 98.44587 86.54486
#
# Poissons Ratio (x) = 0.29590 0.29944
# Poissons Ratio (y) = 0.12917 0.19392
# Poissons Ratio (z) = 0.14868 0.22059
#
# Static dielectric constant tensor:
#      x y z
#    x 3.484490 0.000000 0.152570 
#    y 0.000000 3.853330 0.000000 
#    z 0.152570 0.000000 4.087520 
# 
# 
# High freq. dielectric constant tensor:
#      x y z
#    x 1.793160 0.000000 0.006560 
#    y 0.000000 1.835000 0.000000 
#    z 0.006560 0.000000 1.844850 
# 
# From -- ./inp_files/105737.got.cif
#   From: 2010.06.25/outbox.cif.g09.slc.cpg/sg15_53_cif.got.tgz:105737.got - 2010.06.28 07:06:18.
