data_PCOD8151852
_publ_section_title
;
Structure prediction by ZEFSAII (Michael W. Deem and Ramdas Pophale) SiO2 
 PCOD8151852
Probable space group: C 2/C
;
_chemical_formula_sum "Si O2"
_cell_formula_units_Z 60
_cell_length_a 21.848330
_cell_length_b 8.280267
_cell_length_c 17.013899
_cell_angle_alpha 90.000000
_cell_angle_beta 105.493439
_cell_angle_gamma 90.000000
_cell_volume 2966.133837
_symmetry_space_group_name_H-M "C 2/C"
_symmetry_group_IT_number 15
_symmetry_cell_setting 'monoclinic'
loop_
_space_group_symop_operation_xyz
x,y,z
-x,y,1/2-z
-x,-y,-z
x,-y,1/2+z
1/2+x,1/2+y,z
1/2-x,1/2+y,1/2-z
1/2-x,1/2-y,-z
1/2+x,1/2-y,1/2+z
loop_
_atom_site_type_symbol
_atom_site_label
_atom_site_fract_x
_atom_site_fract_y
_atom_site_fract_z
Si Si1 0.500000 0.830761 0.750000
Si Si2 0.016830 0.670930 0.544082
Si Si3 0.424939 0.689686 0.583663
Si Si4 0.307052 0.850506 0.154931
Si Si5 0.391379 0.324651 0.563967
Si Si6 0.684211 0.162145 0.093824
Si Si7 0.605939 0.010464 0.689434
Si Si8 0.699539 0.891211 0.974940
O O1 0.471108 0.716870 0.673074
O O2 0.554814 0.942635 0.733003
O O3 0.035172 0.797623 0.482964
O O4 0.074444 0.648420 0.624638
O O5 0.000000 0.500000 0.500000
O O6 0.958669 0.742144 0.572530
O O7 0.395014 0.514137 0.579393
O O8 0.370678 0.824506 0.564620
O O9 0.363602 0.753687 0.132779
O O10 0.248449 0.732322 0.153092
O O11 0.333647 0.913080 0.246499
O O12 0.282200 0.997601 0.092621
O O13 0.343846 0.293511 0.475689
O O14 0.632713 0.134164 0.144460
O O15 0.699461 0.994368 0.054897
O O16 0.750000 0.750000 0.000000
#
# Coordination Sequence:
#
# PCOD8151852 Si02
#       8
#     4   8   8   8   8   8   8   8
#     4  12  24  42  66  98 134 174 216 280 330 398
#     4  12  21  42  69  95 128 173 216 265 329 395
#     4  12  23  40  67  99 130 170 223 270 334 388
#     4  11  24  43  63  96 132 175 215 274 335 386
#     4  11  23  43  67  99 131 169 219 275 325 397
#     4  11  23  44  65  94 133 173 224 270 326 394
#     4  12  24  42  68  96 134 176 221 270 338 392
#     4  11  21  41  69  94 127 176 225 266 328 399
#
# _framework density 20.228351
#
# number of rings (size 3 to 8) (size 9 to 14) (size 15 to 20)
#    0.000    0.533    5.333    5.200    0.000    2.133 
#    4.800    0.000    0.000    0.000    0.000    0.000 
#    0.000    0.000    0.000    0.000    0.000    0.000 
#
# Total GULP energy -372210.293735 kJ/mol
# GULP energy per Si atom -12407.009791 kJ/mol
# Density = 2.018231 g / cm^3
# Si number density = 20.228351 Si / 1000 Ang^3
#
#
#
# Elastic Constant Matrix: (Units=GPa)
#
#
# Indices 1 2 3 4 5 6 
#
# 1 100.3370 26.0596 32.3796 0.0000 8.9159 0.0000
# 2 26.0596 105.2384 37.5480 0.0000 11.3207 0.0000
# 3 32.3796 37.5480 107.9638 0.0000 9.7462 0.0000
# 4 0.0000 0.0000 0.0000 19.1300 0.0000 13.3794
# 5 8.9159 11.3207 9.7462 0.0000 32.0193 0.0000
# 6 0.0000 0.0000 0.0000 13.3794 0.0000 47.3549
#
#
#
# Elastic Compliance Matrix: (Units=1/GPa)
#
#
# Indices 1 2 3 4 5 6 
#
# 1 0.011426 -0.001682 -0.002682 0.000000 -0.001771 0.000000
# 2 -0.001682 0.011339 -0.003208 0.000000 -0.002564 0.000000
# 3 -0.002682 -0.003208 0.011324 0.000000 -0.001566 0.000000
# 4 0.000000 0.000000 0.000000 0.065147 0.000000 -0.018406
# 5 -0.001771 -0.002564 -0.001566 0.000000 0.033107 0.000000
# 6 0.000000 0.000000 0.000000 -0.018406 0.000000 0.026318
#
#
# Mechanical properties :
#
#
# Convention : Reuss Voigt Hill
#
# Bulk Modulus (GPa) = 52.78281 56.16818 54.47549
# Shear Modulus (GPa) = 27.75934 34.20430 30.98182
#
# Velocity S-wave (km/s) = 3.70847 4.11653 3.91782
# Velocity P-wave (km/s) = 6.66987 7.10083 6.88872
#
# Compressibility (1/GPa) = 0.01894556
#
# Stress axis : x y z
#
# Youngs Moduli (GPa) = 87.51889 88.19101 88.31089
#
# Poissons Ratio (x) = 0.14834 0.23685
# Poissons Ratio (y) = 0.14721 0.28326
# Poissons Ratio (z) = 0.23473 0.28288
#
# Static dielectric constant tensor:
#      x y z
#    x 3.846070 0.000000 0.002690 
#    y 0.000000 3.754210 0.000000 
#    z 0.002690 0.000000 3.958450 
# 
# 
# High freq. dielectric constant tensor:
#      x y z
#    x 1.804980 0.000000 0.005440 
#    y 0.000000 1.784860 0.000000 
#    z 0.005440 0.000000 1.791810 
# 
# From -- ./inp_files/213967.got.cif
#   From: 2010.06.25/outbox.cif.g09.slc.cpg/sg15_107_cif.got.tgz:213967.got - 2010.06.28 07:06:18.
