data_PCOD8151631
_publ_section_title
;
Structure prediction by ZEFSAII (Michael W. Deem and Ramdas Pophale) SiO2 
 PCOD8151631
Probable space group: C 2/C
;
_chemical_formula_sum "Si O2"
_cell_formula_units_Z 44
_cell_length_a 33.361907
_cell_length_b 7.472296
_cell_length_c 23.368389
_cell_angle_alpha 90.000000
_cell_angle_beta 160.788912
_cell_angle_gamma 90.000000
_cell_volume 1916.879483
_symmetry_space_group_name_H-M "C 2/C"
_symmetry_group_IT_number 15
_symmetry_cell_setting 'monoclinic'
loop_
_space_group_symop_operation_xyz
x,y,z
-x,y,1/2-z
-x,-y,-z
x,-y,1/2+z
1/2+x,1/2+y,z
1/2-x,1/2+y,1/2-z
1/2-x,1/2-y,-z
1/2+x,1/2-y,1/2+z
loop_
_atom_site_type_symbol
_atom_site_label
_atom_site_fract_x
_atom_site_fract_y
_atom_site_fract_z
Si Si1 0.000000 0.104482 0.750000
Si Si2 0.648870 0.120462 0.147162
Si Si3 0.231876 0.448382 0.881595
Si Si4 0.897329 0.156685 0.729536
Si Si5 0.615364 0.291192 0.603642
Si Si6 0.406033 0.694038 0.296562
O O1 0.963886 0.212581 0.759458
O O2 0.875139 0.996638 0.568138
O O3 0.766589 0.135241 0.267668
O O4 0.682781 0.150705 0.259065
O O5 0.597013 0.921108 0.074263
O O6 0.551533 0.264471 0.992654
O O7 0.211369 0.299123 0.903994
O O8 0.161753 0.621291 0.807886
O O9 0.858348 0.945916 0.682833
O O10 0.994404 0.137470 0.911653
O O11 0.629002 0.364642 0.686350
#
# Coordination Sequence:
#
# PCOD8151631 Si02
#       6
#     4   8   8   8   8   8
#     4  12  28  46  68  94 130 186 232 262 306 402
#     4  11  21  38  67 104 134 160 217 275 338 396
#     4  11  24  47  65  96 137 173 219 271 323 391
#     4  12  24  45  69  94 136 176 219 265 331 391
#     4  11  21  37  67 103 131 165 210 273 338 398
#     4  11  24  41  70 102 129 167 214 283 343 384
#
# _framework density 22.953972
#
# number of rings (size 3 to 8) (size 9 to 14) (size 15 to 20)
#    0.000    0.727    5.455    3.273    5.091    0.727 
#    0.000    1.818    0.000    0.000    0.000    0.000 
#    0.000    0.000    0.000    0.000    0.000    0.000 
#
# Total GULP energy -272562.314362 kJ/mol
# GULP energy per Si atom -12389.196107 kJ/mol
# Density = 2.290173 g / cm^3
# Si number density = 22.953972 Si / 1000 Ang^3
#
#
#
# Elastic Constant Matrix: (Units=GPa)
#
#
# Indices 1 2 3 4 5 6 
#
# 1 104.7632 44.1352 8.8042 0.0000 20.4891 0.0000
# 2 44.1352 70.5569 24.1907 0.0000 9.3299 0.0000
# 3 8.8042 24.1907 88.7069 0.0000 29.5830 0.0000
# 4 0.0000 0.0000 0.0000 16.5014 0.0000 4.9136
# 5 20.4891 9.3299 29.5830 0.0000 38.9880 0.0000
# 6 0.0000 0.0000 0.0000 4.9136 0.0000 -14.3426
#
#
#
# Elastic Compliance Matrix: (Units=1/GPa)
#
#
# Indices 1 2 3 4 5 6 
#
# 1 0.014917 -0.009564 0.003988 0.000000 -0.008576 0.000000
# 2 -0.009564 0.021780 -0.006598 0.000000 0.004820 0.000000
# 3 0.003988 -0.006598 0.017202 0.000000 -0.013569 0.000000
# 4 0.000000 0.000000 0.000000 0.054991 0.000000 0.018839
# 5 -0.008576 0.004820 -0.013569 0.000000 0.039298 0.000000
# 6 0.000000 0.000000 0.000000 0.018839 0.000000 -0.063268
#
#
# Mechanical properties :
#
#
# Convention : Reuss Voigt Hill
#
# Bulk Modulus (GPa) = 33.84053 46.47635 40.15844
# Shear Modulus (GPa) = 41.97537 20.68916 31.33226
#
# Velocity S-wave (km/s) = 4.28094 3.00548 3.69860
# Velocity P-wave (km/s) = 6.26179 5.68643 5.98103
#
# Compressibility (1/GPa) = 0.02955037
#
# Stress axis : x y z
#
# Youngs Moduli (GPa) = 67.03940 45.91349 58.13392
#
# Poissons Ratio (x) = 0.43911 -0.23182
# Poissons Ratio (y) = 0.64116 0.38356
# Poissons Ratio (z) = -0.26733 0.30293
#
# Static dielectric constant tensor:
#      x y z
#    x 4.679960 0.000000 0.070270 
#    y 0.000000 4.082150 0.000000 
#    z 0.070270 0.000000 4.311290 
# 
# 
# High freq. dielectric constant tensor:
#      x y z
#    x 1.918000 0.000000 0.003070 
#    y 0.000000 1.891500 0.000000 
#    z 0.003070 0.000000 1.921460 
# 
# From -- ./inp_files/284500.got.cif
#   From: 2010.06.25/outbox.cif.g09.slc.cpg/sg15_143_cif.got.tgz:284500.got - 2010.06.28 07:06:18.
