data_PCOD8151947
_publ_section_title
;
Structure prediction by ZEFSAII (Michael W. Deem and Ramdas Pophale) SiO2 
 PCOD8151947
Probable space group: C 2/C
;
_chemical_formula_sum "Si O2"
_cell_formula_units_Z 52
_cell_length_a 14.987315
_cell_length_b 9.122834
_cell_length_c 17.531629
_cell_angle_alpha 90.000000
_cell_angle_beta 89.321691
_cell_angle_gamma 90.000000
_cell_volume 2396.875324
_symmetry_space_group_name_H-M "C 2/C"
_symmetry_group_IT_number 15
_symmetry_cell_setting 'monoclinic'
loop_
_space_group_symop_operation_xyz
x,y,z
-x,y,1/2-z
-x,-y,-z
x,-y,1/2+z
1/2+x,1/2+y,z
1/2-x,1/2+y,1/2-z
1/2-x,1/2-y,-z
1/2+x,1/2-y,1/2+z
loop_
_atom_site_type_symbol
_atom_site_label
_atom_site_fract_x
_atom_site_fract_y
_atom_site_fract_z
Si Si1 0.696217 0.589468 0.779405
Si Si2 0.646383 0.460861 0.535317
Si Si3 0.098972 0.656722 0.477120
Si Si4 0.000000 0.855668 0.250000
Si Si5 0.289569 0.039728 0.423753
Si Si6 0.563914 0.259108 0.091946
Si Si7 0.225007 0.602325 0.342766
O O1 0.591143 0.550427 0.764063
O O2 0.729126 0.510307 0.854678
O O3 0.759741 0.541321 0.708929
O O4 0.708533 0.763065 0.786172
O O5 0.618546 0.332330 0.477469
O O6 0.723238 0.559966 0.495530
O O7 0.568337 0.572875 0.561133
O O8 0.685208 0.376246 0.608631
O O9 0.133622 0.579310 0.553705
O O10 0.142726 0.583834 0.401701
O O11 0.991777 0.654779 0.466280
O O12 0.016931 0.755418 0.175191
O O13 0.336972 0.192699 0.402676
#
# Coordination Sequence:
#
# PCOD8151947 Si02
#       7
#     8   8   8   4   8   8   8
#     4  12  23  43  68  92 133 171 221 267 333 389
#     4  11  21  43  68  95 131 175 221 262 327 390
#     4  11  22  44  69  96 133 175 218 270 325 384
#     4  12  24  42  64 100 126 176 220 274 322 394
#     4  11  23  41  67  98 133 173 217 273 328 384
#     4  12  24  40  68 100 134 173 224 268 322 388
#     4  11  22  41  69  93 128 177 212 266 329 393
#
# _framework density 21.694913
#
# number of rings (size 3 to 8) (size 9 to 14) (size 15 to 20)
#    0.000    0.615    6.154    3.231    0.000    0.000 
#    0.000    0.000    6.769    0.923    0.000    0.000 
#    0.000    0.000    0.000    0.000    0.000    0.000 
#
# Total GULP energy -322239.371243 kJ/mol
# GULP energy per Si atom -12393.821971 kJ/mol
# Density = 2.164553 g / cm^3
# Si number density = 21.694913 Si / 1000 Ang^3
#
#
#
# Elastic Constant Matrix: (Units=GPa)
#
#
# Indices 1 2 3 4 5 6 
#
# 1 104.7968 21.4251 35.8454 0.0000 19.6887 0.0000
# 2 21.4251 33.2499 13.1483 0.0000 -3.9310 0.0000
# 3 35.8454 13.1483 90.9605 0.0000 8.0686 0.0000
# 4 0.0000 0.0000 0.0000 36.2666 0.0000 -1.3716
# 5 19.6887 -3.9310 8.0686 0.0000 39.3625 0.0000
# 6 0.0000 0.0000 0.0000 -1.3716 0.0000 37.5634
#
#
#
# Elastic Compliance Matrix: (Units=1/GPa)
#
#
# Indices 1 2 3 4 5 6 
#
# 1 0.013782 -0.008276 -0.003616 0.000000 -0.006979 0.000000
# 2 -0.008276 0.037567 -0.002922 0.000000 0.008490 0.000000
# 3 -0.003616 -0.002922 0.012942 0.000000 -0.001136 0.000000
# 4 0.000000 0.000000 0.000000 0.027612 0.000000 0.001008
# 5 -0.006979 0.008490 -0.001136 0.000000 0.029976 0.000000
# 6 0.000000 0.000000 0.000000 0.001008 0.000000 0.026658
#
#
# Mechanical properties :
#
#
# Convention : Reuss Voigt Hill
#
# Bulk Modulus (GPa) = 28.84883 41.09388 34.97135
# Shear Modulus (GPa) = 26.35451 33.21104 29.78278
#
# Velocity S-wave (km/s) = 3.48915 3.91682 3.70915
# Velocity P-wave (km/s) = 5.43678 6.27998 5.87353
#
# Compressibility (1/GPa) = 0.03466345
#
# Stress axis : x y z
#
# Youngs Moduli (GPa) = 72.55694 26.61883 77.26848
#
# Poissons Ratio (x) = 0.22030 0.27940
# Poissons Ratio (y) = 0.60049 0.22578
# Poissons Ratio (z) = 0.26236 0.07778
#
# Static dielectric constant tensor:
#      x y z
#    x 4.006790 0.000000 0.197150 
#    y 0.000000 3.698770 0.000000 
#    z 0.197150 0.000000 3.987180 
# 
# 
# High freq. dielectric constant tensor:
#      x y z
#    x 1.852440 0.000000 0.015200 
#    y 0.000000 1.828210 0.000000 
#    z 0.015200 0.000000 1.860610 
# 
# From -- ./inp_files/242492.got.cif
#   From: 2010.06.25/outbox.cif.g09.slc.cpg/sg15_122_cif.got.tgz:242492.got - 2010.06.28 07:06:18.
