data_PCOD8151572
_publ_section_title
;
Structure prediction by ZEFSAII (Michael W. Deem and Ramdas Pophale) SiO2 
 PCOD8151572
Probable space group: C 2/C
;
_chemical_formula_sum "Si O2"
_cell_formula_units_Z 36
_cell_length_a 15.276455
_cell_length_b 23.220208
_cell_length_c 14.764412
_cell_angle_alpha 90.000000
_cell_angle_beta 161.007842
_cell_angle_gamma 90.000000
_cell_volume 1704.410086
_symmetry_space_group_name_H-M "C 2/C"
_symmetry_group_IT_number 15
_symmetry_cell_setting 'monoclinic'
loop_
_space_group_symop_operation_xyz
x,y,z
-x,y,1/2-z
-x,-y,-z
x,-y,1/2+z
1/2+x,1/2+y,z
1/2-x,1/2+y,1/2-z
1/2-x,1/2-y,-z
1/2+x,1/2-y,1/2+z
loop_
_atom_site_type_symbol
_atom_site_label
_atom_site_fract_x
_atom_site_fract_y
_atom_site_fract_z
Si Si1 0.500000 0.707088 0.750000
Si Si2 0.510574 0.632787 0.580000
Si Si3 0.052158 0.566989 0.054555
Si Si4 0.082337 0.210366 0.177523
Si Si5 0.758791 0.105248 0.064484
O O1 0.250000 0.750000 0.500000
O O2 0.532275 0.663323 0.697925
O O3 0.791199 0.604901 0.822880
O O4 0.411761 0.682134 0.415579
O O5 0.281309 0.582884 0.353098
O O6 0.000000 0.500000 0.000000
O O7 0.159570 0.577517 0.059395
O O8 0.341409 0.247018 0.449559
O O9 0.077549 0.163115 0.251168
O O10 0.000000 0.068662 0.250000
O O11 0.500000 0.115767 0.750000
#
# Coordination Sequence:
#
# PCOD8151572 Si02
#       5
#     4   8   8   8   8
#     4  12  24  42  70 102 144 176 216 282 338 400
#     4  11  23  42  66  96 132 167 225 264 322 403
#     4  11  24  46  68  89 128 172 217 274 332 381
#     4  11  21  36  60  88 125 169 201 243 311 375
#     4  11  23  40  61  92 127 159 211 264 312 380
#
# _framework density 21.121676999999998
#
# number of rings (size 3 to 8) (size 9 to 14) (size 15 to 20)
#    0.000    0.889    0.000   10.000    0.000    2.667 
#    6.000    0.000    0.000    0.000    0.000    0.000 
#    0.000    0.000    0.000    0.000    0.000    0.000 
#
# Total GULP energy -223070.412310 kJ/mol
# GULP energy per Si atom -12392.800684 kJ/mol
# Density = 2.107360 g / cm^3
# Si number density = 21.121677 Si / 1000 Ang^3
#
#
#
# Elastic Constant Matrix: (Units=GPa)
#
#
# Indices 1 2 3 4 5 6 
#
# 1 159.1180 75.2666 77.8495 0.0069 1.1961 -0.0008
# 2 75.2666 124.6997 63.4445 -0.0130 8.0487 -0.0003
# 3 77.8495 63.4445 180.7569 -0.0597 17.1625 0.0014
# 4 0.0069 -0.0130 -0.0597 -243.0498 -0.0023 -5.3051
# 5 1.1961 8.0487 17.1625 -0.0023 43.2060 -0.0003
# 6 -0.0008 -0.0003 0.0014 -5.3051 -0.0003 8.1736
#
#
#
# Elastic Compliance Matrix: (Units=1/GPa)
#
#
# Indices 1 2 3 4 5 6 
#
# 1 0.009811 -0.004626 -0.002762 0.000001 0.001687 0.000002
# 2 -0.004626 0.011953 -0.002082 0.000000 -0.001271 0.000000
# 3 -0.002762 -0.002082 0.007699 -0.000002 -0.002594 -0.000003
# 4 0.000001 0.000000 -0.000002 -0.004057 0.000000 -0.002633
# 5 0.001687 -0.001271 -0.002594 0.000000 0.024365 0.000002
# 6 0.000002 0.000000 -0.000003 -0.002633 0.000002 0.120635
#
#
# Mechanical properties :
#
#
# Convention : Reuss Voigt Hill
#
# Bulk Modulus (GPa) = 95.03227 99.74397 97.38812
# Shear Modulus (GPa) = 25.92615 -21.79977 2.06319
#
# Velocity S-wave (km/s) = 3.50732 -3.21612 0.98941
# Velocity P-wave (km/s) = 7.84170 5.79092 6.89300
#
# Compressibility (1/GPa) = 0.01052274
#
# Stress axis : x y z
#
# Youngs Moduli (GPa) = 101.92200 83.66298 129.88346
#
# Poissons Ratio (x) = 0.38698 0.35878
# Poissons Ratio (y) = 0.47144 0.27048
# Poissons Ratio (z) = 0.28154 0.17423
#
# Static dielectric constant tensor:
#      x y z
#    x 4.030470 0.000000 -0.009520 
#    y 0.000000 3.996380 -0.000020 
#    z -0.009520 -0.000020 4.197200 
# 
# 
# High freq. dielectric constant tensor:
#      x y z
#    x 1.841430 0.000000 0.004500 
#    y 0.000000 1.820690 0.000000 
#    z 0.004500 0.000000 1.856560 
# 
# From -- ./inp_files/156709.got.cif
#   From: 2010.06.25/outbox.cif.g09.slc.cpg/sg15_79_cif.got.tgz:156709.got - 2010.06.28 07:06:18.
