data_PCOD8151994
_publ_section_title
;
Structure prediction by ZEFSAII (Michael W. Deem and Ramdas Pophale) SiO2 
 PCOD8151994
Probable space group: C 2/C
;
_chemical_formula_sum "Si O2"
_cell_formula_units_Z 40
_cell_length_a 14.556528
_cell_length_b 11.108385
_cell_length_c 18.450885
_cell_angle_alpha 90.000000
_cell_angle_beta 146.792099
_cell_angle_gamma 90.000000
_cell_volume 1633.998684
_symmetry_space_group_name_H-M "C 2/C"
_symmetry_group_IT_number 15
_symmetry_cell_setting 'monoclinic'
loop_
_space_group_symop_operation_xyz
x,y,z
-x,y,1/2-z
-x,-y,-z
x,-y,1/2+z
1/2+x,1/2+y,z
1/2-x,1/2+y,1/2-z
1/2-x,1/2-y,-z
1/2+x,1/2-y,1/2+z
loop_
_atom_site_type_symbol
_atom_site_label
_atom_site_fract_x
_atom_site_fract_y
_atom_site_fract_z
Si Si1 0.500000 0.137334 0.250000
Si Si2 0.187866 0.436545 0.311383
Si Si3 0.607252 0.363034 0.186802
Si Si4 0.664860 0.522851 0.434279
Si Si5 0.500000 0.730125 0.250000
Si Si6 0.300847 0.197449 0.949278
O O1 0.351197 0.219405 0.115142
O O2 0.569403 0.054974 0.229749
O O3 0.315215 0.435913 0.329100
O O4 0.281536 0.447631 0.449298
O O5 0.077027 0.314811 0.237666
O O6 0.515833 0.457569 0.179809
O O7 0.753231 0.304033 0.332124
O O8 0.481203 0.260864 0.073751
O O9 0.647241 0.648016 0.380208
O O10 0.797866 0.436718 0.481005
#
# Coordination Sequence:
#
# PCOD8151994 Si02
#       6
#     4   8   8   8   4   8
#     4  11  21  44  70 102 139 187 232 286 366 423
#     4  11  27  41  70 103 144 189 239 292 356 428
#     4  12  25  44  74 111 140 182 241 306 348 421
#     4  12  22  47  69  99 139 193 234 291 350 435
#     4  11  25  46  68  92 147 195 236 278 374 423
#     4  12  24  46  77 105 143 187 240 296 362 420
#
# _framework density 24.479821999999999
#
# number of rings (size 3 to 8) (size 9 to 14) (size 15 to 20)
#    0.000    0.400    6.000    3.000    2.800    0.000 
#    0.000    1.000    0.000    0.000    0.000    0.000 
#    0.000    0.000    0.000    0.000    0.000    0.000 
#
# Total GULP energy -248012.565940 kJ/mol
# GULP energy per Si atom -12400.628297 kJ/mol
# Density = 2.442411 g / cm^3
# Si number density = 24.479822 Si / 1000 Ang^3
#
#
#
# Elastic Constant Matrix: (Units=GPa)
#
#
# Indices 1 2 3 4 5 6 
#
# 1 113.9480 36.7942 14.4545 0.0002 3.2380 0.0002
# 2 36.7942 140.9516 17.8553 0.0006 0.6008 0.0004
# 3 14.4545 17.8553 89.6272 0.0008 -16.2033 0.0006
# 4 0.0002 0.0006 0.0008 42.6536 0.0006 3.0305
# 5 3.2380 0.6008 -16.2033 0.0006 24.4065 0.0004
# 6 0.0002 0.0004 0.0006 3.0305 0.0004 30.3854
#
#
#
# Elastic Compliance Matrix: (Units=1/GPa)
#
#
# Indices 1 2 3 4 5 6 
#
# 1 0.009792 -0.002355 -0.001517 0.000000 -0.002248 0.000000
# 2 -0.002355 0.007881 -0.001328 0.000000 -0.000763 0.000000
# 3 -0.001517 -0.001328 0.013306 0.000000 0.009068 0.000000
# 4 0.000000 0.000000 0.000000 0.023612 -0.000001 -0.002355
# 5 -0.002248 -0.000763 0.009068 -0.000001 0.047310 -0.000001
# 6 0.000000 0.000000 0.000000 -0.002355 -0.000001 0.033145
#
#
# Mechanical properties :
#
#
# Convention : Reuss Voigt Hill
#
# Bulk Modulus (GPa) = 48.59047 53.63724 51.11386
# Shear Modulus (GPa) = 32.82884 37.85062 35.33973
#
# Velocity S-wave (km/s) = 3.66602 3.93644 3.80363
# Velocity P-wave (km/s) = 6.14914 6.52833 6.34157
#
# Compressibility (1/GPa) = 0.02058017
#
# Stress axis : x y z
#
# Youngs Moduli (GPa) = 102.11903 126.89093 75.15515
#
# Poissons Ratio (x) = 0.29877 0.11398
# Poissons Ratio (y) = 0.24044 0.09983
# Poissons Ratio (z) = 0.15488 0.16855
#
# Static dielectric constant tensor:
#      x y z
#    x 4.091520 0.000000 0.045950 
#    y 0.000000 4.755840 0.000000 
#    z 0.045950 0.000000 4.676070 
# 
# 
# High freq. dielectric constant tensor:
#      x y z
#    x 1.935250 0.000000 -0.011070 
#    y 0.000000 1.987960 0.000000 
#    z -0.011070 0.000000 2.002000 
# 
# From -- ./inp_files/204271.got.cif
#   From: 2010.06.25/outbox.cif.g09.slc.cpg/sg15_103_cif.got.tgz:204271.got - 2010.06.28 07:06:18.
