data_PCOD8151555
_publ_section_title
;
Structure prediction by ZEFSAII (Michael W. Deem and Ramdas Pophale) SiO2 
 PCOD8151555
Probable space group: C 2/C
;
_chemical_formula_sum "Si O2"
_cell_formula_units_Z 56
_cell_length_a 21.710592
_cell_length_b 15.836324
_cell_length_c 8.772769
_cell_angle_alpha 90.000000
_cell_angle_beta 116.008119
_cell_angle_gamma 90.000000
_cell_volume 2710.771458
_symmetry_space_group_name_H-M "C 2/C"
_symmetry_group_IT_number 15
_symmetry_cell_setting 'monoclinic'
loop_
_space_group_symop_operation_xyz
x,y,z
-x,y,1/2-z
-x,-y,-z
x,-y,1/2+z
1/2+x,1/2+y,z
1/2-x,1/2+y,1/2-z
1/2-x,1/2-y,-z
1/2+x,1/2-y,1/2+z
loop_
_atom_site_type_symbol
_atom_site_label
_atom_site_fract_x
_atom_site_fract_y
_atom_site_fract_z
Si Si1 0.343629 0.116777 0.685470
Si Si2 0.238452 0.793439 0.266060
Si Si3 0.213276 0.122676 0.039961
Si Si4 0.328998 0.952446 0.830067
Si Si5 0.398666 0.209132 0.323587
Si Si6 0.569567 0.338065 0.394220
Si Si7 0.032909 0.256784 0.137357
O O1 0.275365 0.170181 0.655010
O O2 0.331589 0.072370 0.509858
O O3 0.410125 0.175453 0.751948
O O4 0.358278 0.045410 0.829698
O O5 0.241545 0.866798 0.398513
O O6 0.281368 0.712950 0.369546
O O7 0.159341 0.764886 0.147773
O O8 0.251539 0.050271 0.177695
O O9 0.132672 0.097090 0.945796
O O10 0.369640 0.884719 0.770154
O O11 0.412233 0.250992 0.174425
O O12 0.469917 0.197053 0.486516
O O13 0.500000 0.378779 0.250000
O O14 0.562021 0.317304 0.564013
O O15 0.000000 0.213000 0.250000
#
# Coordination Sequence:
#
# PCOD8151555 Si02
#       7
#     8   8   8   8   8   8   8
#     4  12  24  37  54  81 114 157 188 235 273 331
#     4   9  18  34  60  79 105 141 190 229 285 321
#     4   9  17  35  58  82 107 143 183 238 273 334
#     4  11  24  35  53  78 115 146 197 221 282 321
#     4   9  20  38  55  81 107 149 184 234 275 341
#     4   9  18  33  60  83 110 142 183 227 290 331
#     4  11  21  36  51  81 115 146 191 227 275 321
#
# _framework density 20.658325999999999
#
# number of rings (size 3 to 8) (size 9 to 14) (size 15 to 20)
#    0.000    2.000    2.857    1.714    2.000    4.000 
#    0.000    0.000    0.000    0.000    0.000   17.000 
#    0.000    0.000    0.000    0.000    0.000    0.000 
#
# Total GULP energy -347023.576284 kJ/mol
# GULP energy per Si atom -12393.699153 kJ/mol
# Density = 2.061131 g / cm^3
# Si number density = 20.658326 Si / 1000 Ang^3
#
#
#
# Elastic Constant Matrix: (Units=GPa)
#
#
# Indices 1 2 3 4 5 6 
#
# 1 109.2292 4.7687 40.3392 0.0000 5.4013 0.0000
# 2 4.7687 17.8311 3.6905 0.0000 -3.8981 0.0000
# 3 40.3392 3.6905 68.7360 0.0000 2.3621 0.0000
# 4 0.0000 0.0000 0.0000 23.2889 0.0000 -5.3454
# 5 5.4013 -3.8981 2.3621 0.0000 40.9611 0.0000
# 6 0.0000 0.0000 0.0000 -5.3454 0.0000 15.4800
#
#
#
# Elastic Compliance Matrix: (Units=1/GPa)
#
#
# Indices 1 2 3 4 5 6 
#
# 1 0.011815 -0.002055 -0.006777 0.000000 -0.001363 0.000000
# 2 -0.002055 0.058373 -0.002133 0.000000 0.005949 0.000000
# 3 -0.006777 -0.002133 0.018653 0.000000 -0.000385 0.000000
# 4 0.000000 0.000000 0.000000 0.046635 0.000000 0.016104
# 5 -0.001363 0.005949 -0.000385 0.000000 0.025181 0.000000
# 6 0.000000 0.000000 0.000000 0.016104 0.000000 0.070160
#
#
# Mechanical properties :
#
#
# Convention : Reuss Voigt Hill
#
# Bulk Modulus (GPa) = 14.94483 32.59923 23.77203
# Shear Modulus (GPa) = 18.17848 25.74586 21.96217
#
# Velocity S-wave (km/s) = 2.96963 3.53409 3.26408
# Velocity P-wave (km/s) = 4.35985 5.69802 5.07325
#
# Compressibility (1/GPa) = 0.06691277
#
# Stress axis : x y z
#
# Youngs Moduli (GPa) = 84.63943 17.13115 53.61023
#
# Poissons Ratio (x) = 0.03521 0.36330
# Poissons Ratio (y) = 0.17394 0.11433
# Poissons Ratio (z) = 0.57357 0.03653
#
# Static dielectric constant tensor:
#      x y z
#    x 4.105530 0.000000 0.096080 
#    y 0.000000 3.250500 0.000000 
#    z 0.096080 0.000000 3.845920 
# 
# 
# High freq. dielectric constant tensor:
#      x y z
#    x 1.825000 0.000000 0.002760 
#    y 0.000000 1.751480 0.000000 
#    z 0.002760 0.000000 1.811150 
# 
# From -- ./inp_files/62556.got.cif
#   From: 2010.06.25/outbox.cif.g09.slc.cpg/sg15_32_cif.got.tgz:62556.got - 2010.06.28 07:06:18.
