data_PCOD8151286
_publ_section_title
;
Structure prediction by ZEFSAII (Michael W. Deem and Ramdas Pophale) SiO2 
 PCOD8151286
Probable space group: C 2/C
;
_chemical_formula_sum "Si O2"
_cell_formula_units_Z 56
_cell_length_a 14.766939
_cell_length_b 18.463647
_cell_length_c 11.715076
_cell_angle_alpha 90.000000
_cell_angle_beta 118.506745
_cell_angle_gamma 90.000000
_cell_volume 2806.879842
_symmetry_space_group_name_H-M "C 2/C"
_symmetry_group_IT_number 15
_symmetry_cell_setting 'monoclinic'
loop_
_space_group_symop_operation_xyz
x,y,z
-x,y,1/2-z
-x,-y,-z
x,-y,1/2+z
1/2+x,1/2+y,z
1/2-x,1/2+y,1/2-z
1/2-x,1/2-y,-z
1/2+x,1/2-y,1/2+z
loop_
_atom_site_type_symbol
_atom_site_label
_atom_site_fract_x
_atom_site_fract_y
_atom_site_fract_z
Si Si1 0.990246 0.654665 0.970316
Si Si2 0.249735 0.173059 0.223915
Si Si3 0.925967 0.203829 0.546304
Si Si4 0.691187 0.090236 0.769866
Si Si5 0.412731 0.061514 0.289596
Si Si6 0.351993 0.322531 0.250364
Si Si7 0.204814 0.673379 0.004782
O O1 0.905818 0.637728 0.825598
O O2 0.027931 0.581768 0.057571
O O3 0.084814 0.688523 0.958046
O O4 0.944614 0.710881 0.035937
O O5 0.337449 0.127853 0.208403
O O6 0.290088 0.254841 0.264586
O O7 0.239070 0.142455 0.346829
O O8 0.139272 0.168667 0.095912
O O9 0.859694 0.191809 0.620247
O O10 0.036584 0.165670 0.624725
O O11 0.786567 0.105716 0.741281
O O12 0.662567 0.006525 0.742214
O O13 0.721000 0.113221 0.916463
O O14 0.500000 0.044879 0.250000
O O15 0.250000 0.750000 0.000000
#
# Coordination Sequence:
#
# PCOD8151286 Si02
#       7
#     8   8   8   8   8   8   8
#     4  11  21  37  64  94 131 162 212 268 329 379
#     4  11  22  39  63  93 125 169 212 268 319 379
#     4  11  21  39  66  96 120 161 218 276 319 368
#     4  12  24  39  59  94 131 176 207 263 329 388
#     4  11  24  40  61  97 135 163 210 264 330 390
#     4  11  22  39  64  93 126 162 217 265 319 385
#     4  11  20  38  59  91 133 168 218 256 315 393
#
# _framework density 19.950979
#
# number of rings (size 3 to 8) (size 9 to 14) (size 15 to 20)
#    0.000    0.857    5.714    3.000    2.000    1.143 
#    0.000    1.429    0.000    0.000    0.000    0.000 
#    0.000    0.000    0.000    0.000    0.000    0.000 
#
# Total GULP energy -347184.074945 kJ/mol
# GULP energy per Si atom -12399.431248 kJ/mol
# Density = 1.990557 g / cm^3
# Si number density = 19.950979 Si / 1000 Ang^3
#
#
#
# Elastic Constant Matrix: (Units=GPa)
#
#
# Indices 1 2 3 4 5 6 
#
# 1 90.4501 44.7088 43.1221 0.0000 -1.6875 0.0000
# 2 44.7088 89.6240 27.0089 0.0000 -1.6666 0.0000
# 3 43.1221 27.0089 138.5938 0.0000 12.6662 0.0000
# 4 0.0000 0.0000 0.0000 28.7074 0.0000 7.9619
# 5 -1.6875 -1.6666 12.6662 0.0000 34.5221 0.0000
# 6 0.0000 0.0000 0.0000 7.9619 0.0000 37.0522
#
#
#
# Elastic Compliance Matrix: (Units=1/GPa)
#
#
# Indices 1 2 3 4 5 6 
#
# 1 0.016404 -0.006966 -0.003920 0.000000 0.001904 0.000000
# 2 -0.006966 0.014885 -0.000794 0.000000 0.000670 0.000000
# 3 -0.003920 -0.000794 0.008910 0.000000 -0.003499 0.000000
# 4 0.000000 0.000000 0.000000 0.037042 0.000000 -0.007960
# 5 0.001904 0.000670 -0.003499 0.000000 0.030376 0.000000
# 6 0.000000 0.000000 0.000000 -0.007960 0.000000 0.028699
#
#
# Mechanical properties :
#
#
# Convention : Reuss Voigt Hill
#
# Bulk Modulus (GPa) = 59.39563 60.92751 60.16157
# Shear Modulus (GPa) = 30.25005 33.64488 31.94747
#
# Velocity S-wave (km/s) = 3.89809 4.11101 4.00596
# Velocity P-wave (km/s) = 7.07782 7.28963 7.18451
#
# Compressibility (1/GPa) = 0.01683626
#
# Stress axis : x y z
#
# Youngs Moduli (GPa) = 60.96210 67.18343 112.23745
#
# Poissons Ratio (x) = 0.46801 0.44000
# Poissons Ratio (y) = 0.42467 0.08917
# Poissons Ratio (z) = 0.23899 0.05337
#
# Static dielectric constant tensor:
#      x y z
#    x 3.786800 0.000000 0.009880 
#    y 0.000000 3.426570 0.000000 
#    z 0.009880 0.000000 3.842520 
# 
# 
# High freq. dielectric constant tensor:
#      x y z
#    x 1.781330 0.000000 0.000850 
#    y 0.000000 1.747240 0.000000 
#    z 0.000850 0.000000 1.790010 
# 
# From -- ./inp_files/98836.got.cif
#   From: 2010.06.25/outbox.cif.g09.slc.cpg/sg15_50_cif.got.tgz:98836.got - 2010.06.28 07:06:18.
