data_PCOD8151404
_publ_section_title
;
Structure prediction by ZEFSAII (Michael W. Deem and Ramdas Pophale) SiO2 
 PCOD8151404
Probable space group: C 2/C
;
_chemical_formula_sum "Si O2"
_cell_formula_units_Z 64
_cell_length_a 11.217949
_cell_length_b 15.098849
_cell_length_c 18.338240
_cell_angle_alpha 90.000000
_cell_angle_beta 90.913915
_cell_angle_gamma 90.000000
_cell_volume 3105.701447
_symmetry_space_group_name_H-M "C 2/C"
_symmetry_group_IT_number 15
_symmetry_cell_setting 'monoclinic'
loop_
_space_group_symop_operation_xyz
x,y,z
-x,y,1/2-z
-x,-y,-z
x,-y,1/2+z
1/2+x,1/2+y,z
1/2-x,1/2+y,1/2-z
1/2-x,1/2-y,-z
1/2+x,1/2-y,1/2+z
loop_
_atom_site_type_symbol
_atom_site_label
_atom_site_fract_x
_atom_site_fract_y
_atom_site_fract_z
Si Si1 0.311208 0.521251 0.131725
Si Si2 0.211176 0.066643 0.531153
Si Si3 0.943184 0.349824 0.075687
Si Si4 0.454753 0.826034 0.582407
Si Si5 0.804989 0.877125 0.924546
Si Si6 0.044607 0.132413 0.930841
Si Si7 0.050527 0.490903 0.670186
Si Si8 0.984765 0.176501 0.168394
O O1 0.394451 0.433515 0.126941
O O2 0.193937 0.500292 0.178022
O O3 0.384382 0.600845 0.168537
O O4 0.262127 0.550858 0.053032
O O5 0.301544 0.139980 0.561767
O O6 0.073332 0.089351 0.537393
O O7 0.237947 0.978331 0.576493
O O8 0.999222 0.430074 0.121014
O O9 0.951380 0.257082 0.116081
O O10 0.012073 0.348244 0.000199
O O11 0.312495 0.820091 0.588896
O O12 0.493325 0.726081 0.605304
O O13 0.515333 0.895449 0.637276
O O14 0.891216 0.864077 0.857074
O O15 0.867112 0.850316 0.000881
O O16 0.000000 0.500442 0.750000
O O17 0.000000 0.213239 0.250000
#
# Coordination Sequence:
#
# PCOD8151404 Si02
#       8
#     8   8   8   8   8   8   8   8
#     4  11  23  44  67  99 134 171 218 273 333 397
#     4  11  20  40  72  98 129 167 221 282 329 383
#     4  12  24  45  68  99 132 175 228 277 329 391
#     4  12  24  41  70 100 128 175 222 279 327 388
#     4  11  21  41  64  96 131 167 218 274 326 393
#     4  11  22  40  69 103 128 162 224 278 328 380
#     4  12  28  46  63  97 138 179 218 272 338 404
#     4  12  27  43  66  97 134 180 219 272 341 401
#
# _framework density 20.607261000000001
#
# number of rings (size 3 to 8) (size 9 to 14) (size 15 to 20)
#    0.000    0.500    6.250    3.375    5.250    1.000 
#    0.000    0.625    0.000    0.000    0.000    0.000 
#    0.000    0.000    0.000    0.000    0.000    0.000 
#
# Total GULP energy -396906.719782 kJ/mol
# GULP energy per Si atom -12403.334993 kJ/mol
# Density = 2.056036 g / cm^3
# Si number density = 20.607261 Si / 1000 Ang^3
#
#
#
# Elastic Constant Matrix: (Units=GPa)
#
#
# Indices 1 2 3 4 5 6 
#
# 1 118.2752 25.8534 35.9277 0.0000 -24.7959 0.0000
# 2 25.8534 93.9357 32.9708 0.0000 -2.5951 0.0000
# 3 35.9277 32.9708 71.2319 0.0000 -13.5989 0.0000
# 4 0.0000 0.0000 0.0000 4.1039 0.0000 8.5959
# 5 -24.7959 -2.5951 -13.5989 0.0000 25.5873 0.0000
# 6 0.0000 0.0000 0.0000 8.5959 0.0000 14.6870
#
#
#
# Elastic Compliance Matrix: (Units=1/GPa)
#
#
# Indices 1 2 3 4 5 6 
#
# 1 0.011865 -0.001840 -0.003309 0.000000 0.009553 0.000000
# 2 -0.001840 0.013093 -0.005808 0.000000 -0.003542 0.000000
# 3 -0.003309 -0.005808 0.019667 0.000000 0.006657 0.000000
# 4 0.000000 0.000000 0.000000 -1.078707 0.000000 0.631338
# 5 0.009553 -0.003542 0.006657 0.000000 0.051518 0.000000
# 6 0.000000 0.000000 0.000000 0.631338 0.000000 -0.301418
#
#
# Mechanical properties :
#
#
# Convention : Reuss Voigt Hill
#
# Bulk Modulus (GPa) = 44.03389 52.54961 48.29175
# Shear Modulus (GPa) = -3.98566 21.45504 8.73469
#
# Velocity S-wave (km/s) = -1.39223 3.23017 2.06103
# Velocity P-wave (km/s) = 4.33937 6.28235 5.39898
#
# Compressibility (1/GPa) = 0.02270978
#
# Stress axis : x y z
#
# Youngs Moduli (GPa) = 84.28210 76.37738 50.84675
#
# Poissons Ratio (x) = 0.14055 0.16825
# Poissons Ratio (y) = 0.15510 0.29534
# Poissons Ratio (z) = 0.27888 0.44363
#
# Static dielectric constant tensor:
#      x y z
#    x 4.170490 0.000000 -0.614970 
#    y 0.000000 4.017930 0.000000 
#    z -0.614970 0.000000 4.205600 
# 
# 
# High freq. dielectric constant tensor:
#      x y z
#    x 1.823080 0.000000 -0.011420 
#    y 0.000000 1.820480 0.000000 
#    z -0.011420 0.000000 1.778700 
# 
# From -- ./inp_files/198329.got.cif
#   From: 2010.06.25/outbox.cif.g09.slc.cpg/sg15_100_cif.got.tgz:198329.got - 2010.06.28 07:06:18.
