data_PCOD8151995
_publ_section_title
;
Structure prediction by ZEFSAII (Michael W. Deem and Ramdas Pophale) SiO2 
 PCOD8151995
Probable space group: C 2/C
;
_chemical_formula_sum "Si O2"
_cell_formula_units_Z 48
_cell_length_a 23.826937
_cell_length_b 19.736432
_cell_length_c 14.635980
_cell_angle_alpha 90.000000
_cell_angle_beta 160.445016
_cell_angle_gamma 90.000000
_cell_volume 2303.716633
_symmetry_space_group_name_H-M "C 2/C"
_symmetry_group_IT_number 15
_symmetry_cell_setting 'monoclinic'
loop_
_space_group_symop_operation_xyz
x,y,z
-x,y,1/2-z
-x,-y,-z
x,-y,1/2+z
1/2+x,1/2+y,z
1/2-x,1/2+y,1/2-z
1/2-x,1/2-y,-z
1/2+x,1/2-y,1/2+z
loop_
_atom_site_type_symbol
_atom_site_label
_atom_site_fract_x
_atom_site_fract_y
_atom_site_fract_z
Si Si1 0.940740 0.168391 0.558524
Si Si2 0.186921 0.075764 0.549861
Si Si3 0.839818 0.483063 0.107005
Si Si4 0.716183 0.862130 0.012880
Si Si5 0.221031 0.456513 0.684670
Si Si6 0.379224 0.813508 0.437210
O O1 0.811211 0.106944 0.369677
O O2 0.843107 0.233570 0.366819
O O3 0.000000 0.189403 0.750000
O O4 0.096469 0.146918 0.734974
O O5 0.231816 0.032373 0.529728
O O6 0.305755 0.141719 0.741566
O O7 0.198017 0.025996 0.654008
O O8 0.000000 0.103240 0.250000
O O9 0.025399 0.454666 0.409589
O O10 0.850784 0.562379 0.104707
O O11 0.754068 0.449844 0.886286
O O12 0.710609 0.842347 0.110300
O O13 0.582203 0.816805 0.751928
#
# Coordination Sequence:
#
# PCOD8151995 Si02
#       6
#     8   8   8   8   8   8
#     4  12  26  39  68 103 126 174 225 276 324 394
#     4  12  25  41  67  98 127 177 224 267 333 395
#     4  11  23  42  71  94 131 178 215 280 336 380
#     4  11  21  44  70  92 131 173 217 278 335 376
#     4  11  23  43  64  99 133 166 224 277 327 387
#     4  11  24  43  65  95 136 171 220 274 332 392
#
# _framework density 20.835896000000002
#
# number of rings (size 3 to 8) (size 9 to 14) (size 15 to 20)
#    0.000    0.667    5.000    4.500    4.667    1.333 
#    3.000    0.833    0.000    0.000    0.000    0.000 
#    0.000    0.000    0.000    0.000    0.000    0.000 
#
# Total GULP energy -297689.133172 kJ/mol
# GULP energy per Si atom -12403.713882 kJ/mol
# Density = 2.078847 g / cm^3
# Si number density = 20.835896 Si / 1000 Ang^3
#
#
#
# Elastic Constant Matrix: (Units=GPa)
#
#
# Indices 1 2 3 4 5 6 
#
# 1 67.5000 8.5833 34.4850 0.0000 13.1754 0.0000
# 2 8.5833 130.3440 38.9316 0.0000 3.7765 0.0000
# 3 34.4850 38.9316 89.4313 0.0000 4.6331 0.0000
# 4 0.0000 0.0000 0.0000 28.0801 0.0000 -7.1755
# 5 13.1754 3.7765 4.6331 0.0000 31.0918 0.0000
# 6 0.0000 0.0000 0.0000 -7.1755 0.0000 21.1321
#
#
#
# Elastic Compliance Matrix: (Units=1/GPa)
#
#
# Indices 1 2 3 4 5 6 
#
# 1 0.020179 0.001261 -0.007940 0.000000 -0.007521 0.000000
# 2 0.001261 0.008905 -0.004312 0.000000 -0.000973 0.000000
# 3 -0.007940 -0.004312 0.016043 0.000000 0.001498 0.000000
# 4 0.000000 0.000000 0.000000 0.038996 0.000000 0.013241
# 5 -0.007521 -0.000973 0.001498 0.000000 0.035245 0.000000
# 6 0.000000 0.000000 0.000000 0.013241 0.000000 0.051817
#
#
# Mechanical properties :
#
#
# Convention : Reuss Voigt Hill
#
# Bulk Modulus (GPa) = 43.20836 50.14168 46.67502
# Shear Modulus (GPa) = 24.88994 29.74583 27.31788
#
# Velocity S-wave (km/s) = 3.46000 3.78249 3.62484
# Velocity P-wave (km/s) = 6.06174 6.57218 6.32211
#
# Compressibility (1/GPa) = 0.02314367
#
# Stress axis : x y z
#
# Youngs Moduli (GPa) = 49.55612 112.29366 62.33146
#
# Poissons Ratio (x) = -0.14157 0.49493
# Poissons Ratio (y) = -0.06248 0.26880
# Poissons Ratio (z) = 0.39349 0.48425
#
# Static dielectric constant tensor:
#      x y z
#    x 3.709720 0.000000 -0.079900 
#    y 0.000000 3.736500 0.000000 
#    z -0.079900 0.000000 3.752080 
# 
# 
# High freq. dielectric constant tensor:
#      x y z
#    x 1.811760 0.000000 0.004030 
#    y 0.000000 1.817360 0.000000 
#    z 0.004030 0.000000 1.811450 
# 
# From -- ./inp_files/174551.got.cif
#   From: 2010.06.25/outbox.cif.g09.slc.cpg/sg15_88_cif.got.tgz:174551.got - 2010.06.28 07:06:18.
