data_PCOD8151251
_publ_section_title
;
Structure prediction by ZEFSAII (Michael W. Deem and Ramdas Pophale) SiO2 
 PCOD8151251
Probable space group: C 2/C
;
_chemical_formula_sum "Si O2"
_cell_formula_units_Z 60
_cell_length_a 14.871822
_cell_length_b 20.389342
_cell_length_c 11.540863
_cell_angle_alpha 90.000000
_cell_angle_beta 66.325981
_cell_angle_gamma 90.000000
_cell_volume 3204.996368
_symmetry_space_group_name_H-M "C 2/C"
_symmetry_group_IT_number 15
_symmetry_cell_setting 'monoclinic'
loop_
_space_group_symop_operation_xyz
x,y,z
-x,y,1/2-z
-x,-y,-z
x,-y,1/2+z
1/2+x,1/2+y,z
1/2-x,1/2+y,1/2-z
1/2-x,1/2-y,-z
1/2+x,1/2-y,1/2+z
loop_
_atom_site_type_symbol
_atom_site_label
_atom_site_fract_x
_atom_site_fract_y
_atom_site_fract_z
Si Si1 0.612960 0.430622 0.661141
Si Si2 0.121318 0.279534 0.891642
Si Si3 0.337454 0.698690 0.968491
Si Si4 0.335013 0.310334 0.728645
Si Si5 0.106472 0.311955 0.159797
Si Si6 0.000000 0.265780 0.750000
Si Si7 0.318038 0.364223 0.107463
Si Si8 0.618220 0.421055 0.189140
O O1 0.500000 0.427338 0.750000
O O2 0.662157 0.385508 0.733668
O O3 0.639045 0.403034 0.522599
O O4 0.650278 0.504829 0.645001
O O5 0.221389 0.294604 0.774695
O O6 0.118197 0.201962 0.916776
O O7 0.036337 0.305183 0.846082
O O8 0.111785 0.315875 0.018443
O O9 0.413485 0.718846 0.831651
O O10 0.321802 0.623082 0.937033
O O11 0.250000 0.750000 0.000000
O O12 0.380472 0.700143 0.076903
O O13 0.388246 0.262593 0.793661
O O14 0.200114 0.351835 0.159224
O O15 0.000000 0.342166 0.250000
O O16 0.337268 0.407967 0.208393
O O17 0.500000 0.411877 0.250000
#
# Coordination Sequence:
#
# PCOD8151251 Si02
#       8
#     8   8   8   8   8   4   8   8
#     4  11  25  36  59  88 118 162 196 240 295 368
#     4  11  20  37  58  87 125 154 199 251 305 351
#     4  12  22  37  59  87 121 155 195 247 304 355
#     4  11  21  37  56  90 120 154 203 248 300 354
#     4  11  21  37  63  89 117 156 204 254 299 350
#     4  12  22  36  56  90 128 154 186 258 306 358
#     4  11  21  41  58  84 122 160 201 248 298 356
#     4  11  25  40  58  90 124 161 194 242 306 368
#
# _framework density 18.720770000000002
#
# number of rings (size 3 to 8) (size 9 to 14) (size 15 to 20)
#    0.000    0.800    6.000    2.800    5.600    1.067 
#    0.000    0.000    0.000    0.800    3.467    0.000 
#    0.000    0.000    0.000    0.000    0.000    0.000 
#
# Total GULP energy -371782.919512 kJ/mol
# GULP energy per Si atom -12392.763984 kJ/mol
# Density = 1.867816 g / cm^3
# Si number density = 18.720770 Si / 1000 Ang^3
#
#
#
# Elastic Constant Matrix: (Units=GPa)
#
#
# Indices 1 2 3 4 5 6 
#
# 1 116.2653 37.5307 46.6027 0.0000 16.7082 0.0000
# 2 37.5307 107.0828 37.7727 0.0000 3.0671 0.0000
# 3 46.6027 37.7727 112.4847 0.0000 12.6369 0.0000
# 4 0.0000 0.0000 0.0000 25.4847 0.0000 -6.6299
# 5 16.7082 3.0671 12.6369 0.0000 40.0075 0.0000
# 6 0.0000 0.0000 0.0000 -6.6299 0.0000 12.9313
#
#
#
# Elastic Compliance Matrix: (Units=1/GPa)
#
#
# Indices 1 2 3 4 5 6 
#
# 1 0.011324 -0.002668 -0.003408 0.000000 -0.003448 0.000000
# 2 -0.002668 0.011226 -0.002792 0.000000 0.001135 0.000000
# 3 -0.003408 -0.002792 0.011462 0.000000 -0.001983 0.000000
# 4 0.000000 0.000000 0.000000 0.045278 0.000000 0.023214
# 5 -0.003448 0.001135 -0.001983 0.000000 0.026975 0.000000
# 6 0.000000 0.000000 0.000000 0.023214 0.000000 0.089234
#
#
# Mechanical properties :
#
#
# Convention : Reuss Voigt Hill
#
# Bulk Modulus (GPa) = 61.43959 64.40501 62.92230
# Shear Modulus (GPa) = 22.86651 29.94649 26.40650
#
# Velocity S-wave (km/s) = 3.49872 4.00389 3.75980
# Velocity P-wave (km/s) = 7.01510 7.47345 7.24790
#
# Compressibility (1/GPa) = 0.01627615
#
# Stress axis : x y z
#
# Youngs Moduli (GPa) = 88.30913 89.07961 87.24107
#
# Poissons Ratio (x) = 0.23765 0.29734
# Poissons Ratio (y) = 0.23559 0.24357
# Poissons Ratio (z) = 0.30098 0.24871
#
# Static dielectric constant tensor:
#      x y z
#    x 3.261860 0.000000 0.150520 
#    y 0.000000 3.466560 0.000000 
#    z 0.150520 0.000000 3.604680 
# 
# 
# High freq. dielectric constant tensor:
#      x y z
#    x 1.728390 0.000000 0.012700 
#    y 0.000000 1.692550 0.000000 
#    z 0.012700 0.000000 1.747040 
# 
# From -- ./inp_files/99752.got.cif
#   From: 2010.06.25/outbox.cif.g09.slc.cpg/sg15_50_cif.got.tgz:99752.got - 2010.06.28 07:06:18.
