data_PCOD8151247
_publ_section_title
;
Structure prediction by ZEFSAII (Michael W. Deem and Ramdas Pophale) SiO2 
 PCOD8151247
Probable space group: C 2/C
;
_chemical_formula_sum "Si O2"
_cell_formula_units_Z 48
_cell_length_a 16.097646
_cell_length_b 25.477882
_cell_length_c 19.202496
_cell_angle_alpha 90.000000
_cell_angle_beta 158.110566
_cell_angle_gamma 90.000000
_cell_volume 2936.153145
_symmetry_space_group_name_H-M "C 2/C"
_symmetry_group_IT_number 15
_symmetry_cell_setting 'monoclinic'
loop_
_space_group_symop_operation_xyz
x,y,z
-x,y,1/2-z
-x,-y,-z
x,-y,1/2+z
1/2+x,1/2+y,z
1/2-x,1/2+y,1/2-z
1/2-x,1/2-y,-z
1/2+x,1/2-y,1/2+z
loop_
_atom_site_type_symbol
_atom_site_label
_atom_site_fract_x
_atom_site_fract_y
_atom_site_fract_z
Si Si1 0.702557 0.919929 0.820033
Si Si2 0.293916 0.577932 0.542624
Si Si3 0.605110 0.192364 0.756585
Si Si4 0.986747 0.118673 0.413097
Si Si5 0.190843 0.811657 0.842434
Si Si6 0.755639 0.521570 0.574017
O O1 0.440623 0.907855 0.602802
O O2 0.732372 0.983405 0.848501
O O3 0.842552 0.895685 0.867351
O O4 0.788090 0.895361 0.960724
O O5 0.500000 0.598223 0.750000
O O6 0.313078 0.514680 0.545764
O O7 0.500000 0.182495 0.750000
O O8 0.428462 0.177243 0.560794
O O9 0.675567 0.252556 0.802756
O O10 0.814914 0.155630 0.907162
O O11 0.829336 0.148785 0.237047
O O12 0.076923 0.066782 0.445775
O O13 0.000000 0.822926 0.750000
O O14 0.000000 0.546646 0.750000
#
# Coordination Sequence:
#
# PCOD8151247 Si02
#       6
#     8   8   8   8   8   8
#     4   8  19  34  50  79 102 138 168 216 257 297
#     4   8  16  36  55  66 106 140 169 204 263 306
#     4  11  20  37  51  70 106 147 173 208 254 296
#     4  12  20  32  55  78 108 131 182 212 250 304
#     4  11  21  35  52  72 104 145 176 209 249 301
#     4   8  18  34  50  72 107 142 170 207 254 299
#
# _framework density 16.347920999999999
#
# number of rings (size 3 to 8) (size 9 to 14) (size 15 to 20)
#    1.000    1.333    3.333    2.000    0.000    2.000 
#    3.000    0.833    0.000    0.000    0.000    4.667 
#    0.000    0.000    0.000    0.000    0.000    0.000 
#
# Total GULP energy -297386.591909 kJ/mol
# GULP energy per Si atom -12391.107996 kJ/mol
# Density = 1.631071 g / cm^3
# Si number density = 16.347921 Si / 1000 Ang^3
#
#
#
# Elastic Constant Matrix: (Units=GPa)
#
#
# Indices 1 2 3 4 5 6 
#
# 1 107.4153 57.8324 61.4439 -0.0158 13.9399 -0.0388
# 2 57.8324 64.6900 39.8495 0.0719 5.0066 0.1572
# 3 61.4439 39.8495 149.6065 0.0731 -12.0305 0.2389
# 4 -0.0158 0.0719 0.0731 46.2891 0.0094 41.3417
# 5 13.9399 5.0066 -12.0305 0.0094 22.3929 0.0219
# 6 -0.0388 0.1572 0.2389 41.3417 0.0219 118.8033
#
#
#
# Elastic Compliance Matrix: (Units=1/GPa)
#
#
# Indices 1 2 3 4 5 6 
#
# 1 0.023510 -0.015802 -0.006626 0.000009 -0.014662 0.000042
# 2 -0.015802 0.030256 -0.001382 -0.000018 0.002330 -0.000037
# 3 -0.006626 -0.001382 0.010588 0.000003 0.010122 -0.000025
# 4 0.000009 -0.000018 0.000003 0.031345 -0.000002 -0.010908
# 5 -0.014662 0.002330 0.010122 -0.000002 0.058702 -0.000038
# 6 0.000042 -0.000037 -0.000025 -0.010908 -0.000038 0.012213
#
#
# Mechanical properties :
#
#
# Convention : Reuss Voigt Hill
#
# Bulk Modulus (GPa) = 59.75537 71.10702 65.43120
# Shear Modulus (GPa) = 22.74678 48.33613 35.54145
#
# Velocity S-wave (km/s) = 3.73422 5.44347 4.66775
# Velocity P-wave (km/s) = 7.43129 9.11586 8.31634
#
# Compressibility (1/GPa) = 0.01673490
#
# Stress axis : x y z
#
# Youngs Moduli (GPa) = 42.53439 33.05125 94.45084
#
# Poissons Ratio (x) = 0.52227 0.62582
# Poissons Ratio (y) = 0.67212 0.13051
# Poissons Ratio (z) = 0.28183 0.04567
#
# Static dielectric constant tensor:
#      x y z
#    x 2.833750 0.000000 -0.043290 
#    y 0.000000 2.894580 -0.000020 
#    z -0.043290 -0.000020 3.139360 
# 
# 
# High freq. dielectric constant tensor:
#      x y z
#    x 1.607690 0.000000 0.000600 
#    y 0.000000 1.606380 0.000000 
#    z 0.000600 0.000000 1.636790 
# 
# From -- ./inp_files/249993.got.cif
#   From: 2010.06.25/outbox.cif.g09.slc.cpg/sg15_125_cif.got.tgz:249993.got - 2010.06.28 07:06:18.
