data_PCOD8151386
_publ_section_title
;
Structure prediction by ZEFSAII (Michael W. Deem and Ramdas Pophale) SiO2 
 PCOD8151386
Probable space group: C 2/C
;
_chemical_formula_sum "Si O2"
_cell_formula_units_Z 64
_cell_length_a 13.298738
_cell_length_b 14.578258
_cell_length_c 23.051914
_cell_angle_alpha 90.000000
_cell_angle_beta 133.934486
_cell_angle_gamma 90.000000
_cell_volume 3218.371275
_symmetry_space_group_name_H-M "C 2/C"
_symmetry_group_IT_number 15
_symmetry_cell_setting 'monoclinic'
loop_
_space_group_symop_operation_xyz
x,y,z
-x,y,1/2-z
-x,-y,-z
x,-y,1/2+z
1/2+x,1/2+y,z
1/2-x,1/2+y,1/2-z
1/2-x,1/2-y,-z
1/2+x,1/2-y,1/2+z
loop_
_atom_site_type_symbol
_atom_site_label
_atom_site_fract_x
_atom_site_fract_y
_atom_site_fract_z
Si Si1 0.343926 0.272382 0.204079
Si Si2 0.845455 0.368586 0.180275
Si Si3 0.186534 0.789851 0.533108
Si Si4 0.356628 0.965016 0.597662
Si Si5 0.656171 0.876187 0.704074
Si Si6 0.880218 0.271805 0.927495
Si Si7 0.724685 0.071905 0.721998
Si Si8 0.956117 0.565124 0.535328
O O1 0.500000 0.247635 0.250000
O O2 0.245261 0.272343 0.108695
O O3 0.287618 0.195142 0.225944
O O4 0.341641 0.373066 0.232618
O O5 0.856187 0.463102 0.149628
O O6 0.744299 0.297986 0.106234
O O7 0.780069 0.384065 0.216854
O O8 0.000000 0.326085 0.250000
O O9 0.250000 0.750000 0.500000
O O10 0.228226 0.896124 0.556371
O O11 0.019781 0.784045 0.467181
O O12 0.499948 0.907620 0.657722
O O13 0.339093 0.013248 0.527439
O O14 0.663631 0.832566 0.644201
O O15 0.759634 0.964119 0.742793
O O16 0.899832 0.337898 0.990497
O O17 0.579782 0.084500 0.629945
O O18 0.000000 0.500000 0.500000
#
# Coordination Sequence:
#
# PCOD8151386 Si02
#       8
#     8   8   8   8   8   8   8   8
#     4  12  23  39  67 100 129 168 219 276 330 389
#     4  12  25  45  66  95 132 180 227 260 324 405
#     4  12  23  38  66 102 129 162 215 281 330 383
#     4  11  23  40  70  92 130 172 222 257 328 403
#     4  11  21  41  66  96 123 183 219 261 321 404
#     4  12  24  41  67  95 134 166 217 281 326 377
#     4  11  23  39  69  93 127 172 228 263 322 402
#     4  11  20  40  67  94 124 174 218 263 325 402
#
# _framework density 19.885835
#
# number of rings (size 3 to 8) (size 9 to 14) (size 15 to 20)
#    0.000    0.500   10.000    0.750    0.000    1.000 
#    0.000    0.625    2.750    0.000    0.000    0.000 
#    0.000    0.000    0.000    0.000    0.000    0.000 
#
# Total GULP energy -396849.571708 kJ/mol
# GULP energy per Si atom -12401.549116 kJ/mol
# Density = 1.984057 g / cm^3
# Si number density = 19.885835 Si / 1000 Ang^3
#
#
#
# Elastic Constant Matrix: (Units=GPa)
#
#
# Indices 1 2 3 4 5 6 
#
# 1 68.2537 31.7237 17.6506 0.0000 -7.9507 0.0000
# 2 31.7237 106.5148 22.4231 0.0000 3.6868 0.0000
# 3 17.6506 22.4231 62.2876 0.0000 -10.6359 0.0000
# 4 0.0000 0.0000 0.0000 35.9505 0.0000 -4.0455
# 5 -7.9507 3.6868 -10.6359 0.0000 35.9488 0.0000
# 6 0.0000 0.0000 0.0000 -4.0455 0.0000 38.1613
#
#
#
# Elastic Compliance Matrix: (Units=1/GPa)
#
#
# Indices 1 2 3 4 5 6 
#
# 1 0.018081 -0.004942 -0.002712 0.000000 0.003703 0.000000
# 2 -0.004942 0.011683 -0.003367 0.000000 -0.003287 0.000000
# 3 -0.002712 -0.003367 0.018949 0.000000 0.005352 0.000000
# 4 0.000000 0.000000 0.000000 0.028152 0.000000 0.002984
# 5 0.003703 -0.003287 0.005352 0.000000 0.030557 0.000000
# 6 0.000000 0.000000 0.000000 0.002984 0.000000 0.026521
#
#
# Mechanical properties :
#
#
# Convention : Reuss Voigt Hill
#
# Bulk Modulus (GPa) = 37.49420 42.29456 39.89438
# Shear Modulus (GPa) = 30.32601 33.02937 31.67769
#
# Velocity S-wave (km/s) = 3.90937 4.07990 3.99554
# Velocity P-wave (km/s) = 6.26683 6.59613 6.43359
#
# Compressibility (1/GPa) = 0.02667079
#
# Stress axis : x y z
#
# Youngs Moduli (GPa) = 55.30612 85.59530 52.77364
#
# Poissons Ratio (x) = 0.42305 0.14313
# Poissons Ratio (y) = 0.27335 0.17766
# Poissons Ratio (z) = 0.15000 0.28816
#
# Static dielectric constant tensor:
#      x y z
#    x 3.678290 0.000000 -0.242240 
#    y 0.000000 4.163350 0.000000 
#    z -0.242240 0.000000 3.759880 
# 
# 
# High freq. dielectric constant tensor:
#      x y z
#    x 1.763560 0.000000 -0.029430 
#    y 0.000000 1.785260 0.000000 
#    z -0.029430 0.000000 1.770890 
# 
# From -- ./inp_files/274357.got.cif
#   From: 2010.06.25/outbox.cif.g09.slc.cpg/sg15_138_cif.got.tgz:274357.got - 2010.06.28 07:06:18.
