data_PCOD8151476
_publ_section_title
;
Structure prediction by ZEFSAII (Michael W. Deem and Ramdas Pophale) SiO2 
 PCOD8151476
Probable space group: C 2/C
;
_chemical_formula_sum "Si O2"
_cell_formula_units_Z 56
_cell_length_a 16.664813
_cell_length_b 11.068818
_cell_length_c 18.522058
_cell_angle_alpha 90.000000
_cell_angle_beta 49.897874
_cell_angle_gamma 90.000000
_cell_volume 2613.329509
_symmetry_space_group_name_H-M "C 2/C"
_symmetry_group_IT_number 15
_symmetry_cell_setting 'monoclinic'
loop_
_space_group_symop_operation_xyz
x,y,z
-x,y,1/2-z
-x,-y,-z
x,-y,1/2+z
1/2+x,1/2+y,z
1/2-x,1/2+y,1/2-z
1/2-x,1/2-y,-z
1/2+x,1/2-y,1/2+z
loop_
_atom_site_type_symbol
_atom_site_label
_atom_site_fract_x
_atom_site_fract_y
_atom_site_fract_z
Si Si1 0.057323 0.989281 0.820664
Si Si2 0.848820 0.153512 0.107244
Si Si3 0.335346 0.545933 0.507331
Si Si4 0.000000 0.580850 0.250000
Si Si5 0.634458 0.756425 0.772297
Si Si6 0.389312 0.110643 0.911663
Si Si7 0.067185 0.267436 0.969563
Si Si8 0.500000 0.305254 0.750000
O O1 0.095819 0.121753 0.778127
O O2 0.112740 0.951377 0.861750
O O3 0.083522 0.889708 0.744382
O O4 0.930634 0.986622 0.898942
O O5 0.759898 0.238478 0.192541
O O6 0.804781 0.079012 0.064629
O O7 0.944044 0.240847 0.031572
O O8 0.235557 0.595809 0.521775
O O9 0.370206 0.647809 0.544006
O O10 0.912263 0.660168 0.262810
O O11 0.948016 0.503130 0.343799
O O12 0.606346 0.806946 0.867915
O O13 0.429761 0.229176 0.846328
O O14 0.416871 0.126312 0.980540
#
# Coordination Sequence:
#
# PCOD8151476 Si02
#       8
#     8   8   8   4   8   8   8   4
#     4  11  23  40  68 102 137 181 239 287 340 437
#     4  11  22  42  69 101 138 181 230 293 354 411
#     4  11  20  43  69 101 140 181 226 294 360 410
#     4  11  27  46  60 100 143 185 228 290 356 425
#     4  12  25  44  72  96 143 189 228 288 360 420
#     4  11  24  42  70 101 145 179 230 302 348 410
#     4  11  23  42  73 103 132 180 241 291 340 425
#     4  11  23  38  66 106 143 179 240 284 352 413
#
# _framework density 21.428602000000001
#
# number of rings (size 3 to 8) (size 9 to 14) (size 15 to 20)
#    0.000    0.857    7.143    1.714    2.000    1.714 
#    0.000    4.286    0.000    0.000    0.000    0.000 
#    0.000    0.000    0.000    0.000    0.000    0.000 
#
# Total GULP energy -347209.689157 kJ/mol
# GULP energy per Si atom -12400.346041 kJ/mol
# Density = 2.137983 g / cm^3
# Si number density = 21.428602 Si / 1000 Ang^3
#
#
#
# Elastic Constant Matrix: (Units=GPa)
#
#
# Indices 1 2 3 4 5 6 
#
# 1 93.3751 36.1794 38.1759 0.0000 -11.0742 0.0000
# 2 36.1794 95.5190 28.4456 0.0000 -7.6907 0.0000
# 3 38.1759 28.4456 77.6437 0.0000 -11.4629 0.0000
# 4 0.0000 0.0000 0.0000 30.1698 0.0000 9.9120
# 5 -11.0742 -7.6907 -11.4629 0.0000 41.3013 0.0000
# 6 0.0000 0.0000 0.0000 9.9120 0.0000 33.7322
#
#
#
# Elastic Compliance Matrix: (Units=1/GPa)
#
#
# Indices 1 2 3 4 5 6 
#
# 1 0.014642 -0.003750 -0.005577 0.000000 0.001680 0.000000
# 2 -0.003750 0.012754 -0.002739 0.000000 0.000609 0.000000
# 3 -0.005577 -0.002739 0.017027 0.000000 0.002720 0.000000
# 4 0.000000 0.000000 0.000000 0.036688 0.000000 -0.010780
# 5 0.001680 0.000609 0.002720 0.000000 0.025531 0.000000
# 6 0.000000 0.000000 0.000000 -0.010780 0.000000 0.032813
#
#
# Mechanical properties :
#
#
# Convention : Reuss Voigt Hill
#
# Bulk Modulus (GPa) = 49.28409 52.45997 50.87203
# Shear Modulus (GPa) = 29.35131 31.95643 30.65387
#
# Velocity S-wave (km/s) = 3.70500 3.86592 3.78631
# Velocity P-wave (km/s) = 6.43054 6.66795 6.55032
#
# Compressibility (1/GPa) = 0.02029052
#
# Stress axis : x y z
#
# Youngs Moduli (GPa) = 68.29739 78.40610 58.73134
#
# Poissons Ratio (x) = 0.29400 0.32757
# Poissons Ratio (y) = 0.25609 0.16087
# Poissons Ratio (z) = 0.38092 0.21476
#
# Static dielectric constant tensor:
#      x y z
#    x 3.850260 0.000000 0.044010 
#    y 0.000000 3.784370 0.000000 
#    z 0.044010 0.000000 3.934450 
# 
# 
# High freq. dielectric constant tensor:
#      x y z
#    x 1.840480 0.000000 0.000770 
#    y 0.000000 1.836640 0.000000 
#    z 0.000770 0.000000 1.844780 
# 
# From -- ./inp_files/204403.got.cif
#   From: 2010.06.25/outbox.cif.g09.slc.cpg/sg15_103_cif.got.tgz:204403.got - 2010.06.28 07:06:18.
