data_PCOD8151978
_publ_section_title
;
Structure prediction by ZEFSAII (Michael W. Deem and Ramdas Pophale) SiO2 
 PCOD8151978
Probable space group: C 2/C
;
_chemical_formula_sum "Si O2"
_cell_formula_units_Z 40
_cell_length_a 8.469266
_cell_length_b 12.629852
_cell_length_c 15.472768
_cell_angle_alpha 90.000000
_cell_angle_beta 108.225464
_cell_angle_gamma 90.000000
_cell_volume 1572.024715
_symmetry_space_group_name_H-M "C 2/C"
_symmetry_group_IT_number 15
_symmetry_cell_setting 'monoclinic'
loop_
_space_group_symop_operation_xyz
x,y,z
-x,y,1/2-z
-x,-y,-z
x,-y,1/2+z
1/2+x,1/2+y,z
1/2-x,1/2+y,1/2-z
1/2-x,1/2-y,-z
1/2+x,1/2-y,1/2+z
loop_
_atom_site_type_symbol
_atom_site_label
_atom_site_fract_x
_atom_site_fract_y
_atom_site_fract_z
Si Si1 0.500000 0.509035 0.750000
Si Si2 0.656361 0.925627 0.131330
Si Si3 0.934577 0.626142 0.069140
Si Si4 0.862473 0.985002 0.902736
Si Si5 0.000000 0.289295 0.250000
Si Si6 0.788165 0.776025 0.405822
O O1 0.654770 0.580437 0.804491
O O2 0.444954 0.444494 0.826932
O O3 0.545427 0.862326 0.177735
O O4 0.585129 0.043643 0.106734
O O5 0.649571 0.869958 0.038312
O O6 0.780182 0.603659 0.106516
O O7 0.028435 0.738783 0.093698
O O8 0.773626 0.099023 0.882700
O O9 0.000000 0.000000 0.000000
O O10 0.848007 0.220641 0.182645
O O11 0.750000 0.750000 0.500000
#
# Coordination Sequence:
#
# PCOD8151978 Si02
#       6
#     4   8   8   8   4   8
#     4  12  24  43  79 106 146 208 264 314 409 471
#     4  11  21  43  74 102 148 204 249 323 396 468
#     4  11  23  45  75 107 150 206 263 314 403 478
#     4  12  26  48  75 110 156 205 259 337 402 470
#     4  12  22  45  75 110 160 206 258 326 405 473
#     4  12  25  45  79 114 155 208 263 329 397 486
#
# _framework density 25.444894000000001
#
# number of rings (size 3 to 8) (size 9 to 14) (size 15 to 20)
#    0.000    0.400    8.000    1.200    0.000    1.600 
#    0.000    3.000    0.000    0.000    0.000    0.000 
#    0.000    0.000    0.000    0.000    0.000    0.000 
#
# Total GULP energy -247818.187407 kJ/mol
# GULP energy per Si atom -12390.909370 kJ/mol
# Density = 2.538698 g / cm^3
# Si number density = 25.444894 Si / 1000 Ang^3
#
#
#
# Elastic Constant Matrix: (Units=GPa)
#
#
# Indices 1 2 3 4 5 6 
#
# 1 174.8568 26.4060 66.0200 0.0000 -2.7808 0.0000
# 2 26.4060 38.7934 3.8173 0.0000 -8.6031 0.0000
# 3 66.0200 3.8173 169.3656 0.0000 -0.2378 0.0000
# 4 0.0000 0.0000 0.0000 16.6782 0.0000 2.6049
# 5 -2.7808 -8.6031 -0.2378 0.0000 75.6323 0.0000
# 6 0.0000 0.0000 0.0000 2.6049 0.0000 44.5346
#
#
#
# Elastic Compliance Matrix: (Units=1/GPa)
#
#
# Indices 1 2 3 4 5 6 
#
# 1 0.007520 -0.004906 -0.002821 0.000000 -0.000290 0.000000
# 2 -0.004906 0.029704 0.001247 0.000000 0.003202 0.000000
# 3 -0.002821 0.001247 0.006976 0.000000 0.000060 0.000000
# 4 0.000000 0.000000 0.000000 0.060511 0.000000 -0.003539
# 5 -0.000290 0.003202 0.000060 0.000000 0.013576 0.000000
# 6 0.000000 0.000000 0.000000 -0.003539 0.000000 0.022661
#
#
# Mechanical properties :
#
#
# Convention : Reuss Voigt Hill
#
# Bulk Modulus (GPa) = 32.00900 63.94470 47.97685
# Shear Modulus (GPa) = 30.42788 46.48717 38.45753
#
# Velocity S-wave (km/s) = 3.46184 4.27895 3.89190
# Velocity P-wave (km/s) = 5.34660 7.04257 6.25235
#
# Compressibility (1/GPa) = 0.03124122
#
# Stress axis : x y z
#
# Youngs Moduli (GPa) = 132.97076 33.66510 143.34562
#
# Poissons Ratio (x) = 0.16515 0.40443
# Poissons Ratio (y) = 0.65233 -0.17880
# Poissons Ratio (z) = 0.37516 -0.04199
#
# Static dielectric constant tensor:
#      x y z
#    x 4.836450 0.000000 0.208650 
#    y 0.000000 4.173030 0.000000 
#    z 0.208650 0.000000 5.008920 
# 
# 
# High freq. dielectric constant tensor:
#      x y z
#    x 2.039460 0.000000 0.016380 
#    y 0.000000 1.979510 0.000000 
#    z 0.016380 0.000000 2.040220 
# 
# From -- ./inp_files/133305.got.cif
#   From: 2010.06.25/outbox.cif.g09.slc.cpg/sg15_67_cif.got.tgz:133305.got - 2010.06.28 07:06:18.
