data_PCOD8151025
_publ_section_title
;
Structure prediction by ZEFSAII (Michael W. Deem and Ramdas Pophale) SiO2 
 PCOD8151025
Probable space group: C 2/C
;
_chemical_formula_sum "Si O2"
_cell_formula_units_Z 48
_cell_length_a 20.633626
_cell_length_b 15.241103
_cell_length_c 8.734164
_cell_angle_alpha 90.000000
_cell_angle_beta 72.211808
_cell_angle_gamma 90.000000
_cell_volume 2615.399240
_symmetry_space_group_name_H-M "C 2/C"
_symmetry_group_IT_number 15
_symmetry_cell_setting 'monoclinic'
loop_
_space_group_symop_operation_xyz
x,y,z
-x,y,1/2-z
-x,-y,-z
x,-y,1/2+z
1/2+x,1/2+y,z
1/2-x,1/2+y,1/2-z
1/2-x,1/2-y,-z
1/2+x,1/2-y,1/2+z
loop_
_atom_site_type_symbol
_atom_site_label
_atom_site_fract_x
_atom_site_fract_y
_atom_site_fract_z
Si Si1 0.211057 0.036295 0.649782
Si Si2 0.579461 0.070865 0.681430
Si Si3 0.833902 0.720893 0.825393
Si Si4 0.694343 0.624661 0.969220
Si Si5 0.765595 0.823534 0.610160
Si Si6 0.159365 0.445666 0.828830
O O1 0.172482 0.082478 0.821220
O O2 0.202937 0.094505 0.503332
O O3 0.180449 0.942698 0.620075
O O4 0.289262 0.019951 0.642284
O O5 0.500000 0.054322 0.750000
O O6 0.599338 0.161854 0.754212
O O7 0.602608 0.083397 0.490387
O O8 0.618645 0.986670 0.717311
O O9 0.774079 0.651349 0.908678
O O10 0.818219 0.781056 0.690489
O O11 0.846871 0.786613 0.960747
O O12 0.750000 0.750000 0.500000
O O13 0.698795 0.857836 0.746832
#
# Coordination Sequence:
#
# PCOD8151025 Si02
#       6
#     8   8   8   8   8   8
#     4  12  18  32  53  82 113 140 171 226 298 344
#     4  12  25  39  55  77 115 164 198 222 262 334
#     4  11  20  34  51  78 110 146 185 232 284 325
#     4  11  19  31  52  79 112 139 175 231 293 340
#     4  12  21  31  56  84 115 144 178 240 293 337
#     4  12  20  39  55  81 118 148 190 231 277 341
#
# _framework density 18.352837000000001
#
# number of rings (size 3 to 8) (size 9 to 14) (size 15 to 20)
#    0.000    0.333   10.000    1.500    0.000    0.000 
#    0.000    0.000    0.000    0.000    0.000    4.667 
#    0.000    0.000    0.000    0.000    0.000    0.000 
#
# Total GULP energy -297451.702751 kJ/mol
# GULP energy per Si atom -12393.820948 kJ/mol
# Density = 1.831107 g / cm^3
# Si number density = 18.352837 Si / 1000 Ang^3
#
#
#
# Elastic Constant Matrix: (Units=GPa)
#
#
# Indices 1 2 3 4 5 6 
#
# 1 39.2668 14.6384 17.2306 0.0000 3.1854 0.0000
# 2 14.6384 91.4135 33.0667 0.0000 11.7325 0.0000
# 3 17.2306 33.0667 99.0084 0.0000 13.2340 0.0000
# 4 0.0000 0.0000 0.0000 49.8055 0.0000 9.5373
# 5 3.1854 11.7325 13.2340 0.0000 14.1735 0.0000
# 6 0.0000 0.0000 0.0000 9.5373 0.0000 17.4355
#
#
#
# Elastic Compliance Matrix: (Units=1/GPa)
#
#
# Indices 1 2 3 4 5 6 
#
# 1 0.028340 -0.003116 -0.003867 0.000000 -0.000179 0.000000
# 2 -0.003116 0.013490 -0.002930 0.000000 -0.007731 0.000000
# 3 -0.003867 -0.002930 0.012924 0.000000 -0.008773 0.000000
# 4 0.000000 0.000000 0.000000 0.022427 0.000000 -0.012268
# 5 -0.000179 -0.007731 -0.008773 0.000000 0.085186 0.000000
# 6 0.000000 0.000000 0.000000 -0.012268 0.000000 0.064065
#
#
# Mechanical properties :
#
#
# Convention : Reuss Voigt Hill
#
# Bulk Modulus (GPa) = 28.63051 39.95113 34.29082
# Shear Modulus (GPa) = 19.38718 27.26642 23.32680
#
# Velocity S-wave (km/s) = 3.25369 3.85863 3.56900
# Velocity P-wave (km/s) = 5.45429 6.45505 5.97566
#
# Compressibility (1/GPa) = 0.03492777
#
# Stress axis : x y z
#
# Youngs Moduli (GPa) = 35.28572 74.12698 77.37317
#
# Poissons Ratio (x) = 0.23100 0.29923
# Poissons Ratio (y) = 0.10996 0.22669
# Poissons Ratio (z) = 0.13646 0.21718
#
# Static dielectric constant tensor:
#      x y z
#    x 2.905210 0.000000 0.442490 
#    y 0.000000 3.937310 0.000000 
#    z 0.442490 0.000000 4.023000 
# 
# 
# High freq. dielectric constant tensor:
#      x y z
#    x 1.629710 0.000000 0.034580 
#    y 0.000000 1.739520 0.000000 
#    z 0.034580 0.000000 1.725130 
# 
# From -- ./inp_files/47930.got.cif
#   From: 2010.06.25/outbox.cif.g09.slc.cpg/sg15_24_cif.got.tgz:47930.got - 2010.06.28 07:06:18.
