data_PCOD8151435
_publ_section_title
;
Structure prediction by ZEFSAII (Michael W. Deem and Ramdas Pophale) SiO2 
 PCOD8151435
Probable space group: C 2/C
;
_chemical_formula_sum "Si O2"
_cell_formula_units_Z 48
_cell_length_a 16.705278
_cell_length_b 9.135989
_cell_length_c 19.787738
_cell_angle_alpha 90.000000
_cell_angle_beta 128.816030
_cell_angle_gamma 90.000000
_cell_volume 2353.062914
_symmetry_space_group_name_H-M "C 2/C"
_symmetry_group_IT_number 15
_symmetry_cell_setting 'monoclinic'
loop_
_space_group_symop_operation_xyz
x,y,z
-x,y,1/2-z
-x,-y,-z
x,-y,1/2+z
1/2+x,1/2+y,z
1/2-x,1/2+y,1/2-z
1/2-x,1/2-y,-z
1/2+x,1/2-y,1/2+z
loop_
_atom_site_type_symbol
_atom_site_label
_atom_site_fract_x
_atom_site_fract_y
_atom_site_fract_z
Si Si1 0.240388 0.819419 0.380847
Si Si2 0.736993 0.460506 0.519420
Si Si3 0.461981 0.632351 0.798189
Si Si4 0.468551 0.050871 0.158304
Si Si5 0.470759 0.421717 0.552639
Si Si6 0.556214 0.899805 0.083159
O O1 0.276901 0.668097 0.433050
O O2 0.208208 0.921753 0.426866
O O3 0.149894 0.800507 0.278042
O O4 0.328953 0.887288 0.382017
O O5 0.855016 0.515051 0.583466
O O6 0.651838 0.578891 0.496929
O O7 0.500000 0.553708 0.750000
O O8 0.463771 0.510734 0.856748
O O9 0.535323 0.772362 0.854752
O O10 0.500000 0.007610 0.250000
O O11 0.552646 0.981223 0.153248
O O12 0.500000 0.500000 0.500000
O O13 0.502693 0.255088 0.565097
O O14 0.500000 0.000000 0.000000
#
# Coordination Sequence:
#
# PCOD8151435 Si02
#       6
#     8   8   8   8   8   8
#     4  11  21  40  74  96 131 177 224 268 341 407
#     4  11  20  41  72  97 125 183 221 265 339 411
#     4  11  21  41  71 101 127 176 226 275 331 411
#     4  11  23  43  69  98 135 173 218 275 348 403
#     4  12  25  41  69 102 131 171 231 283 327 402
#     4  12  26  44  64 100 138 176 222 289 338 390
#
# _framework density 20.398945000000001
#
# number of rings (size 3 to 8) (size 9 to 14) (size 15 to 20)
#    0.000    0.667    8.333    2.000    0.000    4.000 
#    0.000    0.000    0.000    0.000    0.000    0.000 
#    0.000    0.000    0.000    0.000    0.000    0.000 
#
# Total GULP energy -297520.902018 kJ/mol
# GULP energy per Si atom -12396.704251 kJ/mol
# Density = 2.035252 g / cm^3
# Si number density = 20.398945 Si / 1000 Ang^3
#
#
#
# Elastic Constant Matrix: (Units=GPa)
#
#
# Indices 1 2 3 4 5 6 
#
# 1 131.7375 40.1278 44.9222 0.0000 -12.8411 0.0000
# 2 40.1278 91.3773 44.7578 0.0000 -20.4488 0.0000
# 3 44.9222 44.7578 115.8350 0.0000 -7.8775 0.0000
# 4 0.0000 0.0000 0.0000 25.8910 0.0000 -5.9558
# 5 -12.8411 -20.4488 -7.8775 0.0000 46.6430 0.0000
# 6 0.0000 0.0000 0.0000 -5.9558 0.0000 40.0751
#
#
#
# Elastic Compliance Matrix: (Units=1/GPa)
#
#
# Indices 1 2 3 4 5 6 
#
# 1 0.009359 -0.002644 -0.002541 0.000000 0.000988 0.000000
# 2 -0.002644 0.015559 -0.004625 0.000000 0.005312 0.000000
# 3 -0.002541 -0.004625 0.011350 0.000000 -0.000810 0.000000
# 4 0.000000 0.000000 0.000000 0.039991 0.000000 0.005943
# 5 0.000988 0.005312 -0.000810 0.000000 0.023904 0.000000
# 6 0.000000 0.000000 0.000000 0.005943 0.000000 0.025836
#
#
# Mechanical properties :
#
#
# Convention : Reuss Voigt Hill
#
# Bulk Modulus (GPa) = 60.06665 66.50727 63.28696
# Shear Modulus (GPa) = 33.07565 36.46461 34.77013
#
# Velocity S-wave (km/s) = 4.03108 4.23256 4.13305
# Velocity P-wave (km/s) = 7.15374 7.52065 7.33949
#
# Compressibility (1/GPa) = 0.01664817
#
# Stress axis : x y z
#
# Youngs Moduli (GPa) = 106.84908 64.27091 88.10380
#
# Poissons Ratio (x) = 0.16996 0.22383
# Poissons Ratio (y) = 0.28255 0.40749
# Poissons Ratio (z) = 0.27146 0.29726
#
# Static dielectric constant tensor:
#      x y z
#    x 3.286650 0.000000 -0.267040 
#    y 0.000000 2.853920 0.000000 
#    z -0.267040 0.000000 3.667460 
# 
# 
# High freq. dielectric constant tensor:
#      x y z
#    x 1.819120 0.000000 -0.001720 
#    y 0.000000 1.767020 0.000000 
#    z -0.001720 0.000000 1.804810 
# 
# From -- ./inp_files/247657.got.cif
#   From: 2010.06.25/outbox.cif.g09.slc.cpg/sg15_124_cif.got.tgz:247657.got - 2010.06.28 07:06:18.
