data_PCOD8151185
_publ_section_title
;
Structure prediction by ZEFSAII (Michael W. Deem and Ramdas Pophale) SiO2 
 PCOD8151185
Probable space group: C 2/C
;
_chemical_formula_sum "Si O2"
_cell_formula_units_Z 52
_cell_length_a 10.476371
_cell_length_b 18.638812
_cell_length_c 23.591254
_cell_angle_alpha 90.000000
_cell_angle_beta 144.363752
_cell_angle_gamma 90.000000
_cell_volume 2683.974456
_symmetry_space_group_name_H-M "C 2/C"
_symmetry_group_IT_number 15
_symmetry_cell_setting 'monoclinic'
loop_
_space_group_symop_operation_xyz
x,y,z
-x,y,1/2-z
-x,-y,-z
x,-y,1/2+z
1/2+x,1/2+y,z
1/2-x,1/2+y,1/2-z
1/2-x,1/2-y,-z
1/2+x,1/2-y,1/2+z
loop_
_atom_site_type_symbol
_atom_site_label
_atom_site_fract_x
_atom_site_fract_y
_atom_site_fract_z
Si Si1 0.308779 0.575699 0.227733
Si Si2 0.311762 0.416923 0.225375
Si Si3 0.500000 0.208191 0.750000
Si Si4 0.996538 0.802805 0.636908
Si Si5 0.509474 0.185551 0.553805
Si Si6 0.446668 0.677959 0.876394
Si Si7 0.574293 0.831386 0.947284
O O1 0.500000 0.582669 0.250000
O O2 0.260935 0.495356 0.233425
O O3 0.364934 0.624545 0.302877
O O4 0.082165 0.600848 0.116807
O O5 0.500000 0.434247 0.250000
O O6 0.101475 0.385017 0.117941
O O7 0.405691 0.359713 0.302505
O O8 0.515029 0.255066 0.699562
O O9 0.727906 0.162214 0.835874
O O10 0.748546 0.825307 0.536516
O O11 0.084058 0.757781 0.614418
O O12 0.596028 0.191358 0.521104
O O13 0.471862 0.763934 0.876423
O O14 0.678747 0.650022 0.986024
#
# Coordination Sequence:
#
# PCOD8151185 Si02
#       7
#     8   8   4   8   8   8   8
#     4  11  20  37  57  84 121 157 182 232 291 351
#     4  11  23  34  56  87 122 149 185 233 295 340
#     4  12  18  38  62  80 110 152 192 238 286 340
#     4  11  20  34  61  86 112 151 192 235 285 333
#     4  11  20  34  56  92 111 142 194 242 275 336
#     4  11  22  37  58  86 111 155 188 243 282 340
#     4  11  21  36  60  86 119 144 193 240 289 329
#
# _framework density 19.374251999999998
#
# number of rings (size 3 to 8) (size 9 to 14) (size 15 to 20)
#    0.000    0.923    8.462    0.000    0.000    1.846 
#    0.000    0.000    0.000    5.538    0.000    0.000 
#    0.000    0.000    0.000    0.000    0.000    0.000 
#
# Total GULP energy -322215.162145 kJ/mol
# GULP energy per Si atom -12392.890852 kJ/mol
# Density = 1.933016 g / cm^3
# Si number density = 19.374252 Si / 1000 Ang^3
#
#
#
# Elastic Constant Matrix: (Units=GPa)
#
#
# Indices 1 2 3 4 5 6 
#
# 1 55.2421 41.9392 46.0201 -0.0003 11.9419 -0.0002
# 2 41.9392 120.6150 64.6668 -0.0002 -9.4219 -0.0001
# 3 46.0201 64.6668 126.7659 -0.0007 17.3507 -0.0009
# 4 -0.0003 -0.0002 -0.0007 23.8219 -0.0005 1.2531
# 5 11.9419 -9.4219 17.3507 -0.0005 45.1473 -0.0004
# 6 -0.0002 -0.0001 -0.0009 1.2531 -0.0004 19.4989
#
#
#
# Elastic Compliance Matrix: (Units=1/GPa)
#
#
# Indices 1 2 3 4 5 6 
#
# 1 0.030929 -0.008088 -0.006071 0.000000 -0.007536 0.000000
# 2 -0.008088 0.014643 -0.005536 0.000000 0.007323 0.000000
# 3 -0.006071 -0.005536 0.013569 0.000000 -0.004764 0.000000
# 4 0.000000 0.000000 0.000000 0.042121 0.000000 -0.002707
# 5 -0.007536 0.007323 -0.004764 0.000000 0.027502 0.000000
# 6 0.000000 0.000000 0.000000 -0.002707 0.000000 0.051459
#
#
# Mechanical properties :
#
#
# Convention : Reuss Voigt Hill
#
# Bulk Modulus (GPa) = 50.63037 67.54168 59.08603
# Shear Modulus (GPa) = 22.10471 27.69341 24.89906
#
# Velocity S-wave (km/s) = 3.38143 3.78483 3.58881
# Velocity P-wave (km/s) = 6.43700 7.35100 6.90913
#
# Compressibility (1/GPa) = 0.01975099
#
# Stress axis : x y z
#
# Youngs Moduli (GPa) = 32.33204 68.29053 73.69984
#
# Poissons Ratio (x) = 0.55235 0.44741
# Poissons Ratio (y) = 0.26151 0.40800
# Poissons Ratio (z) = 0.19628 0.37805
#
# Static dielectric constant tensor:
#      x y z
#    x 3.554070 0.000000 0.228490 
#    y 0.000000 3.579870 0.000000 
#    z 0.228490 0.000000 3.921160 
# 
# 
# High freq. dielectric constant tensor:
#      x y z
#    x 1.723200 0.000000 0.014430 
#    y 0.000000 1.733240 0.000000 
#    z 0.014430 0.000000 1.778570 
# 
# From -- ./inp_files/182847.got.cif
#   From: 2010.06.25/outbox.cif.g09.slc.cpg/sg15_92_cif.got.tgz:182847.got - 2010.06.28 07:06:18.
