data_PCOD8151155
_publ_section_title
;
Structure prediction by ZEFSAII (Michael W. Deem and Ramdas Pophale) SiO2 
 PCOD8151155
Probable space group: C 2/C
;
_chemical_formula_sum "Si O2"
_cell_formula_units_Z 64
_cell_length_a 22.799428
_cell_length_b 20.284109
_cell_length_c 12.418416
_cell_angle_alpha 90.000000
_cell_angle_beta 36.618513
_cell_angle_gamma 90.000000
_cell_volume 3425.666398
_symmetry_space_group_name_H-M "C 2/C"
_symmetry_group_IT_number 15
_symmetry_cell_setting 'monoclinic'
loop_
_space_group_symop_operation_xyz
x,y,z
-x,y,1/2-z
-x,-y,-z
x,-y,1/2+z
1/2+x,1/2+y,z
1/2-x,1/2+y,1/2-z
1/2-x,1/2-y,-z
1/2+x,1/2-y,1/2+z
loop_
_atom_site_type_symbol
_atom_site_label
_atom_site_fract_x
_atom_site_fract_y
_atom_site_fract_z
Si Si1 0.226256 0.050182 0.083682
Si Si2 0.697149 0.599278 0.696878
Si Si3 0.442317 0.042345 0.730409
Si Si4 0.606884 0.168178 0.142096
Si Si5 0.195963 0.079994 0.358411
Si Si6 0.393106 0.322334 0.362370
Si Si7 0.597423 0.082875 0.353288
Si Si8 0.609557 0.553350 0.049051
O O1 0.178026 0.086568 0.257130
O O2 0.177207 0.076652 0.047711
O O3 0.214736 0.971179 0.114051
O O4 0.338494 0.074069 0.912918
O O5 0.804899 0.632555 0.554062
O O6 0.627364 0.643185 0.722669
O O7 0.642109 0.592320 0.892897
O O8 0.500000 0.020360 0.750000
O O9 0.506330 0.095247 0.568320
O O10 0.428157 0.975687 0.687761
O O11 0.500000 0.150895 0.250000
O O12 0.627223 0.245415 0.113926
O O13 0.613545 0.147593 0.257563
O O14 0.180008 0.149389 0.439711
O O15 0.308288 0.059563 0.216771
O O16 0.121563 0.024726 0.513067
O O17 0.500000 0.339183 0.250000
O O18 0.500000 0.569431 0.250000
#
# Coordination Sequence:
#
# PCOD8151155 Si02
#       8
#     8   8   8   8   8   8   8   8
#     4  11  22  36  56  90 121 153 189 233 295 354
#     4  11  23  38  61  86 119 151 194 237 292 341
#     4  11  20  32  53  85 125 154 179 232 295 349
#     4  11  23  38  60  88 113 150 196 238 289 341
#     4  11  21  36  58  85 118 152 190 237 293 338
#     4  11  23  40  61  85 112 148 196 246 288 331
#     4  11  21  32  56  85 121 156 187 231 291 349
#     4  11  24  38  57  86 118 155 193 236 289 349
#
# _framework density 18.682497000000001
#
# number of rings (size 3 to 8) (size 9 to 14) (size 15 to 20)
#    0.000    1.000    6.250    1.125    3.500    1.000 
#    0.000    0.000    0.000    3.000    0.000    0.000 
#    0.000    0.000    0.000    0.000    0.000    0.000 
#
# Total GULP energy -396726.098579 kJ/mol
# GULP energy per Si atom -12397.690581 kJ/mol
# Density = 1.863997 g / cm^3
# Si number density = 18.682497 Si / 1000 Ang^3
#
#
#
# Elastic Constant Matrix: (Units=GPa)
#
#
# Indices 1 2 3 4 5 6 
#
# 1 113.7547 28.6387 53.0213 0.0000 2.0242 0.0000
# 2 28.6387 75.2744 40.4758 0.0000 7.9148 0.0000
# 3 53.0213 40.4758 139.1449 0.0000 3.3507 0.0000
# 4 0.0000 0.0000 0.0000 23.8932 0.0000 3.9532
# 5 2.0242 7.9148 3.3507 0.0000 37.7858 0.0000
# 6 0.0000 0.0000 0.0000 3.9532 0.0000 24.1221
#
#
#
# Elastic Compliance Matrix: (Units=1/GPa)
#
#
# Indices 1 2 3 4 5 6 
#
# 1 0.011015 -0.002315 -0.003529 0.000000 0.000208 0.000000
# 2 -0.002315 0.016558 -0.003862 0.000000 -0.003002 0.000000
# 3 -0.003529 -0.003862 0.009651 0.000000 0.000142 0.000000
# 4 0.000000 0.000000 0.000000 0.043019 0.000000 -0.007050
# 5 0.000208 -0.003002 0.000142 0.000000 0.027070 0.000000
# 6 0.000000 0.000000 0.000000 -0.007050 0.000000 0.042611
#
#
# Mechanical properties :
#
#
# Convention : Reuss Voigt Hill
#
# Bulk Modulus (GPa) = 56.14121 63.60505 59.87313
# Shear Modulus (GPa) = 28.52684 30.89611 29.71148
#
# Velocity S-wave (km/s) = 3.91183 4.07104 3.99223
# Velocity P-wave (km/s) = 7.10765 7.49780 7.30533
#
# Compressibility (1/GPa) = 0.01781223
#
# Stress axis : x y z
#
# Youngs Moduli (GPa) = 90.78743 60.39455 103.61194
#
# Poissons Ratio (x) = 0.13982 0.36562
# Poissons Ratio (y) = 0.21018 0.40016
# Poissons Ratio (z) = 0.32037 0.23325
#
# Static dielectric constant tensor:
#      x y z
#    x 3.724340 0.000000 -0.010720 
#    y 0.000000 3.110130 0.000000 
#    z -0.010720 0.000000 3.771480 
# 
# 
# High freq. dielectric constant tensor:
#      x y z
#    x 1.745250 0.000000 -0.003580 
#    y 0.000000 1.680850 0.000000 
#    z -0.003580 0.000000 1.737220 
# 
# From -- ./inp_files/114254.got.cif
#   From: 2010.06.25/outbox.cif.g09.slc.cpg/sg15_58_cif.got.tgz:114254.got - 2010.06.28 07:06:18.
