data_PCOD8151300
_publ_section_title
;
Structure prediction by ZEFSAII (Michael W. Deem and Ramdas Pophale) SiO2 
 PCOD8151300
Probable space group: C 2/C
;
_chemical_formula_sum "Si O2"
_cell_formula_units_Z 48
_cell_length_a 13.910928
_cell_length_b 26.183198
_cell_length_c 9.144907
_cell_angle_alpha 90.000000
_cell_angle_beta 137.597772
_cell_angle_gamma 90.000000
_cell_volume 2246.111324
_symmetry_space_group_name_H-M "C 2/C"
_symmetry_group_IT_number 15
_symmetry_cell_setting 'monoclinic'
loop_
_space_group_symop_operation_xyz
x,y,z
-x,y,1/2-z
-x,-y,-z
x,-y,1/2+z
1/2+x,1/2+y,z
1/2-x,1/2+y,1/2-z
1/2-x,1/2-y,-z
1/2+x,1/2-y,1/2+z
loop_
_atom_site_type_symbol
_atom_site_label
_atom_site_fract_x
_atom_site_fract_y
_atom_site_fract_z
Si Si1 0.289183 0.065694 0.412574
Si Si2 0.655383 0.045491 0.472867
Si Si3 0.278472 0.281441 0.885201
Si Si4 0.018943 0.279092 0.105397
Si Si5 0.858176 0.894767 0.006436
Si Si6 0.597563 0.106834 0.679095
O O1 0.438939 0.085126 0.515253
O O2 0.289610 0.082141 0.582087
O O3 0.270020 0.004635 0.376581
O O4 0.152636 0.092566 0.179435
O O5 0.500000 0.026936 0.250000
O O6 0.733401 0.068209 0.421126
O O7 0.655214 0.092459 0.585186
O O8 0.395454 0.258242 0.906337
O O9 0.135188 0.288954 0.634463
O O10 0.250000 0.250000 0.000000
O O11 0.334230 0.335292 0.007125
O O12 0.102655 0.332438 0.207206
O O13 0.000000 0.256978 0.250000
O O14 0.000000 0.911977 0.250000
#
# Coordination Sequence:
#
# PCOD8151300 Si02
#       6
#     8   8   8   8   8   8
#     4  11  21  39  65  95 130 159 213 266 317 370
#     4  12  21  37  69  98 120 171 218 261 318 377
#     4  12  25  44  66  95 129 175 220 270 328 384
#     4  12  23  42  67  96 130 170 217 274 328 387
#     4  12  26  44  60  91 137 169 209 266 322 389
#     4  11  20  38  65 100 125 157 217 278 311 370
#
# _framework density 21.370267999999999
#
# number of rings (size 3 to 8) (size 9 to 14) (size 15 to 20)
#    0.000    0.333    6.667    4.500    0.000    0.667 
#    0.000    0.833    0.000    0.000    0.000    0.000 
#    0.000    0.000    0.000    0.000    0.000    0.000 
#
# Total GULP energy -297589.118817 kJ/mol
# GULP energy per Si atom -12399.546617 kJ/mol
# Density = 2.132163 g / cm^3
# Si number density = 21.370268 Si / 1000 Ang^3
#
#
#
# Elastic Constant Matrix: (Units=GPa)
#
#
# Indices 1 2 3 4 5 6 
#
# 1 61.7376 27.9387 22.6869 0.0000 -9.3463 0.0000
# 2 27.9387 121.0269 18.9530 0.0000 1.9783 0.0000
# 3 22.6869 18.9530 149.2004 0.0000 -9.3869 0.0000
# 4 0.0000 0.0000 0.0000 28.3896 0.0000 -5.6333
# 5 -9.3463 1.9783 -9.3869 0.0000 29.0530 0.0000
# 6 0.0000 0.0000 0.0000 -5.6333 0.0000 7.9587
#
#
#
# Elastic Compliance Matrix: (Units=1/GPa)
#
#
# Indices 1 2 3 4 5 6 
#
# 1 0.019843 -0.004352 -0.002087 0.000000 0.006006 0.000000
# 2 -0.004352 0.009410 -0.000676 0.000000 -0.002259 0.000000
# 3 -0.002087 -0.000676 0.007213 0.000000 0.001705 0.000000
# 4 0.000000 0.000000 0.000000 0.040980 0.000000 0.029006
# 5 0.006006 -0.002259 0.001705 0.000000 0.037057 0.000000
# 6 0.000000 0.000000 0.000000 0.029006 0.000000 0.146180
#
#
# Mechanical properties :
#
#
# Convention : Reuss Voigt Hill
#
# Bulk Modulus (GPa) = 44.97001 52.34690 48.65846
# Shear Modulus (GPa) = 17.71018 30.57268 24.14143
#
# Velocity S-wave (km/s) = 2.88189 3.78645 3.36471
# Velocity P-wave (km/s) = 5.67121 6.60793 6.15741
#
# Compressibility (1/GPa) = 0.02223704
#
# Stress axis : x y z
#
# Youngs Moduli (GPa) = 50.39557 106.26943 138.64262
#
# Poissons Ratio (x) = 0.46250 0.28929
# Poissons Ratio (y) = 0.21933 0.09369
# Poissons Ratio (z) = 0.10515 0.07181
#
# Static dielectric constant tensor:
#      x y z
#    x 3.735520 0.000000 -0.259570 
#    y 0.000000 3.874520 0.000000 
#    z -0.259570 0.000000 4.016010 
# 
# 
# High freq. dielectric constant tensor:
#      x y z
#    x 1.814200 0.000000 -0.027570 
#    y 0.000000 1.846870 0.000000 
#    z -0.027570 0.000000 1.851760 
# 
# From -- ./inp_files/43941.got.cif
#   From: 2010.06.25/outbox.cif.g09.slc.cpg/sg15_22_cif.got.tgz:43941.got - 2010.06.28 07:06:18.
