data_PCOD8151865
_publ_section_title
;
Structure prediction by ZEFSAII (Michael W. Deem and Ramdas Pophale) SiO2 
 PCOD8151865
Probable space group: C 2/C
;
_chemical_formula_sum "Si O2"
_cell_formula_units_Z 64
_cell_length_a 17.264955
_cell_length_b 11.154150
_cell_length_c 29.818290
_cell_angle_alpha 90.000000
_cell_angle_beta 149.148439
_cell_angle_gamma 90.000000
_cell_volume 2944.733047
_symmetry_space_group_name_H-M "C 2/C"
_symmetry_group_IT_number 15
_symmetry_cell_setting 'monoclinic'
loop_
_space_group_symop_operation_xyz
x,y,z
-x,y,1/2-z
-x,-y,-z
x,-y,1/2+z
1/2+x,1/2+y,z
1/2-x,1/2+y,1/2-z
1/2-x,1/2-y,-z
1/2+x,1/2-y,1/2+z
loop_
_atom_site_type_symbol
_atom_site_label
_atom_site_fract_x
_atom_site_fract_y
_atom_site_fract_z
Si Si1 0.832557 0.027981 0.006887
Si Si2 0.071424 0.598079 0.067390
Si Si3 0.477006 0.908386 0.621476
Si Si4 0.302833 0.685388 0.911315
Si Si5 0.386204 0.294371 0.607874
Si Si6 0.596907 0.483295 0.755844
Si Si7 0.639465 0.114762 0.743366
Si Si8 0.426472 0.648267 0.832176
O O1 0.860277 0.071329 0.969267
O O2 0.683499 0.949760 0.939421
O O3 0.809494 0.153407 0.023916
O O4 0.974429 0.948171 0.091284
O O5 0.060022 0.738314 0.044489
O O6 0.249978 0.581275 0.155471
O O7 0.991869 0.576328 0.075329
O O8 0.000000 0.500000 0.000000
O O9 0.482768 0.767743 0.634059
O O10 0.615063 0.976178 0.716089
O O11 0.176558 0.631573 0.814407
O O12 0.227225 0.781330 0.907222
O O13 0.506505 0.394651 0.679538
O O14 0.480552 0.172053 0.648561
O O15 0.500000 0.523576 0.750000
O O16 0.630191 0.601470 0.743843
O O17 0.778216 0.178106 0.787100
#
# Coordination Sequence:
#
# PCOD8151865 Si02
#       8
#     8   8   8   8   8   8   8   8
#     4  11  27  42  74 100 141 183 233 284 363 421
#     4  12  25  40  67 104 139 171 225 293 353 407
#     4  12  25  48  66  97 141 187 224 286 353 424
#     4  12  23  44  69 107 136 172 235 302 337 415
#     4  11  21  41  73 102 129 170 227 295 343 404
#     4  11  21  42  67  94 130 175 226 277 340 416
#     4  12  24  42  73  97 135 178 236 283 354 409
#     4  11  26  47  66  95 140 187 223 282 357 428
#
# _framework density 21.733719000000001
#
# number of rings (size 3 to 8) (size 9 to 14) (size 15 to 20)
#    0.000    0.500    6.250    1.875    5.250    0.500 
#    2.250    0.000    0.000    0.000    0.000    0.000 
#    0.000    0.000    0.000    0.000    0.000    0.000 
#
# Total GULP energy -396751.299355 kJ/mol
# GULP energy per Si atom -12398.478105 kJ/mol
# Density = 2.168425 g / cm^3
# Si number density = 21.733719 Si / 1000 Ang^3
#
#
#
# Elastic Constant Matrix: (Units=GPa)
#
#
# Indices 1 2 3 4 5 6 
#
# 1 86.1907 20.0776 25.2700 0.0000 -17.8786 0.0000
# 2 20.0776 104.9030 23.2014 0.0000 -21.6897 0.0000
# 3 25.2700 23.2014 47.8465 0.0009 -15.8862 0.0001
# 4 0.0000 0.0000 0.0009 15.7956 0.0002 1.8830
# 5 -17.8786 -21.6897 -15.8862 0.0002 33.2037 0.0000
# 6 0.0000 0.0000 0.0001 1.8830 0.0000 41.4389
#
#
#
# Elastic Compliance Matrix: (Units=1/GPa)
#
#
# Indices 1 2 3 4 5 6 
#
# 1 0.014386 -0.000510 -0.005813 0.000000 0.004632 0.000000
# 2 -0.000510 0.011559 -0.003471 0.000000 0.005615 0.000000
# 3 -0.005813 -0.003471 0.028368 -0.000002 0.008175 0.000000
# 4 0.000000 0.000000 -0.000002 0.063654 -0.000001 -0.002892
# 5 0.004632 0.005615 0.008175 -0.000001 0.040190 0.000000
# 6 0.000000 0.000000 0.000000 -0.002892 0.000000 0.024263
#
#
# Mechanical properties :
#
#
# Convention : Reuss Voigt Hill
#
# Bulk Modulus (GPa) = 28.79808 41.78202 35.29005
# Shear Modulus (GPa) = 23.41008 29.44705 26.42856
#
# Velocity S-wave (km/s) = 3.28553 3.68489 3.49093
# Velocity P-wave (km/s) = 5.26043 6.11317 5.70276
#
# Compressibility (1/GPa) = 0.03472454
#
# Stress axis : x y z
#
# Youngs Moduli (GPa) = 69.51199 86.51272 35.25129
#
# Poissons Ratio (x) = 0.04413 0.20491
# Poissons Ratio (y) = 0.03546 0.12237
# Poissons Ratio (z) = 0.40405 0.30031
#
# Static dielectric constant tensor:
#      x y z
#    x 3.882900 0.000000 -0.116080 
#    y 0.000000 4.047130 0.000000 
#    z -0.116080 0.000000 3.906130 
# 
# 
# High freq. dielectric constant tensor:
#      x y z
#    x 1.855230 0.000000 -0.008710 
#    y 0.000000 1.861740 0.000000 
#    z -0.008710 0.000000 1.855980 
# 
# From -- ./inp_files/296180.got.cif
#   From: 2010.06.25/outbox.cif.g09.slc.cpg/sg15_149_cif.got.tgz:296180.got - 2010.06.28 07:06:18.
