data_PCOD8151817
_publ_section_title
;
Structure prediction by ZEFSAII (Michael W. Deem and Ramdas Pophale) SiO2 
 PCOD8151817
Probable space group: C 2/C
;
_chemical_formula_sum "Si O2"
_cell_formula_units_Z 40
_cell_length_a 12.653530
_cell_length_b 12.517148
_cell_length_c 21.720168
_cell_angle_alpha 90.000000
_cell_angle_beta 31.044207
_cell_angle_gamma 90.000000
_cell_volume 1774.094656
_symmetry_space_group_name_H-M "C 2/C"
_symmetry_group_IT_number 15
_symmetry_cell_setting 'monoclinic'
loop_
_space_group_symop_operation_xyz
x,y,z
-x,y,1/2-z
-x,-y,-z
x,-y,1/2+z
1/2+x,1/2+y,z
1/2-x,1/2+y,1/2-z
1/2-x,1/2-y,-z
1/2+x,1/2-y,1/2+z
loop_
_atom_site_type_symbol
_atom_site_label
_atom_site_fract_x
_atom_site_fract_y
_atom_site_fract_z
Si Si1 0.737199 0.572415 0.127526
Si Si2 0.291611 0.881914 0.188701
Si Si3 0.834875 0.430068 0.436771
Si Si4 0.934925 0.222795 0.514428
Si Si5 0.873226 0.147927 0.961919
O O1 0.500000 0.554983 0.250000
O O2 0.839297 0.472140 0.112138
O O3 0.814100 0.686565 0.115254
O O4 0.789854 0.593535 0.030280
O O5 0.417332 0.911412 0.189237
O O6 0.050271 0.877536 0.323504
O O7 0.376413 0.769601 0.120325
O O8 0.714491 0.348914 0.453014
O O9 0.786181 0.552641 0.450023
O O10 0.034230 0.151013 0.516800
O O11 0.750000 0.250000 0.000000
#
# Coordination Sequence:
#
# PCOD8151817 Si02
#       5
#     8   8   8   8   8
#     4  11  21  40  72  95 132 178 239 279 344 420
#     4  11  24  44  71  98 137 184 234 289 345 418
#     4  11  24  45  63 104 138 179 235 286 350 423
#     4  11  26  41  69 104 141 182 233 292 353 412
#     4  12  26  44  71 103 142 184 237 283 354 419
#
# _framework density 22.546710999999998
#
# number of rings (size 3 to 8) (size 9 to 14) (size 15 to 20)
#    0.000    0.800    2.000    7.800    5.600    1.600 
#    0.000    2.000    0.000    0.000    0.000    0.000 
#    0.000    0.000    0.000    0.000    0.000    0.000 
#
# Total GULP energy -247847.570099 kJ/mol
# GULP energy per Si atom -12392.378505 kJ/mol
# Density = 2.249539 g / cm^3
# Si number density = 22.546711 Si / 1000 Ang^3
#
#
#
# Elastic Constant Matrix: (Units=GPa)
#
#
# Indices 1 2 3 4 5 6 
#
# 1 99.4863 23.9085 32.9293 0.0022 -0.1482 -0.0006
# 2 23.9085 120.9796 30.2966 -0.0002 -2.8625 -0.0008
# 3 32.9293 30.2966 58.8046 -0.0077 -6.8739 -0.0016
# 4 0.0022 -0.0002 -0.0077 29.9099 -0.0024 -0.3684
# 5 -0.1482 -2.8625 -6.8739 -0.0024 24.7478 0.0013
# 6 -0.0006 -0.0008 -0.0016 -0.3684 0.0013 65.2413
#
#
#
# Elastic Compliance Matrix: (Units=1/GPa)
#
#
# Indices 1 2 3 4 5 6 
#
# 1 0.012495 -0.000811 -0.006802 -0.000003 -0.001908 0.000000
# 2 -0.000811 0.009545 -0.004480 -0.000001 -0.000145 0.000000
# 3 -0.006802 -0.004480 0.023831 0.000007 0.006060 0.000000
# 4 -0.000003 -0.000001 0.000007 0.033436 0.000005 0.000189
# 5 -0.001908 -0.000145 0.006060 0.000005 0.042063 -0.000001
# 6 0.000000 0.000000 0.000000 0.000189 -0.000001 0.015329
#
#
# Mechanical properties :
#
#
# Convention : Reuss Voigt Hill
#
# Bulk Modulus (GPa) = 46.11704 50.39325 48.25514
# Shear Modulus (GPa) = 29.74172 36.78888 33.26530
#
# Velocity S-wave (km/s) = 3.63590 4.04378 3.84525
# Velocity P-wave (km/s) = 6.17453 6.64846 6.41587
#
# Compressibility (1/GPa) = 0.02168396
#
# Stress axis : x y z
#
# Youngs Moduli (GPa) = 80.03072 104.77024 41.96159
#
# Poissons Ratio (x) = 0.08497 0.28543
# Poissons Ratio (y) = 0.06491 0.18800
# Poissons Ratio (z) = 0.54439 0.46940
#
# Static dielectric constant tensor:
#      x y z
#    x 0.000000 0.000000 0.000000 
#    y 0.000000 0.000000 0.000000 
#    z 0.000000 0.000000 0.000000 
# 
# 
# High freq. dielectric constant tensor:
#      x y z
#    x 1.910560 0.000000 -0.021260 
#    y 0.000000 1.898320 0.000000 
#    z -0.021260 0.000000 1.876400 
# 
# From -- ./inp_files/141708.got.cif
#   From: 2010.06.25/outbox.cif.g09.slc.cpg/sg15_71_cif.got.tgz:141708.got - 2010.06.28 07:06:18.
