data_PCOD8151800
_publ_section_title
;
Structure prediction by ZEFSAII (Michael W. Deem and Ramdas Pophale) SiO2 
 PCOD8151800
Probable space group: C 2/C
;
_chemical_formula_sum "Si O2"
_cell_formula_units_Z 60
_cell_length_a 20.425549
_cell_length_b 17.868939
_cell_length_c 11.957631
_cell_angle_alpha 90.000000
_cell_angle_beta 42.157892
_cell_angle_gamma 90.000000
_cell_volume 2929.233912
_symmetry_space_group_name_H-M "C 2/C"
_symmetry_group_IT_number 15
_symmetry_cell_setting 'monoclinic'
loop_
_space_group_symop_operation_xyz
x,y,z
-x,y,1/2-z
-x,-y,-z
x,-y,1/2+z
1/2+x,1/2+y,z
1/2-x,1/2+y,1/2-z
1/2-x,1/2-y,-z
1/2+x,1/2-y,1/2+z
loop_
_atom_site_type_symbol
_atom_site_label
_atom_site_fract_x
_atom_site_fract_y
_atom_site_fract_z
Si Si1 0.500000 0.660429 0.250000
Si Si2 0.262346 0.154657 0.202778
Si Si3 0.540162 0.230543 0.510685
Si Si4 0.699033 0.406859 0.551449
Si Si5 0.587882 0.302063 0.217290
Si Si6 0.614743 0.850980 0.590122
Si Si7 0.832743 0.685327 0.716409
Si Si8 0.770354 0.921832 0.527103
O O1 0.444663 0.710658 0.410269
O O2 0.415861 0.611824 0.297741
O O3 0.376694 0.167788 0.082425
O O4 0.247967 0.105565 0.109917
O O5 0.205837 0.232469 0.263544
O O6 0.218973 0.107268 0.360064
O O7 0.545672 0.276016 0.388770
O O8 0.434691 0.191318 0.654071
O O9 0.754696 0.356483 0.390938
O O10 0.703572 0.492053 0.508358
O O11 0.500000 0.328235 0.250000
O O12 0.646014 0.232592 0.088323
O O13 0.658862 0.372740 0.142431
O O14 0.500000 0.860713 0.750000
O O15 0.649000 0.862425 0.419239
O O16 0.662895 0.911840 0.610846
#
# Coordination Sequence:
#
# PCOD8151800 Si02
#       8
#     4   8   8   8   8   8   8   8
#     4  12  26  46  66  98 138 178 222 280 338 404
#     4  12  23  45  69  99 132 179 236 270 329 406
#     4  12  22  41  76  98 127 174 241 289 321 382
#     4  12  30  44  66 101 141 182 215 274 347 411
#     4  11  21  40  69 108 127 172 232 283 333 385
#     4  11  21  42  69 102 135 171 234 280 323 390
#     4  12  22  44  72 102 133 176 235 277 325 401
#     4  12  26  43  67 102 143 180 216 279 350 400
#
# _framework density 20.483172
#
# number of rings (size 3 to 8) (size 9 to 14) (size 15 to 20)
#    0.000    0.267    8.000    2.400    2.800    0.000 
#    2.400    2.667    0.000    0.000    0.000    0.000 
#    0.000    0.000    0.000    0.000    0.000    0.000 
#
# Total GULP energy -372140.991870 kJ/mol
# GULP energy per Si atom -12404.699729 kJ/mol
# Density = 2.043655 g / cm^3
# Si number density = 20.483172 Si / 1000 Ang^3
#
#
#
# Elastic Constant Matrix: (Units=GPa)
#
#
# Indices 1 2 3 4 5 6 
#
# 1 105.9265 27.0540 33.5725 0.0000 -0.1378 0.0000
# 2 27.0540 93.0265 33.2111 0.0000 2.3397 0.0000
# 3 33.5725 33.2111 88.4271 0.0000 2.5092 0.0000
# 4 0.0000 0.0000 0.0000 7.6192 0.0000 6.4103
# 5 -0.1378 2.3397 2.5092 0.0000 39.5431 0.0000
# 6 0.0000 0.0000 0.0000 6.4103 0.0000 19.1463
#
#
#
# Elastic Compliance Matrix: (Units=1/GPa)
#
#
# Indices 1 2 3 4 5 6 
#
# 1 0.011044 -0.001987 -0.003457 0.000000 0.000375 0.000000
# 2 -0.001987 0.012779 -0.004031 0.000000 -0.000507 0.000000
# 3 -0.003457 -0.004031 0.014154 0.000000 -0.000672 0.000000
# 4 0.000000 0.000000 0.000000 0.182715 0.000000 -0.061174
# 5 0.000375 -0.000507 -0.000672 0.000000 0.025363 0.000000
# 6 0.000000 0.000000 0.000000 -0.061174 0.000000 0.072711
#
#
# Mechanical properties :
#
#
# Convention : Reuss Voigt Hill
#
# Bulk Modulus (GPa) = 52.55596 52.78392 52.66994
# Shear Modulus (GPa) = 14.53234 26.16455 20.34845
#
# Velocity S-wave (km/s) = 2.66649 3.57791 3.15528
# Velocity P-wave (km/s) = 5.93246 6.54934 6.24852
#
# Compressibility (1/GPa) = 0.01902734
#
# Stress axis : x y z
#
# Youngs Moduli (GPa) = 90.54440 78.25173 70.64954
#
# Poissons Ratio (x) = 0.15549 0.24427
# Poissons Ratio (y) = 0.17991 0.28478
# Poissons Ratio (z) = 0.31306 0.31542
#
# Static dielectric constant tensor:
#      x y z
#    x 4.158060 0.000000 0.045060 
#    y 0.000000 3.471180 0.000000 
#    z 0.045060 0.000000 3.780510 
# 
# 
# High freq. dielectric constant tensor:
#      x y z
#    x 1.822660 0.000000 -0.000900 
#    y 0.000000 1.769420 0.000000 
#    z -0.000900 0.000000 1.811950 
# 
# From -- ./inp_files/113777.got.cif
#   From: 2010.06.25/outbox.cif.g09.slc.cpg/sg15_57_cif.got.tgz:113777.got - 2010.06.28 07:06:18.
