data_PCOD8151620
_publ_section_title
;
Structure prediction by ZEFSAII (Michael W. Deem and Ramdas Pophale) SiO2 
 PCOD8151620
Probable space group: C 2/C
;
_chemical_formula_sum "Si O2"
_cell_formula_units_Z 56
_cell_length_a 16.777324
_cell_length_b 9.308923
_cell_length_c 17.521881
_cell_angle_alpha 90.000000
_cell_angle_beta 108.662373
_cell_angle_gamma 90.000000
_cell_volume 2592.660738
_symmetry_space_group_name_H-M "C 2/C"
_symmetry_group_IT_number 15
_symmetry_cell_setting 'monoclinic'
loop_
_space_group_symop_operation_xyz
x,y,z
-x,y,1/2-z
-x,-y,-z
x,-y,1/2+z
1/2+x,1/2+y,z
1/2-x,1/2+y,1/2-z
1/2-x,1/2-y,-z
1/2+x,1/2-y,1/2+z
loop_
_atom_site_type_symbol
_atom_site_label
_atom_site_fract_x
_atom_site_fract_y
_atom_site_fract_z
Si Si1 0.419964 0.912933 0.822010
Si Si2 0.089215 0.932166 0.744095
Si Si3 0.193662 0.869497 0.386389
Si Si4 0.246329 0.911654 0.029199
Si Si5 0.147782 0.875909 0.141584
Si Si6 0.109454 0.590938 0.364616
Si Si7 0.193833 0.327844 0.213185
O O1 0.382546 0.787980 0.863630
O O2 0.399493 0.878074 0.728131
O O3 0.517658 0.935969 0.870780
O O4 0.376860 0.059900 0.832571
O O5 0.151951 0.801939 0.746412
O O6 0.000000 0.876688 0.750000
O O7 0.128098 0.036521 0.818683
O O8 0.078680 0.021083 0.661306
O O9 0.146311 0.737413 0.413426
O O10 0.261910 0.787814 0.353313
O O11 0.237714 0.973429 0.459711
O O12 0.164628 0.921201 0.059411
O O13 0.332840 0.952058 0.099983
O O14 0.250000 0.750000 0.000000
O O15 0.236689 0.899475 0.211373
#
# Coordination Sequence:
#
# PCOD8151620 Si02
#       7
#     8   8   8   8   8   8   8
#     4  11  22  39  67  96 128 168 229 275 326 384
#     4  11  23  39  65  99 130 165 224 280 324 379
#     4  11  24  42  66  95 134 179 222 266 336 411
#     4  12  25  43  68 101 139 177 223 275 340 408
#     4  11  21  42  66  94 129 175 222 274 323 396
#     4  11  23  41  65  94 131 177 216 277 333 393
#     4  11  21  37  64  96 128 169 223 271 322 385
#
# _framework density 21.599430999999999
#
# number of rings (size 3 to 8) (size 9 to 14) (size 15 to 20)
#    0.000    0.857    4.286    5.571    2.000    0.000 
#    0.000    7.143    0.000    0.000    0.000    0.000 
#    0.000    0.000    0.000    0.000    0.000    0.000 
#
# Total GULP energy -347180.675150 kJ/mol
# GULP energy per Si atom -12399.309827 kJ/mol
# Density = 2.155027 g / cm^3
# Si number density = 21.599431 Si / 1000 Ang^3
#
#
#
# Elastic Constant Matrix: (Units=GPa)
#
#
# Indices 1 2 3 4 5 6 
#
# 1 136.0835 39.8222 32.2776 0.0000 -3.4267 0.0000
# 2 39.8222 95.3968 11.4490 0.0000 7.3357 0.0000
# 3 32.2776 11.4490 54.2853 0.0000 -10.9730 0.0000
# 4 0.0000 0.0000 0.0000 23.2876 0.0000 -8.8631
# 5 -3.4267 7.3357 -10.9730 0.0000 26.8587 0.0000
# 6 0.0000 0.0000 0.0000 -8.8631 0.0000 36.0599
#
#
#
# Elastic Compliance Matrix: (Units=1/GPa)
#
#
# Indices 1 2 3 4 5 6 
#
# 1 0.009509 -0.003390 -0.004912 0.000000 0.000132 0.000000
# 2 -0.003390 0.012419 -0.001500 0.000000 -0.004437 0.000000
# 3 -0.004912 -0.001500 0.023560 0.000000 0.009409 0.000000
# 4 0.000000 0.000000 0.000000 0.047373 0.000000 0.011644
# 5 0.000132 -0.004437 0.009409 0.000000 0.042304 0.000000
# 6 0.000000 0.000000 0.000000 0.011644 0.000000 0.030594
#
#
# Mechanical properties :
#
#
# Convention : Reuss Voigt Hill
#
# Bulk Modulus (GPa) = 38.63596 50.31813 44.47704
# Shear Modulus (GPa) = 25.77428 30.72238 28.24833
#
# Velocity S-wave (km/s) = 3.45814 3.77552 3.62031
# Velocity P-wave (km/s) = 5.81991 6.50790 6.17349
#
# Compressibility (1/GPa) = 0.02588263
#
# Stress axis : x y z
#
# Youngs Moduli (GPa) = 105.16456 80.52209 42.44443
#
# Poissons Ratio (x) = 0.27297 0.20850
# Poissons Ratio (y) = 0.35651 0.06369
# Poissons Ratio (z) = 0.51659 0.12082
#
# Static dielectric constant tensor:
#      x y z
#    x 4.120690 0.000000 -0.178730 
#    y 0.000000 3.908180 0.000000 
#    z -0.178730 0.000000 3.781910 
# 
# 
# High freq. dielectric constant tensor:
#      x y z
#    x 1.855300 0.000000 -0.012710 
#    y 0.000000 1.858480 0.000000 
#    z -0.012710 0.000000 1.817900 
# 
# From -- ./inp_files/209610.got.cif
#   From: 2010.06.25/outbox.cif.g09.slc.cpg/sg15_105_cif.got.tgz:209610.got - 2010.06.28 07:06:18.
