data_PCOD8151854
_publ_section_title
;
Structure prediction by ZEFSAII (Michael W. Deem and Ramdas Pophale) SiO2 
 PCOD8151854
Probable space group: C 2/C
;
_chemical_formula_sum "Si O2"
_cell_formula_units_Z 40
_cell_length_a 14.153228
_cell_length_b 10.583396
_cell_length_c 12.188023
_cell_angle_alpha 90.000000
_cell_angle_beta 97.442906
_cell_angle_gamma 90.000000
_cell_volume 1810.252417
_symmetry_space_group_name_H-M "C 2/C"
_symmetry_group_IT_number 15
_symmetry_cell_setting 'monoclinic'
loop_
_space_group_symop_operation_xyz
x,y,z
-x,y,1/2-z
-x,-y,-z
x,-y,1/2+z
1/2+x,1/2+y,z
1/2-x,1/2+y,1/2-z
1/2-x,1/2-y,-z
1/2+x,1/2-y,1/2+z
loop_
_atom_site_type_symbol
_atom_site_label
_atom_site_fract_x
_atom_site_fract_y
_atom_site_fract_z
Si Si1 0.234417 0.282743 0.370957
Si Si2 0.596733 0.345938 0.705013
Si Si3 0.565356 0.633081 0.658257
Si Si4 0.574254 0.023028 0.861103
Si Si5 0.045838 0.304225 0.006061
O O1 0.250000 0.250000 0.500000
O O2 0.181449 0.163756 0.306210
O O3 0.333945 0.295596 0.322501
O O4 0.173440 0.411288 0.340722
O O5 0.500000 0.299337 0.750000
O O6 0.585158 0.484905 0.655687
O O7 0.619154 0.248029 0.608804
O O8 0.500000 0.672086 0.750000
O O9 0.507745 0.678158 0.543330
O O10 0.500000 0.007657 0.750000
O O11 0.596568 0.883989 0.916298
O O12 0.533845 0.108143 0.952210
#
# Coordination Sequence:
#
# PCOD8151854 Si02
#       5
#     8   8   8   8   8
#     4  12  23  44  68  99 130 184 228 272 336 403
#     4  11  22  44  68  96 136 180 221 274 337 402
#     4  11  26  42  66  99 140 176 223 280 332 396
#     4  11  22  40  72  98 130 170 222 279 334 400
#     4  11  21  41  69  98 132 170 219 275 340 393
#
# _framework density 22.096364999999999
#
# number of rings (size 3 to 8) (size 9 to 14) (size 15 to 20)
#    0.000    0.800    6.000    1.200    0.000    6.400 
#    0.000    2.000    0.000    0.000    0.000    0.000 
#    0.000    0.000    0.000    0.000    0.000    0.000 
#
# Total GULP energy -247949.479813 kJ/mol
# GULP energy per Si atom -12397.473991 kJ/mol
# Density = 2.204607 g / cm^3
# Si number density = 22.096365 Si / 1000 Ang^3
#
#
#
# Elastic Constant Matrix: (Units=GPa)
#
#
# Indices 1 2 3 4 5 6 
#
# 1 114.4162 23.6243 41.3515 0.0000 -1.6104 0.0000
# 2 23.6243 121.1175 72.1296 0.0000 3.0239 0.0000
# 3 41.3515 72.1296 143.8816 0.0000 19.1814 0.0000
# 4 0.0000 0.0000 0.0000 50.3819 0.0000 -3.8900
# 5 -1.6104 3.0239 19.1814 0.0000 30.8708 0.0000
# 6 0.0000 0.0000 0.0000 -3.8900 0.0000 20.4419
#
#
#
# Elastic Compliance Matrix: (Units=1/GPa)
#
#
# Indices 1 2 3 4 5 6 
#
# 1 0.009928 -0.000147 -0.003108 0.000000 0.002464 0.000000
# 2 -0.000147 0.011989 -0.006335 0.000000 0.002754 0.000000
# 3 -0.003108 -0.006335 0.011948 0.000000 -0.006965 0.000000
# 4 0.000000 0.000000 0.000000 0.020144 0.000000 0.003833
# 5 0.002464 0.002754 -0.006965 0.000000 0.036580 0.000000
# 6 0.000000 0.000000 0.000000 0.003833 0.000000 0.049649
#
#
# Mechanical properties :
#
#
# Convention : Reuss Voigt Hill
#
# Bulk Modulus (GPa) = 68.09826 72.62513 70.36169
# Shear Modulus (GPa) = 30.42951 36.49291 33.46121
#
# Velocity S-wave (km/s) = 3.71499 4.06832 3.89566
# Velocity P-wave (km/s) = 7.02049 7.41668 7.22130
#
# Compressibility (1/GPa) = 0.01468466
#
# Stress axis : x y z
#
# Youngs Moduli (GPa) = 100.72143 83.40814 83.69630
#
# Poissons Ratio (x) = 0.01227 0.26014
# Poissons Ratio (y) = 0.01481 0.53024
# Poissons Ratio (z) = 0.31305 0.52841
#
# Static dielectric constant tensor:
#      x y z
#    x 3.921450 0.000000 -0.058990 
#    y 0.000000 4.142130 0.000000 
#    z -0.058990 0.000000 4.058260 
# 
# 
# High freq. dielectric constant tensor:
#      x y z
#    x 1.842680 0.000000 0.001120 
#    y 0.000000 1.875000 0.000000 
#    z 0.001120 0.000000 1.883620 
# 
# From -- ./inp_files/94671.got.cif
#   From: 2010.06.25/outbox.cif.g09.slc.cpg/sg15_48_cif.got.tgz:94671.got - 2010.06.28 07:06:18.
