data_PCOD8151922
_publ_section_title
;
Structure prediction by ZEFSAII (Michael W. Deem and Ramdas Pophale) SiO2 
 PCOD8151922
Probable space group: C 2/C
;
_chemical_formula_sum "Si O2"
_cell_formula_units_Z 60
_cell_length_a 19.485819
_cell_length_b 16.948177
_cell_length_c 17.673506
_cell_angle_alpha 90.000000
_cell_angle_beta 27.953567
_cell_angle_gamma 90.000000
_cell_volume 2735.968400
_symmetry_space_group_name_H-M "C 2/C"
_symmetry_group_IT_number 15
_symmetry_cell_setting 'monoclinic'
loop_
_space_group_symop_operation_xyz
x,y,z
-x,y,1/2-z
-x,-y,-z
x,-y,1/2+z
1/2+x,1/2+y,z
1/2-x,1/2+y,1/2-z
1/2-x,1/2-y,-z
1/2+x,1/2-y,1/2+z
loop_
_atom_site_type_symbol
_atom_site_label
_atom_site_fract_x
_atom_site_fract_y
_atom_site_fract_z
Si Si1 0.500000 0.059277 0.250000
Si Si2 0.621149 0.609130 0.929027
Si Si3 0.626411 0.927614 0.018058
Si Si4 0.083966 0.855714 0.743701
Si Si5 0.104215 0.699645 0.809961
Si Si6 0.526300 0.286061 0.041151
Si Si7 0.835230 0.527129 0.174412
Si Si8 0.173678 0.339883 0.696700
O O1 0.376712 0.114146 0.330383
O O2 0.574771 0.003378 0.115132
O O3 0.723549 0.680074 0.859663
O O4 0.551511 0.635301 0.916362
O O5 0.723677 0.533155 0.821397
O O6 0.492412 0.593033 0.114869
O O7 0.488102 0.877214 0.124073
O O8 0.723800 0.954713 0.851495
O O9 0.748101 0.876463 0.942540
O O10 0.000000 0.873291 0.750000
O O11 0.074979 0.764662 0.775413
O O12 0.071576 0.730661 0.926288
O O13 0.422042 0.238432 0.198996
O O14 0.657940 0.312674 0.968127
O O15 0.846349 0.605701 0.211384
O O16 0.000000 0.500000 0.000000
#
# Coordination Sequence:
#
# PCOD8151922 Si02
#       8
#     4   8   8   8   8   8   8   8
#     4  12  30  46  70 100 146 194 238 270 370 434
#     4  11  23  41  71 108 134 179 239 289 345 413
#     4  12  26  46  69 100 141 188 233 289 349 431
#     4  11  27  40  62 103 148 181 221 285 359 425
#     4  11  21  42  71 102 134 180 237 290 342 418
#     4  11  23  43  74 103 137 176 243 297 342 402
#     4  12  22  44  75 100 136 183 239 291 341 411
#     4  12  25  46  72 104 139 186 232 299 348 418
#
# _framework density 21.930078000000002
#
# number of rings (size 3 to 8) (size 9 to 14) (size 15 to 20)
#    0.000    0.533    5.333    3.200    4.667    3.733 
#    0.000    0.000    0.000    0.000    0.000    0.000 
#    0.000    0.000    0.000    0.000    0.000    0.000 
#
# Total GULP energy -371873.091575 kJ/mol
# GULP energy per Si atom -12395.769719 kJ/mol
# Density = 2.188016 g / cm^3
# Si number density = 21.930078 Si / 1000 Ang^3
#
#
#
# Elastic Constant Matrix: (Units=GPa)
#
#
# Indices 1 2 3 4 5 6 
#
# 1 124.7588 44.6905 34.6869 -0.0002 -21.4341 0.0011
# 2 44.6905 80.0844 32.6825 0.0014 -11.4717 0.0009
# 3 34.6869 32.6825 90.5451 0.0034 -31.8688 0.0010
# 4 -0.0002 0.0014 0.0034 29.9690 0.0007 -10.4874
# 5 -21.4341 -11.4717 -31.8688 0.0007 36.6551 -0.0016
# 6 0.0011 0.0009 0.0010 -10.4874 -0.0016 21.1184
#
#
#
# Elastic Compliance Matrix: (Units=1/GPa)
#
#
# Indices 1 2 3 4 5 6 
#
# 1 0.010757 -0.005070 -0.000916 0.000000 0.003908 0.000000
# 2 -0.005070 0.017033 -0.004861 0.000000 -0.001860 -0.000001
# 3 -0.000916 -0.004861 0.017905 -0.000002 0.013510 -0.000001
# 4 0.000000 0.000000 -0.000002 0.040386 -0.000002 0.020056
# 5 0.003908 -0.001860 0.013510 -0.000002 0.040730 0.000001
# 6 0.000000 -0.000001 -0.000001 0.020056 0.000001 0.057312
#
#
# Mechanical properties :
#
#
# Convention : Reuss Voigt Hill
#
# Bulk Modulus (GPa) = 41.66135 57.72313 49.69224
# Shear Modulus (GPa) = 23.38455 29.77039 26.57747
#
# Velocity S-wave (km/s) = 3.26900 3.68844 3.48504
# Velocity P-wave (km/s) = 5.76950 6.67219 6.23719
#
# Compressibility (1/GPa) = 0.02400306
#
# Stress axis : x y z
#
# Youngs Moduli (GPa) = 92.95888 58.70924 55.85185
#
# Poissons Ratio (x) = 0.29763 0.05115
# Poissons Ratio (y) = 0.47127 0.27147
# Poissons Ratio (z) = 0.08514 0.28536
#
# Static dielectric constant tensor:
#      x y z
#    x 4.087460 -0.000010 -0.245120 
#    y -0.000010 4.037010 0.000010 
#    z -0.245120 0.000010 4.075740 
# 
# 
# High freq. dielectric constant tensor:
#      x y z
#    x 1.861630 0.000000 -0.022690 
#    y 0.000000 1.862360 0.000000 
#    z -0.022690 0.000000 1.865860 
# 
# From -- ./inp_files/211720.got.cif
#   From: 2010.06.25/outbox.cif.g09.slc.cpg/sg15_106_cif.got.tgz:211720.got - 2010.06.28 07:06:18.
