data_PCOD8151369
_publ_section_title
;
Structure prediction by ZEFSAII (Michael W. Deem and Ramdas Pophale) SiO2 
 PCOD8151369
Probable space group: C 2/C
;
_chemical_formula_sum "Si O2"
_cell_formula_units_Z 56
_cell_length_a 11.497863
_cell_length_b 11.246099
_cell_length_c 21.173487
_cell_angle_alpha 90.000000
_cell_angle_beta 100.036708
_cell_angle_gamma 90.000000
_cell_volume 2695.961737
_symmetry_space_group_name_H-M "C 2/C"
_symmetry_group_IT_number 15
_symmetry_cell_setting 'monoclinic'
loop_
_space_group_symop_operation_xyz
x,y,z
-x,y,1/2-z
-x,-y,-z
x,-y,1/2+z
1/2+x,1/2+y,z
1/2-x,1/2+y,1/2-z
1/2-x,1/2-y,-z
1/2+x,1/2-y,1/2+z
loop_
_atom_site_type_symbol
_atom_site_label
_atom_site_fract_x
_atom_site_fract_y
_atom_site_fract_z
Si Si1 0.433148 0.454245 0.432148
Si Si2 0.661032 0.150460 0.511811
Si Si3 0.679859 0.051809 0.927861
Si Si4 0.546095 0.570984 0.323344
Si Si5 0.305598 0.000861 0.373977
Si Si6 0.492983 0.156074 0.822343
Si Si7 0.094126 0.691565 0.029499
O O1 0.500000 0.500000 0.500000
O O2 0.302862 0.509499 0.418240
O O3 0.501032 0.481178 0.373555
O O4 0.394719 0.317184 0.435607
O O5 0.750000 0.250000 0.500000
O O6 0.531937 0.196537 0.520776
O O7 0.616261 0.061252 0.452900
O O8 0.735088 0.082551 0.572172
O O9 0.609682 0.096735 0.861219
O O10 0.687632 0.157303 0.982518
O O11 0.500000 0.531261 0.250000
O O12 0.689050 0.562168 0.333168
O O13 0.497545 0.702088 0.336711
O O14 0.392764 0.100656 0.410475
O O15 0.374403 0.911206 0.333600
O O16 0.500000 0.132519 0.750000
#
# Coordination Sequence:
#
# PCOD8151369 Si02
#       7
#     8   8   8   8   8   8   8
#     4  12  24  39  66 101 134 175 225 279 339 403
#     4  11  21  36  63  99 132 165 210 279 337 391
#     4  11  21  38  64  97 131 167 226 272 332 412
#     4  11  27  47  65  98 137 177 226 284 340 400
#     4  11  22  45  68  91 136 172 215 278 334 396
#     4  11  24  44  70  95 126 183 230 269 335 404
#     4  11  20  40  63  99 133 166 218 279 338 397
#
# _framework density 20.771808
#
# number of rings (size 3 to 8) (size 9 to 14) (size 15 to 20)
#    0.000    0.857    2.857    6.429    4.000    0.000 
#    0.000    0.714    0.000    0.000    0.000    0.000 
#    0.000    0.000    0.000    0.000    0.000    0.000 
#
# Total GULP energy -346878.982367 kJ/mol
# GULP energy per Si atom -12388.535085 kJ/mol
# Density = 2.072453 g / cm^3
# Si number density = 20.771808 Si / 1000 Ang^3
#
#
#
# Elastic Constant Matrix: (Units=GPa)
#
#
# Indices 1 2 3 4 5 6 
#
# 1 124.9879 27.6900 48.7128 0.0000 3.9742 0.0000
# 2 27.6900 98.4426 59.9474 0.0000 -12.8374 0.0000
# 3 48.7128 59.9474 125.2156 0.0000 9.3477 0.0000
# 4 0.0000 0.0000 0.0000 29.6135 0.0000 -2.2607
# 5 3.9742 -12.8374 9.3477 0.0000 27.8816 0.0000
# 6 0.0000 0.0000 0.0000 -2.2607 0.0000 36.4279
#
#
#
# Elastic Compliance Matrix: (Units=1/GPa)
#
#
# Indices 1 2 3 4 5 6 
#
# 1 0.009463 -0.000739 -0.003284 0.000000 -0.000588 0.000000
# 2 -0.000739 0.017089 -0.008707 0.000000 0.010893 0.000000
# 3 -0.003284 -0.008707 0.014048 0.000000 -0.008251 0.000000
# 4 0.000000 0.000000 0.000000 0.033929 0.000000 0.002106
# 5 -0.000588 0.010893 -0.008251 0.000000 0.043731 0.000000
# 6 0.000000 0.000000 0.000000 0.002106 0.000000 0.027582
#
#
# Mechanical properties :
#
#
# Convention : Reuss Voigt Hill
#
# Bulk Modulus (GPa) = 66.04728 69.03852 67.54290
# Shear Modulus (GPa) = 28.35298 32.93765 30.64531
#
# Velocity S-wave (km/s) = 3.69856 3.98639 3.84517
# Velocity P-wave (km/s) = 7.07847 7.38222 7.23194
#
# Compressibility (1/GPa) = 0.01514067
#
# Stress axis : x y z
#
# Youngs Moduli (GPa) = 105.67509 58.51840 71.18350
#
# Poissons Ratio (x) = 0.04323 0.23376
# Poissons Ratio (y) = 0.07806 0.61980
# Poissons Ratio (z) = 0.34702 0.50952
#
# Static dielectric constant tensor:
#      x y z
#    x 3.548570 0.000000 0.031660 
#    y 0.000000 3.911630 0.000000 
#    z 0.031660 0.000000 3.625460 
# 
# 
# High freq. dielectric constant tensor:
#      x y z
#    x 1.825200 0.000000 0.003250 
#    y 0.000000 1.820640 0.000000 
#    z 0.003250 0.000000 1.796400 
# 
# From -- ./inp_files/237029.got.cif
#   From: 2010.06.25/outbox.cif.g09.slc.cpg/sg15_119_cif.got.tgz:237029.got - 2010.06.28 07:06:18.
