data_PCOD8151010
_publ_section_title
;
Structure prediction by ZEFSAII (Michael W. Deem and Ramdas Pophale) SiO2 
 PCOD8151010
Probable space group: C 2/C
;
_chemical_formula_sum "Si O2"
_cell_formula_units_Z 48
_cell_length_a 20.628237
_cell_length_b 18.443222
_cell_length_c 14.023626
_cell_angle_alpha 90.000000
_cell_angle_beta 27.455749
_cell_angle_gamma 90.000000
_cell_volume 2459.913802
_symmetry_space_group_name_H-M "C 2/C"
_symmetry_group_IT_number 15
_symmetry_cell_setting 'monoclinic'
loop_
_space_group_symop_operation_xyz
x,y,z
-x,y,1/2-z
-x,-y,-z
x,-y,1/2+z
1/2+x,1/2+y,z
1/2-x,1/2+y,1/2-z
1/2-x,1/2-y,-z
1/2+x,1/2-y,1/2+z
loop_
_atom_site_type_symbol
_atom_site_label
_atom_site_fract_x
_atom_site_fract_y
_atom_site_fract_z
Si Si1 0.996856 0.658852 0.365051
Si Si2 0.650592 0.538788 0.078729
Si Si3 0.365319 0.447919 0.684623
Si Si4 0.970980 0.183532 0.938038
Si Si5 0.689636 0.626190 0.525162
Si Si6 0.355066 0.033573 0.651118
O O1 0.000000 0.679238 0.250000
O O2 0.973477 0.730990 0.459787
O O3 0.880712 0.598902 0.543149
O O4 0.144463 0.622813 0.196967
O O5 0.500000 0.575427 0.250000
O O6 0.694522 0.553890 0.130189
O O7 0.631738 0.453765 0.084769
O O8 0.771386 0.568001 0.850277
O O9 0.500000 0.500000 0.500000
O O10 0.412297 0.365601 0.600414
O O11 0.240742 0.473375 0.776758
O O12 0.867886 0.176696 0.983017
O O13 0.129748 0.157829 0.703376
O O14 0.500000 0.000000 0.500000
#
# Coordination Sequence:
#
# PCOD8151010 Si02
#       6
#     8   8   8   8   8   8
#     4  12  25  35  61  94 124 157 200 259 314 366
#     4  12  21  40  65  90 124 164 215 256 301 378
#     4  12  22  38  67  90 121 170 210 249 310 372
#     4  11  22  37  60  92 123 158 198 253 316 365
#     4  11  18  39  57  86 129 152 191 260 311 356
#     4  12  25  41  60  95 131 160 209 260 307 369
#
# _framework density 19.512879999999999
#
# number of rings (size 3 to 8) (size 9 to 14) (size 15 to 20)
#    0.000    0.333   10.000    1.500    0.000    0.000 
#    0.000    0.833    0.000    0.000    0.000    0.000 
#    0.000    0.000    0.000    0.000    0.000    0.000 
#
# Total GULP energy -297571.736221 kJ/mol
# GULP energy per Si atom -12398.822343 kJ/mol
# Density = 1.946847 g / cm^3
# Si number density = 19.512880 Si / 1000 Ang^3
#
#
#
# Elastic Constant Matrix: (Units=GPa)
#
#
# Indices 1 2 3 4 5 6 
#
# 1 91.5811 10.6250 49.2136 0.0002 4.7266 -0.0001
# 2 10.6250 95.1815 36.3670 0.0003 7.4301 -0.0002
# 3 49.2136 36.3670 123.8063 0.0009 7.3206 -0.0003
# 4 0.0002 0.0003 0.0009 22.8242 -0.0002 9.6058
# 5 4.7266 7.4301 7.3206 -0.0002 37.7587 0.0002
# 6 -0.0001 -0.0002 -0.0003 9.6058 0.0002 19.9083
#
#
#
# Elastic Compliance Matrix: (Units=1/GPa)
#
#
# Indices 1 2 3 4 5 6 
#
# 1 0.013941 0.000680 -0.005696 0.000000 -0.000775 0.000000
# 2 0.000680 0.011973 -0.003685 0.000000 -0.001727 0.000000
# 3 -0.005696 -0.003685 0.011470 -0.000001 -0.000786 0.000000
# 4 0.000000 0.000000 -0.000001 0.054977 0.000001 -0.026526
# 5 -0.000775 -0.001727 -0.000786 0.000001 0.027073 0.000000
# 6 0.000000 0.000000 0.000000 -0.026526 0.000000 0.063029
#
#
# Mechanical properties :
#
#
# Convention : Reuss Voigt Hill
#
# Bulk Modulus (GPa) = 50.04209 55.88669 52.96439
# Shear Modulus (GPa) = 24.21002 30.38914 27.29958
#
# Velocity S-wave (km/s) = 3.52621 3.95066 3.74445
# Velocity P-wave (km/s) = 6.50232 7.03657 6.77472
#
# Compressibility (1/GPa) = 0.01998318
#
# Stress axis : x y z
#
# Youngs Moduli (GPa) = 71.73050 83.51990 87.18233
#
# Poissons Ratio (x) = -0.05683 0.49657
# Poissons Ratio (y) = -0.04881 0.32130
# Poissons Ratio (z) = 0.40856 0.30780
#
# Static dielectric constant tensor:
#      x y z
#    x 3.491690 0.000000 0.063940 
#    y 0.000000 3.344800 0.000000 
#    z 0.063940 0.000000 3.884010 
# 
# 
# High freq. dielectric constant tensor:
#      x y z
#    x 1.752460 0.000000 -0.009280 
#    y 0.000000 1.736740 0.000000 
#    z -0.009280 0.000000 1.765920 
# 
# From -- ./inp_files/168823.got.cif
#   From: 2010.06.25/outbox.cif.g09.slc.cpg/sg15_85_cif.got.tgz:168823.got - 2010.06.28 07:06:18.
