data_PCOD8151774
_publ_section_title
;
Structure prediction by ZEFSAII (Michael W. Deem and Ramdas Pophale) SiO2 
 PCOD8151774
Probable space group: C 2/C
;
_chemical_formula_sum "Si O2"
_cell_formula_units_Z 56
_cell_length_a 23.635882
_cell_length_b 14.217901
_cell_length_c 9.632833
_cell_angle_alpha 90.000000
_cell_angle_beta 57.402366
_cell_angle_gamma 90.000000
_cell_volume 2727.207416
_symmetry_space_group_name_H-M "C 2/C"
_symmetry_group_IT_number 15
_symmetry_cell_setting 'monoclinic'
loop_
_space_group_symop_operation_xyz
x,y,z
-x,y,1/2-z
-x,-y,-z
x,-y,1/2+z
1/2+x,1/2+y,z
1/2-x,1/2+y,1/2-z
1/2-x,1/2-y,-z
1/2+x,1/2-y,1/2+z
loop_
_atom_site_type_symbol
_atom_site_label
_atom_site_fract_x
_atom_site_fract_y
_atom_site_fract_z
Si Si1 0.730095 0.944744 0.449728
Si Si2 0.798598 0.389878 0.714058
Si Si3 0.423232 0.743703 0.198432
Si Si4 0.958318 0.956287 0.676850
Si Si5 0.820040 0.744786 0.604597
Si Si6 0.575735 0.228680 0.484552
Si Si7 0.628293 0.625366 0.704767
O O1 0.720496 0.953422 0.628227
O O2 0.688698 0.855761 0.453166
O O3 0.806506 0.920838 0.312270
O O4 0.707918 0.043158 0.411231
O O5 0.749544 0.298462 0.765020
O O6 0.875655 0.355187 0.632013
O O7 0.419692 0.632943 0.166634
O O8 0.364756 0.783332 0.178285
O O9 0.403421 0.758513 0.383564
O O10 0.496012 0.792417 0.071366
O O11 0.000000 0.912999 0.750000
O O12 0.912829 0.037889 0.801939
O O13 0.000000 0.000000 0.500000
O O14 0.859536 0.806007 0.439589
O O15 0.588826 0.323377 0.380731
#
# Coordination Sequence:
#
# PCOD8151774 Si02
#       7
#     8   8   8   8   8   8   8
#     4  11  24  43  68  97 123 168 219 265 315 381
#     4  11  24  45  68  95 128 168 214 270 318 375
#     4  11  24  39  62  97 130 172 212 261 323 379
#     4  12  21  35  57  95 131 164 205 247 312 394
#     4  11  23  43  66  96 128 169 216 257 324 385
#     4  11  22  43  63  88 137 168 206 268 323 370
#     4  11  21  40  64  90 136 169 202 263 323 379
#
# _framework density 20.533826000000001
#
# number of rings (size 3 to 8) (size 9 to 14) (size 15 to 20)
#    0.000    0.857    5.714    2.571    2.000    5.143 
#    0.000    0.714    0.000    0.000    0.000    0.000 
#    0.000    0.000    0.000    0.000    0.000    0.000 
#
# Total GULP energy -347152.696494 kJ/mol
# GULP energy per Si atom -12398.310589 kJ/mol
# Density = 2.048709 g / cm^3
# Si number density = 20.533826 Si / 1000 Ang^3
#
#
#
# Elastic Constant Matrix: (Units=GPa)
#
#
# Indices 1 2 3 4 5 6 
#
# 1 86.6560 14.5272 24.2412 0.0000 9.4879 0.0000
# 2 14.5272 43.2625 5.0979 0.0000 -1.7988 0.0000
# 3 24.2412 5.0979 77.2777 0.0000 -2.3639 0.0000
# 4 0.0000 0.0000 0.0000 25.1949 0.0000 4.9441
# 5 9.4879 -1.7988 -2.3639 0.0000 27.3515 0.0000
# 6 0.0000 0.0000 0.0000 4.9441 0.0000 36.0003
#
#
#
# Elastic Compliance Matrix: (Units=1/GPa)
#
#
# Indices 1 2 3 4 5 6 
#
# 1 0.014098 -0.004458 -0.004298 0.000000 -0.005555 0.000000
# 2 -0.004458 0.024760 -0.000138 0.000000 0.003163 0.000000
# 3 -0.004298 -0.000138 0.014381 0.000000 0.002725 0.000000
# 4 0.000000 0.000000 0.000000 0.040790 0.000000 -0.005602
# 5 -0.005555 0.003163 0.002725 0.000000 0.038932 0.000000
# 6 0.000000 0.000000 0.000000 -0.005602 0.000000 0.028547
#
#
# Mechanical properties :
#
#
# Convention : Reuss Voigt Hill
#
# Bulk Modulus (GPa) = 28.20934 32.76989 30.48962
# Shear Modulus (GPa) = 26.16258 28.59799 27.38029
#
# Velocity S-wave (km/s) = 3.57336 3.73597 3.65557
# Velocity P-wave (km/s) = 5.54914 5.88248 5.71824
#
# Compressibility (1/GPa) = 0.03544925
#
# Stress axis : x y z
#
# Youngs Moduli (GPa) = 70.93254 40.38841 69.53572
#
# Poissons Ratio (x) = 0.18007 0.29888
# Poissons Ratio (y) = 0.31625 0.00960
# Poissons Ratio (z) = 0.30488 0.00557
#
# Static dielectric constant tensor:
#      x y z
#    x 3.925380 0.000000 -0.061810 
#    y 0.000000 4.188200 0.000000 
#    z -0.061810 0.000000 3.733540 
# 
# 
# High freq. dielectric constant tensor:
#      x y z
#    x 1.802300 0.000000 0.001890 
#    y 0.000000 1.791700 0.000000 
#    z 0.001890 0.000000 1.813880 
# 
# From -- ./inp_files/61821.got.cif
#   From: 2010.06.25/outbox.cif.g09.slc.cpg/sg15_31_cif.got.tgz:61821.got - 2010.06.28 07:06:18.
