data_PCOD8151574
_publ_section_title
;
Structure prediction by ZEFSAII (Michael W. Deem and Ramdas Pophale) SiO2 
 PCOD8151574
Probable space group: C 2/C
;
_chemical_formula_sum "Si O2"
_cell_formula_units_Z 48
_cell_length_a 25.042203
_cell_length_b 10.755636
_cell_length_c 9.117955
_cell_angle_alpha 90.000000
_cell_angle_beta 111.731358
_cell_angle_gamma 90.000000
_cell_volume 2281.335159
_symmetry_space_group_name_H-M "C 2/C"
_symmetry_group_IT_number 15
_symmetry_cell_setting 'monoclinic'
loop_
_space_group_symop_operation_xyz
x,y,z
-x,y,1/2-z
-x,-y,-z
x,-y,1/2+z
1/2+x,1/2+y,z
1/2-x,1/2+y,1/2-z
1/2-x,1/2-y,-z
1/2+x,1/2-y,1/2+z
loop_
_atom_site_type_symbol
_atom_site_label
_atom_site_fract_x
_atom_site_fract_y
_atom_site_fract_z
Si Si1 0.128234 0.049818 0.633511
Si Si2 0.805551 0.269952 0.654071
Si Si3 0.272759 0.616787 0.193809
Si Si4 0.171243 0.528904 0.527488
Si Si5 0.934267 0.880001 0.725213
Si Si6 0.644305 0.827863 0.295543
O O1 0.155665 0.153552 0.765053
O O2 0.106605 0.100782 0.457253
O O3 0.176556 0.943223 0.655302
O O4 0.074712 0.992192 0.669566
O O5 0.750000 0.250000 0.500000
O O6 0.782798 0.333961 0.777229
O O7 0.845999 0.360861 0.600932
O O8 0.240200 0.505209 0.072285
O O9 0.301515 0.731217 0.133500
O O10 0.137005 0.406222 0.438497
O O11 0.154976 0.575334 0.673538
O O12 0.914361 0.750997 0.781636
O O13 0.000000 0.871219 0.750000
#
# Coordination Sequence:
#
# PCOD8151574 Si02
#       6
#     8   8   8   8   8   8
#     4  11  24  41  69  96 132 169 217 268 329 384
#     4  12  21  36  59  97 140 172 202 245 319 402
#     4  11  21  36  60  96 133 174 205 251 308 400
#     4  12  23  38  60  94 139 176 206 256 315 405
#     4  11  26  48  70  93 122 168 229 288 328 369
#     4  11  25  39  64  91 133 172 225 259 324 375
#
# _framework density 21.040310000000002
#
# number of rings (size 3 to 8) (size 9 to 14) (size 15 to 20)
#    0.000    0.667    5.000    3.000    4.667    0.000 
#    0.000    0.833    0.000    0.000    0.000    0.000 
#    0.000    0.000    0.000    0.000    0.000    0.000 
#
# Total GULP energy -297362.137143 kJ/mol
# GULP energy per Si atom -12390.089048 kJ/mol
# Density = 2.099242 g / cm^3
# Si number density = 21.040310 Si / 1000 Ang^3
#
#
#
# Elastic Constant Matrix: (Units=GPa)
#
#
# Indices 1 2 3 4 5 6 
#
# 1 102.1385 44.7974 9.6204 0.0000 -7.7621 0.0000
# 2 44.7974 116.6279 36.9812 0.0000 -4.9960 0.0000
# 3 9.6204 36.9812 58.1471 0.0000 -9.9250 0.0000
# 4 0.0000 0.0000 0.0000 36.2990 0.0000 -8.8207
# 5 -7.7621 -4.9960 -9.9250 0.0000 21.4924 0.0000
# 6 0.0000 0.0000 0.0000 -8.8207 0.0000 26.2534
#
#
#
# Elastic Compliance Matrix: (Units=1/GPa)
#
#
# Indices 1 2 3 4 5 6 
#
# 1 0.012161 -0.005110 0.001937 0.000000 0.004099 0.000000
# 2 -0.005110 0.012897 -0.007773 0.000000 -0.002437 0.000000
# 3 0.001937 -0.007773 0.023483 0.000000 0.009737 0.000000
# 4 0.000000 0.000000 0.000000 0.029998 0.000000 0.010079
# 5 0.004099 -0.002437 0.009737 0.000000 0.051938 0.000000
# 6 0.000000 0.000000 0.000000 0.010079 0.000000 0.041477
#
#
# Mechanical properties :
#
#
# Convention : Reuss Voigt Hill
#
# Bulk Modulus (GPa) = 37.52355 51.07905 44.30130
# Shear Modulus (GPa) = 24.66352 29.17659 26.92006
#
# Velocity S-wave (km/s) = 3.42746 3.72788 3.58082
# Velocity P-wave (km/s) = 5.79104 6.54667 6.18042
#
# Compressibility (1/GPa) = 0.02664993
#
# Stress axis : x y z
#
# Youngs Moduli (GPa) = 82.23172 77.53531 42.58419
#
# Poissons Ratio (x) = 0.39619 -0.08250
# Poissons Ratio (y) = 0.42018 0.33101
# Poissons Ratio (z) = -0.15932 0.60270
#
# Static dielectric constant tensor:
#      x y z
#    x 3.471440 0.000000 -0.127350 
#    y 0.000000 4.316370 0.000000 
#    z -0.127350 0.000000 3.588260 
# 
# 
# High freq. dielectric constant tensor:
#      x y z
#    x 1.779280 0.000000 -0.019680 
#    y 0.000000 1.852420 0.000000 
#    z -0.019680 0.000000 1.820530 
# 
# From -- ./inp_files/60891.got.cif
#   From: 2010.06.25/outbox.cif.g09.slc.cpg/sg15_31_cif.got.tgz:60891.got - 2010.06.28 07:06:18.
