data_PCOD8151815
_publ_section_title
;
Structure prediction by ZEFSAII (Michael W. Deem and Ramdas Pophale) SiO2 
 PCOD8151815
Probable space group: C 2/C
;
_chemical_formula_sum "Si O2"
_cell_formula_units_Z 60
_cell_length_a 24.993241
_cell_length_b 16.955890
_cell_length_c 18.893195
_cell_angle_alpha 90.000000
_cell_angle_beta 160.490683
_cell_angle_gamma 90.000000
_cell_volume 2673.887979
_symmetry_space_group_name_H-M "C 2/C"
_symmetry_group_IT_number 15
_symmetry_cell_setting 'monoclinic'
loop_
_space_group_symop_operation_xyz
x,y,z
-x,y,1/2-z
-x,-y,-z
x,-y,1/2+z
1/2+x,1/2+y,z
1/2-x,1/2+y,1/2-z
1/2-x,1/2-y,-z
1/2+x,1/2-y,1/2+z
loop_
_atom_site_type_symbol
_atom_site_label
_atom_site_fract_x
_atom_site_fract_y
_atom_site_fract_z
Si Si1 0.000000 0.549558 0.750000
Si Si2 0.869483 0.563431 0.362493
Si Si3 0.707998 0.713135 0.616854
Si Si4 0.226716 0.781110 0.649280
Si Si5 0.139651 0.802754 0.312063
Si Si6 0.606033 0.557106 0.559216
Si Si7 0.197029 0.962108 0.326368
Si Si8 0.457612 0.162976 0.811094
O O1 0.878370 0.493839 0.555213
O O2 0.891732 0.607484 0.665555
O O3 0.829071 0.638386 0.262117
O O4 0.699817 0.522650 0.159470
O O5 0.000000 0.500000 0.500000
O O6 0.927370 0.600661 0.507327
O O7 0.779737 0.754569 0.776472
O O8 0.651717 0.625317 0.562583
O O9 0.560705 0.765772 0.405974
O O10 0.832674 0.704374 0.708078
O O11 0.319970 0.718071 0.718685
O O12 0.044205 0.788989 0.395931
O O13 0.250000 0.750000 0.500000
O O14 0.175142 0.896918 0.361468
O O15 0.420180 0.537529 0.313958
O O16 0.653353 0.581391 0.697957
#
# Coordination Sequence:
#
# PCOD8151815 Si02
#       8
#     4   8   8   8   8   8   8   8
#     4  12  28  48  68 100 150 188 226 292 374 438
#     4  11  21  40  71 104 130 172 238 299 341 401
#     4  11  24  43  74 103 132 181 242 299 347 413
#     4  11  24  43  67 104 141 180 240 297 351 417
#     4  12  26  43  65  99 146 194 228 281 359 442
#     4  11  22  44  73 102 134 177 247 295 345 402
#     4  11  26  44  72 103 141 191 233 294 360 427
#     4  11  26  43  69 105 139 183 231 286 363 430
#
# _framework density 22.439235
#
# number of rings (size 3 to 8) (size 9 to 14) (size 15 to 20)
#    0.000    0.800    5.333    2.000    3.733    1.600 
#    0.000    0.000    0.000    0.000    0.000    0.000 
#    0.000    0.000    0.000    0.000    0.000    0.000 
#
# Total GULP energy -371756.560913 kJ/mol
# GULP energy per Si atom -12391.885364 kJ/mol
# Density = 2.238816 g / cm^3
# Si number density = 22.439235 Si / 1000 Ang^3
#
#
#
# Elastic Constant Matrix: (Units=GPa)
#
#
# Indices 1 2 3 4 5 6 
#
# 1 59.5493 31.4006 23.5927 -0.0144 5.0853 -0.0056
# 2 31.4006 123.2303 43.3293 -0.0205 3.9277 -0.0145
# 3 23.5927 43.3293 109.8831 -0.0239 11.3146 -0.0161
# 4 -0.0144 -0.0205 -0.0239 34.3298 -0.0168 12.3957
# 5 5.0853 3.9277 11.3146 -0.0168 25.3237 -0.0086
# 6 -0.0056 -0.0145 -0.0161 12.3957 -0.0086 39.0851
#
#
#
# Elastic Compliance Matrix: (Units=1/GPa)
#
#
# Indices 1 2 3 4 5 6 
#
# 1 0.020175 -0.004212 -0.002433 0.000004 -0.002311 -0.000001
# 2 -0.004212 0.010301 -0.003229 0.000002 0.000691 0.000001
# 3 -0.002433 -0.003229 0.011315 0.000002 -0.004066 0.000001
# 4 0.000004 0.000002 0.000002 0.032896 0.000016 -0.010433
# 5 -0.002311 0.000691 -0.004066 0.000016 0.041662 0.000002
# 6 -0.000001 0.000001 0.000001 -0.010433 0.000002 0.028894
#
#
# Mechanical properties :
#
#
# Convention : Reuss Voigt Hill
#
# Bulk Modulus (GPa) = 45.36373 54.36755 49.86564
# Shear Modulus (GPa) = 29.01258 32.70372 30.85815
#
# Velocity S-wave (km/s) = 3.59965 3.82178 3.71237
# Velocity P-wave (km/s) = 6.12673 6.61483 6.37545
#
# Compressibility (1/GPa) = 0.02204404
#
# Stress axis : x y z
#
# Youngs Moduli (GPa) = 49.56650 97.07426 88.37930
#
# Poissons Ratio (x) = 0.40885 0.21502
# Poissons Ratio (y) = 0.20876 0.28537
# Poissons Ratio (z) = 0.12059 0.31344
#
# Static dielectric constant tensor:
#      x y z
#    x 2.811380 -0.000320 0.036660 
#    y -0.000320 4.382890 -0.000020 
#    z 0.036660 -0.000020 3.966050 
# 
# 
# High freq. dielectric constant tensor:
#      x y z
#    x 1.866730 0.000000 0.008130 
#    y 0.000000 1.907960 0.000000 
#    z 0.008130 0.000000 1.877980 
# 
# From -- ./inp_files/257892.got.cif
#   From: 2010.06.25/outbox.cif.g09.slc.cpg/sg15_129_cif.got.tgz:257892.got - 2010.06.28 07:06:18.
