data_PCOD8151413
_publ_section_title
;
Structure prediction by ZEFSAII (Michael W. Deem and Ramdas Pophale) SiO2 
 PCOD8151413
Probable space group: C 2/C
;
_chemical_formula_sum "Si O2"
_cell_formula_units_Z 48
_cell_length_a 20.022399
_cell_length_b 17.805960
_cell_length_c 14.776998
_cell_angle_alpha 90.000000
_cell_angle_beta 26.317036
_cell_angle_gamma 90.000000
_cell_volume 2335.621209
_symmetry_space_group_name_H-M "C 2/C"
_symmetry_group_IT_number 15
_symmetry_cell_setting 'monoclinic'
loop_
_space_group_symop_operation_xyz
x,y,z
-x,y,1/2-z
-x,-y,-z
x,-y,1/2+z
1/2+x,1/2+y,z
1/2-x,1/2+y,1/2-z
1/2-x,1/2-y,-z
1/2+x,1/2-y,1/2+z
loop_
_atom_site_type_symbol
_atom_site_label
_atom_site_fract_x
_atom_site_fract_y
_atom_site_fract_z
Si Si1 0.541999 0.535499 0.095912
Si Si2 0.719566 0.176864 0.289770
Si Si3 0.472169 0.317005 0.990608
Si Si4 0.195622 0.922034 0.175428
Si Si5 0.154713 0.510843 0.363241
Si Si6 0.680154 0.321106 0.036417
O O1 0.500000 0.520148 0.250000
O O2 0.432518 0.485914 0.166140
O O3 0.519321 0.623179 0.101268
O O4 0.711246 0.509130 0.869295
O O5 0.593288 0.238488 0.465750
O O6 0.663314 0.095540 0.390335
O O7 0.751293 0.170571 0.145118
O O8 0.864769 0.201838 0.168866
O O9 0.366015 0.348255 0.199031
O O10 0.233360 0.895195 0.028064
O O11 0.337824 0.955640 0.057940
O O12 0.000000 0.500000 0.500000
O O13 0.500000 0.315640 0.250000
O O14 0.750000 0.250000 0.000000
#
# Coordination Sequence:
#
# PCOD8151413 Si02
#       6
#     8   8   8   8   8   8
#     4  11  22  45  70  90 124 179 225 261 322 399
#     4  12  22  41  60  95 130 168 214 266 330 395
#     4  11  23  38  66  90 125 174 215 264 322 397
#     4  11  20  41  65  92 130 176 217 255 330 404
#     4  11  24  40  67  96 129 171 221 277 330 385
#     4  12  22  36  62 100 133 167 206 264 331 395
#
# _framework density 20.551278
#
# number of rings (size 3 to 8) (size 9 to 14) (size 15 to 20)
#    0.000    0.667    6.667    2.500    4.667    1.333 
#    0.000    3.333    0.000    0.000    0.000    0.000 
#    0.000    0.000    0.000    0.000    0.000    0.000 
#
# Total GULP energy -297649.701950 kJ/mol
# GULP energy per Si atom -12402.070915 kJ/mol
# Density = 2.050450 g / cm^3
# Si number density = 20.551278 Si / 1000 Ang^3
#
#
#
# Elastic Constant Matrix: (Units=GPa)
#
#
# Indices 1 2 3 4 5 6 
#
# 1 102.4104 53.9896 43.2902 -0.0012 -37.0701 0.0006
# 2 53.9896 142.6447 42.1011 0.0025 -24.4110 -0.0012
# 3 43.2902 42.1011 55.6681 0.0056 -29.8448 -0.0025
# 4 -0.0012 0.0025 0.0056 19.7402 -0.0022 -4.0676
# 5 -37.0701 -24.4110 -29.8448 -0.0022 43.8301 0.0011
# 6 0.0006 -0.0012 -0.0025 -4.0676 0.0011 45.7101
#
#
#
# Elastic Compliance Matrix: (Units=1/GPa)
#
#
# Indices 1 2 3 4 5 6 
#
# 1 0.017210 -0.003162 -0.006509 0.000004 0.008363 0.000000
# 2 -0.003162 0.009616 -0.005317 0.000000 -0.000939 0.000000
# 3 -0.006509 -0.005317 0.035448 -0.000008 0.015671 0.000001
# 4 0.000004 0.000000 -0.000008 0.051604 0.000001 0.004592
# 5 0.008363 -0.000939 0.015671 0.000001 0.040036 0.000000
# 6 0.000000 0.000000 0.000001 0.004592 0.000000 0.022286
#
#
# Mechanical properties :
#
#
# Convention : Reuss Voigt Hill
#
# Bulk Modulus (GPa) = 30.96101 64.38719 47.67410
# Shear Modulus (GPa) = 23.04786 32.61225 27.83005
#
# Velocity S-wave (km/s) = 3.35248 3.98788 3.68391
# Velocity P-wave (km/s) = 5.48484 7.25274 6.42984
#
# Compressibility (1/GPa) = 0.03229868
#
# Stress axis : x y z
#
# Youngs Moduli (GPa) = 58.10642 103.99704 28.21055
#
# Poissons Ratio (x) = 0.32880 0.18361
# Poissons Ratio (y) = 0.18371 0.15000
# Poissons Ratio (z) = 0.37819 0.55296
#
# Static dielectric constant tensor:
#      x y z
#    x 3.916310 0.000000 -0.132080 
#    y 0.000000 3.895740 0.000000 
#    z -0.132080 0.000000 3.421380 
# 
# 
# High freq. dielectric constant tensor:
#      x y z
#    x 1.812020 0.000000 -0.016490 
#    y 0.000000 1.819230 0.000000 
#    z -0.016490 0.000000 1.771570 
# 
# From -- ./inp_files/155282.got.cif
#   From: 2010.06.25/outbox.cif.g09.slc.cpg/sg15_78_cif.got.tgz:155282.got - 2010.06.28 07:06:18.
