data_PCOD8151897
_publ_section_title
;
Structure prediction by ZEFSAII (Michael W. Deem and Ramdas Pophale) SiO2 
 PCOD8151897
Probable space group: C 2/C
;
_chemical_formula_sum "Si O2"
_cell_formula_units_Z 48
_cell_length_a 26.145643
_cell_length_b 9.505023
_cell_length_c 14.628106
_cell_angle_alpha 90.000000
_cell_angle_beta 36.697930
_cell_angle_gamma 90.000000
_cell_volume 2172.443099
_symmetry_space_group_name_H-M "C 2/C"
_symmetry_group_IT_number 15
_symmetry_cell_setting 'monoclinic'
loop_
_space_group_symop_operation_xyz
x,y,z
-x,y,1/2-z
-x,-y,-z
x,-y,1/2+z
1/2+x,1/2+y,z
1/2-x,1/2+y,1/2-z
1/2-x,1/2-y,-z
1/2+x,1/2-y,1/2+z
loop_
_atom_site_type_symbol
_atom_site_label
_atom_site_fract_x
_atom_site_fract_y
_atom_site_fract_z
Si Si1 0.836716 0.884244 0.626521
Si Si2 0.185347 0.507800 0.071354
Si Si3 0.120535 0.019016 0.253137
Si Si4 0.259109 0.891903 0.318526
Si Si5 0.902806 0.760903 0.859578
Si Si6 0.913091 0.784421 0.332851
O O1 0.815057 0.729660 0.693219
O O2 0.872356 0.875604 0.472691
O O3 0.901623 0.959637 0.606997
O O4 0.752157 0.982360 0.738846
O O5 0.190533 0.454496 0.167663
O O6 0.123090 0.402250 0.106902
O O7 0.146646 0.663257 0.120882
O O8 0.278332 0.513022 0.893730
O O9 0.069336 0.892654 0.276476
O O10 0.104444 0.168936 0.229456
O O11 0.163274 0.838062 0.478218
O O12 0.000000 0.777831 0.750000
O O13 0.000000 0.719984 0.250000
#
# Coordination Sequence:
#
# PCOD8151897 Si02
#       6
#     8   8   8   8   8   8
#     4  12  24  42  70 100 133 175 233 271 323 408
#     4  11  21  45  67  94 135 180 219 267 330 408
#     4  11  22  43  69  92 132 176 228 266 328 400
#     4  11  24  41  68 100 128 180 227 266 326 404
#     4  11  21  42  67  96 136 171 213 279 341 382
#     4  12  27  44  65 103 137 174 220 284 342 380
#
# _framework density 22.094939
#
# number of rings (size 3 to 8) (size 9 to 14) (size 15 to 20)
#    0.000    0.667    6.667    3.500    2.333    0.667 
#    0.000    0.833    0.000    0.000    0.000    0.000 
#    0.000    0.000    0.000    0.000    0.000    0.000 
#
# Total GULP energy -297507.575447 kJ/mol
# GULP energy per Si atom -12396.148977 kJ/mol
# Density = 2.204465 g / cm^3
# Si number density = 22.094939 Si / 1000 Ang^3
#
#
#
# Elastic Constant Matrix: (Units=GPa)
#
#
# Indices 1 2 3 4 5 6 
#
# 1 98.7141 46.5012 30.8351 0.0001 1.4760 0.0000
# 2 46.5012 108.0985 11.2347 -0.0001 13.1849 0.0000
# 3 30.8351 11.2347 32.5545 -0.0002 3.8518 0.0000
# 4 0.0001 -0.0001 -0.0002 -137.5731 0.0002 37.3118
# 5 1.4760 13.1849 3.8518 0.0002 39.5290 0.0000
# 6 0.0000 0.0000 0.0000 37.3118 0.0000 42.0359
#
#
#
# Elastic Compliance Matrix: (Units=1/GPa)
#
#
# Indices 1 2 3 4 5 6 
#
# 1 0.017815 -0.006465 -0.014992 0.000000 0.002952 0.000000
# 2 -0.006465 0.012284 0.002368 0.000000 -0.004087 0.000000
# 3 -0.014992 0.002368 0.044643 0.000000 -0.004580 0.000000
# 4 0.000000 0.000000 0.000000 -0.005859 0.000000 0.005200
# 5 0.002952 -0.004087 -0.004580 0.000000 0.026997 0.000000
# 6 0.000000 0.000000 0.000000 0.005200 0.000000 0.019173
#
#
# Mechanical properties :
#
#
# Convention : Reuss Voigt Hill
#
# Bulk Modulus (GPa) = 27.34990 46.27880 36.81435
# Shear Modulus (GPa) = 30.22603 -1.14859 14.53872
#
# Velocity S-wave (km/s) = 3.70267 -0.72178 2.56796
# Velocity P-wave (km/s) = 5.53940 4.50514 5.04882
#
# Compressibility (1/GPa) = 0.03656321
#
# Stress axis : x y z
#
# Youngs Moduli (GPa) = 56.13304 81.40378 22.40013
#
# Poissons Ratio (x) = 0.52631 0.33582
# Poissons Ratio (y) = 0.36293 -0.05305
# Poissons Ratio (z) = 0.84155 -0.19277
#
# Static dielectric constant tensor:
#      x y z
#    x 4.361450 0.000000 0.138790 
#    y 0.000000 4.085530 0.000000 
#    z 0.138790 0.000000 3.664840 
# 
# 
# High freq. dielectric constant tensor:
#      x y z
#    x 1.887320 0.000000 0.010310 
#    y 0.000000 1.882920 0.000000 
#    z 0.010310 0.000000 1.835880 
# 
# From -- ./inp_files/176849.got.cif
#   From: 2010.06.25/outbox.cif.g09.slc.cpg/sg15_89_cif.got.tgz:176849.got - 2010.06.28 07:06:18.
