data_PCOD8151081
_publ_section_title
;
Structure prediction by ZEFSAII (Michael W. Deem and Ramdas Pophale) SiO2 
 PCOD8151081
Probable space group: C 2/C
;
_chemical_formula_sum "Si O2"
_cell_formula_units_Z 64
_cell_length_a 13.187321
_cell_length_b 19.624782
_cell_length_c 14.535941
_cell_angle_alpha 90.000000
_cell_angle_beta 61.937065
_cell_angle_gamma 90.000000
_cell_volume 3319.598158
_symmetry_space_group_name_H-M "C 2/C"
_symmetry_group_IT_number 15
_symmetry_cell_setting 'monoclinic'
loop_
_space_group_symop_operation_xyz
x,y,z
-x,y,1/2-z
-x,-y,-z
x,-y,1/2+z
1/2+x,1/2+y,z
1/2-x,1/2+y,1/2-z
1/2-x,1/2-y,-z
1/2+x,1/2-y,1/2+z
loop_
_atom_site_type_symbol
_atom_site_label
_atom_site_fract_x
_atom_site_fract_y
_atom_site_fract_z
Si Si1 0.766413 0.764012 0.687901
Si Si2 0.870811 0.403203 0.776866
Si Si3 0.599220 0.324898 0.149673
Si Si4 0.792959 0.408916 0.003793
Si Si5 0.335172 0.831705 0.513280
Si Si6 0.872994 0.245516 0.331800
Si Si7 0.450859 0.780058 0.976255
Si Si8 0.375852 0.026756 0.079120
O O1 0.701772 0.836269 0.718584
O O2 0.691460 0.703477 0.680971
O O3 0.801407 0.737625 0.772360
O O4 0.882175 0.767663 0.577164
O O5 0.866063 0.454749 0.691687
O O6 0.000000 0.382581 0.750000
O O7 0.815638 0.438557 0.891290
O O8 0.500000 0.362904 0.250000
O O9 0.665270 0.377051 0.055108
O O10 0.542644 0.261421 0.120930
O O11 0.890433 0.352586 0.984202
O O12 0.790930 0.465967 0.084658
O O13 0.200814 0.811232 0.581215
O O14 0.379921 0.813515 0.391506
O O15 0.418185 0.792216 0.549450
O O16 0.345061 0.911342 0.525436
O O17 0.000000 0.218626 0.250000
O O18 0.500000 0.000000 0.000000
#
# Coordination Sequence:
#
# PCOD8151081 Si02
#       8
#     8   8   8   8   8   8   8   8
#     4  11  20  36  62  95 125 160 206 263 322 382
#     4  12  21  38  67  90 123 168 209 258 321 375
#     4  11  22  36  66  97 126 158 200 280 326 359
#     4  11  23  41  58  96 129 164 212 252 318 385
#     4  11  23  39  62  90 125 167 208 260 314 379
#     4  11  23  40  59  87 127 167 208 256 314 380
#     4  11  19  37  66  95 126 153 206 275 322 367
#     4  12  24  40  61  91 133 169 211 256 311 392
#
# _framework density 19.279440999999998
#
# number of rings (size 3 to 8) (size 9 to 14) (size 15 to 20)
#    0.000    0.750    7.500    1.875    0.000    0.000 
#    6.750    0.625    0.000    0.750    0.000    0.000 
#    0.000    0.000    0.000    0.000    0.000    0.000 
#
# Total GULP energy -396653.334215 kJ/mol
# GULP energy per Si atom -12395.416694 kJ/mol
# Density = 1.923556 g / cm^3
# Si number density = 19.279441 Si / 1000 Ang^3
#
#
#
# Elastic Constant Matrix: (Units=GPa)
#
#
# Indices 1 2 3 4 5 6 
#
# 1 77.8472 36.7479 45.2647 0.0000 1.8534 0.0000
# 2 36.7479 91.9713 49.1619 0.0000 4.4917 0.0000
# 3 45.2647 49.1619 130.3992 0.0000 -0.6314 0.0000
# 4 0.0000 0.0000 0.0000 30.3179 0.0000 4.1746
# 5 1.8534 4.4917 -0.6314 0.0000 44.9927 0.0000
# 6 0.0000 0.0000 0.0000 4.1746 0.0000 21.2100
#
#
#
# Elastic Compliance Matrix: (Units=1/GPa)
#
#
# Indices 1 2 3 4 5 6 
#
# 1 0.017592 -0.004695 -0.004338 0.000000 -0.000317 0.000000
# 2 -0.004695 0.014963 -0.004018 0.000000 -0.001357 0.000000
# 3 -0.004338 -0.004018 0.010693 0.000000 0.000730 0.000000
# 4 0.000000 0.000000 0.000000 0.033903 0.000000 -0.006673
# 5 -0.000317 -0.001357 0.000730 0.000000 0.022385 0.000000
# 6 0.000000 0.000000 0.000000 -0.006673 0.000000 0.048461
#
#
# Mechanical properties :
#
#
# Convention : Reuss Voigt Hill
#
# Bulk Modulus (GPa) = 58.32287 62.50742 60.41514
# Shear Modulus (GPa) = 27.80672 30.57366 29.19019
#
# Velocity S-wave (km/s) = 3.80188 3.98655 3.89531
# Velocity P-wave (km/s) = 7.04197 7.32682 7.18581
#
# Compressibility (1/GPa) = 0.01714593
#
# Stress axis : x y z
#
# Youngs Moduli (GPa) = 56.84490 66.83242 93.51866
#
# Poissons Ratio (x) = 0.31375 0.40570
# Poissons Ratio (y) = 0.26686 0.37577
# Poissons Ratio (z) = 0.24660 0.26854
#
# Static dielectric constant tensor:
#      x y z
#    x 3.712850 0.000000 0.000510 
#    y 0.000000 3.436070 0.000000 
#    z 0.000510 0.000000 3.980850 
# 
# 
# High freq. dielectric constant tensor:
#      x y z
#    x 1.748910 0.000000 0.001960 
#    y 0.000000 1.711510 0.000000 
#    z 0.001960 0.000000 1.773650 
# 
# From -- ./inp_files/155185.got.cif
#   From: 2010.06.25/outbox.cif.g09.slc.cpg/sg15_78_cif.got.tgz:155185.got - 2010.06.28 07:06:18.
