data_PCOD8151703
_publ_section_title
;
Structure prediction by ZEFSAII (Michael W. Deem and Ramdas Pophale) SiO2 
 PCOD8151703
Probable space group: C 2/C
;
_chemical_formula_sum "Si O2"
_cell_formula_units_Z 56
_cell_length_a 8.128212
_cell_length_b 12.313690
_cell_length_c 28.250176
_cell_angle_alpha 90.000000
_cell_angle_beta 117.015825
_cell_angle_gamma 90.000000
_cell_volume 2518.976646
_symmetry_space_group_name_H-M "C 2/C"
_symmetry_group_IT_number 15
_symmetry_cell_setting 'monoclinic'
loop_
_space_group_symop_operation_xyz
x,y,z
-x,y,1/2-z
-x,-y,-z
x,-y,1/2+z
1/2+x,1/2+y,z
1/2-x,1/2+y,1/2-z
1/2-x,1/2-y,-z
1/2+x,1/2-y,1/2+z
loop_
_atom_site_type_symbol
_atom_site_label
_atom_site_fract_x
_atom_site_fract_y
_atom_site_fract_z
Si Si1 0.393704 0.847426 0.383624
Si Si2 0.973861 0.835068 0.667310
Si Si3 0.922641 0.443931 0.622069
Si Si4 0.554517 0.474300 0.118641
Si Si5 0.521896 0.630046 0.703308
Si Si6 0.308628 0.725012 0.560296
Si Si7 0.712594 0.846608 0.719546
O O1 0.490045 0.777395 0.355191
O O2 0.381718 0.792376 0.434163
O O3 0.178508 0.860138 0.345232
O O4 0.496299 0.962550 0.401204
O O5 0.147556 0.881164 0.720765
O O6 0.807515 0.816557 0.681740
O O7 0.926633 0.925752 0.621319
O O8 0.714447 0.476715 0.607282
O O9 0.923399 0.327249 0.596221
O O10 0.054865 0.436020 0.686185
O O11 0.645616 0.425421 0.178851
O O12 0.436570 0.383564 0.075345
O O13 0.500000 0.562339 0.750000
O O14 0.612334 0.743142 0.728811
O O15 0.250000 0.750000 0.500000
#
# Coordination Sequence:
#
# PCOD8151703 Si02
#       7
#     8   8   8   8   8   8   8
#     4  11  23  43  67  98 137 177 227 286 338 406
#     4  11  23  39  67 104 141 190 229 273 339 413
#     4  12  25  46  71 101 139 185 228 285 348 411
#     4  11  24  44  69  99 140 179 227 289 342 412
#     4  11  21  39  60  95 141 182 227 275 326 400
#     4  11  26  51  75 100 133 176 235 302 354 410
#     4  11  22  38  66 101 142 188 233 269 335 412
#
# _framework density 22.231252000000001
#
# number of rings (size 3 to 8) (size 9 to 14) (size 15 to 20)
#    0.000    0.857    5.714    2.571    4.000    1.143 
#    0.000    0.714    0.000    0.000    0.000    0.000 
#    0.000    0.000    0.000    0.000    0.000    0.000 
#
# Total GULP energy -346926.892220 kJ/mol
# GULP energy per Si atom -12390.246151 kJ/mol
# Density = 2.218065 g / cm^3
# Si number density = 22.231252 Si / 1000 Ang^3
#
#
#
# Elastic Constant Matrix: (Units=GPa)
#
#
# Indices 1 2 3 4 5 6 
#
# 1 87.2701 32.5749 15.4902 0.0000 -8.4151 0.0000
# 2 32.5749 120.0036 17.6799 0.0000 -1.4677 0.0000
# 3 15.4902 17.6799 74.2817 0.0000 -9.3517 0.0000
# 4 0.0000 0.0000 0.0000 19.1907 0.0000 -7.9172
# 5 -8.4151 -1.4677 -9.3517 0.0000 22.6089 0.0000
# 6 0.0000 0.0000 0.0000 -7.9172 0.0000 28.6506
#
#
#
# Elastic Compliance Matrix: (Units=1/GPa)
#
#
# Indices 1 2 3 4 5 6 
#
# 1 0.013375 -0.003364 -0.001466 0.000000 0.004154 0.000000
# 2 -0.003364 0.009484 -0.001726 0.000000 -0.001350 0.000000
# 3 -0.001466 -0.001726 0.014870 0.000000 0.005493 0.000000
# 4 0.000000 0.000000 0.000000 0.058814 0.000000 0.016252
# 5 0.004154 -0.001350 0.005493 0.000000 0.047961 0.000000
# 6 0.000000 0.000000 0.000000 0.016252 0.000000 0.039395
#
#
# Mechanical properties :
#
#
# Convention : Reuss Voigt Hill
#
# Bulk Modulus (GPa) = 40.61968 45.89395 43.25682
# Shear Modulus (GPa) = 24.36472 28.47739 26.42105
#
# Velocity S-wave (km/s) = 3.31413 3.58294 3.45115
# Velocity P-wave (km/s) = 5.74071 6.14860 5.94815
#
# Compressibility (1/GPa) = 0.02461861
#
# Stress axis : x y z
#
# Youngs Moduli (GPa) = 74.76663 105.44126 67.24856
#
# Poissons Ratio (x) = 0.35469 0.09856
# Poissons Ratio (y) = 0.25151 0.11606
# Poissons Ratio (z) = 0.10957 0.18197
#
# Static dielectric constant tensor:
#      x y z
#    x 4.610760 0.000000 -0.737610 
#    y 0.000000 4.263700 0.000000 
#    z -0.737610 0.000000 4.146630 
# 
# 
# High freq. dielectric constant tensor:
#      x y z
#    x 1.877750 0.000000 -0.024690 
#    y 0.000000 1.891530 0.000000 
#    z -0.024690 0.000000 1.837760 
# 
# From -- ./inp_files/307245.got.cif
#   From: 2010.06.25/outbox.cif.g09.slc.cpg/sg15_154_cif.got.tgz:307245.got - 2010.06.28 07:06:18.
