data_PCOD8151736
_publ_section_title
;
Structure prediction by ZEFSAII (Michael W. Deem and Ramdas Pophale) SiO2 
 PCOD8151736
Probable space group: C 2/C
;
_chemical_formula_sum "Si O2"
_cell_formula_units_Z 32
_cell_length_a 24.253462
_cell_length_b 6.955583
_cell_length_c 8.522155
_cell_angle_alpha 90.000000
_cell_angle_beta 70.209179
_cell_angle_gamma 90.000000
_cell_volume 1352.746255
_symmetry_space_group_name_H-M "C 2/C"
_symmetry_group_IT_number 15
_symmetry_cell_setting 'monoclinic'
loop_
_space_group_symop_operation_xyz
x,y,z
-x,y,1/2-z
-x,-y,-z
x,-y,1/2+z
1/2+x,1/2+y,z
1/2-x,1/2+y,1/2-z
1/2-x,1/2-y,-z
1/2+x,1/2-y,1/2+z
loop_
_atom_site_type_symbol
_atom_site_label
_atom_site_fract_x
_atom_site_fract_y
_atom_site_fract_z
Si Si1 0.786531 0.138258 0.261248
Si Si2 0.458215 0.597750 0.416725
Si Si3 0.707031 0.975272 0.587238
Si Si4 0.382794 0.336263 0.261239
O O1 0.726621 0.076353 0.407900
O O2 0.808915 0.349073 0.280721
O O3 0.764166 0.141746 0.101187
O O4 0.837634 0.989006 0.235640
O O5 0.500000 0.711504 0.250000
O O6 0.500000 0.500000 0.500000
O O7 0.422401 0.433560 0.356660
O O8 0.417037 0.730763 0.567472
O O9 0.648857 0.846046 0.628948
#
# Coordination Sequence:
#
# PCOD8151736 Si02
#       4
#     8   8   8   8
#     4  11  23  39  58  99 136 166 204 250 306 402
#     4   9  21  41  66  91 119 163 224 277 320 360
#     4  11  24  37  60  92 140 168 203 246 310 390
#     4  11  21  39  67  91 125 176 203 259 325 376
#
# _framework density 23.655583
#
# number of rings (size 3 to 8) (size 9 to 14) (size 15 to 20)
#    0.000    1.500    2.500    2.250    7.000    0.000 
#    0.000    0.000    0.000   30.000    0.000    0.000 
#    0.000    0.000    0.000    0.000    0.000    0.000 
#
# Total GULP energy -198242.876909 kJ/mol
# GULP energy per Si atom -12390.179807 kJ/mol
# Density = 2.360174 g / cm^3
# Si number density = 23.655583 Si / 1000 Ang^3
#
#
#
# Elastic Constant Matrix: (Units=GPa)
#
#
# Indices 1 2 3 4 5 6 
#
# 1 108.8045 30.6548 41.3141 0.0000 2.5143 0.0000
# 2 30.6548 55.9429 13.8192 0.0000 -11.2899 0.0000
# 3 41.3141 13.8192 121.7045 0.0000 -7.7419 0.0000
# 4 0.0000 0.0000 0.0000 -2.5714 0.0000 -12.0582
# 5 2.5143 -11.2899 -7.7419 0.0000 41.1975 0.0000
# 6 0.0000 0.0000 0.0000 -12.0582 0.0000 21.4595
#
#
#
# Elastic Compliance Matrix: (Units=1/GPa)
#
#
# Indices 1 2 3 4 5 6 
#
# 1 0.012541 -0.006616 -0.003714 0.000000 -0.003276 0.000000
# 2 -0.006616 0.022828 0.000078 0.000000 0.006674 0.000000
# 3 -0.003714 0.000078 0.009599 0.000000 0.002052 0.000000
# 4 0.000000 0.000000 0.000000 -0.106986 0.000000 -0.060116
# 5 -0.003276 0.006674 0.002052 0.000000 0.026688 0.000000
# 6 0.000000 0.000000 0.000000 -0.060116 0.000000 0.012820
#
#
# Mechanical properties :
#
#
# Convention : Reuss Voigt Hill
#
# Bulk Modulus (GPa) = 40.87530 50.89202 45.88366
# Shear Modulus (GPa) = 813.30550 25.39469 419.35010
#
# Velocity S-wave (km/s) = 18.56226 3.28001 13.32884
# Velocity P-wave (km/s) = 21.83408 5.99209 16.00987
#
# Compressibility (1/GPa) = 0.02446465
#
# Stress axis : x y z
#
# Youngs Moduli (GPa) = 79.73995 43.80564 104.17579
#
# Poissons Ratio (x) = 0.28980 0.38695
# Poissons Ratio (y) = 0.52753 -0.00815
# Poissons Ratio (z) = 0.29618 -0.00343
#
# Static dielectric constant tensor:
#      x y z
#    x 4.488980 0.000000 -0.395240 
#    y 0.000000 4.135970 0.000000 
#    z -0.395240 0.000000 5.721530 
# 
# 
# High freq. dielectric constant tensor:
#      x y z
#    x 1.932350 0.000000 0.007750 
#    y 0.000000 1.899850 0.000000 
#    z 0.007750 0.000000 1.979230 
# 
# From -- ./inp_files/59593.got.cif
#   From: 2010.06.25/outbox.cif.g09.slc.cpg/sg15_30_cif.got.tgz:59593.got - 2010.06.28 07:06:18.
