data_PCOD8151667
_publ_section_title
;
Structure prediction by ZEFSAII (Michael W. Deem and Ramdas Pophale) SiO2 
 PCOD8151667
Probable space group: C 2/C
;
_chemical_formula_sum "Si O2"
_cell_formula_units_Z 32
_cell_length_a 14.198046
_cell_length_b 11.385643
_cell_length_c 10.196990
_cell_angle_alpha 90.000000
_cell_angle_beta 40.856863
_cell_angle_gamma 90.000000
_cell_volume 1078.325296
_symmetry_space_group_name_H-M "C 2/C"
_symmetry_group_IT_number 15
_symmetry_cell_setting 'monoclinic'
loop_
_space_group_symop_operation_xyz
x,y,z
-x,y,1/2-z
-x,-y,-z
x,-y,1/2+z
1/2+x,1/2+y,z
1/2-x,1/2+y,1/2-z
1/2-x,1/2-y,-z
1/2+x,1/2-y,1/2+z
loop_
_atom_site_type_symbol
_atom_site_label
_atom_site_fract_x
_atom_site_fract_y
_atom_site_fract_z
Si Si1 0.277487 0.449697 0.696693
Si Si2 0.791247 0.393872 0.008946
Si Si3 0.362534 0.310595 0.973964
Si Si4 0.479684 0.267214 0.102554
O O1 0.173892 0.400758 0.686298
O O2 0.222667 0.477902 0.904336
O O3 0.303417 0.580224 0.615728
O O4 0.421063 0.373103 0.557708
O O5 0.639287 0.320853 0.170862
O O6 0.926196 0.333283 0.932927
O O7 0.500000 0.351319 0.750000
O O8 0.250000 0.250000 0.000000
O O9 0.399122 0.217337 0.054384
#
# Coordination Sequence:
#
# PCOD8151667 Si02
#       4
#     8   8   8   8
#     4  11  23  43  71 100 135 187 232 278 343 426
#     4  11  24  44  72 101 137 181 235 284 344 413
#     4  11  21  38  63  95 132 174 223 278 335 401
#     4  11  23  43  68 100 136 184 230 284 343 418
#
# _framework density 29.675644999999999
#
# number of rings (size 3 to 8) (size 9 to 14) (size 15 to 20)
#    0.000    1.000    0.000   10.500    0.000    0.000 
#    0.000   10.000    0.000    0.000    0.000    0.000 
#    0.000    0.000    0.000    0.000    0.000    0.000 
#
# Total GULP energy -198339.353055 kJ/mol
# GULP energy per Si atom -12396.209566 kJ/mol
# Density = 2.960810 g / cm^3
# Si number density = 29.675645 Si / 1000 Ang^3
#
#
#
# Elastic Constant Matrix: (Units=GPa)
#
#
# Indices 1 2 3 4 5 6 
#
# 1 210.5203 42.7639 36.8912 0.0000 7.9712 0.0000
# 2 42.7639 65.1696 10.6157 0.0000 -9.5537 0.0000
# 3 36.8912 10.6157 97.1232 0.0000 1.9367 0.0000
# 4 0.0000 0.0000 0.0000 18.6476 0.0000 6.6624
# 5 7.9712 -9.5537 1.9367 0.0000 71.5274 0.0000
# 6 0.0000 0.0000 0.0000 6.6624 0.0000 46.8230
#
#
#
# Elastic Compliance Matrix: (Units=1/GPa)
#
#
# Indices 1 2 3 4 5 6 
#
# 1 0.005862 -0.003715 -0.001798 0.000000 -0.001101 0.000000
# 2 -0.003715 0.018309 -0.000648 0.000000 0.002877 0.000000
# 3 -0.001798 -0.000648 0.011054 0.000000 -0.000185 0.000000
# 4 0.000000 0.000000 0.000000 0.056498 0.000000 -0.008039
# 5 -0.001101 0.002877 -0.000185 0.000000 0.014493 0.000000
# 6 0.000000 0.000000 0.000000 -0.008039 0.000000 0.022501
#
#
# Mechanical properties :
#
#
# Convention : Reuss Voigt Hill
#
# Bulk Modulus (GPa) = 43.66210 61.48384 52.57297
# Shear Modulus (GPa) = 33.63093 46.23576 39.93335
#
# Velocity S-wave (km/s) = 3.37008 3.95148 3.67230
# Velocity P-wave (km/s) = 5.46702 6.44845 5.97791
#
# Compressibility (1/GPa) = 0.02290316
#
# Stress axis : x y z
#
# Youngs Moduli (GPa) = 170.60307 54.61673 90.46656
#
# Poissons Ratio (x) = 0.20289 0.16270
# Poissons Ratio (y) = 0.63374 0.05859
# Poissons Ratio (z) = 0.30683 0.03537
#
# Static dielectric constant tensor:
#      x y z
#    x 8.258920 0.000000 2.022380 
#    y 0.000000 6.239320 0.000000 
#    z 2.022380 0.000000 7.582420 
# 
# 
# High freq. dielectric constant tensor:
#      x y z
#    x 2.265150 0.000000 0.017950 
#    y 0.000000 2.225780 0.000000 
#    z 0.017950 0.000000 2.212810 
# 
# From -- ./inp_files/85320.got.cif
#   From: 2010.06.25/outbox.cif.g09.slc.cpg/sg15_43_cif.got.tgz:85320.got - 2010.06.28 07:06:18.
