data_PCOD8151903
_publ_section_title
;
Structure prediction by ZEFSAII (Michael W. Deem and Ramdas Pophale) SiO2 
 PCOD8151903
Probable space group: C 2/C
;
_chemical_formula_sum "Si O2"
_cell_formula_units_Z 52
_cell_length_a 25.476106
_cell_length_b 12.373965
_cell_length_c 17.549787
_cell_angle_alpha 90.000000
_cell_angle_beta 154.102627
_cell_angle_gamma 90.000000
_cell_volume 2416.335186
_symmetry_space_group_name_H-M "C 2/C"
_symmetry_group_IT_number 15
_symmetry_cell_setting 'monoclinic'
loop_
_space_group_symop_operation_xyz
x,y,z
-x,y,1/2-z
-x,-y,-z
x,-y,1/2+z
1/2+x,1/2+y,z
1/2-x,1/2+y,1/2-z
1/2-x,1/2-y,-z
1/2+x,1/2-y,1/2+z
loop_
_atom_site_type_symbol
_atom_site_label
_atom_site_fract_x
_atom_site_fract_y
_atom_site_fract_z
Si Si1 0.000000 0.522996 0.750000
Si Si2 0.000250 0.151002 0.341224
Si Si3 0.763828 0.041724 0.852731
Si Si4 0.347078 0.837968 0.151881
Si Si5 0.168391 0.401021 0.073468
Si Si6 0.916993 0.039115 0.823017
Si Si7 0.923831 0.168355 0.573471
O O1 0.112802 0.593073 0.868498
O O2 0.952336 0.449571 0.619572
O O3 0.962563 0.265944 0.328285
O O4 0.000000 0.152387 0.250000
O O5 0.134863 0.126181 0.543940
O O6 0.908222 0.057391 0.249127
O O7 0.694806 0.083793 0.836326
O O8 0.673992 0.042346 0.663844
O O9 0.825802 0.927763 0.953883
O O10 0.250000 0.750000 0.000000
O O11 0.284689 0.429254 0.175545
O O12 0.151206 0.272201 0.051414
O O13 0.980584 0.142402 0.867915
O O14 0.000000 0.000000 0.000000
O O15 0.000000 0.186231 0.750000
#
# Coordination Sequence:
#
# PCOD8151903 Si02
#       7
#     4   8   8   8   8   8   8
#     4  12  28  46  66 108 146 184 246 298 362 430
#     4  11  21  42  68 110 129 183 240 288 356 429
#     4  11  25  43  73 100 143 189 241 297 352 441
#     4  12  24  42  73 104 142 183 232 308 363 417
#     4  12  27  47  70 107 145 190 241 301 362 424
#     4  11  23  44  74 102 142 187 240 296 350 432
#     4  11  26  47  71 106 142 193 245 286 364 446
#
# _framework density 21.520194
#
# number of rings (size 3 to 8) (size 9 to 14) (size 15 to 20)
#    0.000    0.615    6.154    2.769    4.308    4.923 
#    0.000    0.000    0.000    0.000    0.000    0.000 
#    0.000    0.000    0.000    0.000    0.000    0.000 
#
# Total GULP energy -322387.086139 kJ/mol
# GULP energy per Si atom -12399.503313 kJ/mol
# Density = 2.147121 g / cm^3
# Si number density = 21.520194 Si / 1000 Ang^3
#
#
#
# Elastic Constant Matrix: (Units=GPa)
#
#
# Indices 1 2 3 4 5 6 
#
# 1 128.8450 38.9404 22.6942 0.0000 3.9100 0.0000
# 2 38.9404 106.6102 28.3148 0.0000 7.2308 0.0000
# 3 22.6942 28.3148 89.0821 0.0000 -14.8532 0.0000
# 4 0.0000 0.0000 0.0000 39.8598 0.0000 8.9216
# 5 3.9100 7.2308 -14.8532 0.0000 29.8674 0.0000
# 6 0.0000 0.0000 0.0000 8.9216 0.0000 34.0518
#
#
#
# Elastic Compliance Matrix: (Units=1/GPa)
#
#
# Indices 1 2 3 4 5 6 
#
# 1 0.008913 -0.002737 -0.001619 0.000000 -0.001310 0.000000
# 2 -0.002737 0.011663 -0.003730 0.000000 -0.004320 0.000000
# 3 -0.001619 -0.003730 0.014186 0.000000 0.008170 0.000000
# 4 0.000000 0.000000 0.000000 0.026651 0.000000 -0.006983
# 5 -0.001310 -0.004320 0.008170 0.000000 0.038762 0.000000
# 6 0.000000 0.000000 0.000000 -0.006983 0.000000 0.031196
#
#
# Mechanical properties :
#
#
# Convention : Reuss Voigt Hill
#
# Bulk Modulus (GPa) = 53.79240 56.04848 54.92044
# Shear Modulus (GPa) = 32.52222 36.39500 34.45861
#
# Velocity S-wave (km/s) = 3.89169 4.11688 4.00587
# Velocity P-wave (km/s) = 6.72638 6.97850 6.85360
#
# Compressibility (1/GPa) = 0.01858999
#
# Stress axis : x y z
#
# Youngs Moduli (GPa) = 112.19141 85.73824 70.49204
#
# Poissons Ratio (x) = 0.23465 0.11414
# Poissons Ratio (y) = 0.30705 0.26296
# Poissons Ratio (z) = 0.18166 0.31984
#
# Static dielectric constant tensor:
#      x y z
#    x 4.161510 0.000000 0.087930 
#    y 0.000000 4.157620 0.000000 
#    z 0.087930 0.000000 4.088620 
# 
# 
# High freq. dielectric constant tensor:
#      x y z
#    x 1.854800 0.000000 0.003740 
#    y 0.000000 1.847880 0.000000 
#    z 0.003740 0.000000 1.843180 
# 
# From -- ./inp_files/222480.got.cif
#   From: 2010.06.25/outbox.cif.g09.slc.cpg/sg15_112_cif.got.tgz:222480.got - 2010.06.28 07:06:18.
