data_PCOD8151934
_publ_section_title
;
Structure prediction by ZEFSAII (Michael W. Deem and Ramdas Pophale) SiO2 
 PCOD8151934
Probable space group: C 2/C
;
_chemical_formula_sum "Si O2"
_cell_formula_units_Z 56
_cell_length_a 18.516906
_cell_length_b 17.713695
_cell_length_c 16.211539
_cell_angle_alpha 90.000000
_cell_angle_beta 148.557207
_cell_angle_gamma 90.000000
_cell_volume 2773.821639
_symmetry_space_group_name_H-M "C 2/C"
_symmetry_group_IT_number 15
_symmetry_cell_setting 'monoclinic'
loop_
_space_group_symop_operation_xyz
x,y,z
-x,y,1/2-z
-x,-y,-z
x,-y,1/2+z
1/2+x,1/2+y,z
1/2-x,1/2+y,1/2-z
1/2-x,1/2-y,-z
1/2+x,1/2-y,1/2+z
loop_
_atom_site_type_symbol
_atom_site_label
_atom_site_fract_x
_atom_site_fract_y
_atom_site_fract_z
Si Si1 0.902320 0.670236 0.364173
Si Si2 0.049876 0.079947 0.213764
Si Si3 0.057566 0.462401 0.713341
Si Si4 0.713508 0.547660 0.645356
Si Si5 0.119618 0.249769 0.314055
Si Si6 0.683531 0.042882 0.110570
Si Si7 0.308759 0.202005 0.796377
O O1 0.888427 0.619189 0.267245
O O2 0.886057 0.622526 0.433208
O O3 0.790486 0.736967 0.257520
O O4 0.053615 0.707463 0.514661
O O5 0.053749 0.169902 0.223988
O O6 0.205209 0.050803 0.353146
O O7 0.000000 0.042678 0.250000
O O8 0.942507 0.054357 0.039039
O O9 0.176723 0.527625 0.821903
O O10 0.000000 0.456903 0.750000
O O11 0.933617 0.483986 0.530003
O O12 0.729563 0.478496 0.723454
O O13 0.743278 0.619175 0.733112
O O14 0.250000 0.250000 0.500000
O O15 0.162164 0.289543 0.272130
O O16 0.000000 0.293339 0.250000
#
# Coordination Sequence:
#
# PCOD8151934 Si02
#       7
#     8   8   8   8   8   8   8
#     4  11  23  41  63  95 121 166 212 255 315 387
#     4  11  22  37  55  91 127 161 198 248 310 360
#     4  11  23  44  68  91 123 168 219 267 314 376
#     4  11  22  39  64  92 122 164 212 257 314 376
#     4  11  23  36  53  90 131 161 199 243 304 378
#     4  11  21  43  64  89 123 165 214 258 305 390
#     4  12  21  39  62  88 128 164 205 251 315 378
#
# _framework density 20.188752999999998
#
# number of rings (size 3 to 8) (size 9 to 14) (size 15 to 20)
#    0.000    0.857    4.286    5.571    0.000    0.571 
#    0.000    0.714    0.000    0.000    0.000    0.000 
#    0.000    0.000    0.000    0.000    0.000    0.000 
#
# Total GULP energy -347053.122586 kJ/mol
# GULP energy per Si atom -12394.754378 kJ/mol
# Density = 2.014280 g / cm^3
# Si number density = 20.188753 Si / 1000 Ang^3
#
#
#
# Elastic Constant Matrix: (Units=GPa)
#
#
# Indices 1 2 3 4 5 6 
#
# 1 90.0124 25.7463 2.3903 0.0020 10.5664 0.0013
# 2 25.7463 80.0359 26.4524 0.0014 9.9421 0.0013
# 3 2.3903 26.4524 95.6372 0.0032 11.5442 0.0032
# 4 0.0020 0.0014 0.0032 30.1761 0.0021 11.7177
# 5 10.5664 9.9421 11.5442 0.0021 33.4378 0.0017
# 6 0.0013 0.0013 0.0032 11.7177 0.0017 23.4288
#
#
#
# Elastic Compliance Matrix: (Units=1/GPa)
#
#
# Indices 1 2 3 4 5 6 
#
# 1 0.012612 -0.004055 0.001191 0.000000 -0.003191 0.000000
# 2 -0.004055 0.015329 -0.003906 0.000000 -0.001928 0.000000
# 3 0.001191 -0.003906 0.011908 -0.000001 -0.003326 -0.000001
# 4 0.000000 0.000000 -0.000001 0.041126 -0.000001 -0.020569
# 5 -0.003191 -0.001928 -0.003326 -0.000001 0.032636 -0.000001
# 6 0.000000 0.000000 -0.000001 -0.020569 -0.000001 0.052970
#
#
# Mechanical properties :
#
#
# Convention : Reuss Voigt Hill
#
# Bulk Modulus (GPa) = 38.00577 41.65150 39.82863
# Shear Modulus (GPa) = 26.47041 31.48162 28.97601
#
# Velocity S-wave (km/s) = 3.62490 3.95316 3.79259
# Velocity P-wave (km/s) = 6.03208 6.44302 6.24093
#
# Compressibility (1/GPa) = 0.02631180
#
# Stress axis : x y z
#
# Youngs Moduli (GPa) = 79.28778 65.23549 83.97541
#
# Poissons Ratio (x) = 0.26450 -0.10005
# Poissons Ratio (y) = 0.32147 0.32799
# Poissons Ratio (z) = -0.09447 0.25480
#
# Static dielectric constant tensor:
#      x y z
#    x 3.945030 -0.000010 0.262290 
#    y -0.000010 3.885380 -0.000010 
#    z 0.262290 -0.000010 3.495760 
# 
# 
# High freq. dielectric constant tensor:
#      x y z
#    x 1.788860 0.000000 0.018730 
#    y 0.000000 1.775320 0.000000 
#    z 0.018730 0.000000 1.789840 
# 
# From -- ./inp_files/49015.got.cif
#   From: 2010.06.25/outbox.cif.g09.slc.cpg/sg15_25_cif.got.tgz:49015.got - 2010.06.28 07:06:18.
