data_PCOD8151864
_publ_section_title
;
Structure prediction by ZEFSAII (Michael W. Deem and Ramdas Pophale) SiO2 
 PCOD8151864
Probable space group: C 2/C
;
_chemical_formula_sum "Si O2"
_cell_formula_units_Z 60
_cell_length_a 10.681557
_cell_length_b 14.951483
_cell_length_c 18.253427
_cell_angle_alpha 90.000000
_cell_angle_beta 102.142368
_cell_angle_gamma 90.000000
_cell_volume 2849.947521
_symmetry_space_group_name_H-M "C 2/C"
_symmetry_group_IT_number 15
_symmetry_cell_setting 'monoclinic'
loop_
_space_group_symop_operation_xyz
x,y,z
-x,y,1/2-z
-x,-y,-z
x,-y,1/2+z
1/2+x,1/2+y,z
1/2-x,1/2+y,1/2-z
1/2-x,1/2-y,-z
1/2+x,1/2-y,1/2+z
loop_
_atom_site_type_symbol
_atom_site_label
_atom_site_fract_x
_atom_site_fract_y
_atom_site_fract_z
Si Si1 0.000000 0.098550 0.250000
Si Si2 0.390882 0.433354 0.007346
Si Si3 0.971621 0.575895 0.437743
Si Si4 0.774644 0.997467 0.638971
Si Si5 0.685019 0.056732 0.355951
Si Si6 0.176288 0.219068 0.186538
Si Si7 0.887721 0.257100 0.480000
Si Si8 0.351654 0.100904 0.752538
O O1 0.886349 0.038689 0.204142
O O2 0.946657 0.159998 0.307883
O O3 0.273780 0.442875 0.937553
O O4 0.456358 0.336688 0.006525
O O5 0.500000 0.500000 0.000000
O O6 0.338489 0.445609 0.082431
O O7 0.039810 0.557056 0.367667
O O8 0.020069 0.668541 0.476381
O O9 0.000000 0.500000 0.500000
O O10 0.817974 0.580737 0.404629
O O11 0.677412 0.061051 0.671105
O O12 0.707193 0.148106 0.310953
O O13 0.714913 0.965915 0.314281
O O14 0.134116 0.271934 0.108726
O O15 0.205379 0.296506 0.251512
O O16 0.750000 0.250000 0.500000
O O17 0.500000 0.106572 0.750000
#
# Coordination Sequence:
#
# PCOD8151864 Si02
#       8
#     4   8   8   8   8   8   8   8
#     4  12  26  48  62  94 146 196 224 280 358 414
#     4  11  24  45  67  99 138 183 230 289 352 410
#     4  12  22  41  71 110 136 173 234 296 349 407
#     4  12  25  43  72  98 139 187 235 292 348 421
#     4  11  23  43  68  99 142 176 224 291 344 411
#     4  11  23  43  68  94 142 187 224 276 352 421
#     4  11  21  41  72  99 132 179 229 283 352 411
#     4  12  24  40  70 103 133 183 233 278 354 418
#
# _framework density 21.053018999999999
#
# number of rings (size 3 to 8) (size 9 to 14) (size 15 to 20)
#    0.000    0.533    7.333    3.200    0.000    0.000 
#    2.400    1.333    1.467    0.000    0.000    0.000 
#    0.000    0.000    0.000    0.000    0.000    0.000 
#
# Total GULP energy -371831.344759 kJ/mol
# GULP energy per Si atom -12394.378159 kJ/mol
# Density = 2.100510 g / cm^3
# Si number density = 21.053019 Si / 1000 Ang^3
#
#
#
# Elastic Constant Matrix: (Units=GPa)
#
#
# Indices 1 2 3 4 5 6 
#
# 1 97.0556 53.3189 40.2393 0.0000 -2.3623 0.0000
# 2 53.3189 165.0519 57.2446 0.0000 0.4638 0.0000
# 3 40.2393 57.2446 99.2883 0.0000 -12.2001 0.0000
# 4 0.0000 0.0000 0.0000 42.3766 0.0000 -5.7119
# 5 -2.3623 0.4638 -12.2001 0.0000 45.5782 0.0000
# 6 0.0000 0.0000 0.0000 -5.7119 0.0000 33.3849
#
#
#
# Elastic Compliance Matrix: (Units=1/GPa)
#
#
# Indices 1 2 3 4 5 6 
#
# 1 0.013539 -0.003073 -0.003749 0.000000 -0.000270 0.000000
# 2 -0.003073 0.008344 -0.003718 0.000000 -0.001239 0.000000
# 3 -0.003749 -0.003718 0.014182 0.000000 0.003640 0.000000
# 4 0.000000 0.000000 0.000000 0.024155 0.000000 0.004133
# 5 -0.000270 -0.001239 0.003640 0.000000 0.022913 0.000000
# 6 0.000000 0.000000 0.000000 0.004133 0.000000 0.030661
#
#
# Mechanical properties :
#
#
# Convention : Reuss Voigt Hill
#
# Bulk Modulus (GPa) = 66.72724 73.66681 70.19703
# Shear Modulus (GPa) = 35.74797 38.30746 37.02771
#
# Velocity S-wave (km/s) = 4.12515 4.27027 4.19834
# Velocity P-wave (km/s) = 7.37921 7.70589 7.54432
#
# Compressibility (1/GPa) = 0.01498638
#
# Stress axis : x y z
#
# Youngs Moduli (GPa) = 73.86023 119.84255 70.51347
#
# Poissons Ratio (x) = 0.36825 0.26433
# Poissons Ratio (y) = 0.22696 0.26216
# Poissons Ratio (z) = 0.27688 0.44556
#
# Static dielectric constant tensor:
#      x y z
#    x 3.679370 0.000000 -0.315440 
#    y 0.000000 4.386100 0.000000 
#    z -0.315440 0.000000 3.896050 
# 
# 
# High freq. dielectric constant tensor:
#      x y z
#    x 1.818120 0.000000 -0.031340 
#    y 0.000000 1.836490 0.000000 
#    z -0.031340 0.000000 1.826160 
# 
# From -- ./inp_files/197899.got.cif
#   From: 2010.06.25/outbox.cif.g09.slc.cpg/sg15_99_cif.got.tgz:197899.got - 2010.06.28 07:06:18.
