data_PCOD8151724
_publ_section_title
;
Structure prediction by ZEFSAII (Michael W. Deem and Ramdas Pophale) SiO2 
 PCOD8151724
Probable space group: C 2/C
;
_chemical_formula_sum "Si O2"
_cell_formula_units_Z 48
_cell_length_a 14.966593
_cell_length_b 25.214440
_cell_length_c 9.041474
_cell_angle_alpha 90.000000
_cell_angle_beta 39.127924
_cell_angle_gamma 90.000000
_cell_volume 2153.168431
_symmetry_space_group_name_H-M "C 2/C"
_symmetry_group_IT_number 15
_symmetry_cell_setting 'monoclinic'
loop_
_space_group_symop_operation_xyz
x,y,z
-x,y,1/2-z
-x,-y,-z
x,-y,1/2+z
1/2+x,1/2+y,z
1/2-x,1/2+y,1/2-z
1/2-x,1/2-y,-z
1/2+x,1/2-y,1/2+z
loop_
_atom_site_type_symbol
_atom_site_label
_atom_site_fract_x
_atom_site_fract_y
_atom_site_fract_z
Si Si1 0.944938 0.832488 0.609464
Si Si2 0.658508 0.923746 0.488043
Si Si3 0.721505 0.867005 0.683747
Si Si4 0.406397 0.031898 0.000473
Si Si5 0.482017 0.209242 0.602264
Si Si6 0.275983 0.644366 0.612149
O O1 0.871892 0.843477 0.546207
O O2 0.989200 0.771867 0.577171
O O3 0.095526 0.860268 0.436024
O O4 0.834320 0.856544 0.871007
O O5 0.500000 0.915826 0.750000
O O6 0.749290 0.885237 0.479214
O O7 0.676204 0.904638 0.293401
O O8 0.696066 0.986494 0.441839
O O9 0.683878 0.920983 0.817255
O O10 0.602149 0.821240 0.853150
O O11 0.500000 0.057391 0.750000
O O12 0.500000 0.000000 0.000000
O O13 0.500000 0.192446 0.750000
O O14 0.324837 0.195638 0.745229
#
# Coordination Sequence:
#
# PCOD8151724 Si02
#       6
#     8   8   8   8   8   8
#     4  11  25  39  64  97 133 178 226 266 328 400
#     4  11  23  42  64  99 136 164 221 280 334 396
#     4  12  24  40  68 102 131 176 220 276 344 385
#     4  11  21  39  66 102 129 165 225 289 332 383
#     4  12  20  40  70  97 128 171 236 278 314 385
#     4  11  22  41  63  92 134 174 215 278 328 392
#
# _framework density 22.292729000000001
#
# number of rings (size 3 to 8) (size 9 to 14) (size 15 to 20)
#    0.000    0.667    8.333    2.000    2.333    0.667 
#    0.000    5.833    0.000    0.000    0.000    0.000 
#    0.000    0.000    0.000    0.000    0.000    0.000 
#
# Total GULP energy -297319.016002 kJ/mol
# GULP energy per Si atom -12388.292333 kJ/mol
# Density = 2.224199 g / cm^3
# Si number density = 22.292729 Si / 1000 Ang^3
#
#
#
# Elastic Constant Matrix: (Units=GPa)
#
#
# Indices 1 2 3 4 5 6 
#
# 1 96.3287 7.6995 4.4913 0.0000 -11.0004 0.0000
# 2 7.6995 96.1468 34.1628 0.0000 13.0207 0.0000
# 3 4.4913 34.1628 54.8828 0.0000 6.1195 0.0000
# 4 0.0000 0.0000 0.0000 8.3553 0.0000 12.3781
# 5 -11.0004 13.0207 6.1195 0.0000 35.0596 0.0000
# 6 0.0000 0.0000 0.0000 12.3781 0.0000 35.9326
#
#
#
# Elastic Compliance Matrix: (Units=1/GPa)
#
#
# Indices 1 2 3 4 5 6 
#
# 1 0.010961 -0.001209 -0.000590 0.000000 0.003991 0.000000
# 2 -0.001209 0.013943 -0.008118 0.000000 -0.004140 0.000000
# 3 -0.000590 -0.008118 0.023463 0.000000 -0.001265 0.000000
# 4 0.000000 0.000000 0.000000 0.244423 0.000000 -0.084200
# 5 0.003991 -0.004140 -0.001265 0.000000 0.031534 0.000000
# 6 0.000000 0.000000 0.000000 -0.084200 0.000000 0.056835
#
#
# Mechanical properties :
#
#
# Convention : Reuss Voigt Hill
#
# Bulk Modulus (GPa) = 35.04616 37.78507 36.41561
# Shear Modulus (GPa) = 12.18014 29.26981 20.72497
#
# Velocity S-wave (km/s) = 2.34000 3.62743 3.05236
# Velocity P-wave (km/s) = 4.80165 5.87628 5.36593
#
# Compressibility (1/GPa) = 0.02853380
#
# Stress axis : x y z
#
# Youngs Moduli (GPa) = 91.23273 71.72096 42.61947
#
# Poissons Ratio (x) = 0.08669 0.02513
# Poissons Ratio (y) = 0.11028 0.34600
# Poissons Ratio (z) = 0.05379 0.58226
#
# Static dielectric constant tensor:
#      x y z
#    x 4.546420 0.000000 0.214480 
#    y 0.000000 4.238880 0.000000 
#    z 0.214480 0.000000 3.959500 
# 
# 
# High freq. dielectric constant tensor:
#      x y z
#    x 1.876920 0.000000 0.009550 
#    y 0.000000 1.878310 0.000000 
#    z 0.009550 0.000000 1.867500 
# 
# From -- ./inp_files/43827.got.cif
#   From: 2010.06.25/outbox.cif.g09.slc.cpg/sg15_22_cif.got.tgz:43827.got - 2010.06.28 07:06:18.
