data_PCOD8151200
_publ_section_title
;
Structure prediction by ZEFSAII (Michael W. Deem and Ramdas Pophale) SiO2 
 PCOD8151200
Probable space group: C 2/C
;
_chemical_formula_sum "Si O2"
_cell_formula_units_Z 40
_cell_length_a 23.098727
_cell_length_b 5.339453
_cell_length_c 21.113474
_cell_angle_alpha 90.000000
_cell_angle_beta 134.440676
_cell_angle_gamma 90.000000
_cell_volume 1859.208071
_symmetry_space_group_name_H-M "C 2/C"
_symmetry_group_IT_number 15
_symmetry_cell_setting 'monoclinic'
loop_
_space_group_symop_operation_xyz
x,y,z
-x,y,1/2-z
-x,-y,-z
x,-y,1/2+z
1/2+x,1/2+y,z
1/2-x,1/2+y,1/2-z
1/2-x,1/2-y,-z
1/2+x,1/2-y,1/2+z
loop_
_atom_site_type_symbol
_atom_site_label
_atom_site_fract_x
_atom_site_fract_y
_atom_site_fract_z
Si Si1 0.990714 0.795942 0.669489
Si Si2 0.942283 0.791350 0.427900
Si Si3 0.430226 0.181766 0.064841
Si Si4 0.651632 0.340980 0.720815
Si Si5 0.316746 0.033316 0.881967
O O1 0.933556 0.549153 0.617098
O O2 0.000000 0.851556 0.750000
O O3 0.079617 0.731041 0.708824
O O4 0.950569 0.046214 0.609225
O O5 0.889194 0.670416 0.442635
O O6 0.001714 0.604022 0.435938
O O7 0.876824 0.895729 0.328367
O O8 0.000000 0.000000 0.500000
O O9 0.341468 0.206518 0.961472
O O10 0.676728 0.158849 0.682390
O O11 0.729811 0.402790 0.824403
#
# Coordination Sequence:
#
# PCOD8151200 Si02
#       5
#     8   8   8   8   8
#     4  11  25  46  65  89 124 177 226 258 304 381
#     4  11  20  35  59  92 131 163 203 250 325 391
#     4  11  23  39  67  92 125 168 215 267 313 383
#     4  11  23  36  62  95 133 167 197 270 324 385
#     4  12  21  37  59  99 130 157 206 264 344 371
#
# _framework density 21.514536
#
# number of rings (size 3 to 8) (size 9 to 14) (size 15 to 20)
#    0.000    0.800    6.000    3.600    0.000    0.000 
#    0.000    2.000    0.000    0.000    0.000    0.000 
#    0.000    0.000    0.000    0.000    0.000    0.000 
#
# Total GULP energy -247803.918382 kJ/mol
# GULP energy per Si atom -12390.195919 kJ/mol
# Density = 2.146557 g / cm^3
# Si number density = 21.514536 Si / 1000 Ang^3
#
#
#
# Elastic Constant Matrix: (Units=GPa)
#
#
# Indices 1 2 3 4 5 6 
#
# 1 43.4698 19.5152 39.5786 0.0000 -4.8894 0.0011
# 2 19.5152 98.2762 58.8663 0.0078 14.1127 0.0167
# 3 39.5786 58.8663 145.5162 -0.0035 11.1692 0.0030
# 4 0.0000 0.0078 -0.0035 32.8350 -0.0001 -1.0674
# 5 -4.8894 14.1127 11.1692 -0.0001 30.9367 0.0010
# 6 0.0011 0.0167 0.0030 -1.0674 0.0010 22.7486
#
#
#
# Elastic Compliance Matrix: (Units=1/GPa)
#
#
# Indices 1 2 3 4 5 6 
#
# 1 0.033216 -0.002806 -0.008640 0.000000 0.009649 0.000001
# 2 -0.002806 0.014242 -0.004593 -0.000004 -0.005282 -0.000010
# 3 -0.008640 -0.004593 0.011338 0.000002 -0.003364 0.000003
# 4 0.000000 -0.000004 0.000002 0.030502 0.000001 0.001431
# 5 0.009649 -0.005282 -0.003364 0.000001 0.037473 0.000002
# 6 0.000001 -0.000010 0.000003 0.001431 0.000002 0.044026
#
#
# Mechanical properties :
#
#
# Convention : Reuss Voigt Hill
#
# Bulk Modulus (GPa) = 37.42694 58.13137 47.77916
# Shear Modulus (GPa) = 23.60924 28.59085 26.10005
#
# Velocity S-wave (km/s) = 3.31624 3.64937 3.48679
# Velocity P-wave (km/s) = 5.66543 6.69593 6.20212
#
# Compressibility (1/GPa) = 0.02671872
#
# Stress axis : x y z
#
# Youngs Moduli (GPa) = 30.10592 70.21362 88.19836
#
# Poissons Ratio (x) = 0.19705 0.76201
# Poissons Ratio (y) = 0.08449 0.40507
# Poissons Ratio (z) = 0.26011 0.32247
#
# Static dielectric constant tensor:
#      x y z
#    x 4.007060 -0.000710 0.016190 
#    y -0.000710 3.922350 -0.000060 
#    z 0.016190 -0.000060 4.270220 
# 
# 
# High freq. dielectric constant tensor:
#      x y z
#    x 1.792120 0.000000 0.011380 
#    y 0.000000 1.854240 0.000000 
#    z 0.011380 0.000000 1.862030 
# 
# From -- ./inp_files/170757.got.cif
#   From: 2010.06.25/outbox.cif.g09.slc.cpg/sg15_86_cif.got.tgz:170757.got - 2010.06.28 07:06:18.
