data_PCOD8151687
_publ_section_title
;
Structure prediction by ZEFSAII (Michael W. Deem and Ramdas Pophale) SiO2 
 PCOD8151687
Probable space group: C 2/C
;
_chemical_formula_sum "Si O2"
_cell_formula_units_Z 48
_cell_length_a 12.826181
_cell_length_b 13.389520
_cell_length_c 27.617478
_cell_angle_alpha 90.000000
_cell_angle_beta 151.652340
_cell_angle_gamma 90.000000
_cell_volume 2252.038454
_symmetry_space_group_name_H-M "C 2/C"
_symmetry_group_IT_number 15
_symmetry_cell_setting 'monoclinic'
loop_
_space_group_symop_operation_xyz
x,y,z
-x,y,1/2-z
-x,-y,-z
x,-y,1/2+z
1/2+x,1/2+y,z
1/2-x,1/2+y,1/2-z
1/2-x,1/2-y,-z
1/2+x,1/2-y,1/2+z
loop_
_atom_site_type_symbol
_atom_site_label
_atom_site_fract_x
_atom_site_fract_y
_atom_site_fract_z
Si Si1 0.994571 0.215561 0.105678
Si Si2 0.375578 0.006811 0.651160
Si Si3 0.500267 0.247971 0.413456
Si Si4 0.623769 0.595103 0.249717
Si Si5 0.484026 0.645831 0.489969
Si Si6 0.749067 0.898681 0.244023
O O1 0.993662 0.147041 0.152758
O O2 0.067995 0.155845 0.087990
O O3 0.156826 0.309301 0.173916
O O4 0.750000 0.250000 0.000000
O O5 0.500000 0.972841 0.750000
O O6 0.553897 0.032273 0.683945
O O7 0.225735 0.102904 0.598568
O O8 0.212321 0.919471 0.566824
O O9 0.366689 0.146233 0.347888
O O10 0.506178 0.253672 0.474543
O O11 0.390738 0.347674 0.344754
O O12 0.750000 0.250000 0.500000
O O13 0.500000 0.614889 0.250000
O O14 0.621595 0.476061 0.237966
#
# Coordination Sequence:
#
# PCOD8151687 Si02
#       6
#     8   8   8   8   8   8
#     4  11  23  41  67  98 130 174 230 275 326 403
#     4  11  21  38  67  98 132 168 221 278 337 385
#     4  11  25  44  68  99 138 175 225 281 337 399
#     4  11  26  45  67  98 136 183 220 272 349 407
#     4  11  23  38  68 101 128 173 226 279 328 396
#     4  11  24  43  68  93 136 177 219 275 338 401
#
# _framework density 21.314024
#
# number of rings (size 3 to 8) (size 9 to 14) (size 15 to 20)
#    0.000    1.000    3.333    3.000    4.667    4.000 
#    0.000    2.500    0.000    0.000    0.000    0.000 
#    0.000    0.000    0.000    0.000    0.000    0.000 
#
# Total GULP energy -297450.631969 kJ/mol
# GULP energy per Si atom -12393.776332 kJ/mol
# Density = 2.126551 g / cm^3
# Si number density = 21.314024 Si / 1000 Ang^3
#
#
#
# Elastic Constant Matrix: (Units=GPa)
#
#
# Indices 1 2 3 4 5 6 
#
# 1 90.5908 38.3147 57.2754 -0.0011 -4.8083 -0.0003
# 2 38.3147 103.2632 28.8386 0.0005 -7.7702 0.0005
# 3 57.2754 28.8386 103.4267 -0.0024 -2.3589 -0.0014
# 4 -0.0011 0.0005 -0.0024 25.0487 0.0008 -1.3099
# 5 -4.8083 -7.7702 -2.3589 0.0008 38.5816 0.0000
# 6 -0.0003 0.0005 -0.0014 -1.3099 0.0000 34.9027
#
#
#
# Elastic Compliance Matrix: (Units=1/GPa)
#
#
# Indices 1 2 3 4 5 6 
#
# 1 0.018677 -0.004315 -0.009119 0.000000 0.000901 0.000000
# 2 -0.004315 0.011646 -0.000817 -0.000001 0.001758 0.000000
# 3 -0.009119 -0.000817 0.014938 0.000001 -0.000388 0.000001
# 4 0.000000 -0.000001 0.000001 0.040001 -0.000001 0.001501
# 5 0.000901 0.001758 -0.000388 -0.000001 0.026362 0.000000
# 6 0.000000 0.000000 0.000001 0.001501 0.000000 0.028707
#
#
# Mechanical properties :
#
#
# Convention : Reuss Voigt Hill
#
# Bulk Modulus (GPa) = 59.67738 60.68201 60.17969
# Shear Modulus (GPa) = 28.66647 31.23008 29.94827
#
# Velocity S-wave (km/s) = 3.67135 3.83199 3.75253
# Velocity P-wave (km/s) = 6.78466 6.93622 6.86086
#
# Compressibility (1/GPa) = 0.01675677
#
# Stress axis : x y z
#
# Youngs Moduli (GPa) = 53.54123 85.86863 66.94459
#
# Poissons Ratio (x) = 0.37056 0.61048
# Poissons Ratio (y) = 0.23105 0.05471
# Poissons Ratio (z) = 0.48825 0.07018
#
# Static dielectric constant tensor:
#      x y z
#    x 4.204910 0.000010 -0.163840 
#    y 0.000010 3.860830 0.000000 
#    z -0.163840 0.000000 4.107530 
# 
# 
# High freq. dielectric constant tensor:
#      x y z
#    x 1.834810 0.000000 -0.002080 
#    y 0.000000 1.828500 0.000000 
#    z -0.002080 0.000000 1.851330 
# 
# From -- ./inp_files/292987.got.cif
#   From: 2010.06.25/outbox.cif.g09.slc.cpg/sg15_147_cif.got.tgz:292987.got - 2010.06.28 07:06:18.
