data_PCOD8151152
_publ_section_title
;
Structure prediction by ZEFSAII (Michael W. Deem and Ramdas Pophale) SiO2 
 PCOD8151152
Probable space group: C 2/C
;
_chemical_formula_sum "Si O2"
_cell_formula_units_Z 60
_cell_length_a 32.602638
_cell_length_b 10.977755
_cell_length_c 12.952595
_cell_angle_alpha 90.000000
_cell_angle_beta 139.786570
_cell_angle_gamma 90.000000
_cell_volume 2993.031397
_symmetry_space_group_name_H-M "C 2/C"
_symmetry_group_IT_number 15
_symmetry_cell_setting 'monoclinic'
loop_
_space_group_symop_operation_xyz
x,y,z
-x,y,1/2-z
-x,-y,-z
x,-y,1/2+z
1/2+x,1/2+y,z
1/2-x,1/2+y,1/2-z
1/2-x,1/2-y,-z
1/2+x,1/2-y,1/2+z
loop_
_atom_site_type_symbol
_atom_site_label
_atom_site_fract_x
_atom_site_fract_y
_atom_site_fract_z
Si Si1 0.893776 0.674284 0.684207
Si Si2 0.272357 0.972724 0.928666
Si Si3 0.912326 0.473419 0.422590
Si Si4 0.310794 0.393046 0.560671
Si Si5 0.000000 0.579022 0.750000
Si Si6 0.706232 0.847501 0.206905
Si Si7 0.671874 0.164055 0.311952
Si Si8 0.801881 0.158411 0.471022
O O1 0.828526 0.621377 0.511137
O O2 0.923611 0.603323 0.839899
O O3 0.875618 0.813753 0.680081
O O4 0.945755 0.666983 0.693165
O O5 0.207936 0.913813 0.854325
O O6 0.257953 0.058671 0.803005
O O7 0.298710 0.049260 0.073846
O O8 0.858836 0.408860 0.386478
O O9 0.892820 0.615007 0.362687
O O10 0.974915 0.486712 0.612811
O O11 0.251484 0.322992 0.391782
O O12 0.320866 0.517784 0.514966
O O13 0.685696 0.717183 0.117469
O O14 0.727128 0.195301 0.336900
O O15 0.657294 0.275486 0.360603
#
# Coordination Sequence:
#
# PCOD8151152 Si02
#       8
#     8   8   8   8   4   8   8   8
#     4  11  23  40  60  90 122 161 211 259 306 364
#     4   9  18  35  55  89 125 154 192 252 314 361
#     4  11  22  40  62  92 121 157 211 268 304 353
#     4  11  22  35  59  92 134 162 196 252 321 379
#     4  12  26  42  66  86 120 172 218 256 308 354
#     4  11  20  31  61  93 131 157 199 255 315 377
#     4   8  16  34  54  82 124 153 195 246 301 371
#     4   9  18  32  53  90 125 164 188 235 324 379
#
# _framework density 20.046565000000001
#
# number of rings (size 3 to 8) (size 9 to 14) (size 15 to 20)
#    0.000    1.867    5.333    1.600    3.733    0.000 
#    0.000    0.000    0.000    1.600    0.000    0.000 
#    0.000    0.000    0.000    0.000    0.000    0.000 
#
# Total GULP energy -371732.549268 kJ/mol
# GULP energy per Si atom -12391.084976 kJ/mol
# Density = 2.000094 g / cm^3
# Si number density = 20.046565 Si / 1000 Ang^3
#
#
#
# Elastic Constant Matrix: (Units=GPa)
#
#
# Indices 1 2 3 4 5 6 
#
# 1 105.3883 36.1743 10.3487 0.0000 -2.7786 0.0000
# 2 36.1743 90.6331 17.6840 0.0000 6.8384 0.0000
# 3 10.3487 17.6840 65.4423 0.0000 -1.4805 0.0000
# 4 0.0000 0.0000 0.0000 18.2809 0.0000 1.4362
# 5 -2.7786 6.8384 -1.4805 0.0000 19.9812 0.0000
# 6 0.0000 0.0000 0.0000 1.4362 0.0000 22.4888
#
#
#
# Elastic Compliance Matrix: (Units=1/GPa)
#
#
# Indices 1 2 3 4 5 6 
#
# 1 0.011199 -0.004616 -0.000454 0.000000 0.003103 0.000000
# 2 -0.004616 0.013917 -0.003159 0.000000 -0.005639 0.000000
# 3 -0.000454 -0.003159 0.016256 0.000000 0.002222 0.000000
# 4 0.000000 0.000000 0.000000 0.054978 0.000000 -0.003511
# 5 0.003103 -0.005639 0.002222 0.000000 0.052573 0.000000
# 6 0.000000 0.000000 0.000000 -0.003511 0.000000 0.044691
#
#
# Mechanical properties :
#
#
# Convention : Reuss Voigt Hill
#
# Bulk Modulus (GPa) = 40.13229 43.31975 41.72602
# Shear Modulus (GPa) = 22.89629 25.30063 24.09846
#
# Velocity S-wave (km/s) = 3.38325 3.55645 3.47093
# Velocity P-wave (km/s) = 5.94347 6.20652 6.07642
#
# Compressibility (1/GPa) = 0.02491759
#
# Stress axis : x y z
#
# Youngs Moduli (GPa) = 89.29050 71.85202 61.51527
#
# Poissons Ratio (x) = 0.33165 0.02790
# Poissons Ratio (y) = 0.41214 0.19430
# Poissons Ratio (z) = 0.04050 0.22694
#
# Static dielectric constant tensor:
#      x y z
#    x 3.645980 0.000000 -0.302110 
#    y 0.000000 3.833090 0.000000 
#    z -0.302110 0.000000 3.626900 
# 
# 
# High freq. dielectric constant tensor:
#      x y z
#    x 1.766700 0.000000 -0.039510 
#    y 0.000000 1.779640 0.000000 
#    z -0.039510 0.000000 1.756090 
# 
# From -- ./inp_files/126457.got.cif
#   From: 2010.06.25/outbox.cif.g09.slc.cpg/sg15_64_cif.got.tgz:126457.got - 2010.06.28 07:06:18.
