data_PCOD8151443
_publ_section_title
;
Structure prediction by ZEFSAII (Michael W. Deem and Ramdas Pophale) SiO2 
 PCOD8151443
Probable space group: C 2/C
;
_chemical_formula_sum "Si O2"
_cell_formula_units_Z 48
_cell_length_a 19.102224
_cell_length_b 9.282079
_cell_length_c 13.819356
_cell_angle_alpha 90.000000
_cell_angle_beta 101.589656
_cell_angle_gamma 90.000000
_cell_volume 2400.329647
_symmetry_space_group_name_H-M "C 2/C"
_symmetry_group_IT_number 15
_symmetry_cell_setting 'monoclinic'
loop_
_space_group_symop_operation_xyz
x,y,z
-x,y,1/2-z
-x,-y,-z
x,-y,1/2+z
1/2+x,1/2+y,z
1/2-x,1/2+y,1/2-z
1/2-x,1/2-y,-z
1/2+x,1/2-y,1/2+z
loop_
_atom_site_type_symbol
_atom_site_label
_atom_site_fract_x
_atom_site_fract_y
_atom_site_fract_z
Si Si1 0.835942 0.892465 0.478110
Si Si2 0.824695 0.403784 0.070786
Si Si3 0.575226 0.917741 0.023210
Si Si4 0.927992 0.133456 0.603271
Si Si5 0.915564 0.806613 0.312048
Si Si6 0.575142 0.026528 0.727584
O O1 0.831991 0.767227 0.557417
O O2 0.756854 0.958677 0.446724
O O3 0.856573 0.837691 0.376709
O O4 0.892881 0.008120 0.530800
O O5 0.861394 0.451157 0.180243
O O6 0.862280 0.474639 0.989619
O O7 0.590244 0.872758 0.138446
O O8 0.580245 0.782899 0.954758
O O9 0.500000 0.000000 0.000000
O O10 0.889877 0.141715 0.698216
O O11 0.012439 0.106621 0.639702
O O12 0.932014 0.637324 0.310628
O O13 0.500000 0.077266 0.750000
#
# Coordination Sequence:
#
# PCOD8151443 Si02
#       6
#     8   8   8   8   8   8
#     4  11  26  43  62  93 142 171 206 272 336 386
#     4  11  24  44  63  94 130 177 213 263 329 392
#     4  12  20  39  70  95 123 167 221 270 317 391
#     4  11  23  41  68  98 124 168 220 267 328 383
#     4  11  20  42  67  91 130 165 212 276 320 381
#     4  12  21  40  72  95 119 165 229 268 314 388
#
# _framework density 19.997253000000001
#
# number of rings (size 3 to 8) (size 9 to 14) (size 15 to 20)
#    0.000    0.667    8.333    0.500    0.000    3.333 
#    6.000    0.000    0.000    0.000    0.000    0.000 
#    0.000    0.000    0.000    0.000    0.000    0.000 
#
# Total GULP energy -297597.193291 kJ/mol
# GULP energy per Si atom -12399.883054 kJ/mol
# Density = 1.995174 g / cm^3
# Si number density = 19.997253 Si / 1000 Ang^3
#
#
#
# Elastic Constant Matrix: (Units=GPa)
#
#
# Indices 1 2 3 4 5 6 
#
# 1 129.2296 37.5658 63.0553 0.0000 -4.6824 0.0000
# 2 37.5658 70.6527 33.1519 0.0000 9.0490 0.0000
# 3 63.0553 33.1519 156.4119 0.0000 -1.4541 0.0000
# 4 0.0000 0.0000 0.0000 32.9304 0.0000 3.5280
# 5 -4.6824 9.0490 -1.4541 0.0000 29.2536 0.0000
# 6 0.0000 0.0000 0.0000 3.5280 0.0000 23.1722
#
#
#
# Elastic Compliance Matrix: (Units=1/GPa)
#
#
# Indices 1 2 3 4 5 6 
#
# 1 0.010811 -0.004549 -0.003366 0.000000 0.002970 0.000000
# 2 -0.004549 0.018407 -0.002128 0.000000 -0.006528 0.000000
# 3 -0.003366 -0.002128 0.008207 0.000000 0.000527 0.000000
# 4 0.000000 0.000000 0.000000 0.030871 0.000000 -0.004700
# 5 0.002970 -0.006528 0.000527 0.000000 0.036705 0.000000
# 6 0.000000 0.000000 0.000000 -0.004700 0.000000 0.043871
#
#
# Mechanical properties :
#
#
# Convention : Reuss Voigt Hill
#
# Bulk Modulus (GPa) = 57.67971 69.31558 63.49764
# Shear Modulus (GPa) = 28.61451 31.90596 30.26024
#
# Velocity S-wave (km/s) = 3.78686 3.99873 3.89423
# Velocity P-wave (km/s) = 6.93014 7.48716 7.21403
#
# Compressibility (1/GPa) = 0.01733712
#
# Stress axis : x y z
#
# Youngs Moduli (GPa) = 92.50123 54.32710 121.85442
#
# Poissons Ratio (x) = 0.24712 0.41021
# Poissons Ratio (y) = 0.42077 0.25934
# Poissons Ratio (z) = 0.31140 0.11563
#
# Static dielectric constant tensor:
#      x y z
#    x 3.684930 0.000000 -0.098250 
#    y 0.000000 3.503340 0.000000 
#    z -0.098250 0.000000 4.193630 
# 
# 
# High freq. dielectric constant tensor:
#      x y z
#    x 1.774590 0.000000 -0.009270 
#    y 0.000000 1.761010 0.000000 
#    z -0.009270 0.000000 1.803620 
# 
# From -- ./inp_files/159715.got.cif
#   From: 2010.06.25/outbox.cif.g09.slc.cpg/sg15_80_cif.got.tgz:159715.got - 2010.06.28 07:06:18.
