data_PCOD8151484
_publ_section_title
;
Structure prediction by ZEFSAII (Michael W. Deem and Ramdas Pophale) SiO2 
 PCOD8151484
Probable space group: C 2/C
;
_chemical_formula_sum "Si O2"
_cell_formula_units_Z 60
_cell_length_a 22.502750
_cell_length_b 9.155280
_cell_length_c 14.532559
_cell_angle_alpha 90.000000
_cell_angle_beta 114.796024
_cell_angle_gamma 90.000000
_cell_volume 2717.957424
_symmetry_space_group_name_H-M "C 2/C"
_symmetry_group_IT_number 15
_symmetry_cell_setting 'monoclinic'
loop_
_space_group_symop_operation_xyz
x,y,z
-x,y,1/2-z
-x,-y,-z
x,-y,1/2+z
1/2+x,1/2+y,z
1/2-x,1/2+y,1/2-z
1/2-x,1/2-y,-z
1/2+x,1/2-y,1/2+z
loop_
_atom_site_type_symbol
_atom_site_label
_atom_site_fract_x
_atom_site_fract_y
_atom_site_fract_z
Si Si1 0.322569 0.543804 0.016364
Si Si2 0.453572 0.601411 0.532815
Si Si3 0.990998 0.645837 0.938898
Si Si4 0.412661 0.996279 0.234794
Si Si5 0.755861 0.939410 0.651657
Si Si6 0.627945 0.848690 0.473416
Si Si7 0.722745 0.894427 0.299909
Si Si8 0.500000 0.261851 0.250000
O O1 0.381800 0.462868 0.004664
O O2 0.300395 0.484316 0.101328
O O3 0.337366 0.711820 0.050525
O O4 0.259076 0.540213 0.911584
O O5 0.500000 0.500000 0.500000
O O6 0.443506 0.748103 0.466059
O O7 0.483224 0.633564 0.653023
O O8 0.964544 0.611533 0.818956
O O9 0.064123 0.714418 0.984727
O O10 0.000000 0.500000 0.000000
O O11 0.399361 0.956302 0.121149
O O12 0.346500 0.978509 0.250155
O O13 0.440053 0.161220 0.247433
O O14 0.679484 0.929135 0.572931
O O15 0.782796 0.780974 0.700908
O O16 0.763187 0.057018 0.736944
#
# Coordination Sequence:
#
# PCOD8151484 Si02
#       8
#     8   8   8   8   8   8   8   4
#     4  11  24  47  69  98 150 183 232 290 361 431
#     4  12  28  47  72 105 145 187 237 297 365 432
#     4  12  23  42  71 106 137 180 234 295 349 425
#     4  12  22  43  74 102 141 182 244 288 356 425
#     4  11  24  45  70 103 143 186 239 292 357 429
#     4  11  20  43  71  99 138 188 229 288 352 425
#     4  11  25  43  72 104 137 190 234 291 358 426
#     4  12  28  46  70 108 144 190 236 310 360 420
#
# _framework density 22.075402
#
# number of rings (size 3 to 8) (size 9 to 14) (size 15 to 20)
#    0.000    0.533    6.667    1.600    1.867    3.200 
#    0.000    1.333    0.000    0.000    0.000    0.000 
#    0.000    0.000    0.000    0.000    0.000    0.000 
#
# Total GULP energy -371853.648120 kJ/mol
# GULP energy per Si atom -12395.121604 kJ/mol
# Density = 2.202516 g / cm^3
# Si number density = 22.075402 Si / 1000 Ang^3
#
#
#
# Elastic Constant Matrix: (Units=GPa)
#
#
# Indices 1 2 3 4 5 6 
#
# 1 131.1444 30.8917 20.7688 0.0000 -7.9934 0.0000
# 2 30.8917 74.8952 33.8069 0.0000 -5.8367 0.0000
# 3 20.7688 33.8069 84.6257 0.0000 -14.8068 0.0000
# 4 0.0000 0.0000 0.0000 42.9141 0.0000 -8.3488
# 5 -7.9934 -5.8367 -14.8068 0.0000 42.4492 0.0000
# 6 0.0000 0.0000 0.0000 -8.3488 0.0000 32.2342
#
#
#
# Elastic Compliance Matrix: (Units=1/GPa)
#
#
# Indices 1 2 3 4 5 6 
#
# 1 0.008529 -0.003140 -0.000674 0.000000 0.000939 0.000000
# 2 -0.003140 0.017446 -0.006265 0.000000 -0.000378 0.000000
# 3 -0.000674 -0.006265 0.015242 0.000000 0.004328 0.000000
# 4 0.000000 0.000000 0.000000 0.024539 0.000000 0.006356
# 5 0.000939 -0.000378 0.004328 0.000000 0.025192 0.000000
# 6 0.000000 0.000000 0.000000 0.006356 0.000000 0.032669
#
#
# Mechanical properties :
#
#
# Convention : Reuss Voigt Hill
#
# Bulk Modulus (GPa) = 47.48780 51.28889 49.38835
# Shear Modulus (GPa) = 33.15757 37.19935 35.17846
#
# Velocity S-wave (km/s) = 3.87979 4.10946 3.99627
# Velocity P-wave (km/s) = 6.45203 6.76763 6.61171
#
# Compressibility (1/GPa) = 0.02105804
#
# Stress axis : x y z
#
# Youngs Moduli (GPa) = 117.24797 57.32088 65.60715
#
# Poissons Ratio (x) = 0.18001 0.04424
# Poissons Ratio (y) = 0.36820 0.41101
# Poissons Ratio (z) = 0.07907 0.35910
#
# Static dielectric constant tensor:
#      x y z
#    x 4.359220 0.000000 0.285640 
#    y 0.000000 3.951940 0.000000 
#    z 0.285640 0.000000 4.277390 
# 
# 
# High freq. dielectric constant tensor:
#      x y z
#    x 1.887320 0.000000 -0.008360 
#    y 0.000000 1.848840 0.000000 
#    z -0.008360 0.000000 1.878970 
# 
# From -- ./inp_files/172434.got.cif
#   From: 2010.06.25/outbox.cif.g09.slc.cpg/sg15_87_cif.got.tgz:172434.got - 2010.06.28 07:06:18.
