data_PCOD8151410
_publ_section_title
;
Structure prediction by ZEFSAII (Michael W. Deem and Ramdas Pophale) SiO2 
 PCOD8151410
Probable space group: C 2/C
;
_chemical_formula_sum "Si O2"
_cell_formula_units_Z 48
_cell_length_a 10.584690
_cell_length_b 9.069319
_cell_length_c 23.736026
_cell_angle_alpha 90.000000
_cell_angle_beta 76.141076
_cell_angle_gamma 90.000000
_cell_volume 2212.229435
_symmetry_space_group_name_H-M "C 2/C"
_symmetry_group_IT_number 15
_symmetry_cell_setting 'monoclinic'
loop_
_space_group_symop_operation_xyz
x,y,z
-x,y,1/2-z
-x,-y,-z
x,-y,1/2+z
1/2+x,1/2+y,z
1/2-x,1/2+y,1/2-z
1/2-x,1/2-y,-z
1/2+x,1/2-y,1/2+z
loop_
_atom_site_type_symbol
_atom_site_label
_atom_site_fract_x
_atom_site_fract_y
_atom_site_fract_z
Si Si1 0.718327 0.468517 0.605840
Si Si2 0.710451 0.858601 0.114716
Si Si3 0.141339 0.870068 0.213787
Si Si4 0.345139 0.024153 0.270247
Si Si5 0.598647 0.381715 0.506379
Si Si6 0.992702 0.417475 0.058823
O O1 0.683047 0.309310 0.637058
O O2 0.631959 0.590243 0.647970
O O3 0.696148 0.456265 0.541011
O O4 0.861016 0.533194 0.602428
O O5 0.601953 0.953610 0.093328
O O6 0.731922 0.951885 0.168654
O O7 0.828486 0.832438 0.058015
O O8 0.168415 0.699287 0.223070
O O9 0.000000 0.918431 0.250000
O O10 0.261470 0.966989 0.226043
O O11 0.500000 0.979501 0.250000
O O12 0.500000 0.500000 0.500000
O O13 0.512466 0.255041 0.544019
O O14 0.000000 0.500000 0.000000
#
# Coordination Sequence:
#
# PCOD8151410 Si02
#       6
#     8   8   8   8   8   8
#     4  11  23  43  66  94 130 175 216 269 328 392
#     4  11  23  41  67  94 131 171 219 270 323 396
#     4  11  27  46  70  99 132 174 229 279 333 399
#     4  11  26  48  69 100 132 176 227 279 337 394
#     4  11  25  38  60 102 134 168 214 265 328 395
#     4  11  20  41  64  90 131 172 214 256 328 390
#
# _framework density 21.697569999999999
#
# number of rings (size 3 to 8) (size 9 to 14) (size 15 to 20)
#    0.000    1.000    3.333    3.000    4.667    7.333 
#    0.000    0.000    0.000    0.000    0.000    0.000 
#    0.000    0.000    0.000    0.000    0.000    0.000 
#
# Total GULP energy -297314.981298 kJ/mol
# GULP energy per Si atom -12388.124221 kJ/mol
# Density = 2.164819 g / cm^3
# Si number density = 21.697570 Si / 1000 Ang^3
#
#
#
# Elastic Constant Matrix: (Units=GPa)
#
#
# Indices 1 2 3 4 5 6 
#
# 1 100.2374 46.3209 10.6777 0.0000 -4.7824 0.0000
# 2 46.3209 90.7896 32.9503 0.0000 4.0701 0.0000
# 3 10.6777 32.9503 98.4620 0.0000 -9.6276 0.0000
# 4 0.0000 0.0000 0.0000 40.7012 0.0000 2.0656
# 5 -4.7824 4.0701 -9.6276 0.0000 28.5652 0.0000
# 6 0.0000 0.0000 0.0000 2.0656 0.0000 39.4601
#
#
#
# Elastic Compliance Matrix: (Units=1/GPa)
#
#
# Indices 1 2 3 4 5 6 
#
# 1 0.013513 -0.007593 0.001450 0.000000 0.003833 0.000000
# 2 -0.007593 0.017113 -0.005446 0.000000 -0.005545 0.000000
# 3 0.001450 -0.005446 0.012327 0.000000 0.005173 0.000000
# 4 0.000000 0.000000 0.000000 0.024635 0.000000 -0.001290
# 5 0.003833 -0.005545 0.005173 0.000000 0.038183 0.000000
# 6 0.000000 0.000000 0.000000 -0.001290 0.000000 0.025410
#
#
# Mechanical properties :
#
#
# Convention : Reuss Voigt Hill
#
# Bulk Modulus (GPa) = 50.56267 52.15409 51.35838
# Shear Modulus (GPa) = 31.06552 35.04798 33.05675
#
# Velocity S-wave (km/s) = 3.78795 4.02343 3.90747
# Velocity P-wave (km/s) = 6.51808 6.75818 6.63922
#
# Compressibility (1/GPa) = 0.01977744
#
# Stress axis : x y z
#
# Youngs Moduli (GPa) = 74.00066 58.43409 81.12136
#
# Poissons Ratio (x) = 0.44367 -0.11764
# Poissons Ratio (y) = 0.56187 0.44177
# Poissons Ratio (z) = -0.10732 0.31822
#
# Static dielectric constant tensor:
#      x y z
#    x 4.382570 0.000000 -0.036790 
#    y 0.000000 4.172060 0.000000 
#    z -0.036790 0.000000 3.984300 
# 
# 
# High freq. dielectric constant tensor:
#      x y z
#    x 1.849260 0.000000 0.000190 
#    y 0.000000 1.854800 0.000000 
#    z 0.000190 0.000000 1.868020 
# 
# From -- ./inp_files/267622.got.cif
#   From: 2010.06.25/outbox.cif.g09.slc.cpg/sg15_134_cif.got.tgz:267622.got - 2010.06.28 07:06:18.
