data_PCOD8151276
_publ_section_title
;
Structure prediction by ZEFSAII (Michael W. Deem and Ramdas Pophale) SiO2 
 PCOD8151276
Probable space group: C 2/C
;
_chemical_formula_sum "Si O2"
_cell_formula_units_Z 56
_cell_length_a 13.450679
_cell_length_b 15.289035
_cell_length_c 14.178255
_cell_angle_alpha 90.000000
_cell_angle_beta 62.603189
_cell_angle_gamma 90.000000
_cell_volume 2588.703207
_symmetry_space_group_name_H-M "C 2/C"
_symmetry_group_IT_number 15
_symmetry_cell_setting 'monoclinic'
loop_
_space_group_symop_operation_xyz
x,y,z
-x,y,1/2-z
-x,-y,-z
x,-y,1/2+z
1/2+x,1/2+y,z
1/2-x,1/2+y,1/2-z
1/2-x,1/2-y,-z
1/2+x,1/2-y,1/2+z
loop_
_atom_site_type_symbol
_atom_site_label
_atom_site_fract_x
_atom_site_fract_y
_atom_site_fract_z
Si Si1 0.212711 0.931446 0.977166
Si Si2 0.509734 0.478114 0.851816
Si Si3 0.369580 0.012651 0.048083
Si Si4 0.754322 0.038960 0.717905
Si Si5 0.101540 0.704756 0.526046
Si Si6 0.393339 0.309665 0.607738
Si Si7 0.704381 0.225179 0.675415
O O1 0.185233 0.833240 0.948900
O O2 0.262883 0.988304 0.871275
O O3 0.309652 0.934529 0.014486
O O4 0.101691 0.973192 0.069010
O O5 0.500000 0.443484 0.750000
O O6 0.614390 0.544827 0.812891
O O7 0.528719 0.395225 0.911661
O O8 0.314047 0.015420 0.174582
O O9 0.354644 0.106183 0.004343
O O10 0.500000 0.000000 0.000000
O O11 0.700135 0.133951 0.732485
O O12 0.174552 0.764728 0.424927
O O13 0.113342 0.731181 0.630969
O O14 0.971794 0.724559 0.555375
O O15 0.319059 0.297945 0.734548
#
# Coordination Sequence:
#
# PCOD8151276 Si02
#       7
#     8   8   8   8   8   8   8
#     4  11  23  43  65  97 134 170 223 280 337 408
#     4  11  20  37  68  97 126 166 215 274 343 396
#     4  12  26  43  66  93 133 187 232 265 329 419
#     4  11  22  41  66  97 133 175 222 271 342 407
#     4  11  22  40  64  97 132 166 225 282 330 386
#     4  11  23  37  65  98 129 163 215 283 345 388
#     4  11  22  38  66  96 131 166 217 280 339 390
#
# _framework density 21.632453000000002
#
# number of rings (size 3 to 8) (size 9 to 14) (size 15 to 20)
#    0.000    0.857    2.857    7.286    2.000    0.571 
#    0.000    2.857    0.000    0.000    0.000    0.000 
#    0.000    0.000    0.000    0.000    0.000    0.000 
#
# Total GULP energy -347167.656597 kJ/mol
# GULP energy per Si atom -12398.844878 kJ/mol
# Density = 2.158322 g / cm^3
# Si number density = 21.632453 Si / 1000 Ang^3
#
#
#
# Elastic Constant Matrix: (Units=GPa)
#
#
# Indices 1 2 3 4 5 6 
#
# 1 109.6476 27.4672 48.2232 0.0000 -13.9826 0.0000
# 2 27.4672 62.4512 27.4694 0.0000 -0.3969 0.0000
# 3 48.2232 27.4694 132.3327 0.0000 -3.4594 0.0000
# 4 0.0000 0.0000 0.0000 39.5675 0.0000 3.9225
# 5 -13.9826 -0.3969 -3.4594 0.0000 24.6313 0.0000
# 6 0.0000 0.0000 0.0000 3.9225 0.0000 34.7798
#
#
#
# Elastic Compliance Matrix: (Units=1/GPa)
#
#
# Indices 1 2 3 4 5 6 
#
# 1 0.012499 -0.003882 -0.003578 0.000000 0.006530 0.000000
# 2 -0.003882 0.018828 -0.002553 0.000000 -0.002259 0.000000
# 3 -0.003578 -0.002553 0.009371 0.000000 -0.000756 0.000000
# 4 0.000000 0.000000 0.000000 0.025559 0.000000 -0.002883
# 5 0.006530 -0.002259 -0.000756 0.000000 0.044163 0.000000
# 6 0.000000 0.000000 0.000000 -0.002883 0.000000 0.029077
#
#
# Mechanical properties :
#
#
# Convention : Reuss Voigt Hill
#
# Bulk Modulus (GPa) = 48.37400 56.75013 52.56207
# Shear Modulus (GPa) = 30.04548 33.21384 31.62966
#
# Velocity S-wave (km/s) = 3.73085 3.92263 3.82794
# Velocity P-wave (km/s) = 6.40073 6.84155 6.62481
#
# Compressibility (1/GPa) = 0.02067226
#
# Stress axis : x y z
#
# Youngs Moduli (GPa) = 80.00618 53.11149 106.71451
#
# Poissons Ratio (x) = 0.20617 0.38185
# Poissons Ratio (y) = 0.31057 0.27242
# Poissons Ratio (z) = 0.28628 0.13558
#
# Static dielectric constant tensor:
#      x y z
#    x 4.314760 0.000000 -0.323470 
#    y 0.000000 3.969940 0.000000 
#    z -0.323470 0.000000 4.547160 
# 
# 
# High freq. dielectric constant tensor:
#      x y z
#    x 1.839600 0.000000 -0.000670 
#    y 0.000000 1.831920 0.000000 
#    z -0.000670 0.000000 1.868450 
# 
# From -- ./inp_files/145974.got.cif
#   From: 2010.06.25/outbox.cif.g09.slc.cpg/sg15_73_cif.got.tgz:145974.got - 2010.06.28 07:06:18.
