data_PCOD8151165
_publ_section_title
;
Structure prediction by ZEFSAII (Michael W. Deem and Ramdas Pophale) SiO2 
 PCOD8151165
Probable space group: C 2/C
;
_chemical_formula_sum "Si O2"
_cell_formula_units_Z 52
_cell_length_a 16.011423
_cell_length_b 22.545252
_cell_length_c 8.829358
_cell_angle_alpha 90.000000
_cell_angle_beta 58.757727
_cell_angle_gamma 90.000000
_cell_volume 2725.028410
_symmetry_space_group_name_H-M "C 2/C"
_symmetry_group_IT_number 15
_symmetry_cell_setting 'monoclinic'
loop_
_space_group_symop_operation_xyz
x,y,z
-x,y,1/2-z
-x,-y,-z
x,-y,1/2+z
1/2+x,1/2+y,z
1/2-x,1/2+y,1/2-z
1/2-x,1/2-y,-z
1/2+x,1/2-y,1/2+z
loop_
_atom_site_type_symbol
_atom_site_label
_atom_site_fract_x
_atom_site_fract_y
_atom_site_fract_z
Si Si1 0.115139 0.163209 0.397447
Si Si2 0.191822 0.285657 0.854974
Si Si3 0.658476 0.441829 0.398760
Si Si4 0.216463 0.668920 0.666222
Si Si5 0.105984 0.052655 0.612165
Si Si6 0.479261 0.779852 0.093402
Si Si7 0.000000 0.109849 0.250000
O O1 0.230681 0.175745 0.313661
O O2 0.086284 0.114981 0.548848
O O3 0.054450 0.223571 0.474794
O O4 0.088693 0.144341 0.249033
O O5 0.212193 0.214867 0.810754
O O6 0.211405 0.304265 0.006480
O O7 0.079752 0.301602 0.918964
O O8 0.744424 0.398147 0.372380
O O9 0.672662 0.509313 0.444925
O O10 0.663474 0.438804 0.213783
O O11 0.551913 0.424989 0.564094
O O12 0.105509 0.670179 0.838124
O O13 0.000000 0.024090 0.750000
O O14 0.500000 0.762012 0.250000
#
# Coordination Sequence:
#
# PCOD8151165 Si02
#       7
#     8   8   8   8   8   8   4
#     4  11  20  33  56  85 115 149 183 229 279 334
#     4   9  17  31  55  89 110 145 187 226 284 332
#     4  12  23  38  54  81 115 149 190 231 278 336
#     4   9  18  31  56  83 114 146 185 233 278 331
#     4  12  25  37  54  82 117 153 187 228 287 331
#     4   9  17  32  56  90 114 146 188 231 275 337
#     4  12  18  32  58  76 114 148 176 234 266 334
#
# _framework density 19.082370000000001
#
# number of rings (size 3 to 8) (size 9 to 14) (size 15 to 20)
#    0.000    1.538    4.615    3.231    0.000    0.000 
#    0.000    3.077    0.000    0.923    0.000    0.000 
#    0.000    0.000    0.000    0.000    0.000    0.000 
#
# Total GULP energy -322102.477223 kJ/mol
# GULP energy per Si atom -12388.556816 kJ/mol
# Density = 1.903894 g / cm^3
# Si number density = 19.082370 Si / 1000 Ang^3
#
#
#
# Elastic Constant Matrix: (Units=GPa)
#
#
# Indices 1 2 3 4 5 6 
#
# 1 88.1028 44.3188 48.7104 0.0000 -25.5026 0.0000
# 2 44.3188 94.3478 35.2004 0.0000 -8.7732 0.0000
# 3 48.7104 35.2004 64.0396 0.0000 -6.9033 0.0000
# 4 0.0000 0.0000 0.0000 21.4076 0.0000 -1.1504
# 5 -25.5026 -8.7732 -6.9033 0.0000 33.4177 0.0000
# 6 0.0000 0.0000 0.0000 -1.1504 0.0000 20.7459
#
#
#
# Elastic Compliance Matrix: (Units=1/GPa)
#
#
# Indices 1 2 3 4 5 6 
#
# 1 0.028024 -0.005458 -0.016533 0.000000 0.016538 0.000000
# 2 -0.005458 0.014533 -0.003963 0.000000 -0.001168 0.000000
# 3 -0.016533 -0.003963 0.029555 0.000000 -0.007552 0.000000
# 4 0.000000 0.000000 0.000000 0.046852 0.000000 0.002598
# 5 0.016538 -0.001168 -0.007552 0.000000 0.040678 0.000000
# 6 0.000000 0.000000 0.000000 0.002598 0.000000 0.048346
#
#
# Mechanical properties :
#
#
# Convention : Reuss Voigt Hill
#
# Bulk Modulus (GPa) = 49.49420 55.88324 52.68872
# Shear Modulus (GPa) = 18.75259 22.99827 20.87543
#
# Velocity S-wave (km/s) = 3.13823 3.47538 3.31110
# Velocity P-wave (km/s) = 6.25498 6.74190 6.50300
#
# Compressibility (1/GPa) = 0.02020439
#
# Stress axis : x y z
#
# Youngs Moduli (GPa) = 35.68398 68.81084 33.83531
#
# Poissons Ratio (x) = 0.37555 0.55940
# Poissons Ratio (y) = 0.19475 0.13408
# Poissons Ratio (z) = 0.58996 0.27268
#
# Static dielectric constant tensor:
#      x y z
#    x 3.496020 0.000000 -0.297440 
#    y 0.000000 3.421750 0.000000 
#    z -0.297440 0.000000 3.375980 
# 
# 
# High freq. dielectric constant tensor:
#      x y z
#    x 1.722860 0.000000 -0.009850 
#    y 0.000000 1.723610 0.000000 
#    z -0.009850 0.000000 1.722440 
# 
# From -- ./inp_files/42046.got.cif
#   From: 2010.06.25/outbox.cif.g09.slc.cpg/sg15_22_cif.got.tgz:42046.got - 2010.06.28 07:06:18.
