data_PCOD8151457
_publ_section_title
;
Structure prediction by ZEFSAII (Michael W. Deem and Ramdas Pophale) SiO2 
 PCOD8151457
Probable space group: C 2/C
;
_chemical_formula_sum "Si O2"
_cell_formula_units_Z 56
_cell_length_a 14.019136
_cell_length_b 18.846521
_cell_length_c 16.249490
_cell_angle_alpha 90.000000
_cell_angle_beta 142.029740
_cell_angle_gamma 90.000000
_cell_volume 2641.468704
_symmetry_space_group_name_H-M "C 2/C"
_symmetry_group_IT_number 15
_symmetry_cell_setting 'monoclinic'
loop_
_space_group_symop_operation_xyz
x,y,z
-x,y,1/2-z
-x,-y,-z
x,-y,1/2+z
1/2+x,1/2+y,z
1/2-x,1/2+y,1/2-z
1/2-x,1/2-y,-z
1/2+x,1/2-y,1/2+z
loop_
_atom_site_type_symbol
_atom_site_label
_atom_site_fract_x
_atom_site_fract_y
_atom_site_fract_z
Si Si1 0.677140 0.247453 0.860900
Si Si2 0.257110 0.643442 0.782967
Si Si3 0.900989 0.798938 0.991331
Si Si4 0.870151 0.902950 0.104082
Si Si5 0.920453 0.996045 0.359192
Si Si6 0.244192 0.858224 0.770076
Si Si7 0.594144 0.142667 0.509820
O O1 0.500000 0.266334 0.750000
O O2 0.698266 0.169330 0.832964
O O3 0.751792 0.309161 0.855843
O O4 0.750000 0.250000 0.000000
O O5 0.284968 0.560040 0.786815
O O6 0.121662 0.658681 0.625177
O O7 0.416008 0.685964 0.876395
O O8 0.833934 0.811564 0.854607
O O9 0.873573 0.720174 0.007204
O O10 0.813424 0.853209 0.991605
O O11 0.715412 0.915400 0.054263
O O12 0.000000 0.865115 0.250000
O O13 0.952682 0.973510 0.123793
O O14 0.853546 0.070439 0.282520
O O15 0.000000 0.000000 0.500000
O O16 0.420527 0.882521 0.871425
#
# Coordination Sequence:
#
# PCOD8151457 Si02
#       7
#     8   8   8   8   8   8   8
#     4  12  25  44  71 107 136 184 248 300 347 427
#     4  11  22  45  69  95 143 186 224 293 364 407
#     4  11  20  42  71  98 144 181 218 287 362 415
#     4  11  23  42  67 104 136 183 230 274 349 431
#     4  11  24  47  72  91 145 200 226 280 369 431
#     4  12  25  43  74 105 138 187 238 293 360 425
#     4  12  22  41  71 106 139 168 236 294 346 418
#
# _framework density 21.200327000000001
#
# number of rings (size 3 to 8) (size 9 to 14) (size 15 to 20)
#    0.000    0.571    8.571    2.143    0.000    1.714 
#    0.000    1.429    0.000    0.000    0.000    0.000 
#    0.000    0.000    0.000    0.000    0.000    0.000 
#
# Total GULP energy -346975.252794 kJ/mol
# GULP energy per Si atom -12391.973314 kJ/mol
# Density = 2.115207 g / cm^3
# Si number density = 21.200327 Si / 1000 Ang^3
#
#
#
# Elastic Constant Matrix: (Units=GPa)
#
#
# Indices 1 2 3 4 5 6 
#
# 1 108.2980 40.3117 38.2552 0.0008 -5.6714 0.0004
# 2 40.3117 103.4412 30.4658 0.0005 -2.1445 0.0007
# 3 38.2552 30.4658 114.9959 0.0024 -2.9659 0.0015
# 4 0.0008 0.0005 0.0024 26.2105 0.0006 -0.5227
# 5 -5.6714 -2.1445 -2.9659 0.0006 44.8730 0.0002
# 6 0.0004 0.0007 0.0015 -0.5227 0.0002 25.6625
#
#
#
# Elastic Compliance Matrix: (Units=1/GPa)
#
#
# Indices 1 2 3 4 5 6 
#
# 1 0.011680 -0.003680 -0.002882 0.000000 0.001110 0.000000
# 2 -0.003680 0.011649 -0.001863 0.000000 -0.000031 0.000000
# 3 -0.002882 -0.001863 0.010154 -0.000001 0.000218 -0.000001
# 4 0.000000 0.000000 -0.000001 0.038168 -0.000001 0.000777
# 5 0.001110 -0.000031 0.000218 -0.000001 0.022438 0.000000
# 6 0.000000 0.000000 -0.000001 0.000777 0.000000 0.038983
#
#
# Mechanical properties :
#
#
# Convention : Reuss Voigt Hill
#
# Bulk Modulus (GPa) = 60.11940 60.53337 60.32639
# Shear Modulus (GPa) = 32.16131 33.86271 33.01201
#
# Velocity S-wave (km/s) = 3.89912 4.00093 3.95035
# Velocity P-wave (km/s) = 6.97783 7.06811 7.02312
#
# Compressibility (1/GPa) = 0.01663356
#
# Stress axis : x y z
#
# Youngs Moduli (GPa) = 85.61903 85.84134 98.48500
#
# Poissons Ratio (x) = 0.31588 0.28382
# Poissons Ratio (y) = 0.31506 0.18347
# Poissons Ratio (z) = 0.24674 0.15992
#
# Static dielectric constant tensor:
#      x y z
#    x 4.566220 0.000010 0.054980 
#    y 0.000010 3.678810 0.000000 
#    z 0.054980 0.000000 3.874190 
# 
# 
# High freq. dielectric constant tensor:
#      x y z
#    x 1.825430 0.000000 -0.009820 
#    y 0.000000 1.815630 0.000000 
#    z -0.009820 0.000000 1.844730 
# 
# From -- ./inp_files/207000.got.cif
#   From: 2010.06.25/outbox.cif.g09.slc.cpg/sg15_104_cif.got.tgz:207000.got - 2010.06.28 07:06:18.
