data_PCOD8151385
_publ_section_title
;
Structure prediction by ZEFSAII (Michael W. Deem and Ramdas Pophale) SiO2 
 PCOD8151385
Probable space group: C 2/C
;
_chemical_formula_sum "Si O2"
_cell_formula_units_Z 64
_cell_length_a 14.920161
_cell_length_b 11.897788
_cell_length_c 19.005902
_cell_angle_alpha 90.000000
_cell_angle_beta 72.772887
_cell_angle_gamma 90.000000
_cell_volume 3222.511619
_symmetry_space_group_name_H-M "C 2/C"
_symmetry_group_IT_number 15
_symmetry_cell_setting 'monoclinic'
loop_
_space_group_symop_operation_xyz
x,y,z
-x,y,1/2-z
-x,-y,-z
x,-y,1/2+z
1/2+x,1/2+y,z
1/2-x,1/2+y,1/2-z
1/2-x,1/2-y,-z
1/2+x,1/2-y,1/2+z
loop_
_atom_site_type_symbol
_atom_site_label
_atom_site_fract_x
_atom_site_fract_y
_atom_site_fract_z
Si Si1 0.138594 0.685406 0.665074
Si Si2 0.463751 0.524003 0.836925
Si Si3 0.426327 0.631021 0.078823
Si Si4 0.429422 0.837453 0.166294
Si Si5 0.926794 0.546090 0.073421
Si Si6 0.963294 0.200285 0.584747
Si Si7 0.284220 0.409395 0.914632
Si Si8 0.300021 0.434129 0.072256
O O1 0.132825 0.675647 0.750111
O O2 0.199469 0.793284 0.629613
O O3 0.192130 0.575433 0.622759
O O4 0.037235 0.693801 0.654106
O O5 0.500000 0.505601 0.750000
O O6 0.514719 0.434767 0.875931
O O7 0.483773 0.650442 0.859129
O O8 0.351780 0.503223 0.864022
O O9 0.390671 0.750072 0.117406
O O10 0.335011 0.561257 0.075920
O O11 0.489613 0.651745 0.996421
O O12 0.421503 0.964699 0.141604
O O13 0.964720 0.666059 0.090595
O O14 0.823707 0.553810 0.064215
O O15 0.000000 0.500000 0.000000
O O16 0.857823 0.152975 0.607543
O O17 0.310841 0.395105 0.989637
#
# Coordination Sequence:
#
# PCOD8151385 Si02
#       8
#     8   8   8   8   8   8   8   8
#     4  11  23  40  66  95 124 167 228 262 319 388
#     4  11  22  39  68  99 130 163 217 275 327 376
#     4  11  20  40  67  92 129 159 212 274 318 369
#     4  11  24  43  62  94 133 170 209 271 328 381
#     4  12  26  42  65  91 137 174 213 264 330 390
#     4  11  21  42  64  94 127 166 211 264 325 378
#     4  12  22  40  68  98 120 168 224 269 308 396
#     4  11  21  38  67  97 121 161 218 268 316 379
#
# _framework density 19.860285000000001
#
# number of rings (size 3 to 8) (size 9 to 14) (size 15 to 20)
#    0.000    0.750    6.250    2.625    0.000    3.000 
#    2.250    3.750    0.000    0.000    0.000    0.000 
#    0.000    0.000    0.000    0.000    0.000    0.000 
#
# Total GULP energy -396887.920699 kJ/mol
# GULP energy per Si atom -12402.747522 kJ/mol
# Density = 1.981508 g / cm^3
# Si number density = 19.860285 Si / 1000 Ang^3
#
#
#
# Elastic Constant Matrix: (Units=GPa)
#
#
# Indices 1 2 3 4 5 6 
#
# 1 81.1845 39.1207 51.7873 0.0000 -16.2792 0.0000
# 2 39.1207 127.5622 45.3417 0.0000 -2.3488 0.0000
# 3 51.7873 45.3417 126.8615 0.0000 -9.3404 0.0000
# 4 0.0000 0.0000 0.0000 18.6046 0.0000 4.3749
# 5 -16.2792 -2.3488 -9.3404 0.0000 29.4582 0.0000
# 6 0.0000 0.0000 0.0000 4.3749 0.0000 31.9898
#
#
#
# Elastic Compliance Matrix: (Units=1/GPa)
#
#
# Indices 1 2 3 4 5 6 
#
# 1 0.019737 -0.003730 -0.006085 0.000000 0.008680 0.000000
# 2 -0.003730 0.009688 -0.002083 0.000000 -0.001950 0.000000
# 3 -0.006085 -0.002083 0.011111 0.000000 -0.000006 0.000000
# 4 0.000000 0.000000 0.000000 0.055536 0.000000 -0.007595
# 5 0.008680 -0.001950 -0.000006 0.000000 0.038586 0.000000
# 6 0.000000 0.000000 0.000000 -0.007595 0.000000 0.032299
#
#
# Mechanical properties :
#
#
# Convention : Reuss Voigt Hill
#
# Bulk Modulus (GPa) = 59.74055 67.56752 63.65404
# Shear Modulus (GPa) = 25.46689 29.30108 27.38399
#
# Velocity S-wave (km/s) = 3.58481 3.84521 3.71729
# Velocity P-wave (km/s) = 6.87606 7.33549 7.10949
#
# Compressibility (1/GPa) = 0.01673905
#
# Stress axis : x y z
#
# Youngs Moduli (GPa) = 50.66568 103.22093 90.00340
#
# Poissons Ratio (x) = 0.38505 0.54765
# Poissons Ratio (y) = 0.18900 0.18751
# Poissons Ratio (z) = 0.30829 0.21504
#
# Static dielectric constant tensor:
#      x y z
#    x 3.658880 0.000000 -0.080240 
#    y 0.000000 3.721230 0.000000 
#    z -0.080240 0.000000 3.664670 
# 
# 
# High freq. dielectric constant tensor:
#      x y z
#    x 1.766280 0.000000 -0.009170 
#    y 0.000000 1.772340 0.000000 
#    z -0.009170 0.000000 1.780590 
# 
# From -- ./inp_files/243712.got.cif
#   From: 2010.06.25/outbox.cif.g09.slc.cpg/sg15_122_cif.got.tgz:243712.got - 2010.06.28 07:06:18.
