data_PCOD8151888
_publ_section_title
;
Structure prediction by ZEFSAII (Michael W. Deem and Ramdas Pophale) SiO2 
 PCOD8151888
Probable space group: C 2/C
;
_chemical_formula_sum "Si O2"
_cell_formula_units_Z 40
_cell_length_a 8.703348
_cell_length_b 12.079791
_cell_length_c 18.372254
_cell_angle_alpha 90.000000
_cell_angle_beta 99.608591
_cell_angle_gamma 90.000000
_cell_volume 1904.462216
_symmetry_space_group_name_H-M "C 2/C"
_symmetry_group_IT_number 15
_symmetry_cell_setting 'monoclinic'
loop_
_space_group_symop_operation_xyz
x,y,z
-x,y,1/2-z
-x,-y,-z
x,-y,1/2+z
1/2+x,1/2+y,z
1/2-x,1/2+y,1/2-z
1/2-x,1/2-y,-z
1/2+x,1/2-y,1/2+z
loop_
_atom_site_type_symbol
_atom_site_label
_atom_site_fract_x
_atom_site_fract_y
_atom_site_fract_z
Si Si1 0.803626 0.487022 0.361985
Si Si2 0.350922 0.589788 0.787622
Si Si3 0.481443 0.815037 0.827621
Si Si4 0.700123 0.758502 0.078151
Si Si5 0.488063 0.453840 0.917676
O O1 0.789437 0.449026 0.275927
O O2 0.928057 0.587086 0.377452
O O3 0.866173 0.381064 0.411274
O O4 0.648395 0.533064 0.387568
O O5 0.500000 0.566614 0.750000
O O6 0.348932 0.718723 0.811984
O O7 0.353400 0.518270 0.862118
O O8 0.500000 0.868988 0.750000
O O9 0.644239 0.759473 0.862648
O O10 0.561412 0.674207 0.084912
O O11 0.750000 0.750000 0.000000
O O12 0.500000 0.500000 0.000000
#
# Coordination Sequence:
#
# PCOD8151888 Si02
#       5
#     8   8   8   8   8
#     4  11  23  42  66  94 124 172 215 256 321 383
#     4   9  18  38  64  86 125 168 202 255 317 367
#     4  11  21  43  67  92 130 165 211 269 315 376
#     4  12  23  43  65  92 133 167 209 268 324 373
#     4  11  21  42  66  90 129 172 207 260 324 377
#
# _framework density 21.003304
#
# number of rings (size 3 to 8) (size 9 to 14) (size 15 to 20)
#    0.000    1.200    8.000    1.200    0.000    0.800 
#    7.200    2.000    0.000    0.000    0.000    0.000 
#    0.000    0.000    0.000    0.000    0.000    0.000 
#
# Total GULP energy -247893.474551 kJ/mol
# GULP energy per Si atom -12394.673728 kJ/mol
# Density = 2.095550 g / cm^3
# Si number density = 21.003304 Si / 1000 Ang^3
#
#
#
# Elastic Constant Matrix: (Units=GPa)
#
#
# Indices 1 2 3 4 5 6 
#
# 1 35.2548 36.3577 1.2682 0.0000 -8.0127 0.0000
# 2 36.3577 150.8093 23.4846 0.0000 -25.6182 0.0000
# 3 1.2682 23.4846 110.2649 0.0000 -12.3671 0.0000
# 4 0.0000 0.0000 0.0000 38.3348 0.0000 -7.4450
# 5 -8.0127 -25.6182 -12.3671 0.0000 17.4109 0.0000
# 6 0.0000 0.0000 0.0000 -7.4450 0.0000 43.4556
#
#
#
# Elastic Compliance Matrix: (Units=1/GPa)
#
#
# Indices 1 2 3 4 5 6 
#
# 1 0.038573 -0.008477 0.002123 0.000000 0.006787 0.000000
# 2 -0.008477 0.010725 -0.000928 0.000000 0.011220 0.000000
# 3 0.002123 -0.000928 0.009995 0.000000 0.006711 0.000000
# 4 0.000000 0.000000 0.000000 0.026984 0.000000 0.004623
# 5 0.006787 0.011220 0.006711 0.000000 0.081834 0.000000
# 6 0.000000 0.000000 0.000000 0.004623 0.000000 0.023804
#
#
# Mechanical properties :
#
#
# Convention : Reuss Voigt Hill
#
# Bulk Modulus (GPa) = 22.35706 46.50554 34.43130
# Shear Modulus (GPa) = 22.58455 35.52150 29.05303
#
# Velocity S-wave (km/s) = 3.28271 4.11692 3.72325
# Velocity P-wave (km/s) = 5.00359 6.69244 5.90867
#
# Compressibility (1/GPa) = 0.04472861
#
# Stress axis : x y z
#
# Youngs Moduli (GPa) = 25.92459 93.23875 100.04981
#
# Poissons Ratio (x) = 0.79040 -0.21241
# Poissons Ratio (y) = 0.21977 0.09288
# Poissons Ratio (z) = -0.05504 0.08656
#
# Static dielectric constant tensor:
#      x y z
#    x 3.293340 0.000000 -0.044290 
#    y 0.000000 4.046100 0.000000 
#    z -0.044290 0.000000 4.005140 
# 
# 
# High freq. dielectric constant tensor:
#      x y z
#    x 1.777650 0.000000 -0.001010 
#    y 0.000000 1.836930 0.000000 
#    z -0.001010 0.000000 1.835890 
# 
# From -- ./inp_files/187796.got.cif
#   From: 2010.06.25/outbox.cif.g09.slc.cpg/sg15_94_cif.got.tgz:187796.got - 2010.06.28 07:06:18.
