data_PCOD8151175
_publ_section_title
;
Structure prediction by ZEFSAII (Michael W. Deem and Ramdas Pophale) SiO2 
 PCOD8151175
Probable space group: C 2/C
;
_chemical_formula_sum "Si O2"
_cell_formula_units_Z 56
_cell_length_a 14.337432
_cell_length_b 13.489522
_cell_length_c 13.017024
_cell_angle_alpha 90.000000
_cell_angle_beta 95.125745
_cell_angle_gamma 90.000000
_cell_volume 2507.491222
_symmetry_space_group_name_H-M "C 2/C"
_symmetry_group_IT_number 15
_symmetry_cell_setting 'monoclinic'
loop_
_space_group_symop_operation_xyz
x,y,z
-x,y,1/2-z
-x,-y,-z
x,-y,1/2+z
1/2+x,1/2+y,z
1/2-x,1/2+y,1/2-z
1/2-x,1/2-y,-z
1/2+x,1/2-y,1/2+z
loop_
_atom_site_type_symbol
_atom_site_label
_atom_site_fract_x
_atom_site_fract_y
_atom_site_fract_z
Si Si1 0.851323 0.120938 0.766704
Si Si2 0.737665 0.357474 0.949041
Si Si3 0.087947 0.806565 0.628475
Si Si4 0.171753 0.537560 0.856609
Si Si5 0.000000 0.642186 0.750000
Si Si6 0.000000 0.024171 0.250000
Si Si7 0.290220 0.168260 0.217399
Si Si8 0.455661 0.392867 0.488343
O O1 0.747413 0.080462 0.782333
O O2 0.845781 0.228502 0.712733
O O3 0.911700 0.044822 0.702285
O O4 0.911632 0.130504 0.875071
O O5 0.772017 0.357398 0.834985
O O6 0.627722 0.382592 0.935169
O O7 0.750000 0.250000 0.000000
O O8 0.795522 0.437595 0.023619
O O9 0.197418 0.822747 0.639175
O O10 0.067983 0.707714 0.687885
O O11 0.036663 0.807226 0.512550
O O12 0.036486 0.906629 0.663304
O O13 0.156415 0.420699 0.834385
O O14 0.068098 0.579973 0.829424
O O15 0.500000 0.500000 0.500000
#
# Coordination Sequence:
#
# PCOD8151175 Si02
#       8
#     8   8   8   8   4   4   8   8
#     4  11  23  39  60  96 129 167 207 272 332 386
#     4  11  20  40  65  95 128 169 220 275 322 386
#     4  11  20  35  65  95 114 161 218 273 312 372
#     4  11  23  40  63  96 128 169 220 268 322 385
#     4  11  22  37  62  86 124 163 214 267 302 384
#     4  11  20  37  62  94 124 163 210 263 334 378
#     4  12  23  41  65  92 134 174 211 268 338 386
#     4  11  20  33  59  97 124 149 213 279 319 366
#
# _framework density 22.333076999999999
#
# number of rings (size 3 to 8) (size 9 to 14) (size 15 to 20)
#    0.000    0.857    7.143    3.429    0.000    0.571 
#    0.000    0.714    3.143    1.714    0.000    0.000 
#    0.000    0.000    0.000    0.000    0.000    0.000 
#
# Total GULP energy -346997.867116 kJ/mol
# GULP energy per Si atom -12392.780968 kJ/mol
# Density = 2.228225 g / cm^3
# Si number density = 22.333077 Si / 1000 Ang^3
#
#
#
# Elastic Constant Matrix: (Units=GPa)
#
#
# Indices 1 2 3 4 5 6 
#
# 1 78.6655 35.5523 17.5538 0.0000 25.1827 0.0000
# 2 35.5523 118.3252 14.3629 0.0000 11.7364 0.0000
# 3 17.5538 14.3629 60.6698 0.0000 30.1985 0.0000
# 4 0.0000 0.0000 0.0000 27.5677 0.0000 10.1516
# 5 25.1827 11.7364 30.1985 0.0000 35.4986 0.0000
# 6 0.0000 0.0000 0.0000 10.1516 0.0000 35.8374
#
#
#
# Elastic Compliance Matrix: (Units=1/GPa)
#
#
# Indices 1 2 3 4 5 6 
#
# 1 0.018646 -0.004537 0.002630 0.000000 -0.013965 0.000000
# 2 -0.004537 0.009884 -0.001739 0.000000 0.001430 0.000000
# 3 0.002630 -0.001739 0.029096 0.000000 -0.026043 0.000000
# 4 0.000000 0.000000 0.000000 0.040499 0.000000 -0.011472
# 5 -0.013965 0.001430 -0.026043 0.000000 0.059759 0.000000
# 6 0.000000 0.000000 0.000000 -0.011472 0.000000 0.031154
#
#
# Mechanical properties :
#
#
# Convention : Reuss Voigt Hill
#
# Bulk Modulus (GPa) = 19.86671 43.62206 31.74439
# Shear Modulus (GPa) = 23.46245 32.46017 27.96131
#
# Velocity S-wave (km/s) = 3.24477 3.81656 3.54222
# Velocity P-wave (km/s) = 4.79092 6.24471 5.56549
#
# Compressibility (1/GPa) = 0.05033545
#
# Stress axis : x y z
#
# Youngs Moduli (GPa) = 53.63101 101.17770 34.36852
#
# Poissons Ratio (x) = 0.45899 -0.09040
# Poissons Ratio (y) = 0.24330 0.05977
# Poissons Ratio (z) = -0.14106 0.17595
#
# Static dielectric constant tensor:
#      x y z
#    x 4.240740 0.000000 0.011550 
#    y 0.000000 4.486540 0.000000 
#    z 0.011550 0.000000 3.917970 
# 
# 
# High freq. dielectric constant tensor:
#      x y z
#    x 1.866130 0.000000 0.030800 
#    y 0.000000 1.881550 0.000000 
#    z 0.030800 0.000000 1.876820 
# 
# From -- ./inp_files/204156.got.cif
#   From: 2010.06.25/outbox.cif.g09.slc.cpg/sg15_103_cif.got.tgz:204156.got - 2010.06.28 07:06:18.
