data_PCOD8151715
_publ_section_title
;
Structure prediction by ZEFSAII (Michael W. Deem and Ramdas Pophale) SiO2 
 PCOD8151715
Probable space group: C 2/C
;
_chemical_formula_sum "Si O2"
_cell_formula_units_Z 44
_cell_length_a 11.622723
_cell_length_b 19.869883
_cell_length_c 8.924943
_cell_angle_alpha 90.000000
_cell_angle_beta 102.216804
_cell_angle_gamma 90.000000
_cell_volume 2014.468530
_symmetry_space_group_name_H-M "C 2/C"
_symmetry_group_IT_number 15
_symmetry_cell_setting 'monoclinic'
loop_
_space_group_symop_operation_xyz
x,y,z
-x,y,1/2-z
-x,-y,-z
x,-y,1/2+z
1/2+x,1/2+y,z
1/2-x,1/2+y,1/2-z
1/2-x,1/2-y,-z
1/2+x,1/2-y,1/2+z
loop_
_atom_site_type_symbol
_atom_site_label
_atom_site_fract_x
_atom_site_fract_y
_atom_site_fract_z
Si Si1 0.000000 0.262746 0.750000
Si Si2 0.379334 0.411952 0.572208
Si Si3 0.094384 0.849265 0.486274
Si Si4 0.913579 0.506671 0.842015
Si Si5 0.302779 0.864137 0.765013
Si Si6 0.162795 0.956171 0.274262
O O1 0.940495 0.220970 0.599057
O O2 0.901068 0.307015 0.804501
O O3 0.499840 0.370179 0.588136
O O4 0.274232 0.363463 0.602160
O O5 0.346883 0.445851 0.405607
O O6 0.390023 0.470647 0.700306
O O7 0.220981 0.846868 0.599385
O O8 0.090760 0.902321 0.349311
O O9 0.866184 0.436032 0.761385
O O10 0.800794 0.551198 0.854529
O O11 0.000000 0.544028 0.750000
O O12 0.000000 0.500000 0.000000
#
# Coordination Sequence:
#
# PCOD8151715 Si02
#       6
#     4   8   8   8   8   8
#     4  12  26  48  74  94 146 192 246 282 336 426
#     4  11  23  43  70 106 140 177 229 295 365 415
#     4  12  24  46  67 104 139 186 236 286 349 417
#     4  11  21  39  64 100 137 177 221 283 358 410
#     4  11  25  44  72  99 136 188 232 292 347 415
#     4  11  22  39  69 106 140 176 230 290 362 423
#
# _framework density 21.841988000000001
#
# number of rings (size 3 to 8) (size 9 to 14) (size 15 to 20)
#    0.000    0.727    2.727    7.091    0.000    3.636 
#    0.000    0.000    0.000    0.000    0.000    0.000 
#    0.000    0.000    0.000    0.000    0.000    0.000 
#
# Total GULP energy -272753.871168 kJ/mol
# GULP energy per Si atom -12397.903235 kJ/mol
# Density = 2.179227 g / cm^3
# Si number density = 21.841988 Si / 1000 Ang^3
#
#
#
# Elastic Constant Matrix: (Units=GPa)
#
#
# Indices 1 2 3 4 5 6 
#
# 1 156.3257 48.9535 34.6066 0.0000 -8.6163 0.0000
# 2 48.9535 93.4265 24.2792 0.0000 -7.3336 0.0000
# 3 34.6066 24.2792 114.5248 0.0000 3.9298 0.0000
# 4 0.0000 0.0000 0.0000 35.1713 0.0000 4.3194
# 5 -8.6163 -7.3336 3.9298 0.0000 49.9242 0.0000
# 6 0.0000 0.0000 0.0000 4.3194 0.0000 38.0280
#
#
#
# Elastic Compliance Matrix: (Units=1/GPa)
#
#
# Indices 1 2 3 4 5 6 
#
# 1 0.007966 -0.003666 -0.001663 0.000000 0.000967 0.000000
# 2 -0.003666 0.013189 -0.001738 0.000000 0.001441 0.000000
# 3 -0.001663 -0.001738 0.009647 0.000000 -0.001302 0.000000
# 4 0.000000 0.000000 0.000000 0.028834 0.000000 -0.003275
# 5 0.000967 0.001441 -0.001302 0.000000 0.020512 0.000000
# 6 0.000000 0.000000 0.000000 -0.003275 0.000000 0.026668
#
#
# Mechanical properties :
#
#
# Convention : Reuss Voigt Hill
#
# Bulk Modulus (GPa) = 59.99189 64.43950 62.21570
# Shear Modulus (GPa) = 39.52312 41.72054 40.62183
#
# Velocity S-wave (km/s) = 4.25844 4.37522 4.31722
# Velocity P-wave (km/s) = 7.19062 7.42226 7.30736
#
# Compressibility (1/GPa) = 0.01666892
#
# Stress axis : x y z
#
# Youngs Moduli (GPa) = 125.52629 75.81896 103.65480
#
# Poissons Ratio (x) = 0.27796 0.17240
# Poissons Ratio (y) = 0.46019 0.18013
# Poissons Ratio (z) = 0.20878 0.13176
#
# Static dielectric constant tensor:
#      x y z
#    x 4.436420 0.000000 0.002470 
#    y 0.000000 3.738840 0.000000 
#    z 0.002470 0.000000 3.777110 
# 
# 
# High freq. dielectric constant tensor:
#      x y z
#    x 1.894310 0.000000 0.003550 
#    y 0.000000 1.819120 0.000000 
#    z 0.003550 0.000000 1.870500 
# 
# From -- ./inp_files/31002.got.cif
#   From: 2010.06.25/outbox.cif.g09.slc.cpg/sg15_16_cif.got.tgz:31002.got - 2010.06.28 07:06:18.
