data_PCOD8151032
_publ_section_title
;
Structure prediction by ZEFSAII (Michael W. Deem and Ramdas Pophale) SiO2 
 PCOD8151032
Probable space group: C 2/C
;
_chemical_formula_sum "Si O2"
_cell_formula_units_Z 48
_cell_length_a 25.507889
_cell_length_b 9.444769
_cell_length_c 9.426456
_cell_angle_alpha 90.000000
_cell_angle_beta 107.212321
_cell_angle_gamma 90.000000
_cell_volume 2169.278559
_symmetry_space_group_name_H-M "C 2/C"
_symmetry_group_IT_number 15
_symmetry_cell_setting 'monoclinic'
loop_
_space_group_symop_operation_xyz
x,y,z
-x,y,1/2-z
-x,-y,-z
x,-y,1/2+z
1/2+x,1/2+y,z
1/2-x,1/2+y,1/2-z
1/2-x,1/2-y,-z
1/2+x,1/2-y,1/2+z
loop_
_atom_site_type_symbol
_atom_site_label
_atom_site_fract_x
_atom_site_fract_y
_atom_site_fract_z
Si Si1 0.552679 0.992104 0.636468
Si Si2 0.095429 0.857820 0.503901
Si Si3 0.801871 0.343767 0.080627
Si Si4 0.500000 0.753699 0.750000
Si Si5 0.897499 0.872384 0.655547
Si Si6 0.000000 0.736274 0.750000
Si Si7 0.660803 0.919026 0.092258
O O1 0.548766 0.853362 0.729267
O O2 0.500000 0.000000 0.500000
O O3 0.547054 0.142228 0.711261
O O4 0.609936 0.983859 0.602374
O O5 0.093164 0.897402 0.668238
O O6 0.135531 0.724444 0.507033
O O7 0.032594 0.834753 0.396067
O O8 0.122978 0.984582 0.436307
O O9 0.854828 0.250864 0.089314
O O10 0.798981 0.384502 0.244303
O O11 0.750000 0.250000 0.000000
O O12 0.804959 0.490669 0.994805
O O13 0.956998 0.834735 0.629427
#
# Coordination Sequence:
#
# PCOD8151032 Si02
#       7
#     8   8   8   4   8   4   8
#     4  11  19  33  64  97 133 178 223 277 338 419
#     4  11  24  40  60  95 140 182 227 279 339 418
#     4  11  26  48  74 100 133 181 234 296 346 407
#     4  11  21  34  60 100 136 186 230 266 352 412
#     4  11  25  42  62  97 141 179 230 280 354 406
#     4  11  19  36  60  92 138 180 214 282 334 410
#     4  11  23  47  70 102 135 178 236 283 348 417
#
# _framework density 22.127172000000002
#
# number of rings (size 3 to 8) (size 9 to 14) (size 15 to 20)
#    0.000    1.000    5.000    2.500    0.000    9.333 
#    0.000    1.667    0.000    0.000    0.000    0.000 
#    0.000    0.000    0.000    0.000    0.000    0.000 
#
# Total GULP energy -297368.192966 kJ/mol
# GULP energy per Si atom -12390.341374 kJ/mol
# Density = 2.207681 g / cm^3
# Si number density = 22.127172 Si / 1000 Ang^3
#
#
#
# Elastic Constant Matrix: (Units=GPa)
#
#
# Indices 1 2 3 4 5 6 
#
# 1 59.5088 27.4355 29.6848 0.0000 13.5360 0.0000
# 2 27.4355 121.4708 50.5165 0.0000 -8.2124 0.0000
# 3 29.6848 50.5165 135.0638 0.0000 14.1733 0.0000
# 4 0.0000 0.0000 0.0000 38.1368 0.0000 3.3019
# 5 13.5360 -8.2124 14.1733 0.0000 31.8683 0.0000
# 6 0.0000 0.0000 0.0000 3.3019 0.0000 15.9881
#
#
#
# Elastic Compliance Matrix: (Units=1/GPa)
#
#
# Indices 1 2 3 4 5 6 
#
# 1 0.022293 -0.004841 -0.002061 0.000000 -0.009800 0.000000
# 2 -0.004841 0.011407 -0.003909 0.000000 0.006734 0.000000
# 3 -0.002061 -0.003909 0.009790 0.000000 -0.004486 0.000000
# 4 0.000000 0.000000 0.000000 0.026699 0.000000 -0.005514
# 5 -0.009800 0.006734 -0.004486 0.000000 0.039272 0.000000
# 6 0.000000 0.000000 0.000000 -0.005514 0.000000 0.063685
#
#
# Mechanical properties :
#
#
# Convention : Reuss Voigt Hill
#
# Bulk Modulus (GPa) = 45.72818 59.03520 52.38169
# Shear Modulus (GPa) = 24.74559 31.09241 27.91900
#
# Velocity S-wave (km/s) = 3.34778 3.75262 3.55597
# Velocity P-wave (km/s) = 5.97113 6.74642 6.37058
#
# Compressibility (1/GPa) = 0.02186835
#
# Stress axis : x y z
#
# Youngs Moduli (GPa) = 44.85713 87.66771 102.14866
#
# Poissons Ratio (x) = 0.42437 0.21051
# Poissons Ratio (y) = 0.21714 0.39931
# Poissons Ratio (z) = 0.09244 0.34270
#
# Static dielectric constant tensor:
#      x y z
#    x 3.572910 0.000000 0.039720 
#    y 0.000000 3.239020 0.000000 
#    z 0.039720 0.000000 4.115310 
# 
# 
# High freq. dielectric constant tensor:
#      x y z
#    x 1.831970 0.000000 0.005300 
#    y 0.000000 1.885710 0.000000 
#    z 0.005300 0.000000 1.878150 
# 
# From -- ./inp_files/121648.got.cif
#   From: 2010.06.25/outbox.cif.g09.slc.cpg/sg15_61_cif.got.tgz:121648.got - 2010.06.28 07:06:18.
