data_PCOD8151157
_publ_section_title
;
Structure prediction by ZEFSAII (Michael W. Deem and Ramdas Pophale) SiO2 
 PCOD8151157
Probable space group: C 2/C
;
_chemical_formula_sum "Si O2"
_cell_formula_units_Z 64
_cell_length_a 24.022098
_cell_length_b 19.661188
_cell_length_c 14.513023
_cell_angle_alpha 90.000000
_cell_angle_beta 30.726101
_cell_angle_gamma 90.000000
_cell_volume 3502.223529
_symmetry_space_group_name_H-M "C 2/C"
_symmetry_group_IT_number 15
_symmetry_cell_setting 'monoclinic'
loop_
_space_group_symop_operation_xyz
x,y,z
-x,y,1/2-z
-x,-y,-z
x,-y,1/2+z
1/2+x,1/2+y,z
1/2-x,1/2+y,1/2-z
1/2-x,1/2-y,-z
1/2+x,1/2-y,1/2+z
loop_
_atom_site_type_symbol
_atom_site_label
_atom_site_fract_x
_atom_site_fract_y
_atom_site_fract_z
Si Si1 0.063197 0.754712 0.070747
Si Si2 0.973500 0.602109 0.392663
Si Si3 0.156191 0.968583 0.183010
Si Si4 0.954876 0.836455 0.082882
Si Si5 0.473906 0.574334 0.389372
Si Si6 0.817890 0.427463 0.798737
Si Si7 0.720866 0.769601 0.644976
Si Si8 0.242514 0.523215 0.772551
O O1 0.010586 0.682939 0.114301
O O2 0.000000 0.783144 0.250000
O O3 0.055244 0.813637 0.004688
O O4 0.187809 0.741367 0.916468
O O5 0.850575 0.580714 0.590657
O O6 0.000000 0.582273 0.250000
O O7 0.059423 0.564369 0.337180
O O8 0.120048 0.892776 0.261616
O O9 0.221486 0.001268 0.176515
O O10 0.235071 0.966881 0.983650
O O11 0.047983 0.010730 0.313700
O O12 0.887043 0.767416 0.166585
O O13 0.999271 0.863221 0.922165
O O14 0.500000 0.599722 0.250000
O O15 0.347486 0.554039 0.572104
O O16 0.785763 0.349706 0.835650
O O17 0.807013 0.459932 0.713078
O O18 0.750000 0.750000 0.500000
#
# Coordination Sequence:
#
# PCOD8151157 Si02
#       8
#     8   8   8   8   8   8   8   8
#     4  11  20  32  58  87 121 151 187 244 306 364
#     4  11  21  39  60  87 122 161 198 246 309 367
#     4  11  22  39  60  89 124 155 201 249 308 357
#     4  11  22  37  58  89 121 157 193 246 303 362
#     4  11  24  41  62  86 121 165 209 248 296 359
#     4  12  22  37  62  89 125 155 199 251 303 362
#     4  12  21  36  56  91 123 153 190 244 310 361
#     4  11  23  38  61  86 119 162 196 251 303 361
#
# _framework density 18.274104999999999
#
# number of rings (size 3 to 8) (size 9 to 14) (size 15 to 20)
#    0.000    0.750    6.250    4.125    3.500    0.500 
#    0.000    0.000    0.000    5.250    0.000    0.000 
#    0.000    0.000    0.000    0.000    0.000    0.000 
#
# Total GULP energy -396849.025460 kJ/mol
# GULP energy per Si atom -12401.532046 kJ/mol
# Density = 1.823251 g / cm^3
# Si number density = 18.274105 Si / 1000 Ang^3
#
#
#
# Elastic Constant Matrix: (Units=GPa)
#
#
# Indices 1 2 3 4 5 6 
#
# 1 123.4555 56.0738 39.1530 0.0000 -4.1700 0.0000
# 2 56.0738 85.1476 33.2873 0.0000 8.8226 0.0000
# 3 39.1530 33.2873 87.7321 0.0000 -7.0522 0.0000
# 4 0.0000 0.0000 0.0000 23.8402 0.0000 -0.2632
# 5 -4.1700 8.8226 -7.0522 0.0000 30.4896 0.0000
# 6 0.0000 0.0000 0.0000 -0.2632 0.0000 41.5465
#
#
#
# Elastic Compliance Matrix: (Units=1/GPa)
#
#
# Indices 1 2 3 4 5 6 
#
# 1 0.012419 -0.007589 -0.002395 0.000000 0.003341 0.000000
# 2 -0.007589 0.019321 -0.004562 0.000000 -0.007684 0.000000
# 3 -0.002395 -0.004562 0.014548 0.000000 0.004358 0.000000
# 4 0.000000 0.000000 0.000000 0.041949 0.000000 0.000266
# 5 0.003341 -0.007684 0.004358 0.000000 0.036486 0.000000
# 6 0.000000 0.000000 0.000000 0.000266 0.000000 0.024071
#
#
# Mechanical properties :
#
#
# Convention : Reuss Voigt Hill
#
# Bulk Modulus (GPa) = 58.14503 61.48482 59.81492
# Shear Modulus (GPa) = 27.23042 30.36330 28.79686
#
# Velocity S-wave (km/s) = 3.86438 4.08063 3.97398
# Velocity P-wave (km/s) = 7.19712 7.47803 7.33892
#
# Compressibility (1/GPa) = 0.01719838
#
# Stress axis : x y z
#
# Youngs Moduli (GPa) = 80.52114 51.75616 68.73714
#
# Poissons Ratio (x) = 0.39275 0.16460
# Poissons Ratio (y) = 0.61104 0.31358
# Poissons Ratio (z) = 0.19282 0.23611
#
# Static dielectric constant tensor:
#      x y z
#    x 3.851120 0.000000 0.018690 
#    y 0.000000 3.309200 0.000000 
#    z 0.018690 0.000000 3.436340 
# 
# 
# High freq. dielectric constant tensor:
#      x y z
#    x 1.724700 0.000000 -0.019900 
#    y 0.000000 1.695550 0.000000 
#    z -0.019900 0.000000 1.693960 
# 
# From -- ./inp_files/174215.got.cif
#   From: 2010.06.25/outbox.cif.g09.slc.cpg/sg15_88_cif.got.tgz:174215.got - 2010.06.28 07:06:18.
