data_PCOD8151037
_publ_section_title
;
Structure prediction by ZEFSAII (Michael W. Deem and Ramdas Pophale) SiO2 
 PCOD8151037
Probable space group: C 2/C
;
_chemical_formula_sum "Si O2"
_cell_formula_units_Z 36
_cell_length_a 17.188360
_cell_length_b 16.373810
_cell_length_c 8.770274
_cell_angle_alpha 90.000000
_cell_angle_beta 46.894910
_cell_angle_gamma 90.000000
_cell_volume 1802.107250
_symmetry_space_group_name_H-M "C 2/C"
_symmetry_group_IT_number 15
_symmetry_cell_setting 'monoclinic'
loop_
_space_group_symop_operation_xyz
x,y,z
-x,y,1/2-z
-x,-y,-z
x,-y,1/2+z
1/2+x,1/2+y,z
1/2-x,1/2+y,1/2-z
1/2-x,1/2-y,-z
1/2+x,1/2-y,1/2+z
loop_
_atom_site_type_symbol
_atom_site_label
_atom_site_fract_x
_atom_site_fract_y
_atom_site_fract_z
Si Si1 0.564928 0.169936 0.399591
Si Si2 0.500000 0.704896 0.250000
Si Si3 0.851291 0.363764 0.020033
Si Si4 0.625613 0.049765 0.551110
Si Si5 0.775058 0.163922 0.538878
O O1 0.545203 0.241828 0.547996
O O2 0.450296 0.137258 0.503282
O O3 0.637087 0.097519 0.375575
O O4 0.628574 0.192219 0.157687
O O5 0.400582 0.647008 0.337570
O O6 0.748070 0.329926 0.247896
O O7 0.833124 0.458091 0.003584
O O8 0.500000 0.057174 0.750000
O O9 0.700279 0.093246 0.574922
O O10 0.750000 0.250000 0.500000
#
# Coordination Sequence:
#
# PCOD8151037 Si02
#       5
#     8   4   8   8   8
#     4  11  19  34  59  92 125 145 189 259 306 356
#     4  12  24  42  58  86 126 170 202 230 300 376
#     4  11  22  33  63  98 120 145 199 260 311 342
#     4  12  19  37  63  94 123 149 198 256 312 348
#     4  12  23  41  61  87 126 167 195 243 302 366
#
# _framework density 19.976611999999999
#
# number of rings (size 3 to 8) (size 9 to 14) (size 15 to 20)
#    0.000    0.444   10.000    2.000    0.000    0.889 
#    0.000    1.111    0.000    0.000    0.000    0.000 
#    0.000    0.000    0.000    0.000    0.000    0.000 
#
# Total GULP energy -223021.468320 kJ/mol
# GULP energy per Si atom -12390.081573 kJ/mol
# Density = 1.993114 g / cm^3
# Si number density = 19.976612 Si / 1000 Ang^3
#
#
#
# Elastic Constant Matrix: (Units=GPa)
#
#
# Indices 1 2 3 4 5 6 
#
# 1 71.0117 19.3067 68.3111 0.0000 -1.9557 0.0000
# 2 19.3067 66.4698 47.7452 0.0000 -1.7280 0.0000
# 3 68.3111 47.7452 148.3072 0.0000 -4.1967 0.0000
# 4 0.0000 0.0000 0.0000 6.4604 0.0000 -4.1457
# 5 -1.9557 -1.7280 -4.1967 0.0000 34.8635 0.0000
# 6 0.0000 0.0000 0.0000 -4.1457 0.0000 13.7669
#
#
#
# Elastic Compliance Matrix: (Units=1/GPa)
#
#
# Indices 1 2 3 4 5 6 
#
# 1 0.025377 0.001334 -0.012117 0.000000 0.000031 0.000000
# 2 0.001334 0.019642 -0.006932 0.000000 0.000214 0.000000
# 3 -0.012117 -0.006932 0.014576 0.000000 0.000731 0.000000
# 4 0.000000 0.000000 0.000000 0.191866 0.000000 0.057777
# 5 0.000031 0.000214 0.000731 0.000000 0.028784 0.000000
# 6 0.000000 0.000000 0.000000 0.057777 0.000000 0.090036
#
#
# Mechanical properties :
#
#
# Convention : Reuss Voigt Hill
#
# Bulk Modulus (GPa) = 41.38312 61.83498 51.60905
# Shear Modulus (GPa) = 12.08415 21.04655 16.56535
#
# Velocity S-wave (km/s) = 2.46217 3.24938 2.88277
# Velocity P-wave (km/s) = 5.37064 6.71557 6.08040
#
# Compressibility (1/GPa) = 0.02416444
#
# Stress axis : x y z
#
# Youngs Moduli (GPa) = 39.40612 50.91249 68.60506
#
# Poissons Ratio (x) = -0.06790 0.83130
# Poissons Ratio (y) = -0.05255 0.47554
# Poissons Ratio (z) = 0.47749 0.35290
#
# Static dielectric constant tensor:
#      x y z
#    x 4.224260 0.000000 0.133560 
#    y 0.000000 3.473780 0.000000 
#    z 0.133560 0.000000 4.128320 
# 
# 
# High freq. dielectric constant tensor:
#      x y z
#    x 1.776890 0.000000 0.019300 
#    y 0.000000 1.745030 0.000000 
#    z 0.019300 0.000000 1.788330 
# 
# From -- ./inp_files/37432.got.cif
#   From: 2010.06.25/outbox.cif.g09.slc.cpg/sg15_19_cif.got.tgz:37432.got - 2010.06.28 07:06:18.
