data_PCOD8151948
_publ_section_title
;
Structure prediction by ZEFSAII (Michael W. Deem and Ramdas Pophale) SiO2 
 PCOD8151948
Probable space group: C 2/C
;
_chemical_formula_sum "Si O2"
_cell_formula_units_Z 48
_cell_length_a 30.164236
_cell_length_b 7.389004
_cell_length_c 22.431945
_cell_angle_alpha 90.000000
_cell_angle_beta 153.742827
_cell_angle_gamma 90.000000
_cell_volume 2211.878321
_symmetry_space_group_name_H-M "C 2/C"
_symmetry_group_IT_number 15
_symmetry_cell_setting 'monoclinic'
loop_
_space_group_symop_operation_xyz
x,y,z
-x,y,1/2-z
-x,-y,-z
x,-y,1/2+z
1/2+x,1/2+y,z
1/2-x,1/2+y,1/2-z
1/2-x,1/2-y,-z
1/2+x,1/2-y,1/2+z
loop_
_atom_site_type_symbol
_atom_site_label
_atom_site_fract_x
_atom_site_fract_y
_atom_site_fract_z
Si Si1 0.641417 0.040016 0.075739
Si Si2 0.152006 0.641353 0.398871
Si Si3 0.479645 0.246277 0.366271
Si Si4 0.309486 0.733493 0.751936
Si Si5 0.607935 0.803231 0.408396
Si Si6 0.132769 0.913437 0.474157
O O1 0.749427 0.948685 0.194557
O O2 0.647682 0.181164 0.136505
O O3 0.559711 0.887722 0.993549
O O4 0.607450 0.149422 0.977116
O O5 0.250000 0.750000 0.500000
O O6 0.078930 0.633017 0.254664
O O7 0.178632 0.438448 0.454872
O O8 0.102864 0.746201 0.395438
O O9 0.402995 0.322048 0.322939
O O10 0.541529 0.415756 0.412272
O O11 0.239613 0.880081 0.634292
O O12 0.500000 0.830201 0.250000
O O13 0.642192 0.594540 0.445894
#
# Coordination Sequence:
#
# PCOD8151948 Si02
#       6
#     8   8   8   8   8   8
#     4  11  23  42  67  93 135 175 221 286 334 400
#     4  12  21  42  67  97 137 175 221 280 338 391
#     4  11  21  43  68  95 134 182 219 278 349 394
#     4  11  23  44  66  98 134 176 231 278 340 412
#     4  12  22  41  68  97 134 177 222 276 338 400
#     4  11  24  41  69  99 138 178 223 281 338 405
#
# _framework density 21.701014000000001
#
# number of rings (size 3 to 8) (size 9 to 14) (size 15 to 20)
#    0.000    0.667    6.667    3.000    0.000    0.667 
#    0.000   12.500    0.000    0.000    0.000    0.000 
#    0.000    0.000    0.000    0.000    0.000    0.000 
#
# Total GULP energy -297601.189534 kJ/mol
# GULP energy per Si atom -12400.049564 kJ/mol
# Density = 2.165162 g / cm^3
# Si number density = 21.701014 Si / 1000 Ang^3
#
#
#
# Elastic Constant Matrix: (Units=GPa)
#
#
# Indices 1 2 3 4 5 6 
#
# 1 118.8811 31.2473 48.5094 0.0000 9.0181 0.0000
# 2 31.2473 108.1164 17.7248 0.0000 -4.3313 0.0000
# 3 48.5094 17.7248 89.5777 0.0000 -5.3989 0.0000
# 4 0.0000 0.0000 0.0000 23.8697 0.0000 -5.0036
# 5 9.0181 -4.3313 -5.3989 0.0000 48.4627 0.0000
# 6 0.0000 0.0000 0.0000 -5.0036 0.0000 29.7063
#
#
#
# Elastic Compliance Matrix: (Units=1/GPa)
#
#
# Indices 1 2 3 4 5 6 
#
# 1 0.011790 -0.002537 -0.006069 0.000000 -0.003097 0.000000
# 2 -0.002537 0.010125 -0.000551 0.000000 0.001316 0.000000
# 3 -0.006069 -0.000551 0.014723 0.000000 0.002720 0.000000
# 4 0.000000 0.000000 0.000000 0.043427 0.000000 0.007315
# 5 -0.003097 0.001316 0.002720 0.000000 0.021631 0.000000
# 6 0.000000 0.000000 0.000000 0.007315 0.000000 0.034895
#
#
# Mechanical properties :
#
#
# Convention : Reuss Voigt Hill
#
# Bulk Modulus (GPa) = 54.56891 56.83758 55.70325
# Shear Modulus (GPa) = 31.05322 35.01400 33.03361
#
# Velocity S-wave (km/s) = 3.78690 4.02116 3.90579
# Velocity P-wave (km/s) = 6.65742 6.91431 6.78708
#
# Compressibility (1/GPa) = 0.01832545
#
# Stress axis : x y z
#
# Youngs Moduli (GPa) = 84.81738 98.76190 67.91995
#
# Poissons Ratio (x) = 0.25051 0.41224
# Poissons Ratio (y) = 0.21514 0.03740
# Poissons Ratio (z) = 0.51479 0.05438
#
# Static dielectric constant tensor:
#      x y z
#    x 4.140840 0.000000 -0.128690 
#    y 0.000000 4.070230 0.000000 
#    z -0.128690 0.000000 4.062290 
# 
# 
# High freq. dielectric constant tensor:
#      x y z
#    x 1.853310 0.000000 -0.008500 
#    y 0.000000 1.837680 0.000000 
#    z -0.008500 0.000000 1.862650 
# 
# From -- ./inp_files/257248.got.cif
#   From: 2010.06.25/outbox.cif.g09.slc.cpg/sg15_129_cif.got.tgz:257248.got - 2010.06.28 07:06:18.
