data_PCOD8151889
_publ_section_title
;
Structure prediction by ZEFSAII (Michael W. Deem and Ramdas Pophale) SiO2 
 PCOD8151889
Probable space group: C 2/C
;
_chemical_formula_sum "Si O2"
_cell_formula_units_Z 60
_cell_length_a 17.674278
_cell_length_b 13.898794
_cell_length_c 12.976314
_cell_angle_alpha 90.000000
_cell_angle_beta 70.587909
_cell_angle_gamma 90.000000
_cell_volume 3006.436846
_symmetry_space_group_name_H-M "C 2/C"
_symmetry_group_IT_number 15
_symmetry_cell_setting 'monoclinic'
loop_
_space_group_symop_operation_xyz
x,y,z
-x,y,1/2-z
-x,-y,-z
x,-y,1/2+z
1/2+x,1/2+y,z
1/2-x,1/2+y,1/2-z
1/2-x,1/2-y,-z
1/2+x,1/2-y,1/2+z
loop_
_atom_site_type_symbol
_atom_site_label
_atom_site_fract_x
_atom_site_fract_y
_atom_site_fract_z
Si Si1 0.293525 0.057141 0.989479
Si Si2 0.832750 0.630129 0.358907
Si Si3 0.673387 0.301862 0.847496
Si Si4 0.000000 0.915776 0.250000
Si Si5 0.266413 0.653645 0.683175
Si Si6 0.665632 0.484686 0.713715
Si Si7 0.384300 0.828777 0.617476
Si Si8 0.048557 0.239772 0.569363
O O1 0.216669 0.018193 0.086017
O O2 0.357520 0.110591 0.031624
O O3 0.265447 0.132321 0.916114
O O4 0.340242 0.967579 0.919021
O O5 0.741325 0.667614 0.399107
O O6 0.861435 0.610311 0.229300
O O7 0.887959 0.711943 0.383042
O O8 0.696260 0.200466 0.784365
O O9 0.663644 0.378477 0.761149
O O10 0.590064 0.293199 0.945152
O O11 0.990166 0.851274 0.356164
O O12 0.923592 0.983689 0.273006
O O13 0.293844 0.554698 0.722030
O O14 0.340911 0.725818 0.641750
O O15 0.479466 0.814556 0.569492
#
# Coordination Sequence:
#
# PCOD8151889 Si02
#       8
#     8   8   8   4   8   8   8   8
#     4  12  23  41  71  95 129 179 223 271 328 384
#     4  11  21  42  66  96 127 170 228 267 319 397
#     4  11  24  42  66  98 133 173 226 266 325 398
#     4  12  24  40  68  98 136 170 208 272 346 386
#     4  11  22  46  66  93 137 175 220 273 322 397
#     4  12  24  42  66 104 129 170 224 269 326 407
#     4  11  23  42  66  95 130 175 220 268 335 387
#     4  12  23  43  66  96 134 176 213 280 331 383
#
# _framework density 19.957180000000001
#
# number of rings (size 3 to 8) (size 9 to 14) (size 15 to 20)
#    0.000    0.533    6.667    3.200    0.000    2.133 
#    0.000    1.333    0.000    0.000    0.000    0.000 
#    0.000    0.000    0.000    0.000    0.000    0.000 
#
# Total GULP energy -372213.716818 kJ/mol
# GULP energy per Si atom -12407.123894 kJ/mol
# Density = 1.991176 g / cm^3
# Si number density = 19.957180 Si / 1000 Ang^3
#
#
#
# Elastic Constant Matrix: (Units=GPa)
#
#
# Indices 1 2 3 4 5 6 
#
# 1 114.7423 30.7095 38.6560 0.0000 -5.9311 0.0000
# 2 30.7095 54.6613 32.1409 0.0000 2.4954 0.0000
# 3 38.6560 32.1409 102.0790 0.0000 3.5966 0.0000
# 4 0.0000 0.0000 0.0000 39.4782 0.0000 0.4224
# 5 -5.9311 2.4954 3.5966 0.0000 30.8302 0.0000
# 6 0.0000 0.0000 0.0000 0.4224 0.0000 25.2931
#
#
#
# Elastic Compliance Matrix: (Units=1/GPa)
#
#
# Indices 1 2 3 4 5 6 
#
# 1 0.011065 -0.004692 -0.002813 0.000000 0.002837 0.000000
# 2 -0.004692 0.024471 -0.005851 0.000000 -0.002201 0.000000
# 3 -0.002813 -0.005851 0.012759 0.000000 -0.001556 0.000000
# 4 0.000000 0.000000 0.000000 0.025335 0.000000 -0.000423
# 5 0.002837 -0.002201 -0.001556 0.000000 0.033341 0.000000
# 6 0.000000 0.000000 0.000000 -0.000423 0.000000 0.039544
#
#
# Mechanical properties :
#
#
# Convention : Reuss Voigt Hill
#
# Bulk Modulus (GPa) = 46.33131 52.72171 49.52651
# Shear Modulus (GPa) = 27.71304 30.45206 29.08255
#
# Velocity S-wave (km/s) = 3.73047 3.91048 3.82153
# Velocity P-wave (km/s) = 6.46691 6.84572 6.65901
#
# Compressibility (1/GPa) = 0.02158368
#
# Stress axis : x y z
#
# Youngs Moduli (GPa) = 90.37320 40.86420 78.37904
#
# Poissons Ratio (x) = 0.19174 0.22047
# Poissons Ratio (y) = 0.42404 0.45857
# Poissons Ratio (z) = 0.25420 0.23908
#
# Static dielectric constant tensor:
#      x y z
#    x 3.694690 0.000000 -0.038790 
#    y 0.000000 3.606950 0.000000 
#    z -0.038790 0.000000 3.711790 
# 
# 
# High freq. dielectric constant tensor:
#      x y z
#    x 1.778420 0.000000 0.001870 
#    y 0.000000 1.782160 0.000000 
#    z 0.001870 0.000000 1.788000 
# 
# From -- ./inp_files/105332.got.cif
#   From: 2010.06.25/outbox.cif.g09.slc.cpg/sg15_53_cif.got.tgz:105332.got - 2010.06.28 07:06:18.
