data_PCOD8151167
_publ_section_title
;
Structure prediction by ZEFSAII (Michael W. Deem and Ramdas Pophale) SiO2 
 PCOD8151167
Probable space group: C 2/C
;
_chemical_formula_sum "Si O2"
_cell_formula_units_Z 48
_cell_length_a 18.414990
_cell_length_b 4.962699
_cell_length_c 26.031284
_cell_angle_alpha 90.000000
_cell_angle_beta 109.226220
_cell_angle_gamma 90.000000
_cell_volume 2246.264344
_symmetry_space_group_name_H-M "C 2/C"
_symmetry_group_IT_number 15
_symmetry_cell_setting 'monoclinic'
loop_
_space_group_symop_operation_xyz
x,y,z
-x,y,1/2-z
-x,-y,-z
x,-y,1/2+z
1/2+x,1/2+y,z
1/2-x,1/2+y,1/2-z
1/2-x,1/2-y,-z
1/2+x,1/2-y,1/2+z
loop_
_atom_site_type_symbol
_atom_site_label
_atom_site_fract_x
_atom_site_fract_y
_atom_site_fract_z
Si Si1 0.869147 0.189377 0.410944
Si Si2 0.694191 0.840260 0.889248
Si Si3 0.652228 0.791525 0.206418
Si Si4 0.832781 0.792444 0.228407
Si Si5 0.075463 0.685329 0.021037
Si Si6 0.325890 0.321810 0.549174
O O1 0.782681 0.084009 0.397881
O O2 0.892865 0.236935 0.357120
O O3 0.865560 0.478162 0.438718
O O4 0.929328 0.963804 0.446659
O O5 0.649035 0.751869 0.827378
O O6 0.681334 0.623962 0.931365
O O7 0.659172 0.121282 0.900084
O O8 0.741805 0.787185 0.214279
O O9 0.631565 0.572665 0.244845
O O10 0.627224 0.072280 0.225652
O O11 0.101319 0.788025 0.971292
O O12 0.000000 0.500000 0.000000
O O13 0.250000 0.250000 0.500000
#
# Coordination Sequence:
#
# PCOD8151167 Si02
#       6
#     8   8   8   8   8   8
#     4  11  20  36  56  80 111 151 188 228 287 342
#     4  11  20  33  57  84 111 147 184 232 290 343
#     4   9  17  29  49  75 111 144 170 219 282 340
#     4   9  17  29  46  80 113 135 173 223 280 339
#     4  12  25  38  54  80 114 151 195 235 274 338
#     4  12  21  36  56  80 111 151 191 231 285 340
#
# _framework density 21.368811999999998
#
# number of rings (size 3 to 8) (size 9 to 14) (size 15 to 20)
#    0.000    1.333    3.333    4.000    0.000    5.333 
#    0.000    0.000    0.000    0.000    0.000   17.500 
#    0.000    0.000    0.000    0.000    0.000    0.000 
#
# Total GULP energy -297512.210642 kJ/mol
# GULP energy per Si atom -12396.342110 kJ/mol
# Density = 2.132018 g / cm^3
# Si number density = 21.368812 Si / 1000 Ang^3
#
#
#
# Elastic Constant Matrix: (Units=GPa)
#
#
# Indices 1 2 3 4 5 6 
#
# 1 42.6265 -3.0816 16.4090 -0.0007 -8.4670 -0.0002
# 2 -3.0816 89.2052 7.0306 -0.0029 -2.9471 0.0011
# 3 16.4090 7.0306 97.3225 -0.0016 -19.9272 0.0011
# 4 -0.0007 -0.0029 -0.0016 43.6694 0.0007 -6.6154
# 5 -8.4670 -2.9471 -19.9272 0.0007 14.4732 -0.0007
# 6 -0.0002 0.0011 0.0011 -6.6154 -0.0007 26.4517
#
#
#
# Elastic Compliance Matrix: (Units=1/GPa)
#
#
# Indices 1 2 3 4 5 6 
#
# 1 0.026978 0.001527 -0.001899 0.000000 0.013479 0.000001
# 2 0.001527 0.011389 -0.000588 0.000001 0.002402 0.000000
# 3 -0.001899 -0.000588 0.014463 0.000000 0.018682 0.000000
# 4 0.000000 0.000001 0.000000 0.023801 0.000000 0.005953
# 5 0.013479 0.002402 0.018682 0.000000 0.103190 0.000002
# 6 0.000001 0.000000 0.000000 0.005953 0.000002 0.039293
#
#
# Mechanical properties :
#
#
# Convention : Reuss Voigt Hill
#
# Bulk Modulus (GPa) = 19.64283 29.98557 24.81420
# Shear Modulus (GPa) = 21.00793 30.83862 25.92327
#
# Velocity S-wave (km/s) = 3.13886 3.80302 3.48679
# Velocity P-wave (km/s) = 4.72746 5.77467 5.27710
#
# Compressibility (1/GPa) = 0.05090916
#
# Stress axis : x y z
#
# Youngs Moduli (GPa) = 37.06673 87.80718 69.14130
#
# Poissons Ratio (x) = -0.13408 0.13131
# Poissons Ratio (y) = -0.05660 0.04067
# Poissons Ratio (z) = 0.07040 0.05165
#
# Static dielectric constant tensor:
#      x y z
#    x 3.296510 0.000000 -0.242940 
#    y 0.000000 4.198950 0.000000 
#    z -0.242940 0.000000 4.159820 
# 
# 
# High freq. dielectric constant tensor:
#      x y z
#    x 1.772110 0.000000 -0.021770 
#    y 0.000000 1.860300 0.000000 
#    z -0.021770 0.000000 1.847860 
# 
# From -- ./inp_files/275875.got.cif
#   From: 2010.06.25/outbox.cif.g09.slc.cpg/sg15_138_cif.got.tgz:275875.got - 2010.06.28 07:06:18.
