data_PCOD8151825
_publ_section_title
;
Structure prediction by ZEFSAII (Michael W. Deem and Ramdas Pophale) SiO2 
 PCOD8151825
Probable space group: C 2/C
;
_chemical_formula_sum "Si O2"
_cell_formula_units_Z 48
_cell_length_a 34.945814
_cell_length_b 8.362938
_cell_length_c 19.516545
_cell_angle_alpha 90.000000
_cell_angle_beta 25.372268
_cell_angle_gamma 90.000000
_cell_volume 2444.024912
_symmetry_space_group_name_H-M "C 2/C"
_symmetry_group_IT_number 15
_symmetry_cell_setting 'monoclinic'
loop_
_space_group_symop_operation_xyz
x,y,z
-x,y,1/2-z
-x,-y,-z
x,-y,1/2+z
1/2+x,1/2+y,z
1/2-x,1/2+y,1/2-z
1/2-x,1/2-y,-z
1/2+x,1/2-y,1/2+z
loop_
_atom_site_type_symbol
_atom_site_label
_atom_site_fract_x
_atom_site_fract_y
_atom_site_fract_z
Si Si1 0.917393 0.396565 0.834499
Si Si2 0.022485 0.404778 0.395070
Si Si3 0.210020 0.684097 0.632382
Si Si4 0.843668 0.228964 0.655403
Si Si5 0.728988 0.327980 0.962328
Si Si6 0.260440 0.921334 0.667230
O O1 0.951460 0.477160 0.709312
O O2 0.000000 0.365814 0.750000
O O3 0.872036 0.223878 0.893864
O O4 0.843111 0.502665 0.992626
O O5 0.106392 0.306386 0.283915
O O6 0.000000 0.500000 0.500000
O O7 0.948103 0.277077 0.489709
O O8 0.250000 0.750000 0.500000
O O9 0.259252 0.516092 0.562281
O O10 0.220829 0.784354 0.683624
O O11 0.804254 0.252857 0.793572
O O12 0.795486 0.343808 0.679823
O O13 0.819143 0.042792 0.680210
O O14 0.750000 0.250000 0.000000
#
# Coordination Sequence:
#
# PCOD8151825 Si02
#       6
#     8   8   8   8   8   8
#     4  11  22  42  68  97 133 176 218 272 342 399
#     4  12  23  40  68  98 131 170 224 274 328 396
#     4  12  23  41  66  96 130 175 218 273 336 395
#     4  11  23  41  65  97 128 174 220 273 328 397
#     4  11  21  41  65  93 130 173 218 265 332 397
#     4  11  24  41  67  95 137 174 218 274 343 396
#
# _framework density 19.639735000000002
#
# number of rings (size 3 to 8) (size 9 to 14) (size 15 to 20)
#    0.000    0.667    6.667    2.000    0.000    0.667 
#    0.000    5.833    0.000    0.000    0.000    0.000 
#    0.000    0.000    0.000    0.000    0.000    0.000 
#
# Total GULP energy -297385.868678 kJ/mol
# GULP energy per Si atom -12391.077862 kJ/mol
# Density = 1.959503 g / cm^3
# Si number density = 19.639735 Si / 1000 Ang^3
#
#
#
# Elastic Constant Matrix: (Units=GPa)
#
#
# Indices 1 2 3 4 5 6 
#
# 1 133.6449 64.9794 60.8147 0.0000 -21.3095 0.0000
# 2 64.9794 137.9153 56.9440 -0.0024 -25.1339 0.0000
# 3 60.8147 56.9440 126.3233 -0.0009 -22.0562 0.0000
# 4 0.0000 -0.0024 -0.0009 31.3292 0.0000 0.6302
# 5 -21.3095 -25.1339 -22.0562 0.0000 46.4289 0.0001
# 6 0.0000 0.0000 0.0000 0.6302 0.0001 41.0173
#
#
#
# Elastic Compliance Matrix: (Units=1/GPa)
#
#
# Indices 1 2 3 4 5 6 
#
# 1 0.010987 -0.003471 -0.003459 0.000000 0.001520 0.000000
# 2 -0.003471 0.010458 -0.002544 0.000001 0.002860 0.000000
# 3 -0.003459 -0.002544 0.011134 0.000000 0.002325 0.000000
# 4 0.000000 0.000001 0.000000 0.031929 0.000000 -0.000491
# 5 0.001520 0.002860 0.002325 0.000000 0.024888 0.000000
# 6 0.000000 0.000000 0.000000 -0.000491 0.000000 0.024387
#
#
# Mechanical properties :
#
#
# Convention : Reuss Voigt Hill
#
# Bulk Modulus (GPa) = 73.36498 84.81772 79.09135
# Shear Modulus (GPa) = 36.42334 38.09810 37.26072
#
# Velocity S-wave (km/s) = 4.31115 4.40915 4.36042
# Velocity P-wave (km/s) = 7.88783 8.31873 8.10614
#
# Compressibility (1/GPa) = 0.01363048
#
# Stress axis : x y z
#
# Youngs Moduli (GPa) = 91.01955 95.62323 89.81501
#
# Poissons Ratio (x) = 0.33192 0.31067
# Poissons Ratio (y) = 0.31594 0.22847
# Poissons Ratio (z) = 0.31484 0.24324
#
# Static dielectric constant tensor:
#      x y z
#    x 3.947170 0.000000 -0.045010 
#    y 0.000000 3.755120 0.000000 
#    z -0.045010 0.000000 3.947460 
# 
# 
# High freq. dielectric constant tensor:
#      x y z
#    x 1.793130 0.000000 0.005870 
#    y 0.000000 1.761400 0.000000 
#    z 0.005870 0.000000 1.772560 
# 
# From -- ./inp_files/224519.got.cif
#   From: 2010.06.25/outbox.cif.g09.slc.cpg/sg15_113_cif.got.tgz:224519.got - 2010.06.28 07:06:18.
