data_PCOD8151826
_publ_section_title
;
Structure prediction by ZEFSAII (Michael W. Deem and Ramdas Pophale) SiO2 
 PCOD8151826
Probable space group: C 2/C
;
_chemical_formula_sum "Si O2"
_cell_formula_units_Z 36
_cell_length_a 7.266841
_cell_length_b 16.830321
_cell_length_c 17.207256
_cell_angle_alpha 90.000000
_cell_angle_beta 55.992361
_cell_angle_gamma 90.000000
_cell_volume 1744.555656
_symmetry_space_group_name_H-M "C 2/C"
_symmetry_group_IT_number 15
_symmetry_cell_setting 'monoclinic'
loop_
_space_group_symop_operation_xyz
x,y,z
-x,y,1/2-z
-x,-y,-z
x,-y,1/2+z
1/2+x,1/2+y,z
1/2-x,1/2+y,1/2-z
1/2-x,1/2-y,-z
1/2+x,1/2-y,1/2+z
loop_
_atom_site_type_symbol
_atom_site_label
_atom_site_fract_x
_atom_site_fract_y
_atom_site_fract_z
Si Si1 0.832332 0.391793 0.856432
Si Si2 0.132634 0.440502 0.915537
Si Si3 0.865528 0.833853 0.983005
Si Si4 0.000000 0.960763 0.250000
Si Si5 0.253650 0.072504 0.834976
O O1 0.631545 0.328930 0.910334
O O2 0.736471 0.480392 0.864139
O O3 0.000000 0.363604 0.750000
O O4 0.959133 0.387943 0.908367
O O5 0.285785 0.386784 0.931272
O O6 0.283644 0.486699 0.818075
O O7 0.000000 0.500000 0.000000
O O8 0.750000 0.750000 0.000000
O O9 0.806847 0.871172 0.079631
O O10 0.075062 0.909781 0.307849
O O11 0.500000 0.095026 0.750000
#
# Coordination Sequence:
#
# PCOD8151826 Si02
#       5
#     8   8   8   4   8
#     4  11  21  41  70  95 124 171 232 269 313 389
#     4  12  21  37  69  95 126 170 225 268 316 385
#     4  12  26  43  65  99 141 174 208 271 343 396
#     4  12  20  36  72 102 120 170 232 280 318 368
#     4  11  21  41  66 103 127 169 229 278 315 385
#
# _framework density 20.635626999999999
#
# number of rings (size 3 to 8) (size 9 to 14) (size 15 to 20)
#    0.000    0.444    8.889    2.000    0.000    0.889 
#    6.000    0.000    2.444    0.000    0.000    0.000 
#    0.000    0.000    0.000    0.000    0.000    0.000 
#
# Total GULP energy -223248.049378 kJ/mol
# GULP energy per Si atom -12402.669410 kJ/mol
# Density = 2.058866 g / cm^3
# Si number density = 20.635627 Si / 1000 Ang^3
#
#
#
# Elastic Constant Matrix: (Units=GPa)
#
#
# Indices 1 2 3 4 5 6 
#
# 1 175.5147 29.2969 64.6899 0.0000 9.8995 0.0000
# 2 29.2969 55.1048 51.4941 0.0000 -11.1035 0.0000
# 3 64.6899 51.4941 141.2028 0.0000 -11.7437 0.0000
# 4 0.0000 0.0000 0.0000 7.2481 0.0000 -3.5794
# 5 9.8995 -11.1035 -11.7437 0.0000 54.3549 0.0000
# 6 0.0000 0.0000 0.0000 -3.5794 0.0000 28.0065
#
#
#
# Elastic Compliance Matrix: (Units=1/GPa)
#
#
# Indices 1 2 3 4 5 6 
#
# 1 0.007151 -0.001545 -0.002899 0.000000 -0.002244 0.000000
# 2 -0.001545 0.028539 -0.009360 0.000000 0.004089 0.000000
# 3 -0.002899 -0.009360 0.011923 0.000000 0.001192 0.000000
# 4 0.000000 0.000000 0.000000 0.147261 0.000000 0.018821
# 5 -0.002244 0.004089 0.001192 0.000000 0.019899 0.000000
# 6 0.000000 0.000000 0.000000 0.018821 0.000000 0.038111
#
#
# Mechanical properties :
#
#
# Convention : Reuss Voigt Hill
#
# Bulk Modulus (GPa) = 49.98816 73.64267 61.81541
# Shear Modulus (GPa) = 17.41192 33.01134 25.21163
#
# Velocity S-wave (km/s) = 2.90794 4.00400 3.49915
# Velocity P-wave (km/s) = 5.96252 7.55914 6.80780
#
# Compressibility (1/GPa) = 0.02000474
#
# Stress axis : x y z
#
# Youngs Moduli (GPa) = 139.85003 35.03982 83.87263
#
# Poissons Ratio (x) = 0.05412 0.24317
# Poissons Ratio (y) = 0.21600 0.78505
# Poissons Ratio (z) = 0.40547 0.32797
#
# Static dielectric constant tensor:
#      x y z
#    x 4.139170 0.000000 0.018240 
#    y 0.000000 3.243760 0.000000 
#    z 0.018240 0.000000 3.902590 
# 
# 
# High freq. dielectric constant tensor:
#      x y z
#    x 1.839950 0.000000 0.004730 
#    y 0.000000 1.748890 0.000000 
#    z 0.004730 0.000000 1.830270 
# 
# From -- ./inp_files/188666.got.cif
#   From: 2010.06.25/outbox.cif.g09.slc.cpg/sg15_95_cif.got.tgz:188666.got - 2010.06.28 07:06:18.
