data_PCOD8151768
_publ_section_title
;
Structure prediction by ZEFSAII (Michael W. Deem and Ramdas Pophale) SiO2 
 PCOD8151768
Probable space group: C 2/C
;
_chemical_formula_sum "Si O2"
_cell_formula_units_Z 56
_cell_length_a 27.996475
_cell_length_b 14.265702
_cell_length_c 11.682118
_cell_angle_alpha 90.000000
_cell_angle_beta 33.432817
_cell_angle_gamma 90.000000
_cell_volume 2570.616143
_symmetry_space_group_name_H-M "C 2/C"
_symmetry_group_IT_number 15
_symmetry_cell_setting 'monoclinic'
loop_
_space_group_symop_operation_xyz
x,y,z
-x,y,1/2-z
-x,-y,-z
x,-y,1/2+z
1/2+x,1/2+y,z
1/2-x,1/2+y,1/2-z
1/2-x,1/2-y,-z
1/2+x,1/2-y,1/2+z
loop_
_atom_site_type_symbol
_atom_site_label
_atom_site_fract_x
_atom_site_fract_y
_atom_site_fract_z
Si Si1 0.103153 0.802076 0.529510
Si Si2 0.177263 0.873335 0.621822
Si Si3 0.837964 0.555842 0.551012
Si Si4 0.309490 0.574268 0.830009
Si Si5 0.826845 0.626382 0.225786
Si Si6 0.646924 0.193240 0.798596
Si Si7 0.029278 0.594141 0.388525
O O1 0.140656 0.848001 0.569422
O O2 0.120280 0.866974 0.382882
O O3 0.157022 0.705321 0.403045
O O4 0.000000 0.784638 0.750000
O O5 0.281153 0.857012 0.425741
O O6 0.140850 0.804986 0.793722
O O7 0.147302 0.979402 0.707084
O O8 0.765876 0.536316 0.601566
O O9 0.834936 0.476858 0.655030
O O10 0.824072 0.659754 0.633038
O O11 0.933233 0.562328 0.308344
O O12 0.266697 0.633162 0.021494
O O13 0.899592 0.645133 0.175691
O O14 0.550861 0.162308 0.961042
O O15 0.000000 0.500000 0.500000
#
# Coordination Sequence:
#
# PCOD8151768 Si02
#       7
#     8   8   8   8   8   8   8
#     4  12  27  44  68  97 126 173 229 273 333 388
#     4  11  25  44  66  91 130 176 226 264 329 394
#     4  11  22  38  67 100 136 171 214 260 338 397
#     4  11  23  47  65  95 131 176 222 274 321 393
#     4  11  24  39  66  99 133 171 212 273 330 398
#     4  11  21  40  62  98 131 173 213 265 319 408
#     4  11  22  36  60 100 142 168 202 269 338 392
#
# _framework density 21.784659000000001
#
# number of rings (size 3 to 8) (size 9 to 14) (size 15 to 20)
#    0.000    0.857    4.286    2.571    8.000    0.571 
#    0.000    1.429    0.000    0.000    0.000    0.000 
#    0.000    0.000    0.000    0.000    0.000    0.000 
#
# Total GULP energy -346986.101048 kJ/mol
# GULP energy per Si atom -12392.360752 kJ/mol
# Density = 2.173508 g / cm^3
# Si number density = 21.784659 Si / 1000 Ang^3
#
#
#
# Elastic Constant Matrix: (Units=GPa)
#
#
# Indices 1 2 3 4 5 6 
#
# 1 71.3449 23.5068 21.5761 0.0000 12.1809 0.0000
# 2 23.5068 119.6075 61.2941 0.0000 19.6408 0.0000
# 3 21.5761 61.2941 137.9936 0.0000 16.5303 0.0000
# 4 0.0000 0.0000 0.0000 40.0488 0.0000 12.3365
# 5 12.1809 19.6408 16.5303 0.0000 30.8586 0.0000
# 6 0.0000 0.0000 0.0000 12.3365 0.0000 35.0626
#
#
#
# Elastic Compliance Matrix: (Units=1/GPa)
#
#
# Indices 1 2 3 4 5 6 
#
# 1 0.015705 -0.001773 -0.001133 0.000000 -0.004464 0.000000
# 2 -0.001773 0.011675 -0.004384 0.000000 -0.004383 0.000000
# 3 -0.001133 -0.004384 0.009599 0.000000 -0.001905 0.000000
# 4 0.000000 0.000000 0.000000 0.028005 0.000000 -0.009853
# 5 -0.004464 -0.004383 -0.001905 0.000000 0.037978 0.000000
# 6 0.000000 0.000000 0.000000 -0.009853 0.000000 0.031987
#
#
# Mechanical properties :
#
#
# Convention : Reuss Voigt Hill
#
# Bulk Modulus (GPa) = 44.64267 60.18890 52.41579
# Shear Modulus (GPa) = 31.84788 36.03193 33.93991
#
# Velocity S-wave (km/s) = 3.82768 4.07136 3.95140
# Velocity P-wave (km/s) = 6.33025 7.05622 6.70307
#
# Compressibility (1/GPa) = 0.02240009
#
# Stress axis : x y z
#
# Youngs Moduli (GPa) = 63.67221 85.65083 104.17479
#
# Poissons Ratio (x) = 0.15184 0.11808
# Poissons Ratio (y) = 0.11287 0.45667
# Poissons Ratio (z) = 0.07217 0.37547
#
# Static dielectric constant tensor:
#      x y z
#    x 3.412400 0.000000 0.315840 
#    y 0.000000 3.856170 0.000000 
#    z 0.315840 0.000000 4.206210 
# 
# 
# High freq. dielectric constant tensor:
#      x y z
#    x 1.850410 0.000000 0.010320 
#    y 0.000000 1.848870 0.000000 
#    z 0.010320 0.000000 1.864440 
# 
# From -- ./inp_files/97055.got.cif
#   From: 2010.06.25/outbox.cif.g09.slc.cpg/sg15_49_cif.got.tgz:97055.got - 2010.06.28 07:06:18.
