data_PCOD8151137
_publ_section_title
;
Structure prediction by ZEFSAII (Michael W. Deem and Ramdas Pophale) SiO2 
 PCOD8151137
Probable space group: C 2/C
;
_chemical_formula_sum "Si O2"
_cell_formula_units_Z 48
_cell_length_a 17.014417
_cell_length_b 11.434926
_cell_length_c 12.643667
_cell_angle_alpha 90.000000
_cell_angle_beta 69.014449
_cell_angle_gamma 90.000000
_cell_volume 2296.768607
_symmetry_space_group_name_H-M "C 2/C"
_symmetry_group_IT_number 15
_symmetry_cell_setting 'monoclinic'
loop_
_space_group_symop_operation_xyz
x,y,z
-x,y,1/2-z
-x,-y,-z
x,-y,1/2+z
1/2+x,1/2+y,z
1/2-x,1/2+y,1/2-z
1/2-x,1/2-y,-z
1/2+x,1/2-y,1/2+z
loop_
_atom_site_type_symbol
_atom_site_label
_atom_site_fract_x
_atom_site_fract_y
_atom_site_fract_z
Si Si1 0.698193 0.743105 0.631673
Si Si2 0.936759 0.937624 0.369327
Si Si3 0.502305 0.248493 0.483967
Si Si4 0.650643 0.823625 0.303967
Si Si5 0.414449 0.310625 0.855421
Si Si6 0.420776 0.069515 0.220670
O O1 0.750000 0.750000 0.500000
O O2 0.624377 0.653222 0.653568
O O3 0.754945 0.697333 0.700854
O O4 0.652340 0.865652 0.678355
O O5 0.011324 0.878975 0.058569
O O6 0.000000 0.977781 0.250000
O O7 0.887494 0.060239 0.412769
O O8 0.410597 0.224143 0.575952
O O9 0.572089 0.240145 0.542288
O O10 0.534620 0.155152 0.384312
O O11 0.650870 0.754496 0.190971
O O12 0.627587 0.959657 0.304892
O O13 0.500000 0.311094 0.750000
O O14 0.500000 0.021817 0.250000
#
# Coordination Sequence:
#
# PCOD8151137 Si02
#       6
#     8   8   8   8   8   8
#     4  12  24  43  63  95 128 170 214 269 332 378
#     4  11  20  41  66  90 123 167 220 261 312 399
#     4  11  19  42  68  97 120 172 224 263 314 392
#     4  11  25  41  64  99 134 167 212 277 331 377
#     4   9  22  38  63  94 127 159 207 262 324 376
#     4  12  23  44  71  94 129 176 226 263 316 404
#
# _framework density 20.898927
#
# number of rings (size 3 to 8) (size 9 to 14) (size 15 to 20)
#    0.000    1.000    5.000    2.500    2.333    1.333 
#    3.000    0.833    0.000    0.000    0.000    0.000 
#    0.000    0.000    0.000    0.000    0.000    0.000 
#
# Total GULP energy -297343.318115 kJ/mol
# GULP energy per Si atom -12389.304921 kJ/mol
# Density = 2.085136 g / cm^3
# Si number density = 20.898927 Si / 1000 Ang^3
#
#
#
# Elastic Constant Matrix: (Units=GPa)
#
#
# Indices 1 2 3 4 5 6 
#
# 1 83.8603 8.8248 21.5516 0.0000 25.0853 0.0000
# 2 8.8248 92.5818 18.8953 0.0000 7.1302 0.0000
# 3 21.5516 18.8953 80.3638 0.0000 13.5308 0.0000
# 4 0.0000 0.0000 0.0000 -1.9925 0.0000 2.8086
# 5 25.0853 7.1302 13.5308 0.0000 31.2587 0.0000
# 6 0.0000 0.0000 0.0000 2.8086 0.0000 4.2686
#
#
#
# Elastic Compliance Matrix: (Units=1/GPa)
#
#
# Indices 1 2 3 4 5 6 
#
# 1 0.016081 -0.000153 -0.002275 0.000000 -0.011885 0.000000
# 2 -0.000153 0.011417 -0.002400 0.000000 -0.001442 0.000000
# 3 -0.002275 -0.002400 0.014257 0.000000 -0.003798 0.000000
# 4 0.000000 0.000000 0.000000 -0.260388 0.000000 0.171324
# 5 -0.011885 -0.001442 -0.003798 0.000000 0.043502 0.000000
# 6 0.000000 0.000000 0.000000 0.171324 0.000000 0.121543
#
#
# Mechanical properties :
#
#
# Convention : Reuss Voigt Hill
#
# Bulk Modulus (GPa) = 31.15541 39.48325 35.31933
# Shear Modulus (GPa) = -150.45856 20.54259 -64.95799
#
# Velocity S-wave (km/s) = -8.49410 3.13860 -5.58117
# Velocity P-wave (km/s) = 9.01441 5.66286 4.95942
#
# Compressibility (1/GPa) = 0.03209716
#
# Stress axis : x y z
#
# Youngs Moduli (GPa) = 62.18659 87.58989 70.13860
#
# Poissons Ratio (x) = 0.01341 0.15959
# Poissons Ratio (y) = 0.00952 0.16836
# Poissons Ratio (z) = 0.14150 0.21026
#
# Static dielectric constant tensor:
#      x y z
#    x 3.967030 0.000000 0.388760 
#    y 0.000000 3.392990 0.000000 
#    z 0.388760 0.000000 3.913440 
# 
# 
# High freq. dielectric constant tensor:
#      x y z
#    x 1.810900 0.000000 0.019510 
#    y 0.000000 1.828690 0.000000 
#    z 0.019510 0.000000 1.819360 
# 
# From -- ./inp_files/104163.got.cif
#   From: 2010.06.25/outbox.cif.g09.slc.cpg/sg15_53_cif.got.tgz:104163.got - 2010.06.28 07:06:18.
