data_PCOD8151909
_publ_section_title
;
Structure prediction by ZEFSAII (Michael W. Deem and Ramdas Pophale) SiO2 
 PCOD8151909
Probable space group: C 2/C
;
_chemical_formula_sum "Si O2"
_cell_formula_units_Z 60
_cell_length_a 25.719676
_cell_length_b 20.167075
_cell_length_c 12.542092
_cell_angle_alpha 90.000000
_cell_angle_beta 152.715399
_cell_angle_gamma 90.000000
_cell_volume 2982.175135
_symmetry_space_group_name_H-M "C 2/C"
_symmetry_group_IT_number 15
_symmetry_cell_setting 'monoclinic'
loop_
_space_group_symop_operation_xyz
x,y,z
-x,y,1/2-z
-x,-y,-z
x,-y,1/2+z
1/2+x,1/2+y,z
1/2-x,1/2+y,1/2-z
1/2-x,1/2-y,-z
1/2+x,1/2-y,1/2+z
loop_
_atom_site_type_symbol
_atom_site_label
_atom_site_fract_x
_atom_site_fract_y
_atom_site_fract_z
Si Si1 0.035601 0.713374 0.435299
Si Si2 0.627154 0.388763 0.114818
Si Si3 0.914450 0.845610 0.848481
Si Si4 0.500000 0.028961 0.250000
Si Si5 0.816625 0.522852 0.270741
Si Si6 0.603234 0.536427 0.019274
Si Si7 0.852782 0.615138 0.137753
Si Si8 0.249408 0.375061 0.371717
O O1 0.074914 0.778921 0.565977
O O2 0.139110 0.661913 0.626917
O O3 0.000000 0.730891 0.250000
O O4 0.928081 0.680313 0.299139
O O5 0.727849 0.363164 0.374389
O O6 0.652163 0.371010 0.037680
O O7 0.514782 0.351245 0.945837
O O8 0.615100 0.468057 0.105922
O O9 0.796438 0.844354 0.567630
O O10 0.920469 0.906683 0.939483
O O11 0.408954 0.074837 0.143245
O O12 0.566972 0.981531 0.451816
O O13 0.844843 0.571992 0.228034
O O14 0.781391 0.451335 0.160791
O O15 0.717676 0.553319 0.163559
O O16 0.500000 0.530674 0.750000
#
# Coordination Sequence:
#
# PCOD8151909 Si02
#       8
#     8   8   8   4   8   8   8   8
#     4  12  24  45  63  88 129 175 215 259 314 395
#     4  11  21  42  69  93 125 164 217 264 322 386
#     4  12  26  39  65  94 130 172 214 263 320 378
#     4  12  20  40  62 100 124 166 208 266 324 380
#     4  11  23  36  70  96 128 161 212 274 322 379
#     4  11  22  42  61  99 133 161 209 265 330 377
#     4  12  21  41  66  95 125 171 213 260 324 380
#     4  11  22  43  66  92 126 169 215 263 329 378
#
# _framework density 20.119541999999999
#
# number of rings (size 3 to 8) (size 9 to 14) (size 15 to 20)
#    0.000    0.533    6.000    5.200    0.000    0.533 
#    2.400    0.000    0.000    0.000    0.000    0.000 
#    0.000    0.000    0.000    0.000    0.000    0.000 
#
# Total GULP energy -372163.912156 kJ/mol
# GULP energy per Si atom -12405.463739 kJ/mol
# Density = 2.007375 g / cm^3
# Si number density = 20.119542 Si / 1000 Ang^3
#
#
#
# Elastic Constant Matrix: (Units=GPa)
#
#
# Indices 1 2 3 4 5 6 
#
# 1 66.5092 26.9316 25.5614 0.0000 -3.8780 0.0000
# 2 26.9316 67.5365 27.6520 0.0000 -6.7689 0.0000
# 3 25.5614 27.6520 128.7435 0.0000 -11.4069 0.0000
# 4 0.0000 0.0000 0.0000 22.2961 0.0000 -9.4005
# 5 -3.8780 -6.7689 -11.4069 0.0000 26.2575 0.0000
# 6 0.0000 0.0000 0.0000 -9.4005 0.0000 90.5072
#
#
#
# Elastic Compliance Matrix: (Units=1/GPa)
#
#
# Indices 1 2 3 4 5 6 
#
# 1 0.018529 -0.006444 -0.002288 0.000000 0.000082 0.000000
# 2 -0.006444 0.018673 -0.002485 0.000000 0.002782 0.000000
# 3 -0.002288 -0.002485 0.009016 0.000000 0.002938 0.000000
# 4 0.000000 0.000000 0.000000 0.046905 0.000000 0.004872
# 5 0.000082 0.002782 0.002938 0.000000 0.040090 0.000000
# 6 0.000000 0.000000 0.000000 0.004872 0.000000 0.011555
#
#
# Mechanical properties :
#
#
# Convention : Reuss Voigt Hill
#
# Bulk Modulus (GPa) = 42.04371 47.00880 44.52626
# Shear Modulus (GPa) = 28.55065 39.98845 34.26955
#
# Velocity S-wave (km/s) = 3.77112 4.46302 4.13158
# Velocity P-wave (km/s) = 6.31697 7.06920 6.70364
#
# Compressibility (1/GPa) = 0.02378477
#
# Stress axis : x y z
#
# Youngs Moduli (GPa) = 53.97006 53.55430 110.91953
#
# Poissons Ratio (x) = 0.34510 0.25373
# Poissons Ratio (y) = 0.34778 0.27559
# Poissons Ratio (z) = 0.12346 0.13306
#
# Static dielectric constant tensor:
#      x y z
#    x 2.748540 0.000000 -0.247130 
#    y 0.000000 3.495070 0.000000 
#    z -0.247130 0.000000 3.801290 
# 
# 
# High freq. dielectric constant tensor:
#      x y z
#    x 1.787280 0.000000 -0.000200 
#    y 0.000000 1.764170 0.000000 
#    z -0.000200 0.000000 1.810250 
# 
# From -- ./inp_files/119968.got.cif
#   From: 2010.06.25/outbox.cif.g09.slc.cpg/sg15_60_cif.got.tgz:119968.got - 2010.06.28 07:06:18.
