data_PCOD8151068
_publ_section_title
;
Structure prediction by ZEFSAII (Michael W. Deem and Ramdas Pophale) SiO2 
 PCOD8151068
Probable space group: C 2/C
;
_chemical_formula_sum "Si O2"
_cell_formula_units_Z 60
_cell_length_a 8.462655
_cell_length_b 25.852905
_cell_length_c 21.605162
_cell_angle_alpha 90.000000
_cell_angle_beta 39.287200
_cell_angle_gamma 90.000000
_cell_volume 2993.090803
_symmetry_space_group_name_H-M "C 2/C"
_symmetry_group_IT_number 15
_symmetry_cell_setting 'monoclinic'
loop_
_space_group_symop_operation_xyz
x,y,z
-x,y,1/2-z
-x,-y,-z
x,-y,1/2+z
1/2+x,1/2+y,z
1/2-x,1/2+y,1/2-z
1/2-x,1/2-y,-z
1/2+x,1/2-y,1/2+z
loop_
_atom_site_type_symbol
_atom_site_label
_atom_site_fract_x
_atom_site_fract_y
_atom_site_fract_z
Si Si1 0.771663 0.980869 0.435446
Si Si2 0.315530 0.851707 0.748363
Si Si3 0.280660 0.736734 0.766443
Si Si4 0.564327 0.412329 0.566283
Si Si5 0.500000 0.574518 0.750000
Si Si6 0.843569 0.801391 0.438043
Si Si7 0.751763 0.607131 0.456902
Si Si8 0.931188 0.347617 0.095498
O O1 0.900412 0.027808 0.431037
O O2 0.500000 0.000000 0.500000
O O3 0.731877 0.934509 0.494547
O O4 0.946412 0.962136 0.325540
O O5 0.500000 0.848687 0.750000
O O6 0.198522 0.794606 0.772700
O O7 0.466345 0.874425 0.644460
O O8 0.085337 0.889198 0.830568
O O9 0.500000 0.738616 0.750000
O O10 0.388757 0.709181 0.673129
O O11 0.053763 0.702606 0.863509
O O12 0.398498 0.413900 0.555460
O O13 0.810170 0.377849 0.484517
O O14 0.263192 0.612179 0.814607
O O15 0.750000 0.750000 0.500000
O O16 0.897874 0.842893 0.474553
O O17 0.647138 0.826771 0.448697
#
# Coordination Sequence:
#
# PCOD8151068 Si02
#       8
#     8   8   8   8   4   8   8   8
#     4  12  25  44  68  92 123 170 217 261 322 383
#     4   9  20  37  59  92 128 165 199 255 320 373
#     4   9  17  34  62  88 122 165 206 245 314 379
#     4  11  25  41  62  96 128 163 215 273 316 371
#     4  12  22  42  68  92 120 168 216 262 318 382
#     4  11  19  36  65  93 122 171 211 249 311 392
#     4  11  22  42  66  93 130 165 213 264 326 378
#     4  11  21  41  66  92 127 170 214 255 316 387
#
# _framework density 20.046168999999999
#
# number of rings (size 3 to 8) (size 9 to 14) (size 15 to 20)
#    0.000    1.333    6.000    0.400    3.733    0.533 
#    0.000    2.667    0.000    0.000    0.000    0.000 
#    0.000    0.000    0.000    0.000    0.000    0.000 
#
# Total GULP energy -371848.340395 kJ/mol
# GULP energy per Si atom -12394.944680 kJ/mol
# Density = 2.000054 g / cm^3
# Si number density = 20.046169 Si / 1000 Ang^3
#
#
#
# Elastic Constant Matrix: (Units=GPa)
#
#
# Indices 1 2 3 4 5 6 
#
# 1 45.4982 38.6241 30.4677 -0.0001 8.0654 0.0002
# 2 38.6241 176.0023 76.5419 -0.0001 13.0565 -0.0001
# 3 30.4677 76.5419 137.3001 -0.0002 15.7294 0.0008
# 4 -0.0001 -0.0001 -0.0002 51.1571 0.0000 3.9879
# 5 8.0654 13.0565 15.7294 0.0000 27.6868 -0.0005
# 6 0.0002 -0.0001 0.0008 3.9879 -0.0005 19.8178
#
#
#
# Elastic Compliance Matrix: (Units=1/GPa)
#
#
# Indices 1 2 3 4 5 6 
#
# 1 0.028868 -0.004545 -0.003374 0.000000 -0.004349 0.000000
# 2 -0.004545 0.008256 -0.003529 0.000000 -0.000564 0.000000
# 3 -0.003374 -0.003529 0.010371 0.000000 -0.003245 -0.000001
# 4 0.000000 0.000000 0.000000 0.019859 0.000000 -0.003996
# 5 -0.004349 -0.000564 -0.003245 0.000000 0.039495 0.000001
# 6 0.000000 0.000000 -0.000001 -0.003996 0.000001 0.051264
#
#
# Mechanical properties :
#
#
# Convention : Reuss Voigt Hill
#
# Bulk Modulus (GPa) = 40.65326 72.22977 56.44152
# Shear Modulus (GPa) = 26.42588 33.94346 30.18467
#
# Velocity S-wave (km/s) = 3.63471 4.11939 3.88462
# Velocity P-wave (km/s) = 6.15944 7.66393 6.95250
#
# Compressibility (1/GPa) = 0.02459827
#
# Stress axis : x y z
#
# Youngs Moduli (GPa) = 34.64094 121.12571 96.42076
#
# Poissons Ratio (x) = 0.55054 0.32530
# Poissons Ratio (y) = 0.15745 0.34029
# Poissons Ratio (z) = 0.11687 0.42748
#
# Static dielectric constant tensor:
#      x y z
#    x 3.332190 0.000000 0.162020 
#    y 0.000000 3.617790 0.000010 
#    z 0.162020 0.000010 4.030810 
# 
# 
# High freq. dielectric constant tensor:
#      x y z
#    x 1.744210 0.000000 0.015580 
#    y 0.000000 1.808640 0.000000 
#    z 0.015580 0.000000 1.797650 
# 
# From -- ./inp_files/234533.got.cif
#   From: 2010.06.25/outbox.cif.g09.slc.cpg/sg15_118_cif.got.tgz:234533.got - 2010.06.28 07:06:18.
