data_PCOD8151352
_publ_section_title
;
Structure prediction by ZEFSAII (Michael W. Deem and Ramdas Pophale) SiO2 
 PCOD8151352
Probable space group: C 2/C
;
_chemical_formula_sum "Si O2"
_cell_formula_units_Z 36
_cell_length_a 11.398589
_cell_length_b 15.444298
_cell_length_c 9.416902
_cell_angle_alpha 90.000000
_cell_angle_beta 105.625083
_cell_angle_gamma 90.000000
_cell_volume 1596.517872
_symmetry_space_group_name_H-M "C 2/C"
_symmetry_group_IT_number 15
_symmetry_cell_setting 'monoclinic'
loop_
_space_group_symop_operation_xyz
x,y,z
-x,y,1/2-z
-x,-y,-z
x,-y,1/2+z
1/2+x,1/2+y,z
1/2-x,1/2+y,1/2-z
1/2-x,1/2-y,-z
1/2+x,1/2-y,1/2+z
loop_
_atom_site_type_symbol
_atom_site_label
_atom_site_fract_x
_atom_site_fract_y
_atom_site_fract_z
Si Si1 0.036699 0.158192 0.113775
Si Si2 0.190926 0.363544 0.843460
Si Si3 0.500000 0.990039 0.250000
Si Si4 0.814546 0.787576 0.381362
Si Si5 0.887134 0.345278 0.370132
O O1 0.164488 0.117645 0.104637
O O2 0.046452 0.258925 0.156844
O O3 0.000000 0.110904 0.250000
O O4 0.932183 0.153788 0.959298
O O5 0.152979 0.294439 0.709872
O O6 0.121386 0.453587 0.800277
O O7 0.151706 0.327097 0.982046
O O8 0.478217 0.926992 0.379686
O O9 0.750000 0.750000 0.500000
O O10 0.730045 0.855895 0.270420
#
# Coordination Sequence:
#
# PCOD8151352 Si02
#       5
#     8   8   4   8   8
#     4  11  20  41  68  99 129 171 223 274 331 397
#     4  11  25  39  66 103 133 173 224 279 333 399
#     4  12  24  46  66  96 140 180 226 276 340 392
#     4  11  20  39  69  98 133 175 219 271 335 399
#     4  11  23  41  66  99 133 174 226 276 327 399
#
# _framework density 22.549074000000001
#
# number of rings (size 3 to 8) (size 9 to 14) (size 15 to 20)
#    0.000    0.889    5.556    4.667    0.000    4.444 
#    0.000    1.111    0.000    0.000    0.000    0.000 
#    0.000    0.000    0.000    0.000    0.000    0.000 
#
# Total GULP energy -223082.821113 kJ/mol
# GULP energy per Si atom -12393.490062 kJ/mol
# Density = 2.249775 g / cm^3
# Si number density = 22.549074 Si / 1000 Ang^3
#
#
#
# Elastic Constant Matrix: (Units=GPa)
#
#
# Indices 1 2 3 4 5 6 
#
# 1 107.2902 40.4593 50.1503 0.0000 -17.9389 0.0000
# 2 40.4593 81.9930 20.7925 0.0000 -5.8198 0.0000
# 3 50.1503 20.7925 140.0607 0.0000 -18.6696 0.0000
# 4 0.0000 0.0000 0.0000 22.1873 0.0000 -7.9718
# 5 -17.9389 -5.8198 -18.6696 0.0000 52.0253 0.0000
# 6 0.0000 0.0000 0.0000 -7.9718 0.0000 46.5495
#
#
#
# Elastic Compliance Matrix: (Units=1/GPa)
#
#
# Indices 1 2 3 4 5 6 
#
# 1 0.013604 -0.005586 -0.003676 0.000000 0.002747 0.000000
# 2 -0.005586 0.014997 -0.000272 0.000000 -0.000346 0.000000
# 3 -0.003676 -0.000272 0.008741 0.000000 0.001839 0.000000
# 4 0.000000 0.000000 0.000000 0.048026 0.000000 0.008225
# 5 0.002747 -0.000346 0.001839 0.000000 0.020790 0.000000
# 6 0.000000 0.000000 0.000000 0.008225 0.000000 0.022891
#
#
# Mechanical properties :
#
#
# Convention : Reuss Voigt Hill
#
# Bulk Modulus (GPa) = 54.72053 61.34977 58.03515
# Shear Modulus (GPa) = 32.42341 38.68189 35.55265
#
# Velocity S-wave (km/s) = 3.79608 4.14630 3.97505
# Velocity P-wave (km/s) = 6.59800 7.08440 6.84552
#
# Compressibility (1/GPa) = 0.01827468
#
# Stress axis : x y z
#
# Youngs Moduli (GPa) = 73.50532 66.67976 114.39695
#
# Poissons Ratio (x) = 0.37247 0.42050
# Poissons Ratio (y) = 0.41060 0.03116
# Poissons Ratio (z) = 0.27019 0.01816
#
# Static dielectric constant tensor:
#      x y z
#    x 4.433260 0.000000 0.213140 
#    y 0.000000 3.611250 0.000000 
#    z 0.213140 0.000000 4.392580 
# 
# 
# High freq. dielectric constant tensor:
#      x y z
#    x 1.907550 0.000000 -0.007270 
#    y 0.000000 1.844710 0.000000 
#    z -0.007270 0.000000 1.902980 
# 
# From -- ./inp_files/28818.got.cif
#   From: 2010.06.25/outbox.cif.g09.slc.cpg/sg15_15_cif.got.tgz:28818.got - 2010.06.28 07:06:18.
