data_PCOD8151523
_publ_section_title
;
Structure prediction by ZEFSAII (Michael W. Deem and Ramdas Pophale) SiO2 
 PCOD8151523
Probable space group: C 2/C
;
_chemical_formula_sum "Si O2"
_cell_formula_units_Z 64
_cell_length_a 6.405357
_cell_length_b 22.447941
_cell_length_c 22.626778
_cell_angle_alpha 90.000000
_cell_angle_beta 95.134227
_cell_angle_gamma 90.000000
_cell_volume 3240.384753
_symmetry_space_group_name_H-M "C 2/C"
_symmetry_group_IT_number 15
_symmetry_cell_setting 'monoclinic'
loop_
_space_group_symop_operation_xyz
x,y,z
-x,y,1/2-z
-x,-y,-z
x,-y,1/2+z
1/2+x,1/2+y,z
1/2-x,1/2+y,1/2-z
1/2-x,1/2-y,-z
1/2+x,1/2-y,1/2+z
loop_
_atom_site_type_symbol
_atom_site_label
_atom_site_fract_x
_atom_site_fract_y
_atom_site_fract_z
Si Si1 0.882115 0.059909 0.003969
Si Si2 0.750714 0.347546 0.515812
Si Si3 0.648690 0.116617 0.095457
Si Si4 0.717372 0.060296 0.877463
Si Si5 0.110123 0.087411 0.813119
Si Si6 0.079004 0.660915 0.611101
Si Si7 0.080593 0.475482 0.687783
Si Si8 0.594228 0.727321 0.443756
O O1 0.739774 0.062732 0.058350
O O2 0.054163 0.110065 0.005964
O O3 0.717824 0.065359 0.947550
O O4 0.000000 0.000000 0.000000
O O5 0.875219 0.347875 0.457480
O O6 0.631839 0.286538 0.531565
O O7 0.911825 0.366176 0.571561
O O8 0.660158 0.087017 0.161073
O O9 0.798614 0.173874 0.090433
O O10 0.575913 0.116660 0.857712
O O11 0.946251 0.063569 0.856335
O O12 0.615255 0.997911 0.855972
O O13 0.212854 0.147426 0.844639
O O14 0.000000 0.108211 0.750000
O O15 0.255771 0.030131 0.803717
O O16 0.963603 0.724833 0.609243
O O17 0.000000 0.458028 0.750000
O O18 0.750000 0.750000 0.500000
#
# Coordination Sequence:
#
# PCOD8151523 Si02
#       8
#     8   8   8   8   8   8   8   8
#     4  11  21  33  55  92 133 158 193 253 329 387
#     4  11  21  37  59  94 127 165 207 251 323 390
#     4  11  24  38  60  94 129 170 208 259 324 392
#     4  11  21  37  61  92 126 157 205 259 325 380
#     4  11  23  41  65  93 124 169 215 263 327 378
#     4  11  22  36  65  93 124 164 211 265 314 386
#     4  11  24  42  63  90 123 170 218 258 310 398
#     4  11  23  40  63  95 129 171 212 257 328 395
#
# _framework density 19.75074
#
# number of rings (size 3 to 8) (size 9 to 14) (size 15 to 20)
#    0.000    1.000    5.000    2.625    1.750    2.000 
#    0.000    0.000    0.000    4.500    0.000    0.000 
#    0.000    0.000    0.000    0.000    0.000    0.000 
#
# Total GULP energy -396429.861522 kJ/mol
# GULP energy per Si atom -12388.433173 kJ/mol
# Density = 1.970579 g / cm^3
# Si number density = 19.750740 Si / 1000 Ang^3
#
#
#
# Elastic Constant Matrix: (Units=GPa)
#
#
# Indices 1 2 3 4 5 6 
#
# 1 87.7274 39.4134 39.6440 0.0000 0.0165 0.0000
# 2 39.4134 95.3960 49.0961 0.0000 0.4089 0.0000
# 3 39.6440 49.0961 100.8120 0.0000 -8.7828 0.0000
# 4 0.0000 0.0000 0.0000 25.0121 0.0000 8.2304
# 5 0.0165 0.4089 -8.7828 0.0000 35.3303 0.0000
# 6 0.0000 0.0000 0.0000 8.2304 0.0000 9.5388
#
#
#
# Elastic Compliance Matrix: (Units=1/GPa)
#
#
# Indices 1 2 3 4 5 6 
#
# 1 0.015072 -0.004177 -0.003975 0.000000 -0.000947 0.000000
# 2 -0.004177 0.015272 -0.005939 0.000000 -0.001651 0.000000
# 3 -0.003975 -0.005939 0.014699 0.000000 0.003725 0.000000
# 4 0.000000 0.000000 0.000000 0.055833 0.000000 -0.048174
# 5 -0.000947 -0.001651 0.003725 0.000000 0.029250 0.000000
# 6 0.000000 0.000000 0.000000 -0.048174 0.000000 0.146402
#
#
# Mechanical properties :
#
#
# Convention : Reuss Voigt Hill
#
# Bulk Modulus (GPa) = 59.30779 60.02694 59.66737
# Shear Modulus (GPa) = 16.11185 24.36169 20.23677
#
# Velocity S-wave (km/s) = 2.85925 3.51587 3.20442
# Velocity P-wave (km/s) = 6.40263 6.85128 6.63075
#
# Compressibility (1/GPa) = 0.01686119
#
# Stress axis : x y z
#
# Youngs Moduli (GPa) = 66.34703 65.47958 68.02997
#
# Poissons Ratio (x) = 0.27352 0.27044
# Poissons Ratio (y) = 0.27715 0.40401
# Poissons Ratio (z) = 0.26375 0.38886
#
# Static dielectric constant tensor:
#      x y z
#    x 3.820600 0.000000 -0.051720 
#    y 0.000000 3.302680 0.000000 
#    z -0.051720 0.000000 3.426880 
# 
# 
# High freq. dielectric constant tensor:
#      x y z
#    x 1.792950 0.000000 -0.003830 
#    y 0.000000 1.762800 0.000000 
#    z -0.003830 0.000000 1.747550 
# 
# From -- ./inp_files/261710.got.cif
#   From: 2010.06.25/outbox.cif.g09.slc.cpg/sg15_131_cif.got.tgz:261710.got - 2010.06.28 07:06:18.
