data_PCOD8151521
_publ_section_title
;
Structure prediction by ZEFSAII (Michael W. Deem and Ramdas Pophale) SiO2 
 PCOD8151521
Probable space group: C 2/C
;
_chemical_formula_sum "Si O2"
_cell_formula_units_Z 32
_cell_length_a 10.929282
_cell_length_b 30.628680
_cell_length_c 13.510194
_cell_angle_alpha 90.000000
_cell_angle_beta 20.160334
_cell_angle_gamma 90.000000
_cell_volume 1558.682856
_symmetry_space_group_name_H-M "C 2/C"
_symmetry_group_IT_number 15
_symmetry_cell_setting 'monoclinic'
loop_
_space_group_symop_operation_xyz
x,y,z
-x,y,1/2-z
-x,-y,-z
x,-y,1/2+z
1/2+x,1/2+y,z
1/2-x,1/2+y,1/2-z
1/2-x,1/2-y,-z
1/2+x,1/2-y,1/2+z
loop_
_atom_site_type_symbol
_atom_site_label
_atom_site_fract_x
_atom_site_fract_y
_atom_site_fract_z
Si Si1 0.036076 0.072892 0.503402
Si Si2 0.082783 0.009512 0.299094
Si Si3 0.345900 0.126366 0.554630
Si Si4 0.213050 0.275991 0.381384
O O1 0.936177 0.050213 0.474922
O O2 0.707796 0.098918 0.803081
O O3 0.352444 0.106762 0.245036
O O4 0.138729 0.033684 0.501202
O O5 0.000000 0.021330 0.250000
O O6 0.500000 0.000000 0.000000
O O7 0.444876 0.175513 0.511991
O O8 0.000000 0.125049 0.750000
O O9 0.500000 0.276661 0.250000
O O10 0.899265 0.241604 0.641170
#
# Coordination Sequence:
#
# PCOD8151521 Si02
#       4
#     8   8   8   8
#     4  11  23  37  56  82 113 154 201 240 289 350
#     4  11  25  42  61  85 118 160 198 250 296 348
#     4  11  21  33  55  83 117 155 199 243 292 354
#     4   9  17  30  47  74 112 154 189 230 290 355
#
# _framework density 20.530156000000002
#
# number of rings (size 3 to 8) (size 9 to 14) (size 15 to 20)
#    0.000    1.500    2.500    3.000    3.500    7.000 
#    0.000    0.000    0.000    0.000    0.000    0.000 
#    0.000   20.000    0.000    0.000    0.000    0.000 
#
# Total GULP energy -198319.475264 kJ/mol
# GULP energy per Si atom -12394.967204 kJ/mol
# Density = 2.048343 g / cm^3
# Si number density = 20.530156 Si / 1000 Ang^3
#
#
#
# Elastic Constant Matrix: (Units=GPa)
#
#
# Indices 1 2 3 4 5 6 
#
# 1 89.2010 23.4347 16.8165 0.0030 21.6051 -0.0045
# 2 23.4347 149.5264 33.8281 0.0022 15.8739 -0.0047
# 3 16.8165 33.8281 87.3486 0.0202 24.2183 -0.0246
# 4 0.0030 0.0022 0.0202 41.4547 -0.0045 12.8644
# 5 21.6051 15.8739 24.2183 -0.0045 29.7665 0.0068
# 6 -0.0045 -0.0047 -0.0246 12.8644 0.0068 18.6848
#
#
#
# Elastic Compliance Matrix: (Units=1/GPa)
#
#
# Indices 1 2 3 4 5 6 
#
# 1 0.013809 -0.001246 0.000541 -0.000006 -0.009798 0.000011
# 2 -0.001246 0.007542 -0.002346 0.000001 -0.001209 -0.000002
# 3 0.000541 -0.002346 0.015515 -0.000021 -0.011764 0.000039
# 4 -0.000006 0.000001 -0.000021 0.030677 0.000030 -0.021121
# 5 -0.009798 -0.001209 -0.011764 0.000030 0.050923 -0.000057
# 6 0.000011 -0.000002 0.000039 -0.021121 -0.000057 0.068061
#
#
# Mechanical properties :
#
#
# Convention : Reuss Voigt Hill
#
# Bulk Modulus (GPa) = 32.50620 52.69274 42.59947
# Shear Modulus (GPa) = 24.64454 34.78099 29.71277
#
# Velocity S-wave (km/s) = 3.46845 4.12046 3.80843
# Velocity P-wave (km/s) = 5.64871 6.95409 6.33511
#
# Compressibility (1/GPa) = 0.03076336
#
# Stress axis : x y z
#
# Youngs Moduli (GPa) = 72.41444 132.58802 64.45577
#
# Poissons Ratio (x) = 0.16526 -0.03486
# Poissons Ratio (y) = 0.09026 0.15120
# Poissons Ratio (z) = -0.03916 0.31102
#
# Static dielectric constant tensor:
#      x y z
#    x 3.298090 0.000020 0.494580 
#    y 0.000020 4.109100 -0.000030 
#    z 0.494580 -0.000030 3.948880 
# 
# 
# High freq. dielectric constant tensor:
#      x y z
#    x 1.745730 0.000000 0.049710 
#    y 0.000000 1.814720 0.000000 
#    z 0.049710 0.000000 1.808770 
# 
# From -- ./inp_files/148655.got.cif
#   From: 2010.06.25/outbox.cif.g09.slc.cpg/sg15_75_cif.got.tgz:148655.got - 2010.06.28 07:06:18.
