data_PCOD8151867
_publ_section_title
;
Structure prediction by ZEFSAII (Michael W. Deem and Ramdas Pophale) SiO2 
 PCOD8151867
Probable space group: C 2/C
;
_chemical_formula_sum "Si O2"
_cell_formula_units_Z 56
_cell_length_a 12.767628
_cell_length_b 14.124804
_cell_length_c 14.255608
_cell_angle_alpha 90.000000
_cell_angle_beta 99.067000
_cell_angle_gamma 90.000000
_cell_volume 2538.736238
_symmetry_space_group_name_H-M "C 2/C"
_symmetry_group_IT_number 15
_symmetry_cell_setting 'monoclinic'
loop_
_space_group_symop_operation_xyz
x,y,z
-x,y,1/2-z
-x,-y,-z
x,-y,1/2+z
1/2+x,1/2+y,z
1/2-x,1/2+y,1/2-z
1/2-x,1/2-y,-z
1/2+x,1/2-y,1/2+z
loop_
_atom_site_type_symbol
_atom_site_label
_atom_site_fract_x
_atom_site_fract_y
_atom_site_fract_z
Si Si1 0.209726 0.578386 0.147189
Si Si2 0.094151 0.209783 0.826265
Si Si3 0.166339 0.172630 0.025882
Si Si4 0.283815 0.980417 0.054503
Si Si5 0.889287 0.202075 0.274691
Si Si6 0.782659 0.616421 0.744031
Si Si7 0.022725 0.584226 0.352076
O O1 0.291250 0.641047 0.218281
O O2 0.195378 0.474317 0.188942
O O3 0.089721 0.619770 0.121792
O O4 0.248536 0.571869 0.045624
O O5 0.199945 0.183384 0.786092
O O6 0.093602 0.323431 0.838184
O O7 0.000000 0.169361 0.750000
O O8 0.084588 0.161002 0.927439
O O9 0.217711 0.074164 0.056759
O O10 0.106270 0.202668 0.111576
O O11 0.250000 0.250000 0.000000
O O12 0.409204 0.011054 0.075065
O O13 0.248212 0.913681 0.134983
O O14 0.881805 0.312621 0.244738
O O15 0.000000 0.161005 0.250000
O O16 0.000000 0.531047 0.250000
#
# Coordination Sequence:
#
# PCOD8151867 Si02
#       7
#     8   8   8   8   8   8   8
#     4  12  26  47  72 107 147 184 245 303 362 440
#     4  11  24  42  75 105 138 188 250 294 346 434
#     4  12  21  47  75 104 142 196 247 290 364 445
#     4  12  24  42  75 107 141 190 239 306 366 427
#     4  12  28  47  72 108 153 192 233 308 377 431
#     4  12  25  46  72 104 145 188 245 295 364 430
#     4  11  21  41  73 108 137 179 243 304 354 419
#
# _framework density 22.058219000000001
#
# number of rings (size 3 to 8) (size 9 to 14) (size 15 to 20)
#    0.000    0.286    7.143    2.143    2.000    3.429 
#    0.000    1.429    0.000    0.000    0.000    0.000 
#    0.000    0.000    0.000    0.000    0.000    0.000 
#
# Total GULP energy -347053.872939 kJ/mol
# GULP energy per Si atom -12394.781176 kJ/mol
# Density = 2.200801 g / cm^3
# Si number density = 22.058219 Si / 1000 Ang^3
#
#
#
# Elastic Constant Matrix: (Units=GPa)
#
#
# Indices 1 2 3 4 5 6 
#
# 1 86.6724 37.7774 48.3938 0.0000 1.8297 0.0000
# 2 37.7774 100.6145 44.0105 0.0000 -1.6752 0.0000
# 3 48.3938 44.0105 173.7524 0.0000 -5.0649 0.0000
# 4 0.0000 0.0000 0.0000 38.2338 0.0000 1.9541
# 5 1.8297 -1.6752 -5.0649 0.0000 40.8224 0.0000
# 6 0.0000 0.0000 0.0000 1.9541 0.0000 23.0486
#
#
#
# Elastic Compliance Matrix: (Units=1/GPa)
#
#
# Indices 1 2 3 4 5 6 
#
# 1 0.015235 -0.004351 -0.003178 0.000000 -0.001256 0.000000
# 2 -0.004351 0.012420 -0.001921 0.000000 0.000466 0.000000
# 3 -0.003178 -0.001921 0.007155 0.000000 0.000951 0.000000
# 4 0.000000 0.000000 0.000000 0.026269 0.000000 -0.002227
# 5 -0.001256 0.000466 0.000951 0.000000 0.024690 0.000000
# 6 0.000000 0.000000 0.000000 -0.002227 0.000000 0.043575
#
#
# Mechanical properties :
#
#
# Convention : Reuss Voigt Hill
#
# Bulk Modulus (GPa) = 62.84890 69.04472 65.94681
# Shear Modulus (GPa) = 32.56340 35.81147 34.18744
#
# Velocity S-wave (km/s) = 3.84637 4.03364 3.94111
# Velocity P-wave (km/s) = 6.94839 7.28442 7.11839
#
# Compressibility (1/GPa) = 0.01591118
#
# Stress axis : x y z
#
# Youngs Moduli (GPa) = 65.63816 80.51215 139.77040
#
# Poissons Ratio (x) = 0.35032 0.44416
# Poissons Ratio (y) = 0.28560 0.26844
# Poissons Ratio (z) = 0.20858 0.15463
#
# Static dielectric constant tensor:
#      x y z
#    x 4.259050 0.000000 0.277520 
#    y 0.000000 3.897070 0.000000 
#    z 0.277520 0.000000 4.554630 
# 
# 
# High freq. dielectric constant tensor:
#      x y z
#    x 1.854330 0.000000 0.004710 
#    y 0.000000 1.860070 0.000000 
#    z 0.004710 0.000000 1.888160 
# 
# From -- ./inp_files/144260.got.cif
#   From: 2010.06.25/outbox.cif.g09.slc.cpg/sg15_73_cif.got.tgz:144260.got - 2010.06.28 07:06:18.
