data_PCOD8151786
_publ_section_title
;
Structure prediction by ZEFSAII (Michael W. Deem and Ramdas Pophale) SiO2 
 PCOD8151786
Probable space group: C 2/C
;
_chemical_formula_sum "Si O2"
_cell_formula_units_Z 44
_cell_length_a 24.996009
_cell_length_b 8.455078
_cell_length_c 13.300724
_cell_angle_alpha 90.000000
_cell_angle_beta 129.628361
_cell_angle_gamma 90.000000
_cell_volume 2165.039126
_symmetry_space_group_name_H-M "C 2/C"
_symmetry_group_IT_number 15
_symmetry_cell_setting 'monoclinic'
loop_
_space_group_symop_operation_xyz
x,y,z
-x,y,1/2-z
-x,-y,-z
x,-y,1/2+z
1/2+x,1/2+y,z
1/2-x,1/2+y,1/2-z
1/2-x,1/2-y,-z
1/2+x,1/2-y,1/2+z
loop_
_atom_site_type_symbol
_atom_site_label
_atom_site_fract_x
_atom_site_fract_y
_atom_site_fract_z
Si Si1 0.185729 0.818698 0.194840
Si Si2 0.184827 0.506397 0.078982
Si Si3 0.563325 0.435732 0.515915
Si Si4 0.000000 0.206923 0.750000
Si Si5 0.869211 0.382358 0.686443
Si Si6 0.572838 0.088432 0.586368
O O1 0.195723 0.693398 0.115036
O O2 0.257912 0.909457 0.291155
O O3 0.167024 0.740371 0.280038
O O4 0.127840 0.945735 0.094186
O O5 0.108081 0.468890 0.026013
O O6 0.184120 0.443602 0.963218
O O7 0.500000 0.500000 0.500000
O O8 0.542396 0.405132 0.375947
O O9 0.576776 0.275492 0.592037
O O10 0.942808 0.312557 0.738040
O O11 0.884364 0.541953 0.764361
O O12 0.500000 0.000000 0.500000
#
# Coordination Sequence:
#
# PCOD8151786 Si02
#       6
#     8   8   8   4   8   8
#     4  11  25  44  66  98 136 177 221 277 333 397
#     4  11  23  43  65  95 132 177 219 273 335 394
#     4  12  23  41  65  99 135 171 225 275 329 394
#     4  12  22  40  72  94 130 182 216 280 332 382
#     4  11  22  42  68  96 129 177 224 272 335 398
#     4  11  21  40  66  95 130 169 221 275 329 392
#
# _framework density 20.322959000000001
#
# number of rings (size 3 to 8) (size 9 to 14) (size 15 to 20)
#    0.000    0.727    5.455    2.727    0.000    1.455 
#    0.000    4.545    0.000    0.000    0.000    0.000 
#    0.000    0.000    0.000    0.000    0.000    0.000 
#
# Total GULP energy -272644.638554 kJ/mol
# GULP energy per Si atom -12392.938116 kJ/mol
# Density = 2.027670 g / cm^3
# Si number density = 20.322959 Si / 1000 Ang^3
#
#
#
# Elastic Constant Matrix: (Units=GPa)
#
#
# Indices 1 2 3 4 5 6 
#
# 1 74.7318 35.3300 34.4597 0.0000 4.1349 0.0000
# 2 35.3300 163.4640 71.8845 0.0000 4.8965 0.0000
# 3 34.4597 71.8845 120.8072 0.0000 -5.6846 0.0000
# 4 0.0000 0.0000 0.0000 35.8276 0.0000 5.3106
# 5 4.1349 4.8965 -5.6846 0.0000 34.0958 0.0000
# 6 0.0000 0.0000 0.0000 5.3106 0.0000 39.3335
#
#
#
# Elastic Compliance Matrix: (Units=1/GPa)
#
#
# Indices 1 2 3 4 5 6 
#
# 1 0.016024 -0.001812 -0.003600 0.000000 -0.002283 0.000000
# 2 -0.001812 0.008632 -0.004704 0.000000 -0.001804 0.000000
# 3 -0.003600 -0.004704 0.012252 0.000000 0.003155 0.000000
# 4 0.000000 0.000000 0.000000 0.028481 0.000000 -0.003845
# 5 -0.002283 -0.001804 0.003155 0.000000 0.030391 0.000000
# 6 0.000000 0.000000 0.000000 -0.003845 0.000000 0.025943
#
#
# Mechanical properties :
#
#
# Convention : Reuss Voigt Hill
#
# Bulk Modulus (GPa) = 59.96746 71.37237 65.66991
# Shear Modulus (GPa) = 33.89481 36.33997 35.11739
#
# Velocity S-wave (km/s) = 4.08831 4.23321 4.16139
# Velocity P-wave (km/s) = 7.20118 7.68692 7.44801
#
# Compressibility (1/GPa) = 0.01667571
#
# Stress axis : x y z
#
# Youngs Moduli (GPa) = 62.40589 115.84810 81.61693
#
# Poissons Ratio (x) = 0.20989 0.29384
# Poissons Ratio (y) = 0.11306 0.38396
# Poissons Ratio (z) = 0.22467 0.54500
#
# Static dielectric constant tensor:
#      x y z
#    x 3.808000 0.000000 -0.031450 
#    y 0.000000 3.827610 0.000000 
#    z -0.031450 0.000000 3.763260 
# 
# 
# High freq. dielectric constant tensor:
#      x y z
#    x 1.801900 0.000000 0.005150 
#    y 0.000000 1.803560 0.000000 
#    z 0.005150 0.000000 1.801030 
# 
# From -- ./inp_files/110151.got.cif
#   From: 2010.06.25/outbox.cif.g09.slc.cpg/sg15_56_cif.got.tgz:110151.got - 2010.06.28 07:06:18.
