data_PCOD8151496
_publ_section_title
;
Structure prediction by ZEFSAII (Michael W. Deem and Ramdas Pophale) SiO2 
 PCOD8151496
Probable space group: C 2/C
;
_chemical_formula_sum "Si O2"
_cell_formula_units_Z 60
_cell_length_a 22.194245
_cell_length_b 9.435363
_cell_length_c 19.074245
_cell_angle_alpha 90.000000
_cell_angle_beta 45.981963
_cell_angle_gamma 90.000000
_cell_volume 2872.422811
_symmetry_space_group_name_H-M "C 2/C"
_symmetry_group_IT_number 15
_symmetry_cell_setting 'monoclinic'
loop_
_space_group_symop_operation_xyz
x,y,z
-x,y,1/2-z
-x,-y,-z
x,-y,1/2+z
1/2+x,1/2+y,z
1/2-x,1/2+y,1/2-z
1/2-x,1/2-y,-z
1/2+x,1/2-y,1/2+z
loop_
_atom_site_type_symbol
_atom_site_label
_atom_site_fract_x
_atom_site_fract_y
_atom_site_fract_z
Si Si1 0.267841 0.299603 0.163746
Si Si2 0.961949 0.016759 0.138269
Si Si3 0.954310 0.737858 0.468190
Si Si4 0.500000 0.633696 0.250000
Si Si5 0.317187 0.607913 0.163535
Si Si6 0.670042 0.801730 0.106821
Si Si7 0.558656 0.997473 0.635194
Si Si8 0.948906 0.712915 0.979322
O O1 0.275119 0.468600 0.165616
O O2 0.247854 0.223385 0.253566
O O3 0.190277 0.287332 0.172346
O O4 0.348805 0.215999 0.069030
O O5 0.969064 0.029681 0.215120
O O6 0.869854 0.056170 0.187636
O O7 0.026688 0.121901 0.047583
O O8 0.978062 0.855134 0.106899
O O9 0.868706 0.812353 0.561483
O O10 0.932674 0.642949 0.418457
O O11 0.999356 0.651454 0.495302
O O12 0.581286 0.724708 0.161048
O O13 0.649630 0.960435 0.094445
O O14 0.750000 0.750000 0.000000
O O15 0.500000 0.974177 0.750000
O O16 0.524183 0.120308 0.609932
#
# Coordination Sequence:
#
# PCOD8151496 Si02
#       8
#     8   8   8   4   8   8   8   8
#     4  12  24  43  68 102 139 180 228 295 348 420
#     4  11  20  44  71  97 131 182 234 280 345 428
#     4  11  25  44  70 101 140 178 233 297 357 416
#     4  12  22  42  72 100 132 188 244 276 340 440
#     4  11  25  43  68 102 139 180 234 287 358 421
#     4  12  24  43  71  99 140 185 238 289 342 425
#     4  12  26  43  66 106 140 184 235 292 355 418
#     4  11  21  44  73  96 132 182 239 284 342 423
#
# _framework density 20.888290000000001
#
# number of rings (size 3 to 8) (size 9 to 14) (size 15 to 20)
#    0.000    0.533    7.333    1.200    4.667    1.067 
#    0.000    0.667    0.000    0.000    0.000    0.000 
#    0.000    0.000    0.000    0.000    0.000    0.000 
#
# Total GULP energy -371834.673583 kJ/mol
# GULP energy per Si atom -12394.489119 kJ/mol
# Density = 2.084075 g / cm^3
# Si number density = 20.888290 Si / 1000 Ang^3
#
#
#
# Elastic Constant Matrix: (Units=GPa)
#
#
# Indices 1 2 3 4 5 6 
#
# 1 56.1492 14.5145 36.9188 -0.0002 16.4405 -0.0002
# 2 14.5145 90.2237 44.7902 -0.0001 11.6401 -0.0009
# 3 36.9188 44.7902 104.6925 -0.0003 8.1736 0.0003
# 4 -0.0002 -0.0001 -0.0003 27.3321 0.0001 8.9035
# 5 16.4405 11.6401 8.1736 0.0001 38.1596 0.0001
# 6 -0.0002 -0.0009 0.0003 8.9035 0.0001 37.4460
#
#
#
# Elastic Compliance Matrix: (Units=1/GPa)
#
#
# Indices 1 2 3 4 5 6 
#
# 1 0.026334 0.001605 -0.009203 0.000000 -0.009864 0.000000
# 2 0.001605 0.014529 -0.006490 0.000000 -0.003733 0.000000
# 3 -0.009203 -0.006490 0.015367 0.000000 0.002653 0.000000
# 4 0.000000 0.000000 0.000000 0.039659 0.000000 -0.009430
# 5 -0.009864 -0.003733 0.002653 0.000000 0.031026 0.000000
# 6 0.000000 0.000000 0.000000 -0.009430 0.000000 0.028947
#
#
# Mechanical properties :
#
#
# Convention : Reuss Voigt Hill
#
# Bulk Modulus (GPa) = 35.64702 49.27916 42.46309
# Shear Modulus (GPa) = 25.85456 30.91035 28.38245
#
# Velocity S-wave (km/s) = 3.52199 3.85098 3.69015
# Velocity P-wave (km/s) = 5.80016 6.58911 6.20718
#
# Compressibility (1/GPa) = 0.02805284
#
# Stress axis : x y z
#
# Youngs Moduli (GPa) = 37.97365 68.82750 65.07571
#
# Poissons Ratio (x) = -0.11046 0.59889
# Poissons Ratio (y) = -0.06094 0.42237
# Poissons Ratio (z) = 0.34947 0.44672
#
# Static dielectric constant tensor:
#      x y z
#    x 4.155180 0.000000 0.205060 
#    y 0.000000 3.676490 0.000000 
#    z 0.205060 0.000000 3.701620 
# 
# 
# High freq. dielectric constant tensor:
#      x y z
#    x 1.827530 0.000000 0.012690 
#    y 0.000000 1.805070 0.000000 
#    z 0.012690 0.000000 1.818330 
# 
# From -- ./inp_files/255160.got.cif
#   From: 2010.06.25/outbox.cif.g09.slc.cpg/sg15_128_cif.got.tgz:255160.got - 2010.06.28 07:06:18.
