data_PCOD8151651
_publ_section_title
;
Structure prediction by ZEFSAII (Michael W. Deem and Ramdas Pophale) SiO2 
 PCOD8151651
Probable space group: C 2/C
;
_chemical_formula_sum "Si O2"
_cell_formula_units_Z 48
_cell_length_a 8.877586
_cell_length_b 26.045528
_cell_length_c 16.126991
_cell_angle_alpha 90.000000
_cell_angle_beta 143.567357
_cell_angle_gamma 90.000000
_cell_volume 2214.512660
_symmetry_space_group_name_H-M "C 2/C"
_symmetry_group_IT_number 15
_symmetry_cell_setting 'monoclinic'
loop_
_space_group_symop_operation_xyz
x,y,z
-x,y,1/2-z
-x,-y,-z
x,-y,1/2+z
1/2+x,1/2+y,z
1/2-x,1/2+y,1/2-z
1/2-x,1/2-y,-z
1/2+x,1/2-y,1/2+z
loop_
_atom_site_type_symbol
_atom_site_label
_atom_site_fract_x
_atom_site_fract_y
_atom_site_fract_z
Si Si1 0.924057 0.213244 0.857373
Si Si2 0.419295 0.397951 0.033560
Si Si3 0.500000 0.451983 0.750000
Si Si4 0.500000 0.056040 0.250000
Si Si5 0.613955 0.788410 0.065594
Si Si6 0.252567 0.022872 0.749991
Si Si7 0.533920 0.095806 0.513737
O O1 0.937969 0.156480 0.903523
O O2 0.157916 0.217389 0.898212
O O3 0.684904 0.226892 0.691865
O O4 0.908448 0.251248 0.930204
O O5 0.641642 0.440535 0.129106
O O6 0.247158 0.406186 0.038027
O O7 0.239863 0.406522 0.873901
O O8 0.513909 0.489956 0.677552
O O9 0.247087 0.418096 0.640085
O O10 0.542874 0.018170 0.191628
O O11 0.512853 0.845678 0.033157
O O12 0.384962 0.057607 0.877953
#
# Coordination Sequence:
#
# PCOD8151651 Si02
#       7
#     8   8   4   4   8   8   8
#     4   9  18  33  60  88 120 153 199 259 314 362
#     4  11  21  38  60  91 126 163 203 258 310 365
#     4  12  22  36  64  90 118 170 214 246 294 378
#     4  12  26  36  56  98 134 158 200 260 310 362
#     4   9  18  34  58  90 118 153 201 258 312 363
#     4  12  22  41  62  88 125 168 210 249 305 364
#     4  11  21  38  64  88 121 165 215 248 301 376
#
# _framework density 21.675198000000002
#
# number of rings (size 3 to 8) (size 9 to 14) (size 15 to 20)
#    0.000    1.333    5.000    2.000    0.000    4.000 
#    0.000    0.000    0.000    2.000    0.000    0.000 
#    0.000    0.000    0.000    0.000    0.000    0.000 
#
# Total GULP energy -297320.938701 kJ/mol
# GULP energy per Si atom -12388.372446 kJ/mol
# Density = 2.162586 g / cm^3
# Si number density = 21.675198 Si / 1000 Ang^3
#
#
#
# Elastic Constant Matrix: (Units=GPa)
#
#
# Indices 1 2 3 4 5 6 
#
# 1 28.7901 22.9108 1.1177 0.0000 -5.6672 0.0000
# 2 22.9108 118.1648 64.4752 0.0000 -23.6868 0.0000
# 3 1.1177 64.4752 144.4873 0.0000 -22.1235 0.0000
# 4 0.0000 0.0000 0.0000 30.5623 0.0000 -2.6095
# 5 -5.6672 -23.6868 -22.1235 0.0000 23.2293 0.0000
# 6 0.0000 0.0000 0.0000 -2.6095 0.0000 15.1937
#
#
#
# Elastic Compliance Matrix: (Units=1/GPa)
#
#
# Indices 1 2 3 4 5 6 
#
# 1 0.043613 -0.010161 0.004963 0.000000 0.005006 0.000000
# 2 -0.010161 0.014902 -0.005414 0.000000 0.007561 0.000000
# 3 0.004963 -0.005414 0.010113 0.000000 0.005323 0.000000
# 4 0.000000 0.000000 0.000000 0.033207 0.000000 0.005703
# 5 0.005006 0.007561 0.005323 0.000000 0.057050 0.000000
# 6 0.000000 0.000000 0.000000 0.005703 0.000000 0.066796
#
#
# Mechanical properties :
#
#
# Convention : Reuss Voigt Hill
#
# Bulk Modulus (GPa) = 21.09423 52.04997 36.57210
# Shear Modulus (GPa) = 19.03276 27.32630 23.17953
#
# Velocity S-wave (km/s) = 2.96647 3.55451 3.27372
# Velocity P-wave (km/s) = 4.63534 6.39623 5.58561
#
# Compressibility (1/GPa) = 0.04740633
#
# Stress axis : x y z
#
# Youngs Moduli (GPa) = 22.92915 67.10375 98.87927
#
# Poissons Ratio (x) = 0.68181 -0.49076
# Poissons Ratio (y) = 0.23297 0.53529
# Poissons Ratio (z) = -0.11380 0.36327
#
# Static dielectric constant tensor:
#      x y z
#    x 3.607070 0.000000 -0.114060 
#    y 0.000000 4.149800 0.000000 
#    z -0.114060 0.000000 4.121170 
# 
# 
# High freq. dielectric constant tensor:
#      x y z
#    x 1.805530 0.000000 -0.009730 
#    y 0.000000 1.860700 0.000000 
#    z -0.009730 0.000000 1.857190 
# 
# From -- ./inp_files/52763.got.cif
#   From: 2010.06.25/outbox.cif.g09.slc.cpg/sg15_27_cif.got.tgz:52763.got - 2010.06.28 07:06:18.
