data_PCOD8151669
_publ_section_title
;
Structure prediction by ZEFSAII (Michael W. Deem and Ramdas Pophale) SiO2 
 PCOD8151669
Probable space group: C 2/C
;
_chemical_formula_sum "Si O2"
_cell_formula_units_Z 48
_cell_length_a 11.997839
_cell_length_b 11.825944
_cell_length_c 17.278444
_cell_angle_alpha 90.000000
_cell_angle_beta 65.936910
_cell_angle_gamma 90.000000
_cell_volume 2238.517068
_symmetry_space_group_name_H-M "C 2/C"
_symmetry_group_IT_number 15
_symmetry_cell_setting 'monoclinic'
loop_
_space_group_symop_operation_xyz
x,y,z
-x,y,1/2-z
-x,-y,-z
x,-y,1/2+z
1/2+x,1/2+y,z
1/2-x,1/2+y,1/2-z
1/2-x,1/2-y,-z
1/2+x,1/2-y,1/2+z
loop_
_atom_site_type_symbol
_atom_site_label
_atom_site_fract_x
_atom_site_fract_y
_atom_site_fract_z
Si Si1 0.724866 0.311139 0.383078
Si Si2 0.367453 0.881892 0.478406
Si Si3 0.026431 0.907127 0.055915
Si Si4 0.869412 0.142095 0.249847
Si Si5 0.228778 0.042698 0.617772
Si Si6 0.113857 0.256826 0.409425
O O1 0.692866 0.214622 0.453178
O O2 0.801766 0.399748 0.413465
O O3 0.605809 0.365248 0.376456
O O4 0.808184 0.259998 0.292448
O O5 0.507141 0.848298 0.422616
O O6 0.342525 0.997295 0.533167
O O7 0.102103 0.959155 0.105436
O O8 0.098204 0.801426 0.997380
O O9 0.000000 0.000000 0.000000
O O10 0.882425 0.153457 0.153562
O O11 0.000000 0.130018 0.250000
O O12 0.789447 0.033622 0.299785
O O13 0.260770 0.171729 0.630210
#
# Coordination Sequence:
#
# PCOD8151669 Si02
#       6
#     8   8   8   8   8   8
#     4   9  18  34  60  88 115 154 206 251 292 356
#     4   9  17  36  61  85 116 157 206 251 294 360
#     4  11  21  38  64  90 119 163 209 249 300 373
#     4  11  22  39  61  87 121 162 208 253 309 366
#     4  11  23  39  61  92 124 163 202 255 317 368
#     4  11  23  38  61  93 125 157 205 262 307 363
#
# _framework density 21.442767
#
# number of rings (size 3 to 8) (size 9 to 14) (size 15 to 20)
#    0.000    1.667    3.333    2.000    0.000    2.667 
#    0.000    0.000    0.000    0.000    0.000    0.000 
#    0.000    0.000    0.000    0.000    0.000    0.000 
#
# Total GULP energy -297516.514932 kJ/mol
# GULP energy per Si atom -12396.521456 kJ/mol
# Density = 2.139396 g / cm^3
# Si number density = 21.442767 Si / 1000 Ang^3
#
#
#
# Elastic Constant Matrix: (Units=GPa)
#
#
# Indices 1 2 3 4 5 6 
#
# 1 59.1648 18.3521 24.4076 0.0000 2.6108 0.0000
# 2 18.3521 70.8945 15.2097 0.0000 -1.5348 0.0000
# 3 24.4076 15.2097 62.5148 0.0000 -4.3357 0.0000
# 4 0.0000 0.0000 0.0000 34.9552 0.0000 -6.5461
# 5 2.6108 -1.5348 -4.3357 0.0000 28.7499 0.0000
# 6 0.0000 0.0000 0.0000 -6.5461 0.0000 36.7237
#
#
#
# Elastic Compliance Matrix: (Units=1/GPa)
#
#
# Indices 1 2 3 4 5 6 
#
# 1 0.021430 -0.003983 -0.007627 0.000000 -0.003309 0.000000
# 2 -0.003983 0.015624 -0.002186 0.000000 0.000866 0.000000
# 3 -0.007627 -0.002186 0.019753 0.000000 0.003555 0.000000
# 4 0.000000 0.000000 0.000000 0.029596 0.000000 0.005276
# 5 -0.003309 0.000866 0.003555 0.000000 0.035666 0.000000
# 6 0.000000 0.000000 0.000000 0.005276 0.000000 0.028171
#
#
# Mechanical properties :
#
#
# Convention : Reuss Voigt Hill
#
# Bulk Modulus (GPa) = 34.23017 34.27922 34.25469
# Shear Modulus (GPa) = 26.65675 29.05942 27.85809
#
# Velocity S-wave (km/s) = 3.52967 3.68531 3.60833
# Velocity P-wave (km/s) = 5.71048 5.84207 5.77665
#
# Compressibility (1/GPa) = 0.02921400
#
# Stress axis : x y z
#
# Youngs Moduli (GPa) = 46.66382 64.00312 50.62624
#
# Poissons Ratio (x) = 0.25491 0.38614
# Poissons Ratio (y) = 0.18585 0.11068
# Poissons Ratio (z) = 0.35592 0.13993
#
# Static dielectric constant tensor:
#      x y z
#    x 3.844300 0.000000 -0.163950 
#    y 0.000000 3.903320 0.000000 
#    z -0.163950 0.000000 3.916490 
# 
# 
# High freq. dielectric constant tensor:
#      x y z
#    x 1.833270 0.000000 -0.008010 
#    y 0.000000 1.832020 0.000000 
#    z -0.008010 0.000000 1.830030 
# 
# From -- ./inp_files/196005.got.cif
#   From: 2010.06.25/outbox.cif.g09.slc.cpg/sg15_99_cif.got.tgz:196005.got - 2010.06.28 07:06:18.
