data_PCOD8151318
_publ_section_title
;
Structure prediction by ZEFSAII (Michael W. Deem and Ramdas Pophale) SiO2 
 PCOD8151318
Probable space group: C 2/C
;
_chemical_formula_sum "Si O2"
_cell_formula_units_Z 44
_cell_length_a 11.891776
_cell_length_b 19.695253
_cell_length_c 8.695539
_cell_angle_alpha 90.000000
_cell_angle_beta 76.886117
_cell_angle_gamma 90.000000
_cell_volume 1983.483219
_symmetry_space_group_name_H-M "C 2/C"
_symmetry_group_IT_number 15
_symmetry_cell_setting 'monoclinic'
loop_
_space_group_symop_operation_xyz
x,y,z
-x,y,1/2-z
-x,-y,-z
x,-y,1/2+z
1/2+x,1/2+y,z
1/2-x,1/2+y,1/2-z
1/2-x,1/2-y,-z
1/2+x,1/2-y,1/2+z
loop_
_atom_site_type_symbol
_atom_site_label
_atom_site_fract_x
_atom_site_fract_y
_atom_site_fract_z
Si Si1 0.179595 0.631877 0.268407
Si Si2 0.000000 0.922328 0.750000
Si Si3 0.500000 0.243358 0.250000
Si Si4 0.500000 0.014803 0.250000
Si Si5 0.089640 0.854632 0.000423
Si Si6 0.675998 0.538734 0.688705
Si Si7 0.808122 0.554214 0.951173
O O1 0.099035 0.696889 0.290629
O O2 0.285198 0.647639 0.120831
O O3 0.220475 0.619359 0.431550
O O4 0.109111 0.560982 0.265078
O O5 0.991397 0.876043 0.906269
O O6 0.110822 0.968743 0.750382
O O7 0.446646 0.283955 0.410936
O O8 0.554542 0.960624 0.111586
O O9 0.088696 0.907058 0.142783
O O10 0.740613 0.570749 0.814230
O O11 0.766307 0.518241 0.530226
#
# Coordination Sequence:
#
# PCOD8151318 Si02
#       7
#     8   4   4   4   8   8   8
#     4  11  24  46  68  96 140 181 228 282 329 404
#     4  12  23  40  70 100 145 172 214 284 356 394
#     4  11  29  46  70  92 135 197 238 268 320 395
#     4  11  20  38  70 104 140 169 218 280 366 397
#     4  12  25  46  69  98 137 182 229 278 334 407
#     4  12  23  39  68 110 137 168 215 285 358 408
#     4  12  22  39  68 107 141 168 214 281 353 409
#
# _framework density 22.183197
#
# number of rings (size 3 to 8) (size 9 to 14) (size 15 to 20)
#    0.000    0.364    7.273    2.182    2.545    0.000 
#    0.000    6.364    0.000    0.000    0.000    0.000 
#    0.000    0.000    0.000    0.000    0.000    0.000 
#
# Total GULP energy -272607.108503 kJ/mol
# GULP energy per Si atom -12391.232205 kJ/mol
# Density = 2.213271 g / cm^3
# Si number density = 22.183197 Si / 1000 Ang^3
#
#
#
# Elastic Constant Matrix: (Units=GPa)
#
#
# Indices 1 2 3 4 5 6 
#
# 1 92.5862 31.9658 51.4101 0.0000 -0.3594 0.0000
# 2 31.9658 110.2585 55.5302 0.0000 2.0485 0.0000
# 3 51.4101 55.5302 133.2479 0.0000 6.8316 0.0000
# 4 0.0000 0.0000 0.0000 30.6250 0.0000 3.6067
# 5 -0.3594 2.0485 6.8316 0.0000 57.5150 0.0000
# 6 0.0000 0.0000 0.0000 3.6067 0.0000 25.9450
#
#
#
# Elastic Compliance Matrix: (Units=1/GPa)
#
#
# Indices 1 2 3 4 5 6 
#
# 1 0.014020 -0.001690 -0.004741 0.000000 0.000711 0.000000
# 2 -0.001690 0.011684 -0.004221 0.000000 0.000075 0.000000
# 3 -0.004741 -0.004221 0.011155 0.000000 -0.001204 0.000000
# 4 0.000000 0.000000 0.000000 0.033196 0.000000 -0.004615
# 5 0.000711 0.000075 -0.001204 0.000000 0.017532 0.000000
# 6 0.000000 0.000000 0.000000 -0.004615 0.000000 0.039185
#
#
# Mechanical properties :
#
#
# Convention : Reuss Voigt Hill
#
# Bulk Modulus (GPa) = 64.29161 68.21165 66.25163
# Shear Modulus (GPa) = 32.62418 35.96277 34.29347
#
# Velocity S-wave (km/s) = 3.83909 4.03075 3.93609
# Velocity P-wave (km/s) = 6.97829 7.24421 7.11249
#
# Compressibility (1/GPa) = 0.01555413
#
# Stress axis : x y z
#
# Youngs Moduli (GPa) = 71.32851 85.58700 89.64605
#
# Poissons Ratio (x) = 0.14463 0.42504
# Poissons Ratio (y) = 0.12053 0.37840
# Poissons Ratio (z) = 0.33819 0.36127
#
# Static dielectric constant tensor:
#      x y z
#    x 4.133020 0.000000 -0.133400 
#    y 0.000000 3.722980 0.000000 
#    z -0.133400 0.000000 4.228810 
# 
# 
# High freq. dielectric constant tensor:
#      x y z
#    x 1.888040 0.000000 -0.010270 
#    y 0.000000 1.836770 0.000000 
#    z -0.010270 0.000000 1.891600 
# 
# From -- ./inp_files/30789.got.cif
#   From: 2010.06.25/outbox.cif.g09.slc.cpg/sg15_16_cif.got.tgz:30789.got - 2010.06.28 07:06:18.
