data_PCOD8151481
_publ_section_title
;
Structure prediction by ZEFSAII (Michael W. Deem and Ramdas Pophale) SiO2 
 PCOD8151481
Probable space group: C 2/C
;
_chemical_formula_sum "Si O2"
_cell_formula_units_Z 44
_cell_length_a 11.768250
_cell_length_b 15.018947
_cell_length_c 15.680646
_cell_angle_alpha 90.000000
_cell_angle_beta 48.819222
_cell_angle_gamma 90.000000
_cell_volume 2085.932358
_symmetry_space_group_name_H-M "C 2/C"
_symmetry_group_IT_number 15
_symmetry_cell_setting 'monoclinic'
loop_
_space_group_symop_operation_xyz
x,y,z
-x,y,1/2-z
-x,-y,-z
x,-y,1/2+z
1/2+x,1/2+y,z
1/2-x,1/2+y,1/2-z
1/2-x,1/2-y,-z
1/2+x,1/2-y,1/2+z
loop_
_atom_site_type_symbol
_atom_site_label
_atom_site_fract_x
_atom_site_fract_y
_atom_site_fract_z
Si Si1 0.276399 0.943922 0.044176
Si Si2 0.912058 0.364060 0.212393
Si Si3 0.000000 0.171748 0.750000
Si Si4 0.175786 0.454740 0.672867
Si Si5 0.411315 0.109258 0.037219
Si Si6 0.306873 0.783147 0.729054
O O1 0.445165 0.904044 0.971068
O O2 0.143234 0.884837 0.148865
O O3 0.243344 0.957383 0.959594
O O4 0.283159 0.032065 0.100456
O O5 0.805571 0.449013 0.289062
O O6 0.826460 0.287954 0.203128
O O7 0.000000 0.325300 0.250000
O O8 0.044387 0.391589 0.083135
O O9 0.046021 0.236753 0.804164
O O10 0.242782 0.373447 0.696261
O O11 0.000000 0.436832 0.750000
O O12 0.334627 0.196728 0.114896
#
# Coordination Sequence:
#
# PCOD8151481 Si02
#       6
#     8   8   4   8   8   8
#     4  11  22  42  72 100 136 178 224 276 346 400
#     4  11  24  46  67  96 136 180 229 269 332 418
#     4  12  26  40  66 116 136 158 234 302 320 392
#     4  11  20  43  70  97 127 179 227 275 332 403
#     4  11  21  42  72  92 134 189 218 268 345 410
#     4  12  25  39  68 108 133 169 228 285 339 389
#
# _framework density 21.093685000000001
#
# number of rings (size 3 to 8) (size 9 to 14) (size 15 to 20)
#    0.000    0.727    8.182    1.091    2.545    2.182 
#    1.636    0.909    0.000    0.000    0.000    0.000 
#    0.000    0.000    0.000    0.000    0.000    0.000 
#
# Total GULP energy -272583.098286 kJ/mol
# GULP energy per Si atom -12390.140831 kJ/mol
# Density = 2.104568 g / cm^3
# Si number density = 21.093685 Si / 1000 Ang^3
#
#
#
# Elastic Constant Matrix: (Units=GPa)
#
#
# Indices 1 2 3 4 5 6 
#
# 1 82.6102 51.9456 22.9207 0.0000 14.1485 0.0000
# 2 51.9456 129.1887 40.7985 0.0000 -0.7965 0.0000
# 3 22.9207 40.7985 88.6374 -0.0001 28.2813 0.0001
# 4 0.0000 0.0000 -0.0001 21.0367 0.0001 16.0788
# 5 14.1485 -0.7965 28.2813 0.0001 30.0735 0.0000
# 6 0.0000 0.0000 0.0001 16.0788 0.0000 35.4090
#
#
#
# Elastic Compliance Matrix: (Units=1/GPa)
#
#
# Indices 1 2 3 4 5 6 
#
# 1 0.018625 -0.008432 0.002760 0.000000 -0.011581 0.000000
# 2 -0.008432 0.013685 -0.007857 0.000000 0.011719 0.000000
# 3 0.002760 -0.007857 0.020952 0.000000 -0.021210 0.000000
# 4 0.000000 0.000000 0.000000 0.072804 -0.000001 -0.033059
# 5 -0.011581 0.011719 -0.021210 -0.000001 0.058957 0.000000
# 6 0.000000 0.000000 0.000000 -0.033059 0.000000 0.043253
#
#
# Mechanical properties :
#
#
# Convention : Reuss Voigt Hill
#
# Bulk Modulus (GPa) = 38.16310 59.08512 48.62411
# Shear Modulus (GPa) = 18.93442 29.62194 24.27818
#
# Velocity S-wave (km/s) = 2.99931 3.75147 3.39627
# Velocity P-wave (km/s) = 5.48871 6.84371 6.20331
#
# Compressibility (1/GPa) = 0.02620332
#
# Stress axis : x y z
#
# Youngs Moduli (GPa) = 53.69200 73.07435 47.72714
#
# Poissons Ratio (x) = 0.61616 -0.13173
# Poissons Ratio (y) = 0.45273 0.37502
# Poissons Ratio (z) = -0.14820 0.57418
#
# Static dielectric constant tensor:
#      x y z
#    x 3.695370 0.000000 0.328200 
#    y 0.000000 4.034430 0.000000 
#    z 0.328200 0.000000 3.768960 
# 
# 
# High freq. dielectric constant tensor:
#      x y z
#    x 1.813530 0.000000 0.034710 
#    y 0.000000 1.832970 0.000000 
#    z 0.034710 0.000000 1.815540 
# 
# From -- ./inp_files/197648.got.cif
#   From: 2010.06.25/outbox.cif.g09.slc.cpg/sg15_99_cif.got.tgz:197648.got - 2010.06.28 07:06:18.
