data_PCOD8151842
_publ_section_title
;
Structure prediction by ZEFSAII (Michael W. Deem and Ramdas Pophale) SiO2 
 PCOD8151842
Probable space group: C 2/C
;
_chemical_formula_sum "Si O2"
_cell_formula_units_Z 52
_cell_length_a 25.453906
_cell_length_b 11.989334
_cell_length_c 9.658474
_cell_angle_alpha 90.000000
_cell_angle_beta 56.990928
_cell_angle_gamma 90.000000
_cell_volume 2471.751169
_symmetry_space_group_name_H-M "C 2/C"
_symmetry_group_IT_number 15
_symmetry_cell_setting 'monoclinic'
loop_
_space_group_symop_operation_xyz
x,y,z
-x,y,1/2-z
-x,-y,-z
x,-y,1/2+z
1/2+x,1/2+y,z
1/2-x,1/2+y,1/2-z
1/2-x,1/2-y,-z
1/2+x,1/2-y,1/2+z
loop_
_atom_site_type_symbol
_atom_site_label
_atom_site_fract_x
_atom_site_fract_y
_atom_site_fract_z
Si Si1 0.877913 0.463267 0.496941
Si Si2 0.500000 0.260100 0.250000
Si Si3 0.051544 0.441436 0.836852
Si Si4 0.626739 0.379142 0.019102
Si Si5 0.679278 0.456817 0.221299
Si Si6 0.777861 0.369770 0.472304
Si Si7 0.297031 0.160772 0.644805
O O1 0.889863 0.436493 0.640490
O O2 0.938917 0.479496 0.312221
O O3 0.832189 0.365477 0.510079
O O4 0.843785 0.579353 0.496370
O O5 0.469819 0.183143 0.173676
O O6 0.555624 0.334380 0.101277
O O7 0.000000 0.500000 0.000000
O O8 0.632003 0.411103 0.173092
O O9 0.639202 0.486611 0.903085
O O10 0.680324 0.288042 0.903253
O O11 0.723782 0.354341 0.208533
O O12 0.722968 0.546157 0.085560
O O13 0.750000 0.250000 0.500000
O O14 0.807583 0.393923 0.280842
#
# Coordination Sequence:
#
# PCOD8151842 Si02
#       7
#     8   4   8   8   8   8   8
#     4  11  23  38  66  96 139 169 211 284 343 400
#     4  12  28  44  70  94 136 194 228 278 324 404
#     4  12  21  41  64  97 127 176 231 276 330 380
#     4  12  25  47  69  96 137 177 236 274 341 407
#     4  11  25  42  70  99 135 179 221 284 342 406
#     4  11  22  37  64 104 136 168 213 273 348 398
#     4  11  21  41  68 102 135 171 218 285 348 406
#
# _framework density 21.037716
#
# number of rings (size 3 to 8) (size 9 to 14) (size 15 to 20)
#    0.000    0.615    7.692    0.462    0.000    1.846 
#    0.000    0.000    0.000    0.000    0.000    0.000 
#    0.000    0.000    0.000    0.000    0.000    0.000 
#
# Total GULP energy -322191.412136 kJ/mol
# GULP energy per Si atom -12391.977390 kJ/mol
# Density = 2.098983 g / cm^3
# Si number density = 21.037716 Si / 1000 Ang^3
#
#
#
# Elastic Constant Matrix: (Units=GPa)
#
#
# Indices 1 2 3 4 5 6 
#
# 1 115.5278 42.3395 37.0888 0.0000 13.9853 0.0000
# 2 42.3395 67.4723 22.8045 0.0000 -4.6448 0.0000
# 3 37.0888 22.8045 92.2631 0.0000 9.0726 0.0000
# 4 0.0000 0.0000 0.0000 29.2962 0.0000 3.7394
# 5 13.9853 -4.6448 9.0726 0.0000 44.6490 0.0000
# 6 0.0000 0.0000 0.0000 3.7394 0.0000 34.0335
#
#
#
# Elastic Compliance Matrix: (Units=1/GPa)
#
#
# Indices 1 2 3 4 5 6 
#
# 1 0.012781 -0.007321 -0.002918 0.000000 -0.004172 0.000000
# 2 -0.007321 0.020654 -0.002652 0.000000 0.004981 0.000000
# 3 -0.002918 -0.002652 0.012861 0.000000 -0.001975 0.000000
# 4 0.000000 0.000000 0.000000 0.034620 0.000000 -0.003804
# 5 -0.004172 0.004981 -0.001975 0.000000 0.024623 0.000000
# 6 0.000000 0.000000 0.000000 -0.003804 0.000000 0.029801
#
#
# Mechanical properties :
#
#
# Convention : Reuss Voigt Hill
#
# Bulk Modulus (GPa) = 48.74614 53.30320 51.02467
# Shear Modulus (GPa) = 29.76906 33.13109 31.45007
#
# Velocity S-wave (km/s) = 3.76577 3.97273 3.87064
# Velocity P-wave (km/s) = 6.49070 6.81436 6.65450
#
# Compressibility (1/GPa) = 0.02051445
#
# Stress axis : x y z
#
# Youngs Moduli (GPa) = 78.24217 48.41661 77.75292
#
# Poissons Ratio (x) = 0.35446 0.22688
# Poissons Ratio (y) = 0.57282 0.20619
# Poissons Ratio (z) = 0.22831 0.12839
#
# Static dielectric constant tensor:
#      x y z
#    x 2.669720 0.000000 -1.701620 
#    y 0.000000 4.602570 0.000000 
#    z -1.701620 0.000000 1.378670 
# 
# 
# High freq. dielectric constant tensor:
#      x y z
#    x 1.826320 0.000000 0.004610 
#    y 0.000000 1.807000 0.000000 
#    z 0.004610 0.000000 1.837820 
# 
# From -- ./inp_files/61663.got.cif
#   From: 2010.06.25/outbox.cif.g09.slc.cpg/sg15_31_cif.got.tgz:61663.got - 2010.06.28 07:06:18.
