data_PCOD8151509
_publ_section_title
;
Structure prediction by ZEFSAII (Michael W. Deem and Ramdas Pophale) SiO2 
 PCOD8151509
Probable space group: C 2/C
;
_chemical_formula_sum "Si O2"
_cell_formula_units_Z 60
_cell_length_a 8.203163
_cell_length_b 19.251906
_cell_length_c 20.525017
_cell_angle_alpha 90.000000
_cell_angle_beta 56.418225
_cell_angle_gamma 90.000000
_cell_volume 2700.438475
_symmetry_space_group_name_H-M "C 2/C"
_symmetry_group_IT_number 15
_symmetry_cell_setting 'monoclinic'
loop_
_space_group_symop_operation_xyz
x,y,z
-x,y,1/2-z
-x,-y,-z
x,-y,1/2+z
1/2+x,1/2+y,z
1/2-x,1/2+y,1/2-z
1/2-x,1/2-y,-z
1/2+x,1/2-y,1/2+z
loop_
_atom_site_type_symbol
_atom_site_label
_atom_site_fract_x
_atom_site_fract_y
_atom_site_fract_z
Si Si1 0.500000 0.101502 0.250000
Si Si2 0.529191 0.815630 0.441141
Si Si3 0.203930 0.813844 0.615539
Si Si4 0.232332 0.058304 0.196405
Si Si5 0.819988 0.458583 0.068926
Si Si6 0.155390 0.168912 0.395368
Si Si7 0.004736 0.069373 0.539637
Si Si8 0.137185 0.339184 0.159876
O O1 0.348349 0.056277 0.239576
O O2 0.372210 0.148701 0.325871
O O3 0.327373 0.801681 0.522968
O O4 0.645785 0.877408 0.447226
O O5 0.666150 0.748631 0.414986
O O6 0.490555 0.839044 0.376453
O O7 0.295214 0.873394 0.641015
O O8 0.206519 0.741198 0.655251
O O9 0.992011 0.837820 0.634164
O O10 0.000000 0.061927 0.250000
O O11 0.291608 0.986888 0.148057
O O12 0.621064 0.464431 0.073760
O O13 0.000000 0.500000 0.000000
O O14 0.102952 0.125879 0.471239
O O15 0.807281 0.103102 0.612976
O O16 0.000000 0.000000 0.500000
O O17 0.000000 0.362569 0.250000
#
# Coordination Sequence:
#
# PCOD8151509 Si02
#       8
#     4   8   8   8   8   8   8   8
#     4  12  28  44  76 110 142 192 250 306 366 456
#     4  11  23  46  73 100 146 190 242 297 366 445
#     4  11  20  46  78 100 143 194 238 297 371 447
#     4  12  26  48  72 102 148 190 240 302 379 432
#     4  12  26  45  68 102 141 187 240 302 356 438
#     4  11  23  46  71 108 142 189 244 296 359 448
#     4  12  25  45  73 102 140 193 246 292 364 449
#     4  11  24  43  73 109 139 189 244 304 373 433
#
# _framework density 22.218613999999999
#
# number of rings (size 3 to 8) (size 9 to 14) (size 15 to 20)
#    0.000    0.533    5.333    3.600    1.867    2.667 
#    3.600    0.000    0.000    0.000    0.000    0.000 
#    0.000    0.000    0.000    0.000    0.000    0.000 
#
# Total GULP energy -371793.166503 kJ/mol
# GULP energy per Si atom -12393.105550 kJ/mol
# Density = 2.216804 g / cm^3
# Si number density = 22.218614 Si / 1000 Ang^3
#
#
#
# Elastic Constant Matrix: (Units=GPa)
#
#
# Indices 1 2 3 4 5 6 
#
# 1 109.5700 45.6551 47.0104 0.0000 -0.4467 0.0000
# 2 45.6551 132.9262 46.8130 0.0000 -4.8304 0.0000
# 3 47.0104 46.8130 165.1423 0.0000 -16.4958 0.0000
# 4 0.0000 0.0000 0.0000 36.7381 0.0000 2.1641
# 5 -0.4467 -4.8304 -16.4958 0.0000 30.4999 0.0000
# 6 0.0000 0.0000 0.0000 2.1641 0.0000 29.8376
#
#
#
# Elastic Compliance Matrix: (Units=1/GPa)
#
#
# Indices 1 2 3 4 5 6 
#
# 1 0.011519 -0.003114 -0.002567 0.000000 -0.001713 0.000000
# 2 -0.003114 0.009199 -0.001670 0.000000 0.000508 0.000000
# 3 -0.002567 -0.001670 0.007642 0.000000 0.003831 0.000000
# 4 0.000000 0.000000 0.000000 0.027337 0.000000 -0.001983
# 5 -0.001713 0.000508 0.003831 0.000000 0.034914 0.000000
# 6 0.000000 0.000000 0.000000 -0.001983 0.000000 0.033659
#
#
# Mechanical properties :
#
#
# Convention : Reuss Voigt Hill
#
# Bulk Modulus (GPa) = 73.22612 76.28837 74.75724
# Shear Modulus (GPa) = 34.83679 37.29245 36.06462
#
# Velocity S-wave (km/s) = 3.96398 4.10131 4.03323
# Velocity P-wave (km/s) = 7.34707 7.53907 7.44369
#
# Compressibility (1/GPa) = 0.01365633
#
# Stress axis : x y z
#
# Youngs Moduli (GPa) = 86.81489 108.70282 130.84862
#
# Poissons Ratio (x) = 0.33854 0.33592
# Poissons Ratio (y) = 0.27037 0.21858
# Poissons Ratio (z) = 0.22288 0.18158
#
# Static dielectric constant tensor:
#      x y z
#    x 3.864000 0.000000 0.032940 
#    y 0.000000 5.108570 0.000000 
#    z 0.032940 0.000000 4.129500 
# 
# 
# High freq. dielectric constant tensor:
#      x y z
#    x 1.867320 0.000000 0.005170 
#    y 0.000000 1.887160 0.000000 
#    z 0.005170 0.000000 1.882640 
# 
# From -- ./inp_files/234067.got.cif
#   From: 2010.06.25/outbox.cif.g09.slc.cpg/sg15_118_cif.got.tgz:234067.got - 2010.06.28 07:06:18.
