data_PCOD8151721
_publ_section_title
;
Structure prediction by ZEFSAII (Michael W. Deem and Ramdas Pophale) SiO2 
 PCOD8151721
Probable space group: C 2/C
;
_chemical_formula_sum "Si O2"
_cell_formula_units_Z 44
_cell_length_a 13.048021
_cell_length_b 19.079358
_cell_length_c 11.534215
_cell_angle_alpha 90.000000
_cell_angle_beta 136.894564
_cell_angle_gamma 90.000000
_cell_volume 1962.163648
_symmetry_space_group_name_H-M "C 2/C"
_symmetry_group_IT_number 15
_symmetry_cell_setting 'monoclinic'
loop_
_space_group_symop_operation_xyz
x,y,z
-x,y,1/2-z
-x,-y,-z
x,-y,1/2+z
1/2+x,1/2+y,z
1/2-x,1/2+y,1/2-z
1/2-x,1/2-y,-z
1/2+x,1/2-y,1/2+z
loop_
_atom_site_type_symbol
_atom_site_label
_atom_site_fract_x
_atom_site_fract_y
_atom_site_fract_z
Si Si1 0.905549 0.233905 0.071928
Si Si2 0.781180 0.604347 0.151143
Si Si3 0.000000 0.511194 0.750000
Si Si4 0.028120 0.379195 0.472843
Si Si5 0.310685 0.181833 0.954780
Si Si6 0.495865 0.320274 0.413715
O O1 0.980845 0.308316 0.106606
O O2 0.000000 0.194919 0.250000
O O3 0.750000 0.250000 0.000000
O O4 0.899620 0.184569 0.953813
O O5 0.830019 0.620719 0.322907
O O6 0.850308 0.531885 0.160380
O O7 0.843438 0.664566 0.115982
O O8 0.597846 0.608683 0.996271
O O9 0.960683 0.555691 0.603823
O O10 0.879136 0.380379 0.430993
O O11 0.128562 0.181989 0.790556
O O12 0.386610 0.255878 0.990429
#
# Coordination Sequence:
#
# PCOD8151721 Si02
#       6
#     8   8   4   8   8   8
#     4  11  21  39  65  97 135 171 216 275 344 400
#     4  12  24  42  67  99 135 178 234 279 338 407
#     4  12  26  44  74  90 140 188 242 276 328 422
#     4  11  23  44  68  98 128 185 232 277 335 413
#     4  11  23  42  69 104 139 173 220 289 354 408
#     4  11  24  40  70 108 140 171 224 284 359 409
#
# _framework density 22.424225
#
# number of rings (size 3 to 8) (size 9 to 14) (size 15 to 20)
#    0.000    0.727    2.727    7.091    0.000    2.909 
#    0.000    0.909    4.000    0.000    0.000    0.000 
#    0.000    0.000    0.000    0.000    0.000    0.000 
#
# Total GULP energy -272658.588973 kJ/mol
# GULP energy per Si atom -12393.572226 kJ/mol
# Density = 2.237319 g / cm^3
# Si number density = 22.424225 Si / 1000 Ang^3
#
#
#
# Elastic Constant Matrix: (Units=GPa)
#
#
# Indices 1 2 3 4 5 6 
#
# 1 110.2882 34.0470 32.0146 0.0000 -2.3328 0.0000
# 2 34.0470 58.3487 31.1478 0.0000 -6.1415 0.0000
# 3 32.0146 31.1478 138.1638 0.0000 -4.4694 0.0000
# 4 0.0000 0.0000 0.0000 29.7123 0.0000 -4.9067
# 5 -2.3328 -6.1415 -4.4694 0.0000 48.9750 0.0000
# 6 0.0000 0.0000 0.0000 -4.9067 0.0000 37.1721
#
#
#
# Elastic Compliance Matrix: (Units=1/GPa)
#
#
# Indices 1 2 3 4 5 6 
#
# 1 0.011261 -0.005918 -0.001285 0.000000 -0.000323 0.000000
# 2 -0.005918 0.022801 -0.003696 0.000000 0.002240 0.000000
# 3 -0.001285 -0.003696 0.008377 0.000000 0.000240 0.000000
# 4 0.000000 0.000000 0.000000 0.034406 0.000000 0.004542
# 5 -0.000323 0.002240 0.000240 0.000000 0.020706 0.000000
# 6 0.000000 0.000000 0.000000 0.004542 0.000000 0.027501
#
#
# Mechanical properties :
#
#
# Convention : Reuss Voigt Hill
#
# Bulk Modulus (GPa) = 48.45542 55.69105 52.07323
# Shear Modulus (GPa) = 32.52433 37.14465 34.83449
#
# Velocity S-wave (km/s) = 3.81256 4.07437 3.94564
# Velocity P-wave (km/s) = 6.40595 6.85734 6.63548
#
# Compressibility (1/GPa) = 0.02063753
#
# Stress axis : x y z
#
# Youngs Moduli (GPa) = 88.80569 43.85810 119.37859
#
# Poissons Ratio (x) = 0.25957 0.15345
# Poissons Ratio (y) = 0.52559 0.44127
# Poissons Ratio (z) = 0.11415 0.16212
#
# Static dielectric constant tensor:
#      x y z
#    x 5.264800 0.000000 0.078390 
#    y 0.000000 3.751440 0.000000 
#    z 0.078390 0.000000 4.074280 
# 
# 
# High freq. dielectric constant tensor:
#      x y z
#    x 1.911200 0.000000 -0.017190 
#    y 0.000000 1.834690 0.000000 
#    z -0.017190 0.000000 1.895390 
# 
# From -- ./inp_files/99894.got.cif
#   From: 2010.06.25/outbox.cif.g09.slc.cpg/sg15_50_cif.got.tgz:99894.got - 2010.06.28 07:06:18.
