data_PCOD8151350
_publ_section_title
;
Structure prediction by ZEFSAII (Michael W. Deem and Ramdas Pophale) SiO2 
 PCOD8151350
Probable space group: C 2/C
;
_chemical_formula_sum "Si O2"
_cell_formula_units_Z 48
_cell_length_a 27.511794
_cell_length_b 11.567876
_cell_length_c 20.751450
_cell_angle_alpha 90.000000
_cell_angle_beta 17.808442
_cell_angle_gamma 90.000000
_cell_volume 2019.802964
_symmetry_space_group_name_H-M "C 2/C"
_symmetry_group_IT_number 15
_symmetry_cell_setting 'monoclinic'
loop_
_space_group_symop_operation_xyz
x,y,z
-x,y,1/2-z
-x,-y,-z
x,-y,1/2+z
1/2+x,1/2+y,z
1/2-x,1/2+y,1/2-z
1/2-x,1/2-y,-z
1/2+x,1/2-y,1/2+z
loop_
_atom_site_type_symbol
_atom_site_label
_atom_site_fract_x
_atom_site_fract_y
_atom_site_fract_z
Si Si1 0.500000 0.705128 0.750000
Si Si2 0.790646 0.023804 0.960109
Si Si3 0.500000 0.326417 0.750000
Si Si4 0.018624 0.546416 0.073470
Si Si5 0.535589 0.256616 0.965212
Si Si6 0.402951 0.791753 0.504726
Si Si7 0.245897 0.880695 0.122036
O O1 0.428602 0.620260 0.785822
O O2 0.640628 0.777399 0.542421
O O3 0.750746 0.013424 0.934254
O O4 0.638883 0.078406 0.187510
O O5 0.849074 0.904159 0.918923
O O6 0.544677 0.246313 0.632953
O O7 0.018312 0.619754 0.007224
O O8 0.015237 0.408774 0.073174
O O9 0.183898 0.573019 0.900342
O O10 0.472632 0.289928 0.973043
O O11 0.431989 0.333330 0.144869
O O12 0.714593 0.298758 0.746386
#
# Coordination Sequence:
#
# PCOD8151350 Si02
#       7
#     4   8   4   8   8   8   8
#     4  11  20  39  68 110 148 189 240 295 362 430
#     4  11  24  42  76 108 148 193 243 303 363 434
#     4  11  30  51  72 106 146 197 256 301 360 444
#     4  12  25  45  75 109 143 196 248 297 373 439
#     4  12  27  50  74 111 151 192 243 314 372 433
#     4  12  30  50  76 102 152 199 249 305 366 444
#     4  12  23  41  74 112 149 187 246 303 368 436
#
# _framework density 23.764696000000001
#
# number of rings (size 3 to 8) (size 9 to 14) (size 15 to 20)
#    0.000    0.333    5.000    3.000    4.667    3.333 
#    0.000    0.000    0.000    0.000    0.000    0.000 
#    0.000    0.000    0.000    0.000    0.000    0.000 
#
# Total GULP energy -297462.789253 kJ/mol
# GULP energy per Si atom -12394.282886 kJ/mol
# Density = 2.371061 g / cm^3
# Si number density = 23.764696 Si / 1000 Ang^3
#
#
#
# Elastic Constant Matrix: (Units=GPa)
#
#
# Indices 1 2 3 4 5 6 
#
# 1 157.2080 30.5308 52.9804 0.0009 5.7721 -0.0017
# 2 30.5308 66.9855 20.4816 -0.0002 10.5161 -0.0034
# 3 52.9804 20.4816 127.9412 -0.0031 -1.8660 -0.0082
# 4 0.0009 -0.0002 -0.0031 24.8911 0.0001 -2.5168
# 5 5.7721 10.5161 -1.8660 0.0001 38.9085 0.0035
# 6 -0.0017 -0.0034 -0.0082 -2.5168 0.0035 -3.7807
#
#
#
# Elastic Compliance Matrix: (Units=1/GPa)
#
#
# Indices 1 2 3 4 5 6 
#
# 1 0.007848 -0.002615 -0.002840 0.000000 -0.000594 0.000005
# 2 -0.002615 0.017346 -0.001758 -0.000001 -0.004385 -0.000014
# 3 -0.002840 -0.001758 0.009293 0.000000 0.001342 -0.000016
# 4 0.000000 -0.000001 0.000000 0.037641 0.000003 -0.025058
# 5 -0.000594 -0.004385 0.001342 0.000003 0.027039 0.000025
# 6 0.000005 -0.000014 -0.000016 -0.025058 0.000025 -0.247820
#
#
# Mechanical properties :
#
#
# Convention : Reuss Voigt Hill
#
# Bulk Modulus (GPa) = 49.84721 62.23559 56.04140
# Shear Modulus (GPa) = -39.20352 28.54657 -5.32847
#
# Velocity S-wave (km/s) = -4.06600 3.46962 -1.49902
# Velocity P-wave (km/s) = 1.01108 6.50355 4.54279
#
# Compressibility (1/GPa) = 0.02006130
#
# Stress axis : x y z
#
# Youngs Moduli (GPa) = 127.42549 57.64853 107.60794
#
# Poissons Ratio (x) = 0.15077 0.30558
# Poissons Ratio (y) = 0.33327 0.18916
# Poissons Ratio (z) = 0.36185 0.10134
#
# Static dielectric constant tensor:
#      x y z
#    x 4.564660 0.000000 -0.144520 
#    y 0.000000 4.236470 0.000000 
#    z -0.144520 0.000000 4.251330 
# 
# 
# High freq. dielectric constant tensor:
#      x y z
#    x 1.956010 0.000000 -0.011110 
#    y 0.000000 1.927530 0.000000 
#    z -0.011110 0.000000 1.947750 
# 
# From -- ./inp_files/257620.got.cif
#   From: 2010.06.25/outbox.cif.g09.slc.cpg/sg15_129_cif.got.tgz:257620.got - 2010.06.28 07:06:18.
