data_PCOD8151073
_publ_section_title
;
Structure prediction by ZEFSAII (Michael W. Deem and Ramdas Pophale) SiO2 
 PCOD8151073
Probable space group: C 2/C
;
_chemical_formula_sum "Si O2"
_cell_formula_units_Z 48
_cell_length_a 13.815181
_cell_length_b 19.540705
_cell_length_c 9.101860
_cell_angle_alpha 90.000000
_cell_angle_beta 104.470186
_cell_angle_gamma 90.000000
_cell_volume 2379.177978
_symmetry_space_group_name_H-M "C 2/C"
_symmetry_group_IT_number 15
_symmetry_cell_setting 'monoclinic'
loop_
_space_group_symop_operation_xyz
x,y,z
-x,y,1/2-z
-x,-y,-z
x,-y,1/2+z
1/2+x,1/2+y,z
1/2-x,1/2+y,1/2-z
1/2-x,1/2-y,-z
1/2+x,1/2-y,1/2+z
loop_
_atom_site_type_symbol
_atom_site_label
_atom_site_fract_x
_atom_site_fract_y
_atom_site_fract_z
Si Si1 0.106915 0.779715 0.042812
Si Si2 0.612426 0.844933 0.320967
Si Si3 0.293181 0.419166 0.469918
Si Si4 0.431763 0.345221 0.865383
Si Si5 0.603840 0.508565 0.226890
Si Si6 0.734710 0.753917 0.166372
O O1 0.165791 0.842770 0.989290
O O2 0.156580 0.759222 0.216521
O O3 0.115010 0.715332 0.939819
O O4 0.991679 0.805839 0.019976
O O5 0.500000 0.869755 0.250000
O O6 0.673472 0.911331 0.403510
O O7 0.665037 0.817840 0.190461
O O8 0.341423 0.449803 0.341001
O O9 0.320406 0.466294 0.617975
O O10 0.500000 0.327786 0.750000
O O11 0.425421 0.426777 0.888642
O O12 0.320445 0.316099 0.806892
O O13 0.500000 0.478385 0.250000
O O14 0.750000 0.750000 0.000000
#
# Coordination Sequence:
#
# PCOD8151073 Si02
#       6
#     8   8   8   8   8   8
#     4  11  20  38  65  84 117 163 207 237 307 378
#     4  11  21  43  67  86 115 168 218 243 297 383
#     4  11  23  38  60  90 119 164 203 253 301 365
#     4  11  19  37  62  84 118 163 201 240 297 389
#     4  11  22  38  59  88 125 157 203 247 311 365
#     4  11  22  34  55  94 124 148 194 267 313 340
#
# _framework density 20.175035999999999
#
# number of rings (size 3 to 8) (size 9 to 14) (size 15 to 20)
#    0.000    1.000    6.667    3.500    0.000    3.333 
#    0.000    0.833    0.000    0.000    0.000    0.000 
#    0.000    0.000    0.000    0.000    0.000    0.000 
#
# Total GULP energy -297479.687435 kJ/mol
# GULP energy per Si atom -12394.986976 kJ/mol
# Density = 2.012912 g / cm^3
# Si number density = 20.175036 Si / 1000 Ang^3
#
#
#
# Elastic Constant Matrix: (Units=GPa)
#
#
# Indices 1 2 3 4 5 6 
#
# 1 109.4332 54.7622 63.1844 0.0000 29.5489 0.0000
# 2 54.7622 62.8328 29.8451 0.0000 9.4585 0.0000
# 3 63.1844 29.8451 114.8878 0.0000 20.3641 0.0000
# 4 0.0000 0.0000 0.0000 15.2911 0.0000 4.0790
# 5 29.5489 9.4585 20.3641 0.0000 33.1375 0.0000
# 6 0.0000 0.0000 0.0000 4.0790 0.0000 31.0816
#
#
#
# Elastic Compliance Matrix: (Units=1/GPa)
#
#
# Indices 1 2 3 4 5 6 
#
# 1 0.025115 -0.016481 -0.007177 0.000000 -0.013281 0.000000
# 2 -0.016481 0.029167 0.000402 0.000000 0.006124 0.000000
# 3 -0.007177 0.000402 0.012831 0.000000 -0.001600 0.000000
# 4 0.000000 0.000000 0.000000 0.067770 0.000000 -0.008894
# 5 -0.013281 0.006124 -0.001600 0.000000 0.041255 0.000000
# 6 0.000000 0.000000 0.000000 -0.008894 0.000000 0.033341
#
#
# Mechanical properties :
#
#
# Convention : Reuss Voigt Hill
#
# Bulk Modulus (GPa) = 48.54507 64.74859 56.64683
# Shear Modulus (GPa) = 19.02168 25.19282 22.10725
#
# Velocity S-wave (km/s) = 3.07389 3.53755 3.31384
# Velocity P-wave (km/s) = 6.05909 6.98919 6.54069
#
# Compressibility (1/GPa) = 0.02059942
#
# Stress axis : x y z
#
# Youngs Moduli (GPa) = 39.81614 34.28561 77.93908
#
# Poissons Ratio (x) = 0.56507 0.55938
# Poissons Ratio (y) = 0.65622 -0.03131
# Poissons Ratio (z) = 0.28577 -0.01377
#
# Static dielectric constant tensor:
#      x y z
#    x 4.121610 0.000000 0.588270 
#    y 0.000000 3.575010 0.000000 
#    z 0.588270 0.000000 3.877350 
# 
# 
# High freq. dielectric constant tensor:
#      x y z
#    x 1.774580 0.000000 0.026810 
#    y 0.000000 1.765910 0.000000 
#    z 0.026810 0.000000 1.789260 
# 
# From -- ./inp_files/40933.got.cif
#   From: 2010.06.25/outbox.cif.g09.slc.cpg/sg15_21_cif.got.tgz:40933.got - 2010.06.28 07:06:18.
