data_PCOD8151765
_publ_section_title
;
Structure prediction by ZEFSAII (Michael W. Deem and Ramdas Pophale) SiO2 
 PCOD8151765
Probable space group: C 2/C
;
_chemical_formula_sum "Si O2"
_cell_formula_units_Z 60
_cell_length_a 27.556000
_cell_length_b 13.336899
_cell_length_c 7.592164
_cell_angle_alpha 90.000000
_cell_angle_beta 109.337845
_cell_angle_gamma 90.000000
_cell_volume 2632.791497
_symmetry_space_group_name_H-M "C 2/C"
_symmetry_group_IT_number 15
_symmetry_cell_setting 'monoclinic'
loop_
_space_group_symop_operation_xyz
x,y,z
-x,y,1/2-z
-x,-y,-z
x,-y,1/2+z
1/2+x,1/2+y,z
1/2-x,1/2+y,1/2-z
1/2-x,1/2-y,-z
1/2+x,1/2-y,1/2+z
loop_
_atom_site_type_symbol
_atom_site_label
_atom_site_fract_x
_atom_site_fract_y
_atom_site_fract_z
Si Si1 0.170514 0.897834 0.394006
Si Si2 0.308545 0.876918 0.295070
Si Si3 0.778695 0.406542 0.653851
Si Si4 0.974339 0.101048 0.038170
Si Si5 0.398255 0.254284 0.968963
Si Si6 0.791996 0.217285 0.890195
Si Si7 0.500000 0.737692 0.750000
Si Si8 0.380634 0.606905 0.151886
O O1 0.216767 0.919463 0.589750
O O2 0.134581 0.808787 0.419412
O O3 0.197577 0.865194 0.247839
O O4 0.139522 0.998792 0.314734
O O5 0.294884 0.864455 0.483790
O O6 0.366243 0.835561 0.340202
O O7 0.268144 0.808625 0.127911
O O8 0.307427 0.989929 0.226832
O O9 0.797798 0.330041 0.826712
O O10 0.913608 0.091328 0.013289
O O11 0.000000 0.139012 0.250000
O O12 0.975587 0.175901 0.878976
O O13 0.000000 0.000000 0.000000
O O14 0.414588 0.342827 0.850402
O O15 0.450636 0.203417 0.111173
O O16 0.834477 0.188578 0.085401
#
# Coordination Sequence:
#
# PCOD8151765 Si02
#       8
#     8   8   8   8   8   8   4   8
#     4  11  21  40  61  95 139 182 215 267 345 412
#     4  11  24  42  66  96 133 178 226 283 348 413
#     4  11  23  41  64  95 135 178 227 275 340 420
#     4  12  25  43  64 100 136 183 231 275 340 420
#     4  12  25  43  65  96 135 179 233 282 347 402
#     4  11  22  41  61  97 140 176 220 280 343 420
#     4  12  26  46  68  88 142 184 230 298 338 394
#     4  12  26  37  67 102 138 180 226 279 336 424
#
# _framework density 22.789498999999999
#
# number of rings (size 3 to 8) (size 9 to 14) (size 15 to 20)
#    0.000    0.533    6.000    3.200    5.600    0.533 
#    0.000    0.000    0.000    0.800    1.733    0.000 
#    0.000    0.000    0.000    0.000    0.000    0.000 
#
# Total GULP energy -371954.901834 kJ/mol
# GULP energy per Si atom -12398.496728 kJ/mol
# Density = 2.273763 g / cm^3
# Si number density = 22.789499 Si / 1000 Ang^3
#
#
#
# Elastic Constant Matrix: (Units=GPa)
#
#
# Indices 1 2 3 4 5 6 
#
# 1 116.1430 22.5730 19.6395 0.0000 26.2792 0.0000
# 2 22.5730 95.9617 15.9520 0.0000 30.4325 0.0000
# 3 19.6395 15.9520 70.0299 0.0000 20.8217 0.0000
# 4 0.0000 0.0000 0.0000 24.6097 0.0000 6.2498
# 5 26.2792 30.4325 20.8217 0.0000 43.0545 0.0000
# 6 0.0000 0.0000 0.0000 6.2498 0.0000 26.1729
#
#
#
# Elastic Compliance Matrix: (Units=1/GPa)
#
#
# Indices 1 2 3 4 5 6 
#
# 1 0.010091 -0.000523 -0.001156 0.000000 -0.005231 0.000000
# 2 -0.000523 0.013463 -0.000217 0.000000 -0.009093 0.000000
# 3 -0.001156 -0.000217 0.016816 0.000000 -0.007274 0.000000
# 4 0.000000 0.000000 0.000000 0.043258 0.000000 -0.010330
# 5 -0.005231 -0.009093 -0.007274 0.000000 0.036364 0.000000
# 6 0.000000 0.000000 0.000000 -0.010330 0.000000 0.040674
#
#
# Mechanical properties :
#
#
# Convention : Reuss Voigt Hill
#
# Bulk Modulus (GPa) = 27.33758 44.27372 35.80565
# Shear Modulus (GPa) = 28.30482 33.69876 31.00179
#
# Velocity S-wave (km/s) = 3.52804 3.84955 3.69230
# Velocity P-wave (km/s) = 5.34956 6.26324 5.82435
#
# Compressibility (1/GPa) = 0.03657969
#
# Stress axis : x y z
#
# Youngs Moduli (GPa) = 99.10223 74.27574 59.46805
#
# Poissons Ratio (x) = 0.03882 0.06872
# Poissons Ratio (y) = 0.05180 0.01289
# Poissons Ratio (z) = 0.11452 0.01610
#
# Static dielectric constant tensor:
#      x y z
#    x 4.554880 0.000000 0.147950 
#    y 0.000000 3.810750 0.000000 
#    z 0.147950 0.000000 4.531710 
# 
# 
# High freq. dielectric constant tensor:
#      x y z
#    x 1.904470 0.000000 -0.002490 
#    y 0.000000 1.865070 0.000000 
#    z -0.002490 0.000000 1.926490 
# 
# From -- ./inp_files/69413.got.cif
#   From: 2010.06.25/outbox.cif.g09.slc.cpg/sg15_35_cif.got.tgz:69413.got - 2010.06.28 07:06:18.
