data_PCOD8151728
_publ_section_title
;
Structure prediction by ZEFSAII (Michael W. Deem and Ramdas Pophale) SiO2 
 PCOD8151728
Probable space group: C 2/C
;
_chemical_formula_sum "Si O2"
_cell_formula_units_Z 40
_cell_length_a 18.510139
_cell_length_b 13.677455
_cell_length_c 9.750381
_cell_angle_alpha 90.000000
_cell_angle_beta 46.581046
_cell_angle_gamma 90.000000
_cell_volume 1793.002557
_symmetry_space_group_name_H-M "C 2/C"
_symmetry_group_IT_number 15
_symmetry_cell_setting 'monoclinic'
loop_
_space_group_symop_operation_xyz
x,y,z
-x,y,1/2-z
-x,-y,-z
x,-y,1/2+z
1/2+x,1/2+y,z
1/2-x,1/2+y,1/2-z
1/2-x,1/2-y,-z
1/2+x,1/2-y,1/2+z
loop_
_atom_site_type_symbol
_atom_site_label
_atom_site_fract_x
_atom_site_fract_y
_atom_site_fract_z
Si Si1 0.220751 0.926954 0.255430
Si Si2 0.681202 0.278805 0.842821
Si Si3 0.154089 0.406427 0.980576
Si Si4 0.383422 0.553906 0.886381
Si Si5 0.470564 0.188546 0.649165
O O1 0.248130 0.813272 0.221881
O O2 0.139946 0.949888 0.243842
O O3 0.324388 0.980796 0.080913
O O4 0.175613 0.967341 0.457001
O O5 0.741897 0.348583 0.661839
O O6 0.575142 0.252626 0.911407
O O7 0.652883 0.339103 0.015061
O O8 0.110843 0.392455 0.191584
O O9 0.072949 0.367054 0.972912
O O10 0.500000 0.538267 0.750000
O O11 0.500000 0.251767 0.750000
#
# Coordination Sequence:
#
# PCOD8151728 Si02
#       5
#     8   8   8   8   8
#     4  11  23  44  67  90 139 176 214 277 325 397
#     4  11  21  39  66  93 133 173 218 273 332 376
#     4   8  20  38  59  95 129 166 227 254 331 384
#     4  11  26  44  64 101 132 174 226 268 335 390
#     4   8  19  36  61  93 125 166 223 259 320 391
#
# _framework density 22.308949999999999
#
# number of rings (size 3 to 8) (size 9 to 14) (size 15 to 20)
#    1.200    0.800    0.000    3.000    2.800    2.400 
#    7.200    0.000    0.000    0.000    0.000    0.000 
#    0.000    0.000    0.000    0.000    0.000    0.000 
#
# Total GULP energy -247770.449383 kJ/mol
# GULP energy per Si atom -12388.522469 kJ/mol
# Density = 2.225817 g / cm^3
# Si number density = 22.308950 Si / 1000 Ang^3
#
#
#
# Elastic Constant Matrix: (Units=GPa)
#
#
# Indices 1 2 3 4 5 6 
#
# 1 91.4563 1.6190 -1.6442 0.0000 -4.9110 0.0000
# 2 1.6190 86.2139 17.3138 0.0000 -6.2113 0.0000
# 3 -1.6442 17.3138 30.2291 0.0000 -3.9743 0.0000
# 4 0.0000 0.0000 0.0000 15.1792 0.0000 4.9019
# 5 -4.9110 -6.2113 -3.9743 0.0000 38.9401 0.0000
# 6 0.0000 0.0000 0.0000 4.9019 0.0000 19.3329
#
#
#
# Elastic Compliance Matrix: (Units=1/GPa)
#
#
# Indices 1 2 3 4 5 6 
#
# 1 0.011034 -0.000296 0.000959 0.000000 0.001442 0.000000
# 2 -0.000296 0.013184 -0.007395 0.000000 0.001311 0.000000
# 3 0.000959 -0.007395 0.037736 0.000000 0.002793 0.000000
# 4 0.000000 0.000000 0.000000 0.071755 0.000000 -0.018193
# 5 0.001442 0.001311 0.002793 0.000000 0.026357 0.000000
# 6 0.000000 0.000000 0.000000 -0.018193 0.000000 0.056338
#
#
# Mechanical properties :
#
#
# Convention : Reuss Voigt Hill
#
# Bulk Modulus (GPa) = 20.62258 26.94182 23.78220
# Shear Modulus (GPa) = 20.32271 27.39783 23.86027
#
# Velocity S-wave (km/s) = 3.02150 3.50824 3.27393
# Velocity P-wave (km/s) = 4.62998 5.33978 4.99750
#
# Compressibility (1/GPa) = 0.04849053
#
# Stress axis : x y z
#
# Youngs Moduli (GPa) = 90.62795 75.84863 26.50020
#
# Poissons Ratio (x) = 0.02245 -0.02542
# Poissons Ratio (y) = 0.02682 0.19597
# Poissons Ratio (z) = -0.08694 0.56090
#
# Static dielectric constant tensor:
#      x y z
#    x 3.992800 0.000000 -0.180080 
#    y 0.000000 3.948140 0.000000 
#    z -0.180080 0.000000 3.879250 
# 
# 
# High freq. dielectric constant tensor:
#      x y z
#    x 1.884740 0.000000 -0.016470 
#    y 0.000000 1.865750 0.000000 
#    z -0.016470 0.000000 1.861490 
# 
# From -- ./inp_files/55158.got.cif
#   From: 2010.06.25/outbox.cif.g09.slc.cpg/sg15_28_cif.got.tgz:55158.got - 2010.06.28 07:06:18.
