data_PCOD8151830
_publ_section_title
;
Structure prediction by ZEFSAII (Michael W. Deem and Ramdas Pophale) SiO2 
 PCOD8151830
Probable space group: C 2/C
;
_chemical_formula_sum "Si O2"
_cell_formula_units_Z 64
_cell_length_a 25.883527
_cell_length_b 19.745028
_cell_length_c 19.413178
_cell_angle_alpha 90.000000
_cell_angle_beta 161.530889
_cell_angle_gamma 90.000000
_cell_volume 3143.068954
_symmetry_space_group_name_H-M "C 2/C"
_symmetry_group_IT_number 15
_symmetry_cell_setting 'monoclinic'
loop_
_space_group_symop_operation_xyz
x,y,z
-x,y,1/2-z
-x,-y,-z
x,-y,1/2+z
1/2+x,1/2+y,z
1/2-x,1/2+y,1/2-z
1/2-x,1/2-y,-z
1/2+x,1/2-y,1/2+z
loop_
_atom_site_type_symbol
_atom_site_label
_atom_site_fract_x
_atom_site_fract_y
_atom_site_fract_z
Si Si1 0.234532 0.048393 0.791177
Si Si2 0.893848 0.864848 0.681739
Si Si3 0.693171 0.559560 0.124250
Si Si4 0.910748 0.477760 0.775974
Si Si5 0.046379 0.182534 0.513463
Si Si6 0.464832 0.878575 0.283367
Si Si7 0.148666 0.020438 0.836227
Si Si8 0.764496 0.307650 0.790985
O O1 0.126128 0.114195 0.642410
O O2 0.219922 0.021211 0.849884
O O3 0.169140 0.988056 0.660351
O O4 0.423784 0.066283 0.015447
O O5 0.709002 0.840208 0.433652
O O6 0.000000 0.846222 0.750000
O O7 0.893309 0.944605 0.694577
O O8 0.970262 0.826216 0.842262
O O9 0.827908 0.526117 0.245712
O O10 0.750157 0.634097 0.215979
O O11 0.516161 0.564203 0.863968
O O12 0.962559 0.555542 0.829054
O O13 0.786191 0.449477 0.560946
O O14 0.183327 0.240269 0.683219
O O15 0.907573 0.206076 0.390588
O O16 0.500000 0.902526 0.250000
O O17 0.602363 0.827343 0.483033
#
# Coordination Sequence:
#
# PCOD8151830 Si02
#       8
#     8   8   8   8   8   8   8   8
#     4  12  23  41  69  97 131 171 221 272 333 384
#     4  11  23  38  65 101 136 175 213 266 326 402
#     4  12  23  41  68 101 132 170 222 277 329 380
#     4  11  24  36  68 104 135 166 210 277 332 389
#     4  12  28  45  66  92 133 181 224 269 331 391
#     4  11  22  41  64  97 142 173 220 261 325 402
#     4  11  21  41  66  98 134 167 216 270 335 386
#     4  12  28  45  66  93 133 183 223 272 324 393
#
# _framework density 20.362262999999999
#
# number of rings (size 3 to 8) (size 9 to 14) (size 15 to 20)
#    0.000    0.500    5.000    5.250    3.500    1.000 
#    0.000    0.000    0.000    4.500    0.000    0.000 
#    0.000    0.000    0.000    0.000    0.000    0.000 
#
# Total GULP energy -397008.196559 kJ/mol
# GULP energy per Si atom -12406.506142 kJ/mol
# Density = 2.031592 g / cm^3
# Si number density = 20.362263 Si / 1000 Ang^3
#
#
#
# Elastic Constant Matrix: (Units=GPa)
#
#
# Indices 1 2 3 4 5 6 
#
# 1 97.1135 11.0493 5.4492 0.0036 22.3841 0.0019
# 2 11.0493 68.7203 21.7660 0.0026 0.1579 0.0012
# 3 5.4492 21.7660 113.0554 0.0049 19.3002 0.0042
# 4 0.0036 0.0026 0.0049 23.6606 0.0034 3.6543
# 5 22.3841 0.1579 19.3002 0.0034 35.8554 0.0026
# 6 0.0019 0.0012 0.0042 3.6543 0.0026 21.5247
#
#
#
# Elastic Compliance Matrix: (Units=1/GPa)
#
#
# Indices 1 2 3 4 5 6 
#
# 1 0.012447 -0.002396 0.001306 -0.000001 -0.008463 0.000000
# 2 -0.002396 0.016052 -0.003544 -0.000001 0.003332 0.000000
# 3 0.001306 -0.003544 0.010573 -0.000001 -0.006491 -0.000001
# 4 -0.000001 -0.000001 -0.000001 0.043402 -0.000003 -0.007369
# 5 -0.008463 0.003332 -0.006491 -0.000003 0.036652 -0.000002
# 6 0.000000 0.000000 -0.000001 -0.007369 -0.000002 0.047709
#
#
# Mechanical properties :
#
#
# Convention : Reuss Voigt Hill
#
# Bulk Modulus (GPa) = 33.55155 39.49092 36.52124
# Shear Modulus (GPa) = 26.87638 32.24979 29.56309
#
# Velocity S-wave (km/s) = 3.63700 3.98402 3.81446
# Velocity P-wave (km/s) = 5.84381 6.37177 6.11349
#
# Compressibility (1/GPa) = 0.02980488
#
# Stress axis : x y z
#
# Youngs Moduli (GPa) = 80.33941 62.29883 94.58423
#
# Poissons Ratio (x) = 0.14924 -0.12353
# Poissons Ratio (y) = 0.19246 0.33518
# Poissons Ratio (z) = -0.10493 0.22077
#
# Static dielectric constant tensor:
#      x y z
#    x 3.756090 0.000000 0.099580 
#    y 0.000000 3.376280 0.000000 
#    z 0.099580 0.000000 4.202090 
# 
# 
# High freq. dielectric constant tensor:
#      x y z
#    x 1.806890 0.000000 0.012540 
#    y 0.000000 1.760270 0.000000 
#    z 0.012540 0.000000 1.818620 
# 
# From -- ./inp_files/220237.got.cif
#   From: 2010.06.25/outbox.cif.g09.slc.cpg/sg15_111_cif.got.tgz:220237.got - 2010.06.28 07:06:18.
