data_PCOD8151471
_publ_section_title
;
Structure prediction by ZEFSAII (Michael W. Deem and Ramdas Pophale) SiO2 
 PCOD8151471
Probable space group: C 2/C
;
_chemical_formula_sum "Si O2"
_cell_formula_units_Z 64
_cell_length_a 10.111040
_cell_length_b 12.437261
_cell_length_c 22.854643
_cell_angle_alpha 90.000000
_cell_angle_beta 85.582039
_cell_angle_gamma 90.000000
_cell_volume 2865.514815
_symmetry_space_group_name_H-M "C 2/C"
_symmetry_group_IT_number 15
_symmetry_cell_setting 'monoclinic'
loop_
_space_group_symop_operation_xyz
x,y,z
-x,y,1/2-z
-x,-y,-z
x,-y,1/2+z
1/2+x,1/2+y,z
1/2-x,1/2+y,1/2-z
1/2-x,1/2-y,-z
1/2+x,1/2-y,1/2+z
loop_
_atom_site_type_symbol
_atom_site_label
_atom_site_fract_x
_atom_site_fract_y
_atom_site_fract_z
Si Si1 0.882666 0.421523 0.503820
Si Si2 0.102715 0.414384 0.681050
Si Si3 0.479790 0.698065 0.466538
Si Si4 0.784407 0.060315 0.072195
Si Si5 0.089398 0.860299 0.399637
Si Si6 0.806930 0.507355 0.208033
Si Si7 0.901465 0.830488 0.302626
Si Si8 0.762120 0.162702 0.384793
O O1 0.938835 0.322413 0.463825
O O2 0.757113 0.482295 0.479814
O O3 0.852791 0.388288 0.570988
O O4 0.000000 0.500000 0.500000
O O5 0.156369 0.403505 0.613273
O O6 0.199376 0.480786 0.721423
O O7 0.106632 0.296267 0.709887
O O8 0.960521 0.474502 0.683363
O O9 0.634433 0.666438 0.451292
O O10 0.438838 0.655131 0.530891
O O11 0.398310 0.647681 0.415518
O O12 0.873315 0.984975 0.110937
O O13 0.212567 0.784799 0.374394
O O14 0.958968 0.840921 0.365995
O O15 0.742051 0.390875 0.194944
O O16 0.722823 0.598693 0.176567
O O17 0.000000 0.880866 0.250000
#
# Coordination Sequence:
#
# PCOD8151471 Si02
#       8
#     8   8   8   8   8   8   8   8
#     4  11  24  39  61  94 134 176 223 277 347 408
#     4  11  25  47  66 101 138 177 226 294 344 410
#     4  11  24  42  63  99 134 181 231 281 335 420
#     4  12  24  40  66  95 136 178 230 282 342 409
#     4  11  21  42  68  96 137 181 224 287 346 403
#     4  11  24  44  75  96 134 180 227 280 356 413
#     4  12  24  45  76 101 131 183 228 282 355 411
#     4  11  20  43  67  95 134 181 223 279 343 411
#
# _framework density 22.334555000000002
#
# number of rings (size 3 to 8) (size 9 to 14) (size 15 to 20)
#    0.000    0.750    5.000    3.375    3.500    2.500 
#    0.000    0.000    8.250    0.000    0.000    0.000 
#    0.000    0.000    0.000    0.000    0.000    0.000 
#
# Total GULP energy -396508.759194 kJ/mol
# GULP energy per Si atom -12390.898725 kJ/mol
# Density = 2.228372 g / cm^3
# Si number density = 22.334555 Si / 1000 Ang^3
#
#
#
# Elastic Constant Matrix: (Units=GPa)
#
#
# Indices 1 2 3 4 5 6 
#
# 1 111.0966 52.2612 24.8755 0.0000 10.3902 0.0000
# 2 52.2612 74.0046 5.6966 0.0000 9.9588 0.0000
# 3 24.8755 5.6966 64.9346 0.0000 20.2930 0.0000
# 4 0.0000 0.0000 0.0000 26.3353 0.0000 6.7067
# 5 10.3902 9.9588 20.2930 0.0000 42.5495 0.0000
# 6 0.0000 0.0000 0.0000 6.7067 0.0000 51.0131
#
#
#
# Elastic Compliance Matrix: (Units=1/GPa)
#
#
# Indices 1 2 3 4 5 6 
#
# 1 0.014881 -0.010277 -0.005188 0.000000 0.001246 0.000000
# 2 -0.010277 0.021053 0.003344 0.000000 -0.004013 0.000000
# 3 -0.005188 0.003344 0.019911 0.000000 -0.009012 0.000000
# 4 0.000000 0.000000 0.000000 0.039287 0.000000 -0.005165
# 5 0.001246 -0.004013 -0.009012 0.000000 0.028435 0.000000
# 6 0.000000 0.000000 0.000000 -0.005165 0.000000 0.020282
#
#
# Mechanical properties :
#
#
# Convention : Reuss Voigt Hill
#
# Bulk Modulus (GPa) = 31.64412 46.18916 38.91664
# Shear Modulus (GPa) = 27.99169 35.12640 31.55904
#
# Velocity S-wave (km/s) = 3.54402 3.97008 3.76309
# Velocity P-wave (km/s) = 5.56290 6.46072 6.02854
#
# Compressibility (1/GPa) = 0.03160145
#
# Stress axis : x y z
#
# Youngs Moduli (GPa) = 67.20084 47.49987 50.22448
#
# Poissons Ratio (x) = 0.48815 0.26059
# Poissons Ratio (y) = 0.69062 -0.16795
# Poissons Ratio (z) = 0.34867 -0.15884
#
# Static dielectric constant tensor:
#      x y z
#    x 3.594540 0.000000 -0.277400 
#    y 0.000000 3.944830 0.000000 
#    z -0.277400 0.000000 3.375760 
# 
# 
# High freq. dielectric constant tensor:
#      x y z
#    x 1.869400 0.000000 0.020360 
#    y 0.000000 1.877080 0.000000 
#    z 0.020360 0.000000 1.881840 
# 
# From -- ./inp_files/268854.got.cif
#   From: 2010.06.25/outbox.cif.g09.slc.cpg/sg15_135_cif.got.tgz:268854.got - 2010.06.28 07:06:18.
