data_PCOD8151172
_publ_section_title
;
Structure prediction by ZEFSAII (Michael W. Deem and Ramdas Pophale) SiO2 
 PCOD8151172
Probable space group: C 2/C
;
_chemical_formula_sum "Si O2"
_cell_formula_units_Z 64
_cell_length_a 18.568549
_cell_length_b 20.685221
_cell_length_c 12.317513
_cell_angle_alpha 90.000000
_cell_angle_beta 136.807719
_cell_angle_gamma 90.000000
_cell_volume 3238.188955
_symmetry_space_group_name_H-M "C 2/C"
_symmetry_group_IT_number 15
_symmetry_cell_setting 'monoclinic'
loop_
_space_group_symop_operation_xyz
x,y,z
-x,y,1/2-z
-x,-y,-z
x,-y,1/2+z
1/2+x,1/2+y,z
1/2-x,1/2+y,1/2-z
1/2-x,1/2-y,-z
1/2+x,1/2-y,1/2+z
loop_
_atom_site_type_symbol
_atom_site_label
_atom_site_fract_x
_atom_site_fract_y
_atom_site_fract_z
Si Si1 0.303100 0.640093 0.057823
Si Si2 0.295876 0.661814 0.666318
Si Si3 0.878719 0.931602 0.432483
Si Si4 0.369190 0.208505 0.335914
Si Si5 0.666540 0.656126 0.034034
Si Si6 0.432020 0.203364 0.069243
Si Si7 0.614404 0.774144 0.396859
Si Si8 0.384252 0.435131 0.844547
O O1 0.383426 0.701027 0.148641
O O2 0.307772 0.600994 0.175785
O O3 0.323543 0.588302 0.984716
O O4 0.190183 0.675019 0.919201
O O5 0.359363 0.625442 0.827790
O O6 0.336033 0.735464 0.714427
O O7 0.326695 0.633639 0.583030
O O8 0.169731 0.656763 0.546402
O O9 0.002780 0.942940 0.589669
O O10 0.833044 0.996938 0.327125
O O11 0.284048 0.153282 0.215406
O O12 0.490017 0.187659 0.446257
O O13 0.355750 0.231157 0.444206
O O14 0.597710 0.605392 0.025596
O O15 0.607878 0.723760 0.982776
O O16 0.500000 0.189327 0.250000
O O17 0.500000 0.803018 0.250000
#
# Coordination Sequence:
#
# PCOD8151172 Si02
#       8
#     8   8   8   8   8   8   8   8
#     4  11  24  44  61  92 127 158 205 253 306 366
#     4  11  22  37  57  90 122 157 200 242 301 355
#     4  11  25  41  63  87 116 161 204 250 299 355
#     4  11  20  37  55  90 124 154 196 242 305 358
#     4  11  22  36  58  87 122 157 195 246 295 357
#     4  11  20  33  58  89 124 153 186 243 300 367
#     4  11  24  37  66  94 125 164 196 252 313 370
#     4  11  25  42  62  85 119 161 203 249 297 356
#
# _framework density 19.764133999999999
#
# number of rings (size 3 to 8) (size 9 to 14) (size 15 to 20)
#    0.000    1.000    5.000    2.625    5.250    0.000 
#    0.000    0.000    0.000    3.750    0.000    0.000 
#    0.000    0.000    0.000    0.000    0.000    0.000 
#
# Total GULP energy -396776.462674 kJ/mol
# GULP energy per Si atom -12399.264459 kJ/mol
# Density = 1.971915 g / cm^3
# Si number density = 19.764134 Si / 1000 Ang^3
#
#
#
# Elastic Constant Matrix: (Units=GPa)
#
#
# Indices 1 2 3 4 5 6 
#
# 1 110.7432 27.1853 26.6465 0.0000 -6.6434 0.0000
# 2 27.1853 68.1930 12.0618 0.0000 -6.8408 0.0000
# 3 26.6465 12.0618 60.9301 0.0000 -0.2286 0.0000
# 4 0.0000 0.0000 0.0000 19.6054 0.0000 -5.0633
# 5 -6.6434 -6.8408 -0.2286 0.0000 38.6773 0.0000
# 6 0.0000 0.0000 0.0000 -5.0633 0.0000 29.9124
#
#
#
# Elastic Compliance Matrix: (Units=1/GPa)
#
#
# Indices 1 2 3 4 5 6 
#
# 1 0.010951 -0.003519 -0.004088 0.000000 0.001235 0.000000
# 2 -0.003519 0.016608 -0.001740 0.000000 0.002323 0.000000
# 3 -0.004088 -0.001740 0.018541 0.000000 -0.000900 0.000000
# 4 0.000000 0.000000 0.000000 0.053338 0.000000 0.009029
# 5 0.001235 0.002323 -0.000900 0.000000 0.026473 0.000000
# 6 0.000000 0.000000 0.000000 0.009029 0.000000 0.034959
#
#
# Mechanical properties :
#
#
# Convention : Reuss Voigt Hill
#
# Bulk Modulus (GPa) = 36.48798 41.29483 38.89140
# Shear Modulus (GPa) = 26.49708 29.23720 27.86714
#
# Velocity S-wave (km/s) = 3.66548 3.85035 3.75905
# Velocity P-wave (km/s) = 6.03458 6.38013 6.20976
#
# Compressibility (1/GPa) = 0.02740628
#
# Stress axis : x y z
#
# Youngs Moduli (GPa) = 91.31219 60.21253 53.93388
#
# Poissons Ratio (x) = 0.21188 0.22049
# Poissons Ratio (y) = 0.32132 0.09385
# Poissons Ratio (z) = 0.37330 0.10477
#
# Static dielectric constant tensor:
#      x y z
#    x 3.952870 0.000000 0.073330 
#    y 0.000000 3.374780 0.000000 
#    z 0.073330 0.000000 3.526440 
# 
# 
# High freq. dielectric constant tensor:
#      x y z
#    x 1.785330 0.000000 -0.007100 
#    y 0.000000 1.731060 0.000000 
#    z -0.007100 0.000000 1.770860 
# 
# From -- ./inp_files/114267.got.cif
#   From: 2010.06.25/outbox.cif.g09.slc.cpg/sg15_58_cif.got.tgz:114267.got - 2010.06.28 07:06:18.
