data_PCOD8151248
_publ_section_title
;
Structure prediction by ZEFSAII (Michael W. Deem and Ramdas Pophale) SiO2 
 PCOD8151248
Probable space group: C 2/C
;
_chemical_formula_sum "Si O2"
_cell_formula_units_Z 64
_cell_length_a 12.567825
_cell_length_b 27.658285
_cell_length_c 15.505002
_cell_angle_alpha 90.000000
_cell_angle_beta 141.412075
_cell_angle_gamma 90.000000
_cell_volume 3361.578853
_symmetry_space_group_name_H-M "C 2/C"
_symmetry_group_IT_number 15
_symmetry_cell_setting 'monoclinic'
loop_
_space_group_symop_operation_xyz
x,y,z
-x,y,1/2-z
-x,-y,-z
x,-y,1/2+z
1/2+x,1/2+y,z
1/2-x,1/2+y,1/2-z
1/2-x,1/2-y,-z
1/2+x,1/2-y,1/2+z
loop_
_atom_site_type_symbol
_atom_site_label
_atom_site_fract_x
_atom_site_fract_y
_atom_site_fract_z
Si Si1 0.882210 0.718672 0.028072
Si Si2 0.110576 0.793895 0.233043
Si Si3 0.350830 0.454685 0.004571
Si Si4 0.818026 0.896256 0.253399
Si Si5 0.329452 0.968795 0.781787
Si Si6 0.113774 0.608536 0.450877
Si Si7 0.187429 0.037773 0.377168
Si Si8 0.992771 0.567270 0.844435
O O1 0.919899 0.665195 0.089155
O O2 0.056640 0.749431 0.137603
O O3 0.750000 0.750000 0.000000
O O4 0.808773 0.713683 0.884851
O O5 0.092105 0.844620 0.171634
O O6 0.000000 0.796329 0.250000
O O7 0.319412 0.470141 0.885229
O O8 0.208419 0.412899 0.927311
O O9 0.545372 0.437470 0.138368
O O10 0.317791 0.496106 0.053832
O O11 0.654851 0.899802 0.210952
O O12 0.753584 0.899677 0.114626
O O13 0.434425 0.918487 0.855451
O O14 0.243262 0.982073 0.818550
O O15 0.463754 0.010467 0.843982
O O16 0.323257 0.078277 0.494950
O O17 0.000000 0.061678 0.250000
O O18 0.000000 0.580048 0.750000
#
# Coordination Sequence:
#
# PCOD8151248 Si02
#       8
#     8   8   8   8   8   8   8   8
#     4   9  18  30  53  78 114 146 180 222 282 342
#     4   9  18  34  53  83 114 148 182 223 280 347
#     4  12  23  36  56  83 116 154 200 231 275 343
#     4  11  23  37  59  82 113 153 194 229 287 339
#     4  12  24  38  56  83 116 154 197 232 285 335
#     4  11  20  37  55  83 117 159 181 231 287 339
#     4  12  25  40  58  77 114 156 193 244 280 325
#     4  12  23  41  58  79 114 151 195 243 278 332
#
# _framework density 19.038671999999998
#
# number of rings (size 3 to 8) (size 9 to 14) (size 15 to 20)
#    0.000    1.000    3.750    5.625    1.750    5.000 
#    0.000    0.000    0.000    0.000    0.000    4.375 
#    0.000    0.000    0.000    0.000    0.000    0.000 
#
# Total GULP energy -396689.901256 kJ/mol
# GULP energy per Si atom -12396.559414 kJ/mol
# Density = 1.899534 g / cm^3
# Si number density = 19.038672 Si / 1000 Ang^3
#
#
#
# Elastic Constant Matrix: (Units=GPa)
#
#
# Indices 1 2 3 4 5 6 
#
# 1 58.9112 6.0841 39.0350 0.0000 -2.8144 0.0000
# 2 6.0841 72.1887 26.7827 0.0000 2.7127 0.0000
# 3 39.0350 26.7827 115.5743 0.0000 0.8778 0.0000
# 4 0.0000 0.0000 0.0000 26.8572 0.0000 5.3343
# 5 -2.8144 2.7127 0.8778 0.0000 35.2016 0.0000
# 6 0.0000 0.0000 0.0000 5.3343 0.0000 13.9424
#
#
#
# Elastic Compliance Matrix: (Units=1/GPa)
#
#
# Indices 1 2 3 4 5 6 
#
# 1 0.022056 0.000918 -0.007677 0.000000 0.001884 0.000000
# 2 0.000918 0.015235 -0.003833 0.000000 -0.001005 0.000000
# 3 -0.007677 -0.003833 0.012138 0.000000 -0.000621 0.000000
# 4 0.000000 0.000000 0.000000 0.040296 0.000000 -0.015417
# 5 0.001884 -0.001005 -0.000621 0.000000 0.028651 0.000000
# 6 0.000000 0.000000 0.000000 -0.015417 0.000000 0.077622
#
#
# Mechanical properties :
#
#
# Convention : Reuss Voigt Hill
#
# Bulk Modulus (GPa) = 35.40191 43.38641 39.39416
# Shear Modulus (GPa) = 22.06553 26.85174 24.45864
#
# Velocity S-wave (km/s) = 3.40808 3.75958 3.58813
# Velocity P-wave (km/s) = 5.84139 6.45631 6.15653
#
# Compressibility (1/GPa) = 0.02824707
#
# Stress axis : x y z
#
# Youngs Moduli (GPa) = 45.33812 65.63811 82.38452
#
# Poissons Ratio (x) = -0.06028 0.63244
# Poissons Ratio (y) = -0.04164 0.31578
# Poissons Ratio (z) = 0.34805 0.25159
#
# Static dielectric constant tensor:
#      x y z
#    x 3.308650 0.000000 0.140420 
#    y 0.000000 3.457040 0.000000 
#    z 0.140420 0.000000 4.368870 
# 
# 
# High freq. dielectric constant tensor:
#      x y z
#    x 1.708610 0.000000 0.007420 
#    y 0.000000 1.712280 0.000000 
#    z 0.007420 0.000000 1.764890 
# 
# From -- ./inp_files/149193.got.cif
#   From: 2010.06.25/outbox.cif.g09.slc.cpg/sg15_75_cif.got.tgz:149193.got - 2010.06.28 07:06:18.
