data_PCOD8151752
_publ_section_title
;
Structure prediction by ZEFSAII (Michael W. Deem and Ramdas Pophale) SiO2 
 PCOD8151752
Probable space group: C 2/C
;
_chemical_formula_sum "Si O2"
_cell_formula_units_Z 64
_cell_length_a 26.523429
_cell_length_b 11.423364
_cell_length_c 15.068032
_cell_angle_alpha 90.000000
_cell_angle_beta 41.696848
_cell_angle_gamma 90.000000
_cell_volume 3036.864817
_symmetry_space_group_name_H-M "C 2/C"
_symmetry_group_IT_number 15
_symmetry_cell_setting 'monoclinic'
loop_
_space_group_symop_operation_xyz
x,y,z
-x,y,1/2-z
-x,-y,-z
x,-y,1/2+z
1/2+x,1/2+y,z
1/2-x,1/2+y,1/2-z
1/2-x,1/2-y,-z
1/2+x,1/2-y,1/2+z
loop_
_atom_site_type_symbol
_atom_site_label
_atom_site_fract_x
_atom_site_fract_y
_atom_site_fract_z
Si Si1 0.300758 0.997242 0.240644
Si Si2 0.584705 0.822881 0.329042
Si Si3 0.928373 0.352353 0.623972
Si Si4 0.846561 0.123423 0.011504
Si Si5 0.796218 0.619592 0.570469
Si Si6 0.922921 0.490080 0.302152
Si Si7 0.920356 0.064239 0.097253
Si Si8 0.139619 0.125976 0.707508
O O1 0.338842 0.884034 0.236394
O O2 0.264864 0.948603 0.197309
O O3 0.363249 0.100548 0.141819
O O4 0.232580 0.052991 0.387070
O O5 0.510356 0.874458 0.475086
O O6 0.583489 0.686240 0.346475
O O7 0.579643 0.855215 0.230104
O O8 0.917972 0.430119 0.723143
O O9 0.915202 0.218506 0.671024
O O10 0.839529 0.261690 0.040779
O O11 0.899736 0.073066 0.019992
O O12 0.884662 0.109243 0.863701
O O13 0.851623 0.524281 0.454706
O O14 0.728375 0.661415 0.594846
O O15 0.000000 0.517718 0.250000
O O16 0.861963 0.991512 0.233151
O O17 0.000000 0.000000 0.000000
#
# Coordination Sequence:
#
# PCOD8151752 Si02
#       8
#     8   8   8   8   8   8   8   8
#     4  11  22  40  70 100 132 178 221 291 352 400
#     4  11  23  43  63  96 139 176 222 284 347 412
#     4  11  21  39  68  99 135 171 228 285 344 407
#     4  12  25  45  69  99 139 179 234 288 346 421
#     4  12  22  42  71 103 141 174 231 287 349 425
#     4  11  23  39  65 103 133 173 227 287 348 406
#     4  12  27  47  67  94 138 189 231 282 348 419
#     4  12  24  43  70 106 132 182 237 282 346 420
#
# _framework density 21.074366000000001
#
# number of rings (size 3 to 8) (size 9 to 14) (size 15 to 20)
#    0.000    0.500    6.250    4.875    0.000    0.500 
#    2.250    3.750    0.000    0.000    0.000    0.000 
#    0.000    0.000    0.000    0.000    0.000    0.000 
#
# Total GULP energy -396640.654147 kJ/mol
# GULP energy per Si atom -12395.020442 kJ/mol
# Density = 2.102640 g / cm^3
# Si number density = 21.074366 Si / 1000 Ang^3
#
#
#
# Elastic Constant Matrix: (Units=GPa)
#
#
# Indices 1 2 3 4 5 6 
#
# 1 96.5219 35.9946 25.5305 0.0000 2.2484 0.0000
# 2 35.9946 126.6782 32.0619 0.0001 9.8708 -0.0001
# 3 25.5305 32.0619 65.8542 0.0000 4.8882 0.0000
# 4 0.0000 0.0001 0.0000 41.6711 0.0000 -4.8061
# 5 2.2484 9.8708 4.8882 0.0000 35.1068 0.0000
# 6 0.0000 -0.0001 0.0000 -4.8061 0.0000 39.9585
#
#
#
# Elastic Compliance Matrix: (Units=1/GPa)
#
#
# Indices 1 2 3 4 5 6 
#
# 1 0.012258 -0.002631 -0.003504 0.000000 0.000442 0.000000
# 2 -0.002631 0.009701 -0.003550 0.000000 -0.002065 0.000000
# 3 -0.003504 -0.003550 0.018371 0.000000 -0.001335 0.000000
# 4 0.000000 0.000000 0.000000 0.024335 0.000000 0.002927
# 5 0.000442 -0.002065 -0.001335 0.000000 0.029223 0.000000
# 6 0.000000 0.000000 0.000000 0.002927 0.000000 0.025378
#
#
# Mechanical properties :
#
#
# Convention : Reuss Voigt Hill
#
# Bulk Modulus (GPa) = 47.70920 52.91425 50.31172
# Shear Modulus (GPa) = 34.33553 36.37843 35.35698
#
# Velocity S-wave (km/s) = 4.04078 4.15926 4.10045
# Velocity P-wave (km/s) = 6.66770 6.94469 6.80760
#
# Compressibility (1/GPa) = 0.02096032
#
# Stress axis : x y z
#
# Youngs Moduli (GPa) = 81.58001 103.08400 54.43346
#
# Poissons Ratio (x) = 0.27117 0.19075
# Poissons Ratio (y) = 0.21460 0.19323
# Poissons Ratio (z) = 0.28588 0.36594
#
# Static dielectric constant tensor:
#      x y z
#    x -1.415750 0.000000 1.485040 
#    y 0.000000 4.135950 0.000000 
#    z 1.485040 0.000000 3.468570 
# 
# 
# High freq. dielectric constant tensor:
#      x y z
#    x 1.833190 0.000000 -0.002790 
#    y 0.000000 1.828550 0.000000 
#    z -0.002790 0.000000 1.819770 
# 
# From -- ./inp_files/177795.got.cif
#   From: 2010.06.25/outbox.cif.g09.slc.cpg/sg15_89_cif.got.tgz:177795.got - 2010.06.28 07:06:18.
