data_PCOD8151164
_publ_section_title
;
Structure prediction by ZEFSAII (Michael W. Deem and Ramdas Pophale) SiO2 
 PCOD8151164
Probable space group: C 2/C
;
_chemical_formula_sum "Si O2"
_cell_formula_units_Z 40
_cell_length_a 11.587962
_cell_length_b 9.418144
_cell_length_c 20.142362
_cell_angle_alpha 90.000000
_cell_angle_beta 66.403725
_cell_angle_gamma 90.000000
_cell_volume 2014.478039
_symmetry_space_group_name_H-M "C 2/C"
_symmetry_group_IT_number 15
_symmetry_cell_setting 'monoclinic'
loop_
_space_group_symop_operation_xyz
x,y,z
-x,y,1/2-z
-x,-y,-z
x,-y,1/2+z
1/2+x,1/2+y,z
1/2-x,1/2+y,1/2-z
1/2-x,1/2-y,-z
1/2+x,1/2-y,1/2+z
loop_
_atom_site_type_symbol
_atom_site_label
_atom_site_fract_x
_atom_site_fract_y
_atom_site_fract_z
Si Si1 0.068309 0.326841 0.168665
Si Si2 0.708853 0.915270 0.572490
Si Si3 0.859624 0.104822 0.909574
Si Si4 0.348002 0.566704 0.291450
Si Si5 0.405249 0.594094 0.140948
O O1 0.124446 0.454289 0.113798
O O2 0.180972 0.218754 0.166375
O O3 0.000000 0.389050 0.250000
O O4 0.972312 0.243693 0.141920
O O5 0.758872 0.946097 0.487235
O O6 0.622624 0.774282 0.592836
O O7 0.829162 0.889783 0.591217
O O8 0.803804 0.060658 0.849498
O O9 0.993638 0.031808 0.891769
O O10 0.500000 0.568479 0.250000
O O11 0.304954 0.554132 0.224365
#
# Coordination Sequence:
#
# PCOD8151164 Si02
#       5
#     8   8   8   8   8
#     4   8  18  35  52  77 104 129 177 222 246 302
#     4  11  20  33  56  78 103 140 171 209 262 304
#     4   9  20  35  50  80 112 130 169 218 253 307
#     4   7  15  33  51  70 103 134 163 213 254 290
#     4   9  19  37  55  73 104 140 172 210 257 308
#
# _framework density 19.856259999999999
#
# number of rings (size 3 to 8) (size 9 to 14) (size 15 to 20)
#    0.000    4.000    0.000    0.600    0.000    8.800 
#    0.000    8.000    0.000    0.000    0.000    0.000 
#    0.000    0.000    0.000    0.000    0.000    0.000 
#
# Total GULP energy -247762.692528 kJ/mol
# GULP energy per Si atom -12388.134626 kJ/mol
# Density = 1.981107 g / cm^3
# Si number density = 19.856260 Si / 1000 Ang^3
#
#
#
# Elastic Constant Matrix: (Units=GPa)
#
#
# Indices 1 2 3 4 5 6 
#
# 1 48.1573 33.0246 16.1099 0.0000 -1.8286 0.0000
# 2 33.0246 119.9713 80.1592 0.0000 -7.7834 0.0000
# 3 16.1099 80.1592 127.2319 0.0000 0.1414 0.0000
# 4 0.0000 0.0000 0.0000 42.4306 0.0000 -7.0795
# 5 -1.8286 -7.7834 0.1414 0.0000 9.7537 0.0000
# 6 0.0000 0.0000 0.0000 -7.0795 0.0000 12.0861
#
#
#
# Elastic Compliance Matrix: (Units=1/GPa)
#
#
# Indices 1 2 3 4 5 6 
#
# 1 0.025959 -0.008795 0.002257 0.000000 -0.002185 0.000000
# 2 -0.008795 0.018824 -0.010761 0.000000 0.013529 0.000000
# 3 0.002257 -0.010761 0.014363 0.000000 -0.008372 0.000000
# 4 0.000000 0.000000 0.000000 0.026121 0.000000 0.015300
# 5 -0.002185 0.013529 -0.008372 0.000000 0.113033 0.000000
# 6 0.000000 0.000000 0.000000 0.015300 0.000000 0.091702
#
#
# Mechanical properties :
#
#
# Convention : Reuss Voigt Hill
#
# Bulk Modulus (GPa) = 40.73841 61.54975 51.14408
# Shear Modulus (GPa) = 15.02477 23.92519 19.47498
#
# Velocity S-wave (km/s) = 2.75376 3.47496 3.13517
# Velocity P-wave (km/s) = 5.53824 6.86771 6.23849
#
# Compressibility (1/GPa) = 0.02454686
#
# Stress axis : x y z
#
# Youngs Moduli (GPa) = 38.52236 53.12308 69.62358
#
# Poissons Ratio (x) = 0.46724 -0.15713
# Poissons Ratio (y) = 0.33882 0.74923
# Poissons Ratio (z) = -0.08694 0.57166
#
# Static dielectric constant tensor:
#      x y z
#    x 3.171460 0.000000 0.350740 
#    y 0.000000 3.592060 0.000000 
#    z 0.350740 0.000000 4.085210 
# 
# 
# High freq. dielectric constant tensor:
#      x y z
#    x 1.723080 0.000000 0.019990 
#    y 0.000000 1.774170 0.000000 
#    z 0.019990 0.000000 1.791190 
# 
# From -- ./inp_files/241895.got.cif
#   From: 2010.06.25/outbox.cif.g09.slc.cpg/sg15_121_cif.got.tgz:241895.got - 2010.06.28 07:06:18.
