data_PCOD8151233
_publ_section_title
;
Structure prediction by ZEFSAII (Michael W. Deem and Ramdas Pophale) SiO2 
 PCOD8151233
Probable space group: C 2/C
;
_chemical_formula_sum "Si O2"
_cell_formula_units_Z 48
_cell_length_a 12.018682
_cell_length_b 15.470304
_cell_length_c 22.642595
_cell_angle_alpha 90.000000
_cell_angle_beta 144.313038
_cell_angle_gamma 90.000000
_cell_volume 2455.929292
_symmetry_space_group_name_H-M "C 2/C"
_symmetry_group_IT_number 15
_symmetry_cell_setting 'monoclinic'
loop_
_space_group_symop_operation_xyz
x,y,z
-x,y,1/2-z
-x,-y,-z
x,-y,1/2+z
1/2+x,1/2+y,z
1/2-x,1/2+y,1/2-z
1/2-x,1/2-y,-z
1/2+x,1/2-y,1/2+z
loop_
_atom_site_type_symbol
_atom_site_label
_atom_site_fract_x
_atom_site_fract_y
_atom_site_fract_z
Si Si1 0.410712 0.510336 0.774702
Si Si2 0.142091 0.207603 0.757869
Si Si3 0.057459 0.749299 0.987182
Si Si4 0.548303 0.785332 0.930878
Si Si5 0.698366 0.608830 0.465192
Si Si6 0.503833 0.977354 0.932514
O O1 0.500000 0.496605 0.750000
O O2 0.403416 0.611958 0.786712
O O3 0.529408 0.453076 0.871092
O O4 0.201483 0.471431 0.684879
O O5 0.361728 0.215943 0.872424
O O6 0.000000 0.231051 0.750000
O O7 0.103387 0.273524 0.687437
O O8 0.123510 0.842292 0.990994
O O9 0.228112 0.680277 0.050317
O O10 0.031678 0.762533 0.045628
O O11 0.595600 0.883846 0.966656
O O12 0.750000 0.750000 0.000000
O O13 0.876199 0.545724 0.554408
O O14 0.500000 0.000000 0.000000
#
# Coordination Sequence:
#
# PCOD8151233 Si02
#       6
#     8   8   8   8   8   8
#     4  11  20  36  64  94 123 169 223 271 312 382
#     4  11  22  40  66  97 130 170 221 268 324 385
#     4  11  23  43  63  96 136 173 208 276 332 384
#     4  12  23  39  68  98 127 170 221 267 322 394
#     4  11  23  39  65  94 132 167 213 275 326 380
#     4  12  21  40  65  96 125 168 227 267 316 391
#
# _framework density 19.544536999999998
#
# number of rings (size 3 to 8) (size 9 to 14) (size 15 to 20)
#    0.000    0.667    6.667    2.000    0.000    0.000 
#    0.000    5.833    0.000    0.000    0.000    0.000 
#    0.000    0.000    0.000    0.000    0.000    0.000 
#
# Total GULP energy -297593.793005 kJ/mol
# GULP energy per Si atom -12399.741375 kJ/mol
# Density = 1.950005 g / cm^3
# Si number density = 19.544537 Si / 1000 Ang^3
#
#
#
# Elastic Constant Matrix: (Units=GPa)
#
#
# Indices 1 2 3 4 5 6 
#
# 1 123.6115 64.6346 35.5958 0.0000 -1.9411 0.0003
# 2 64.6346 132.6743 33.8683 0.0000 -5.2837 0.0000
# 3 35.5958 33.8683 90.3417 0.0001 7.3906 0.0012
# 4 0.0000 0.0000 0.0001 35.0830 0.0000 -17.3799
# 5 -1.9411 -5.2837 7.3906 0.0000 38.7595 0.0004
# 6 0.0003 0.0000 0.0012 -17.3799 0.0004 -174.7610
#
#
#
# Elastic Compliance Matrix: (Units=1/GPa)
#
#
# Indices 1 2 3 4 5 6 
#
# 1 0.011415 -0.004851 -0.002714 0.000000 0.000428 0.000000
# 2 -0.004851 0.010516 -0.002162 0.000000 0.001603 0.000000
# 3 -0.002714 -0.002162 0.013190 0.000000 -0.002946 0.000000
# 4 0.000000 0.000000 0.000000 0.027165 0.000000 -0.002702
# 5 0.000428 0.001603 -0.002946 0.000000 0.026602 0.000000
# 6 0.000000 0.000000 0.000000 -0.002702 0.000000 -0.005453
#
#
# Mechanical properties :
#
#
# Convention : Reuss Voigt Hill
#
# Bulk Modulus (GPa) = 63.83005 68.31386 66.07195
# Shear Modulus (GPa) = 46.24870 -6.01511 20.11680
#
# Velocity S-wave (km/s) = 4.86976 -1.75622 3.21172
# Velocity P-wave (km/s) = 8.02179 5.56025 6.90165
#
# Compressibility (1/GPa) = 0.01566660
#
# Stress axis : x y z
#
# Youngs Moduli (GPa) = 87.60711 95.09046 75.81508
#
# Poissons Ratio (x) = 0.46128 0.20576
# Poissons Ratio (y) = 0.42498 0.16393
# Poissons Ratio (z) = 0.23776 0.20561
#
# Static dielectric constant tensor:
#      x y z
#    x 3.661800 0.000000 0.233650 
#    y 0.000000 3.745500 0.000000 
#    z 0.233650 0.000000 2.942160 
# 
# 
# High freq. dielectric constant tensor:
#      x y z
#    x 1.758110 0.000000 0.024310 
#    y 0.000000 1.771470 0.000000 
#    z 0.024310 0.000000 1.756360 
# 
# From -- ./inp_files/143429.got.cif
#   From: 2010.06.25/outbox.cif.g09.slc.cpg/sg15_72_cif.got.tgz:143429.got - 2010.06.28 07:06:18.
