data_PCOD8151526
_publ_section_title
;
Structure prediction by ZEFSAII (Michael W. Deem and Ramdas Pophale) SiO2 
 PCOD8151526
Probable space group: C 2/C
;
_chemical_formula_sum "Si O2"
_cell_formula_units_Z 48
_cell_length_a 13.524043
_cell_length_b 21.346640
_cell_length_c 9.382320
_cell_angle_alpha 90.000000
_cell_angle_beta 67.010808
_cell_angle_gamma 90.000000
_cell_volume 2493.487286
_symmetry_space_group_name_H-M "C 2/C"
_symmetry_group_IT_number 15
_symmetry_cell_setting 'monoclinic'
loop_
_space_group_symop_operation_xyz
x,y,z
-x,y,1/2-z
-x,-y,-z
x,-y,1/2+z
1/2+x,1/2+y,z
1/2-x,1/2+y,1/2-z
1/2-x,1/2-y,-z
1/2+x,1/2-y,1/2+z
loop_
_atom_site_type_symbol
_atom_site_label
_atom_site_fract_x
_atom_site_fract_y
_atom_site_fract_z
Si Si1 0.928757 0.470252 0.166026
Si Si2 0.846012 0.190683 0.591609
Si Si3 0.743764 0.824891 0.870834
Si Si4 0.180926 0.648742 0.898241
Si Si5 0.944309 0.232052 0.130399
Si Si6 0.123208 0.399231 0.718645
O O1 0.851698 0.416961 0.152269
O O2 0.860928 0.525962 0.280654
O O3 0.000000 0.438994 0.250000
O O4 0.000000 0.500000 0.000000
O O5 0.789845 0.149747 0.496781
O O6 0.822552 0.262303 0.565423
O O7 0.797248 0.169229 0.770236
O O8 0.975904 0.190525 0.515251
O O9 0.842205 0.812549 0.708387
O O10 0.660057 0.873909 0.851568
O O11 0.092369 0.702612 0.920987
O O12 0.195415 0.634957 0.057746
O O13 0.000000 0.247845 0.250000
O O14 0.000000 0.382855 0.750000
#
# Coordination Sequence:
#
# PCOD8151526 Si02
#       6
#     8   8   8   8   8   8
#     4  11  22  36  53  80 107 147 180 225 278 325
#     4   9  19  32  56  79 103 145 184 221 268 323
#     4   9  19  34  52  77 108 145 181 221 270 318
#     4  11  21  34  54  81 112 143 179 225 274 322
#     4   9  18  35  55  81 110 144 186 221 262 325
#     4  11  22  35  51  79 114 141 176 224 269 327
#
# _framework density 19.250149
#
# number of rings (size 3 to 8) (size 9 to 14) (size 15 to 20)
#    0.000    2.000    3.333    2.500    2.333    2.667 
#    0.000    2.500    0.000    1.000    0.000    0.000 
#    0.000    0.000    0.000    0.000    0.000    0.000 
#
# Total GULP energy -297423.563530 kJ/mol
# GULP energy per Si atom -12392.648480 kJ/mol
# Density = 1.920633 g / cm^3
# Si number density = 19.250149 Si / 1000 Ang^3
#
#
#
# Elastic Constant Matrix: (Units=GPa)
#
#
# Indices 1 2 3 4 5 6 
#
# 1 59.2750 14.4760 10.5928 0.0000 -5.1696 0.0000
# 2 14.4760 52.2719 11.9790 0.0000 2.0062 0.0000
# 3 10.5928 11.9790 84.8189 0.0000 -8.7689 0.0000
# 4 0.0000 0.0000 0.0000 30.9214 0.0000 6.2747
# 5 -5.1696 2.0062 -8.7689 0.0000 31.1419 0.0000
# 6 0.0000 0.0000 0.0000 6.2747 0.0000 10.5508
#
#
#
# Elastic Compliance Matrix: (Units=1/GPa)
#
#
# Indices 1 2 3 4 5 6 
#
# 1 0.018581 -0.004963 -0.001306 0.000000 0.003037 0.000000
# 2 -0.004963 0.021233 -0.002684 0.000000 -0.002947 0.000000
# 3 -0.001306 -0.002684 0.012697 0.000000 0.003531 0.000000
# 4 0.000000 0.000000 0.000000 0.036778 0.000000 -0.021872
# 5 0.003037 -0.002947 0.003531 0.000000 0.033799 0.000000
# 6 0.000000 0.000000 0.000000 -0.021872 0.000000 0.107787
#
#
# Mechanical properties :
#
#
# Convention : Reuss Voigt Hill
#
# Bulk Modulus (GPa) = 28.89642 30.05126 29.47384
# Shear Modulus (GPa) = 19.20743 25.14402 22.17573
#
# Velocity S-wave (km/s) = 3.16219 3.61802 3.39776
# Velocity P-wave (km/s) = 5.32693 5.75311 5.54412
#
# Compressibility (1/GPa) = 0.03460636
#
# Stress axis : x y z
#
# Youngs Moduli (GPa) = 53.81921 47.09579 78.75886
#
# Poissons Ratio (x) = 0.23374 0.10283
# Poissons Ratio (y) = 0.26711 0.21136
# Poissons Ratio (z) = 0.07027 0.12639
#
# Static dielectric constant tensor:
#      x y z
#    x 3.493300 0.000000 -0.009500 
#    y 0.000000 3.381860 0.000000 
#    z -0.009500 0.000000 3.813590 
# 
# 
# High freq. dielectric constant tensor:
#      x y z
#    x 1.727640 0.000000 0.001070 
#    y 0.000000 1.720130 0.000000 
#    z 0.001070 0.000000 1.761880 
# 
# From -- ./inp_files/40690.got.cif
#   From: 2010.06.25/outbox.cif.g09.slc.cpg/sg15_21_cif.got.tgz:40690.got - 2010.06.28 07:06:18.
