data_PCOD8151725
_publ_section_title
;
Structure prediction by ZEFSAII (Michael W. Deem and Ramdas Pophale) SiO2 
 PCOD8151725
Probable space group: C 2/C
;
_chemical_formula_sum "Si O2"
_cell_formula_units_Z 40
_cell_length_a 9.532354
_cell_length_b 16.157847
_cell_length_c 12.044590
_cell_angle_alpha 90.000000
_cell_angle_beta 105.916874
_cell_angle_gamma 90.000000
_cell_volume 1784.010849
_symmetry_space_group_name_H-M "C 2/C"
_symmetry_group_IT_number 15
_symmetry_cell_setting 'monoclinic'
loop_
_space_group_symop_operation_xyz
x,y,z
-x,y,1/2-z
-x,-y,-z
x,-y,1/2+z
1/2+x,1/2+y,z
1/2-x,1/2+y,1/2-z
1/2-x,1/2-y,-z
1/2+x,1/2-y,1/2+z
loop_
_atom_site_type_symbol
_atom_site_label
_atom_site_fract_x
_atom_site_fract_y
_atom_site_fract_z
Si Si1 0.648962 0.131280 0.469233
Si Si2 0.662615 0.172401 0.030359
Si Si3 0.670066 0.784015 0.765769
Si Si4 0.831363 0.902511 0.217450
Si Si5 0.364555 0.964434 0.151108
O O1 0.515265 0.181490 0.498776
O O2 0.739487 0.188609 0.399815
O O3 0.762571 0.093008 0.580368
O O4 0.587462 0.052952 0.386049
O O5 0.691042 0.092422 0.962291
O O6 0.750000 0.250000 0.000000
O O7 0.721410 0.161907 0.170385
O O8 0.500000 0.798472 0.750000
O O9 0.703283 0.689146 0.743443
O O10 0.765651 0.969858 0.287673
O O11 0.000000 0.922779 0.250000
O O12 0.500000 0.925560 0.250000
#
# Coordination Sequence:
#
# PCOD8151725 Si02
#       5
#     8   8   8   8   8
#     4  11  24  41  73  97 140 188 240 294 357 428
#     4  11  21  39  66 102 134 172 230 297 352 423
#     4   9  20  39  63  95 127 176 232 286 350 418
#     4  11  24  43  66  96 141 189 241 294 354 418
#     4  12  24  42  71 103 139 186 239 296 361 429
#
# _framework density 22.421389000000001
#
# number of rings (size 3 to 8) (size 9 to 14) (size 15 to 20)
#    0.000    1.200    4.000    3.000    2.800    0.800 
#    0.000    0.000    0.000    0.000    0.000    0.000 
#    0.000    0.000    0.000    0.000    0.000    0.000 
#
# Total GULP energy -247796.468113 kJ/mol
# GULP energy per Si atom -12389.823406 kJ/mol
# Density = 2.237036 g / cm^3
# Si number density = 22.421389 Si / 1000 Ang^3
#
#
#
# Elastic Constant Matrix: (Units=GPa)
#
#
# Indices 1 2 3 4 5 6 
#
# 1 110.7794 37.9738 58.8392 0.0000 -5.6839 0.0000
# 2 37.9738 69.4881 11.8045 0.0000 -8.2207 0.0000
# 3 58.8392 11.8045 140.1283 0.0000 -12.2804 0.0000
# 4 0.0000 0.0000 0.0000 30.9828 0.0000 -3.8946
# 5 -5.6839 -8.2207 -12.2804 0.0000 26.6052 0.0000
# 6 0.0000 0.0000 0.0000 -3.8946 0.0000 26.8346
#
#
#
# Elastic Compliance Matrix: (Units=1/GPa)
#
#
# Indices 1 2 3 4 5 6 
#
# 1 0.014325 -0.007083 -0.005567 0.000000 -0.001698 0.000000
# 2 -0.007083 0.018547 0.001857 0.000000 0.005074 0.000000
# 3 -0.005567 0.001857 0.009654 0.000000 0.003840 0.000000
# 4 0.000000 0.000000 0.000000 0.032876 0.000000 0.004771
# 5 -0.001698 0.005074 0.003840 0.000000 0.040564 0.000000
# 6 0.000000 0.000000 0.000000 0.004771 0.000000 0.037958
#
#
# Mechanical properties :
#
#
# Convention : Reuss Voigt Hill
#
# Bulk Modulus (GPa) = 47.75995 59.73675 53.74835
# Shear Modulus (GPa) = 27.39871 31.00309 29.20090
#
# Velocity S-wave (km/s) = 3.49949 3.72256 3.61275
# Velocity P-wave (km/s) = 6.13807 6.72140 6.43635
#
# Compressibility (1/GPa) = 0.02093804
#
# Stress axis : x y z
#
# Youngs Moduli (GPa) = 69.80926 53.91770 103.58375
#
# Poissons Ratio (x) = 0.38192 0.57665
# Poissons Ratio (y) = 0.49448 -0.19231
# Poissons Ratio (z) = 0.38863 -0.10010
#
# Static dielectric constant tensor:
#      x y z
#    x 3.756410 0.000000 -0.271480 
#    y 0.000000 3.906760 0.000000 
#    z -0.271480 0.000000 4.590480 
# 
# 
# High freq. dielectric constant tensor:
#      x y z
#    x 1.851300 0.000000 -0.018870 
#    y 0.000000 1.869150 0.000000 
#    z -0.018870 0.000000 1.912400 
# 
# From -- ./inp_files/76708.got.cif
#   From: 2010.06.25/outbox.cif.g09.slc.cpg/sg15_39_cif.got.tgz:76708.got - 2010.06.28 07:06:18.
