data_PCOD8151334
_publ_section_title
;
Structure prediction by ZEFSAII (Michael W. Deem and Ramdas Pophale) SiO2 
 PCOD8151334
Probable space group: C 2/C
;
_chemical_formula_sum "Si O2"
_cell_formula_units_Z 56
_cell_length_a 20.222711
_cell_length_b 17.597935
_cell_length_c 8.772314
_cell_angle_alpha 90.000000
_cell_angle_beta 112.475873
_cell_angle_gamma 90.000000
_cell_volume 2884.737534
_symmetry_space_group_name_H-M "C 2/C"
_symmetry_group_IT_number 15
_symmetry_cell_setting 'monoclinic'
loop_
_space_group_symop_operation_xyz
x,y,z
-x,y,1/2-z
-x,-y,-z
x,-y,1/2+z
1/2+x,1/2+y,z
1/2-x,1/2+y,1/2-z
1/2-x,1/2-y,-z
1/2+x,1/2-y,1/2+z
loop_
_atom_site_type_symbol
_atom_site_label
_atom_site_fract_x
_atom_site_fract_y
_atom_site_fract_z
Si Si1 0.746570 0.306195 0.853615
Si Si2 0.143986 0.211557 0.714407
Si Si3 0.044856 0.441993 0.438044
Si Si4 0.015830 0.276580 0.441423
Si Si5 0.702522 0.039345 0.972086
Si Si6 0.265262 0.099049 0.823637
Si Si7 0.135503 0.742316 0.547244
O O1 0.808895 0.284205 0.791353
O O2 0.756210 0.392412 0.910466
O O3 0.670304 0.298490 0.702877
O O4 0.750000 0.250000 0.000000
O O5 0.070028 0.212125 0.553224
O O6 0.187432 0.134013 0.715182
O O7 0.130611 0.215551 0.882255
O O8 0.052577 0.357640 0.515206
O O9 0.122577 0.473613 0.465109
O O10 0.000000 0.426839 0.250000
O O11 0.000000 0.500000 0.500000
O O12 0.000000 0.261495 0.250000
O O13 0.943549 0.276739 0.471705
O O14 0.743510 0.960987 0.046253
O O15 0.701679 0.054080 0.791198
O O16 0.318435 0.165508 0.922725
#
# Coordination Sequence:
#
# PCOD8151334 Si02
#       7
#     8   8   8   8   8   8   8
#     4  11  20  39  63  87 119 169 214 262 303 380
#     4  11  23  41  61  92 127 161 216 267 308 375
#     4  11  23  37  55  88 130 166 200 242 307 390
#     4  11  22  39  65  90 123 168 210 253 322 381
#     4  12  23  39  61  88 128 169 211 254 319 367
#     4  11  25  39  62  94 127 165 216 258 315 378
#     4  11  23  39  62  94 127 160 212 261 315 371
#
# _framework density 19.412512
#
# number of rings (size 3 to 8) (size 9 to 14) (size 15 to 20)
#    0.000    0.857    4.286    6.429    4.000    2.286 
#    0.000    0.000    0.000    0.857    0.000    0.000 
#    0.000    0.000    0.000    0.000    0.000    0.000 
#
# Total GULP energy -347217.864987 kJ/mol
# GULP energy per Si atom -12400.638035 kJ/mol
# Density = 1.936833 g / cm^3
# Si number density = 19.412512 Si / 1000 Ang^3
#
#
#
# Elastic Constant Matrix: (Units=GPa)
#
#
# Indices 1 2 3 4 5 6 
#
# 1 59.8202 35.8138 45.0451 0.0000 -2.4662 0.0000
# 2 35.8138 89.4157 32.7157 0.0000 12.2870 0.0000
# 3 45.0451 32.7157 104.7357 0.0000 3.5212 0.0000
# 4 0.0000 0.0000 0.0000 27.8605 0.0000 -0.5398
# 5 -2.4662 12.2870 3.5212 0.0000 38.4435 0.0000
# 6 0.0000 0.0000 0.0000 -0.5398 0.0000 24.3305
#
#
#
# Elastic Compliance Matrix: (Units=1/GPa)
#
#
# Indices 1 2 3 4 5 6 
#
# 1 0.030190 -0.009107 -0.010334 0.000000 0.005794 0.000000
# 2 -0.009107 0.015917 -0.000867 0.000000 -0.005592 0.000000
# 3 -0.010334 -0.000867 0.014320 0.000000 -0.001697 0.000000
# 4 0.000000 0.000000 0.000000 0.035909 0.000000 0.000797
# 5 0.005794 -0.005592 -0.001697 0.000000 0.028327 0.000000
# 6 0.000000 0.000000 0.000000 0.000797 0.000000 0.041118
#
#
# Mechanical properties :
#
#
# Convention : Reuss Voigt Hill
#
# Bulk Modulus (GPa) = 50.47848 53.45789 51.96818
# Shear Modulus (GPa) = 23.47410 27.48668 25.48039
#
# Velocity S-wave (km/s) = 3.48116 3.76696 3.62688
# Velocity P-wave (km/s) = 6.49750 6.82038 6.66090
#
# Compressibility (1/GPa) = 0.01981042
#
# Stress axis : x y z
#
# Youngs Moduli (GPa) = 33.12397 62.82560 69.83076
#
# Poissons Ratio (x) = 0.57215 0.72164
# Poissons Ratio (y) = 0.30166 0.06055
# Poissons Ratio (z) = 0.34231 0.05448
#
# Static dielectric constant tensor:
#      x y z
#    x 3.623300 0.000000 -0.072080 
#    y 0.000000 3.639220 0.000000 
#    z -0.072080 0.000000 3.925740 
# 
# 
# High freq. dielectric constant tensor:
#      x y z
#    x 1.753710 0.000000 -0.005880 
#    y 0.000000 1.735960 0.000000 
#    z -0.005880 0.000000 1.768800 
# 
# From -- ./inp_files/49167.got.cif
#   From: 2010.06.25/outbox.cif.g09.slc.cpg/sg15_25_cif.got.tgz:49167.got - 2010.06.28 07:06:18.
