data_PCOD8151203
_publ_section_title
;
Structure prediction by ZEFSAII (Michael W. Deem and Ramdas Pophale) SiO2 
 PCOD8151203
Probable space group: C 2/C
;
_chemical_formula_sum "Si O2"
_cell_formula_units_Z 56
_cell_length_a 10.022585
_cell_length_b 23.734329
_cell_length_c 17.184270
_cell_angle_alpha 90.000000
_cell_angle_beta 144.801788
_cell_angle_gamma 90.000000
_cell_volume 2356.225770
_symmetry_space_group_name_H-M "C 2/C"
_symmetry_group_IT_number 15
_symmetry_cell_setting 'monoclinic'
loop_
_space_group_symop_operation_xyz
x,y,z
-x,y,1/2-z
-x,-y,-z
x,-y,1/2+z
1/2+x,1/2+y,z
1/2-x,1/2+y,1/2-z
1/2-x,1/2-y,-z
1/2+x,1/2-y,1/2+z
loop_
_atom_site_type_symbol
_atom_site_label
_atom_site_fract_x
_atom_site_fract_y
_atom_site_fract_z
Si Si1 0.772299 0.067719 0.601553
Si Si2 0.509573 0.732424 0.422973
Si Si3 0.835539 0.446888 0.970771
Si Si4 0.024524 0.919451 0.073169
Si Si5 0.581048 0.607223 0.151752
Si Si6 0.233384 0.303956 0.310216
Si Si7 0.115356 0.513534 0.225586
O O1 0.531629 0.091836 0.521349
O O2 0.000000 0.094231 0.750000
O O3 0.795560 0.079293 0.519954
O O4 0.754404 0.001391 0.620636
O O5 0.750000 0.750000 0.500000
O O6 0.398006 0.674060 0.339153
O O7 0.562023 0.727725 0.541312
O O8 0.315284 0.775867 0.297953
O O9 0.928971 0.474994 0.094298
O O10 0.632277 0.403759 0.892488
O O11 0.189152 0.866913 0.172216
O O12 0.154317 0.977158 0.152078
O O13 0.952064 0.917527 0.949988
O O14 0.806187 0.570540 0.286363
O O15 0.000000 0.305698 0.250000
O O16 0.000000 0.533758 0.250000
#
# Coordination Sequence:
#
# PCOD8151203 Si02
#       7
#     8   8   8   8   8   8   8
#     4  11  22  36  51  82 128 162 200 244 309 382
#     4   9  20  37  62  91 123 161 218 275 316 368
#     4  11  22  36  56  84 126 167 201 246 306 384
#     4  11  20  35  61  90 122 159 206 256 312 379
#     4  11  22  39  62  92 124 162 212 263 313 378
#     4   9  19  36  61  93 123 159 217 277 315 375
#     4  12  21  34  62  94 126 160 206 252 317 381
#
# _framework density 23.766822999999999
#
# number of rings (size 3 to 8) (size 9 to 14) (size 15 to 20)
#    0.000    1.429    4.286    1.714    4.000    0.000 
#    0.000   12.143    0.000    2.571    0.000   22.000 
#    0.000    0.000    0.000    0.000    0.000    0.000 
#
# Total GULP energy -346875.096175 kJ/mol
# GULP energy per Si atom -12388.396292 kJ/mol
# Density = 2.371273 g / cm^3
# Si number density = 23.766823 Si / 1000 Ang^3
#
#
#
# Elastic Constant Matrix: (Units=GPa)
#
#
# Indices 1 2 3 4 5 6 
#
# 1 113.2260 9.1186 20.2386 0.0088 25.0379 0.0031
# 2 9.1186 89.6090 12.7813 -0.0019 7.0671 0.0000
# 3 20.2386 12.7813 55.2754 -0.0253 -0.1530 -0.0146
# 4 0.0088 -0.0019 -0.0253 22.4152 -0.0039 0.4953
# 5 25.0379 7.0671 -0.1530 -0.0039 31.4406 -0.0038
# 6 0.0031 0.0000 -0.0146 0.4953 -0.0038 25.8795
#
#
#
# Elastic Compliance Matrix: (Units=1/GPa)
#
#
# Indices 1 2 3 4 5 6 
#
# 1 0.011659 0.000169 -0.004334 -0.000011 -0.009344 -0.000005
# 2 0.000169 0.011760 -0.002789 -0.000003 -0.002791 -0.000002
# 3 -0.004334 -0.002789 0.020334 0.000025 0.004177 0.000012
# 4 -0.000011 -0.000003 0.000025 0.044632 0.000015 -0.000854
# 5 -0.009344 -0.002791 0.004177 0.000015 0.039895 0.000009
# 6 -0.000005 -0.000002 0.000012 -0.000854 0.000009 0.038657
#
#
# Mechanical properties :
#
#
# Convention : Reuss Voigt Hill
#
# Bulk Modulus (GPa) = 33.50529 38.04307 35.77418
# Shear Modulus (GPa) = 26.20628 30.34517 28.27573
#
# Velocity S-wave (km/s) = 3.32421 3.57709 3.45297
# Velocity P-wave (km/s) = 5.37233 5.75346 5.56616
#
# Compressibility (1/GPa) = 0.02984603
#
# Stress axis : x y z
#
# Youngs Moduli (GPa) = 85.76930 85.03146 49.17771
#
# Poissons Ratio (x) = -0.01434 0.21312
# Poissons Ratio (y) = -0.01446 0.13715
# Poissons Ratio (z) = 0.37170 0.23714
#
# Static dielectric constant tensor:
#      x y z
#    x 4.495930 -0.000040 -0.272670 
#    y -0.000040 4.137230 0.000080 
#    z -0.272670 0.000080 5.146590 
# 
# 
# High freq. dielectric constant tensor:
#      x y z
#    x 1.936830 0.000000 -0.010870 
#    y 0.000000 1.907870 0.000000 
#    z -0.010870 0.000000 1.956040 
# 
# From -- ./inp_files/240803.got.cif
#   From: 2010.06.25/outbox.cif.g09.slc.cpg/sg15_121_cif.got.tgz:240803.got - 2010.06.28 07:06:18.
