data_PCOD8151668
_publ_section_title
;
Structure prediction by ZEFSAII (Michael W. Deem and Ramdas Pophale) SiO2 
 PCOD8151668
Probable space group: C 2/C
;
_chemical_formula_sum "Si O2"
_cell_formula_units_Z 36
_cell_length_a 20.544226
_cell_length_b 20.500898
_cell_length_c 9.230607
_cell_angle_alpha 90.000000
_cell_angle_beta 29.520582
_cell_angle_gamma 90.000000
_cell_volume 1915.611266
_symmetry_space_group_name_H-M "C 2/C"
_symmetry_group_IT_number 15
_symmetry_cell_setting 'monoclinic'
loop_
_space_group_symop_operation_xyz
x,y,z
-x,y,1/2-z
-x,-y,-z
x,-y,1/2+z
1/2+x,1/2+y,z
1/2-x,1/2+y,1/2-z
1/2-x,1/2-y,-z
1/2+x,1/2-y,1/2+z
loop_
_atom_site_type_symbol
_atom_site_label
_atom_site_fract_x
_atom_site_fract_y
_atom_site_fract_z
Si Si1 0.765289 0.418493 0.173843
Si Si2 0.500000 0.655043 0.250000
Si Si3 0.903272 0.738210 0.725706
Si Si4 0.500000 0.817821 0.750000
Si Si5 0.364123 0.025755 0.197855
Si Si6 0.000000 0.369292 0.250000
O O1 0.621196 0.390441 0.475238
O O2 0.793853 0.468670 0.246695
O O3 0.767500 0.453696 0.014349
O O4 0.872210 0.361338 0.968941
O O5 0.530802 0.699273 0.329001
O O6 0.976926 0.728786 0.431171
O O7 0.919779 0.673890 0.790997
O O8 0.750000 0.750000 0.000000
O O9 0.391225 0.086730 0.040768
O O10 0.500000 0.000000 0.000000
#
# Coordination Sequence:
#
# PCOD8151668 Si02
#       6
#     8   4   8   4   8   4
#     4  12  24  41  66  98 130 166 215 268 318 381
#     4  11  28  44  61  99 140 165 208 272 330 371
#     4  11  24  41  66  94 131 170 211 266 320 379
#     4  12  21  40  71  93 124 175 218 258 316 386
#     4  12  21  38  67  97 121 169 219 261 311 382
#     4  11  21  38  64 100 120 166 220 264 306 383
#
# _framework density 18.792957000000001
#
# number of rings (size 3 to 8) (size 9 to 14) (size 15 to 20)
#    0.000    0.444    8.889    0.000    0.000    3.556 
#    0.000    0.000    0.000    0.000    0.000    0.000 
#    0.000    0.000    0.000    0.000    0.000    0.000 
#
# Total GULP energy -223319.182250 kJ/mol
# GULP energy per Si atom -12406.621236 kJ/mol
# Density = 1.875018 g / cm^3
# Si number density = 18.792957 Si / 1000 Ang^3
#
#
#
# Elastic Constant Matrix: (Units=GPa)
#
#
# Indices 1 2 3 4 5 6 
#
# 1 144.4130 81.9994 87.7007 -0.0002 17.7787 0.0009
# 2 81.9994 127.4488 88.1608 -0.0002 5.4359 0.0006
# 3 87.7007 88.1608 167.6770 0.0000 4.4539 0.0011
# 4 -0.0002 -0.0002 0.0000 45.2715 -0.0001 -0.2691
# 5 17.7787 5.4359 4.4539 -0.0001 42.8325 -0.0006
# 6 0.0009 0.0006 0.0011 -0.2691 -0.0006 40.5750
#
#
#
# Elastic Compliance Matrix: (Units=1/GPa)
#
#
# Indices 1 2 3 4 5 6 
#
# 1 0.012819 -0.005511 -0.003695 0.000000 -0.004237 0.000000
# 2 -0.005511 0.014735 -0.004889 0.000000 0.000926 0.000000
# 3 -0.003695 -0.004889 0.010438 0.000000 0.001069 0.000000
# 4 0.000000 0.000000 0.000000 0.022090 0.000000 0.000147
# 5 -0.004237 0.000926 0.001069 0.000000 0.024877 0.000000
# 6 0.000000 0.000000 0.000000 0.000147 0.000000 0.024647
#
#
# Mechanical properties :
#
#
# Convention : Reuss Voigt Hill
#
# Bulk Modulus (GPa) = 102.01761 106.14009 104.07885
# Shear Modulus (GPa) = 35.44487 37.84766 36.64627
#
# Velocity S-wave (km/s) = 4.34760 4.49255 4.42067
# Velocity P-wave (km/s) = 8.92217 9.13849 9.03097
#
# Compressibility (1/GPa) = 0.00980223
#
# Stress axis : x y z
#
# Youngs Moduli (GPa) = 78.00652 67.86642 95.79925
#
# Poissons Ratio (x) = 0.37404 0.35394
# Poissons Ratio (y) = 0.42993 0.46838
# Poissons Ratio (z) = 0.28821 0.33181
#
# Static dielectric constant tensor:
#      x y z
#    x 3.703870 0.000000 0.154160 
#    y 0.000000 3.603770 0.000010 
#    z 0.154160 0.000010 3.259360 
# 
# 
# High freq. dielectric constant tensor:
#      x y z
#    x 1.746360 0.000000 0.014410 
#    y 0.000000 1.741680 0.000000 
#    z 0.014410 0.000000 1.723890 
# 
# From -- ./inp_files/22557.got.cif
#   From: 2010.06.25/outbox.cif.g09.slc.cpg/sg15_12_cif.got.tgz:22557.got - 2010.06.28 07:06:18.
