data_PCOD8151946
_publ_section_title
;
Structure prediction by ZEFSAII (Michael W. Deem and Ramdas Pophale) SiO2 
 PCOD8151946
Probable space group: C 2/C
;
_chemical_formula_sum "Si O2"
_cell_formula_units_Z 60
_cell_length_a 19.484280
_cell_length_b 11.686231
_cell_length_c 24.749401
_cell_angle_alpha 90.000000
_cell_angle_beta 149.678196
_cell_angle_gamma 90.000000
_cell_volume 2845.058334
_symmetry_space_group_name_H-M "C 2/C"
_symmetry_group_IT_number 15
_symmetry_cell_setting 'monoclinic'
loop_
_space_group_symop_operation_xyz
x,y,z
-x,y,1/2-z
-x,-y,-z
x,-y,1/2+z
1/2+x,1/2+y,z
1/2-x,1/2+y,1/2-z
1/2-x,1/2-y,-z
1/2+x,1/2-y,1/2+z
loop_
_atom_site_type_symbol
_atom_site_label
_atom_site_fract_x
_atom_site_fract_y
_atom_site_fract_z
Si Si1 0.980706 0.134455 0.842900
Si Si2 0.500000 0.748926 0.750000
Si Si3 0.217643 0.573076 0.432762
Si Si4 0.741097 0.936783 0.340005
Si Si5 0.562796 0.753014 0.494075
Si Si6 0.447227 0.953552 0.091978
Si Si7 0.942790 0.659830 0.396586
Si Si8 0.148483 0.065484 0.184028
O O1 0.929873 0.171473 0.748652
O O2 0.933092 0.227284 0.853955
O O3 0.142983 0.123948 0.950495
O O4 0.912676 0.013710 0.810536
O O5 0.390381 0.825400 0.644381
O O6 0.240634 0.521909 0.389652
O O7 0.162083 0.475237 0.435242
O O8 0.800145 0.814283 0.397182
O O9 0.590972 0.918855 0.215378
O O10 0.840212 0.993508 0.363392
O O11 0.605183 0.849439 0.480011
O O12 0.499141 0.810696 0.504642
O O13 0.451068 0.671328 0.392176
O O14 0.458271 0.067823 0.063474
O O15 0.792918 0.609346 0.302153
#
# Coordination Sequence:
#
# PCOD8151946 Si02
#       8
#     8   4   8   8   8   8   8   8
#     4  12  25  45  73 102 132 177 230 276 340 407
#     4  12  24  44  72  98 136 178 220 290 334 392
#     4  12  23  46  69  97 134 182 226 267 342 405
#     4  11  21  43  68  93 132 181 224 277 336 397
#     4  12  23  41  69  98 132 184 220 280 342 404
#     4  11  25  42  65 100 136 174 231 277 334 405
#     4  11  24  44  67 100 136 176 221 288 336 393
#     4  11  24  44  67  98 135 171 231 279 337 407
#
# _framework density 21.089199000000001
#
# number of rings (size 3 to 8) (size 9 to 14) (size 15 to 20)
#    0.000    0.533    5.333    3.600    1.867    1.600 
#    0.000    0.000    0.000    0.000    0.000    0.000 
#    0.000    0.000    0.000    0.000    0.000    0.000 
#
# Total GULP energy -372226.058259 kJ/mol
# GULP energy per Si atom -12407.535275 kJ/mol
# Density = 2.104120 g / cm^3
# Si number density = 21.089199 Si / 1000 Ang^3
#
#
#
# Elastic Constant Matrix: (Units=GPa)
#
#
# Indices 1 2 3 4 5 6 
#
# 1 104.0246 38.5960 24.0429 0.0008 -14.0374 -0.0010
# 2 38.5960 103.5207 32.1889 0.0009 -10.2287 -0.0018
# 3 24.0429 32.1889 37.6049 0.0027 -3.7701 -0.0025
# 4 0.0008 0.0009 0.0027 20.7672 0.0011 -12.9511
# 5 -14.0374 -10.2287 -3.7701 0.0011 40.6816 -0.0007
# 6 -0.0010 -0.0018 -0.0025 -12.9511 -0.0007 31.8535
#
#
#
# Elastic Compliance Matrix: (Units=1/GPa)
#
#
# Indices 1 2 3 4 5 6 
#
# 1 0.012214 -0.002614 -0.005264 0.000000 0.003069 0.000000
# 2 -0.002614 0.013937 -0.010092 0.000001 0.001667 0.000000
# 3 -0.005264 -0.010092 0.038517 -0.000004 -0.000784 0.000001
# 4 0.000000 0.000001 -0.000004 0.064510 -0.000001 0.026229
# 5 0.003069 0.001667 -0.000784 -0.000001 0.025987 0.000000
# 6 0.000000 0.000000 0.000001 0.026229 0.000000 0.042058
#
#
# Mechanical properties :
#
#
# Convention : Reuss Voigt Hill
#
# Bulk Modulus (GPa) = 34.80713 48.31176 41.55945
# Shear Modulus (GPa) = 20.59837 28.68192 24.64015
#
# Velocity S-wave (km/s) = 3.12865 3.69186 3.42186
# Velocity P-wave (km/s) = 5.43984 6.41335 5.94655
#
# Compressibility (1/GPa) = 0.02872974
#
# Stress axis : x y z
#
# Youngs Moduli (GPa) = 81.87542 71.75171 25.96232
#
# Poissons Ratio (x) = 0.18753 0.13667
# Poissons Ratio (y) = 0.21399 0.26200
# Poissons Ratio (z) = 0.43099 0.72408
#
# Static dielectric constant tensor:
#      x y z
#    x 3.935410 0.000000 -0.061100 
#    y 0.000000 3.925480 0.000000 
#    z -0.061100 0.000000 3.799830 
# 
# 
# High freq. dielectric constant tensor:
#      x y z
#    x 1.832750 0.000000 -0.008010 
#    y 0.000000 1.835180 0.000000 
#    z -0.008010 0.000000 1.822360 
# 
# From -- ./inp_files/280101.got.cif
#   From: 2010.06.25/outbox.cif.g09.slc.cpg/sg15_141_cif.got.tgz:280101.got - 2010.06.28 07:06:18.
