data_PCOD8151589
_publ_section_title
;
Structure prediction by ZEFSAII (Michael W. Deem and Ramdas Pophale) SiO2 
 PCOD8151589
Probable space group: C 2/C
;
_chemical_formula_sum "Si O2"
_cell_formula_units_Z 64
_cell_length_a 24.473050
_cell_length_b 7.423124
_cell_length_c 23.727284
_cell_angle_alpha 90.000000
_cell_angle_beta 123.884596
_cell_angle_gamma 90.000000
_cell_volume 3578.374569
_symmetry_space_group_name_H-M "C 2/C"
_symmetry_group_IT_number 15
_symmetry_cell_setting 'monoclinic'
loop_
_space_group_symop_operation_xyz
x,y,z
-x,y,1/2-z
-x,-y,-z
x,-y,1/2+z
1/2+x,1/2+y,z
1/2-x,1/2+y,1/2-z
1/2-x,1/2-y,-z
1/2+x,1/2-y,1/2+z
loop_
_atom_site_type_symbol
_atom_site_label
_atom_site_fract_x
_atom_site_fract_y
_atom_site_fract_z
Si Si1 0.173675 0.290648 0.209650
Si Si2 0.588051 0.789426 0.261731
Si Si3 0.052540 0.287340 0.360983
Si Si4 0.326322 0.790632 0.790344
Si Si5 0.904284 0.999994 0.900802
Si Si6 0.088050 0.289424 0.761732
Si Si7 0.052540 0.712657 0.360984
Si Si8 0.054983 0.999998 0.451514
O O1 0.149919 0.231666 0.258856
O O2 0.249997 0.249997 0.249994
O O3 0.158500 0.500010 0.189884
O O4 0.134010 0.178576 0.140654
O O5 0.578408 0.000001 0.259063
O O6 0.596235 0.726959 0.331453
O O7 0.521388 0.717993 0.194595
O O8 0.057650 0.499998 0.377122
O O9 0.076361 0.178288 0.429289
O O10 0.365978 0.678543 0.859336
O O11 0.350081 0.731656 0.741142
O O12 0.977674 0.000008 0.919688
O O13 0.902950 0.000002 0.967467
O O14 0.096234 0.226959 0.831453
O O15 0.021388 0.217994 0.694594
O O16 0.076362 0.821708 0.429290
#
# Coordination Sequence:
#
# PCOD8151589 Si02
#       8
#     8   8   8   8   8   8   8   8
#     4  11  21  37  58  81 108 141 180 232 271 316
#     4   8  16  30  52  82 109 133 177 228 277 313
#     4   9  17  32  52  79 111 139 173 227 276 317
#     4  11  21  37  58  81 108 141 180 232 271 316
#     4  11  24  37  50  85 114 144 187 211 274 328
#     4   8  16  30  52  82 109 133 177 228 277 313
#     4   9  17  32  52  79 111 139 173 227 276 317
#     4  11  22  34  55  80 117 148 176 220 259 347
#
# _framework density 17.885214000000001
#
# number of rings (size 3 to 8) (size 9 to 14) (size 15 to 20)
#    0.000    2.250    3.750    1.500    0.000    4.000 
#    0.000    2.500    0.000    1.500    0.000    0.000 
#    0.000    0.000    0.000    0.000    0.000    0.000 
#
# Total GULP energy -396596.443081 kJ/mol
# GULP energy per Si atom -12393.638846 kJ/mol
# Density = 1.784451 g / cm^3
# Si number density = 17.885214 Si / 1000 Ang^3
#
#
#
# Elastic Constant Matrix: (Units=GPa)
#
#
# Indices 1 2 3 4 5 6 
#
# 1 138.3600 40.8575 66.8430 0.0000 -20.4549 0.0000
# 2 40.8575 107.0181 59.1745 0.0001 -18.1741 0.0004
# 3 66.8430 59.1745 116.1612 0.0000 -29.2507 0.0000
# 4 0.0000 0.0001 0.0000 18.6048 0.0000 -8.0982
# 5 -20.4549 -18.1741 -29.2507 0.0000 32.5302 0.0000
# 6 0.0000 0.0004 0.0000 -8.0982 0.0000 21.9024
#
#
#
# Elastic Compliance Matrix: (Units=1/GPa)
#
#
# Indices 1 2 3 4 5 6 
#
# 1 0.010116 -0.000838 -0.005055 0.000000 0.001347 0.000000
# 2 -0.000838 0.013150 -0.005816 0.000000 0.001590 0.000000
# 3 -0.005055 -0.005816 0.016626 0.000000 0.008522 0.000000
# 4 0.000000 0.000000 0.000000 0.064059 0.000000 0.023685
# 5 0.001347 0.001590 0.008522 0.000000 0.040139 0.000000
# 6 0.000000 0.000000 0.000000 0.023685 0.000000 0.054414
#
#
# Mechanical properties :
#
#
# Convention : Reuss Voigt Hill
#
# Bulk Modulus (GPa) = 60.70159 77.25439 68.97799
# Shear Modulus (GPa) = 21.98611 27.58510 24.78561
#
# Velocity S-wave (km/s) = 3.50993 3.93153 3.72669
# Velocity P-wave (km/s) = 7.10207 7.99359 7.56098
#
# Compressibility (1/GPa) = 0.01647403
#
# Stress axis : x y z
#
# Youngs Moduli (GPa) = 98.84971 76.04398 60.14536
#
# Poissons Ratio (x) = 0.06375 0.30403
# Poissons Ratio (y) = 0.08287 0.34982
# Poissons Ratio (z) = 0.49968 0.44229
#
# Static dielectric constant tensor:
#      x y z
#    x 3.584530 0.000000 -0.337790 
#    y 0.000000 3.339870 0.000000 
#    z -0.337790 0.000000 3.093470 
# 
# 
# High freq. dielectric constant tensor:
#      x y z
#    x 1.693650 0.000000 -0.030400 
#    y 0.000000 1.701020 0.000000 
#    z -0.030400 0.000000 1.653080 
# 
# From -- ./inp_files/283159.got.cif
#   From: 2010.06.25/outbox.cif.g09.slc.cpg/sg15_142_cif.got.tgz:283159.got - 2010.06.28 07:06:18.
