data_PCOD8151444
_publ_section_title
;
Structure prediction by ZEFSAII (Michael W. Deem and Ramdas Pophale) SiO2 
 PCOD8151444
Probable space group: C 2/C
;
_chemical_formula_sum "Si O2"
_cell_formula_units_Z 48
_cell_length_a 32.797652
_cell_length_b 15.185273
_cell_length_c 16.361275
_cell_angle_alpha 90.000000
_cell_angle_beta 16.848243
_cell_angle_gamma 90.000000
_cell_volume 2361.769237
_symmetry_space_group_name_H-M "C 2/C"
_symmetry_group_IT_number 15
_symmetry_cell_setting 'monoclinic'
loop_
_space_group_symop_operation_xyz
x,y,z
-x,y,1/2-z
-x,-y,-z
x,-y,1/2+z
1/2+x,1/2+y,z
1/2-x,1/2+y,1/2-z
1/2-x,1/2-y,-z
1/2+x,1/2-y,1/2+z
loop_
_atom_site_type_symbol
_atom_site_label
_atom_site_fract_x
_atom_site_fract_y
_atom_site_fract_z
Si Si1 0.409348 0.050098 0.244238
Si Si2 0.857610 0.999993 0.320347
Si Si3 0.859687 0.106471 0.971393
Si Si4 0.884370 0.250522 0.800358
Si Si5 0.637838 0.907445 0.029338
Si Si6 0.819830 0.174928 0.316892
O O1 0.452023 0.151436 0.183322
O O2 0.252877 0.066194 0.509579
O O3 0.408798 0.993178 0.328724
O O4 0.500000 0.000000 0.000000
O O5 0.794392 0.096620 0.430049
O O6 0.882705 0.973904 0.364970
O O7 0.000000 0.000000 0.000000
O O8 0.827164 0.201542 0.991848
O O9 0.000000 0.122567 0.750000
O O10 0.737764 0.068385 0.262437
O O11 0.014566 0.189514 0.519200
O O12 0.750000 0.250000 0.000000
O O13 0.726315 0.839243 0.914719
O O14 0.500000 0.865240 0.250000
O O15 0.750000 0.250000 0.500000
#
# Coordination Sequence:
#
# PCOD8151444 Si02
#       6
#     8   8   8   8   8   8
#     4  11  23  43  70  96 126 179 231 270 333 418
#     4  11  20  42  67  92 127 180 221 262 330 405
#     4  12  23  42  66  97 142 173 220 290 342 391
#     4  12  23  41  71  99 132 178 227 278 332 406
#     4  11  25  44  65  96 138 175 220 286 349 384
#     4  11  24  43  68  98 132 172 231 272 325 413
#
# _framework density 20.323747000000001
#
# number of rings (size 3 to 8) (size 9 to 14) (size 15 to 20)
#    0.000    0.667    5.000    4.000    2.333    0.667 
#    3.000    0.833    0.000    0.000    0.000    0.000 
#    0.000    0.000    0.000    0.000    0.000    0.000 
#
# Total GULP energy -297347.356317 kJ/mol
# GULP energy per Si atom -12389.473180 kJ/mol
# Density = 2.027749 g / cm^3
# Si number density = 20.323747 Si / 1000 Ang^3
#
#
#
# Elastic Constant Matrix: (Units=GPa)
#
#
# Indices 1 2 3 4 5 6 
#
# 1 151.5905 56.7469 69.3191 0.0002 -3.7897 -0.0002
# 2 56.7469 116.5694 31.3302 0.0002 15.0231 -0.0002
# 3 69.3191 31.3302 124.9620 0.0000 3.0517 -0.0002
# 4 0.0002 0.0002 0.0000 37.4484 -0.0001 19.1509
# 5 -3.7897 15.0231 3.0517 -0.0001 56.6271 0.0003
# 6 -0.0002 -0.0002 -0.0002 19.1509 0.0003 75.8931
#
#
#
# Elastic Compliance Matrix: (Units=1/GPa)
#
#
# Indices 1 2 3 4 5 6 
#
# 1 0.010330 -0.004004 -0.004775 0.000000 0.002011 0.000000
# 2 -0.004004 0.011065 -0.000475 0.000000 -0.003178 0.000000
# 3 -0.004775 -0.000475 0.010789 0.000000 -0.000775 0.000000
# 4 0.000000 0.000000 0.000000 0.030660 0.000000 -0.007737
# 5 0.002011 -0.003178 -0.000775 0.000000 0.018679 0.000000
# 6 0.000000 0.000000 0.000000 -0.007737 0.000000 0.015129
#
#
# Mechanical properties :
#
#
# Convention : Reuss Voigt Hill
#
# Bulk Modulus (GPa) = 73.12861 78.65713 75.89287
# Shear Modulus (GPa) = 41.76427 49.70876 45.73651
#
# Velocity S-wave (km/s) = 4.53807 4.95092 4.74898
# Velocity P-wave (km/s) = 7.96987 8.45389 8.21544
#
# Compressibility (1/GPa) = 0.01367454
#
# Stress axis : x y z
#
# Youngs Moduli (GPa) = 96.80960 90.37331 92.68305
#
# Poissons Ratio (x) = 0.36188 0.44258
# Poissons Ratio (y) = 0.38765 0.04406
# Poissons Ratio (z) = 0.46229 0.04296
#
# Static dielectric constant tensor:
#      x y z
#    x 2.277550 0.000040 -1.154000 
#    y 0.000040 1.153720 0.000060 
#    z -1.154000 0.000060 1.491020 
# 
# 
# High freq. dielectric constant tensor:
#      x y z
#    x 1.794900 0.000000 -0.007680 
#    y 0.000000 1.793980 0.000000 
#    z -0.007680 0.000000 1.813150 
# 
# From -- ./inp_files/182453.got.cif
#   From: 2010.06.25/outbox.cif.g09.slc.cpg/sg15_92_cif.got.tgz:182453.got - 2010.06.28 07:06:18.
