data_PCOD8151592
_publ_section_title
;
Structure prediction by ZEFSAII (Michael W. Deem and Ramdas Pophale) SiO2 
 PCOD8151592
Probable space group: C 2/C
;
_chemical_formula_sum "Si O2"
_cell_formula_units_Z 56
_cell_length_a 21.454126
_cell_length_b 16.505649
_cell_length_c 21.644808
_cell_angle_alpha 90.000000
_cell_angle_beta 21.757072
_cell_angle_gamma 90.000000
_cell_volume 2841.103414
_symmetry_space_group_name_H-M "C 2/C"
_symmetry_group_IT_number 15
_symmetry_cell_setting 'monoclinic'
loop_
_space_group_symop_operation_xyz
x,y,z
-x,y,1/2-z
-x,-y,-z
x,-y,1/2+z
1/2+x,1/2+y,z
1/2-x,1/2+y,1/2-z
1/2-x,1/2-y,-z
1/2+x,1/2-y,1/2+z
loop_
_atom_site_type_symbol
_atom_site_label
_atom_site_fract_x
_atom_site_fract_y
_atom_site_fract_z
Si Si1 0.507935 0.472358 0.407964
Si Si2 0.105191 0.436132 0.442915
Si Si3 0.555754 0.632379 0.423739
Si Si4 0.687559 0.229347 0.169366
Si Si5 0.876459 0.109714 0.917268
Si Si6 0.127494 0.374508 0.549517
Si Si7 0.115332 0.710292 0.377115
O O1 0.700011 0.451409 0.248014
O O2 0.471348 0.566449 0.456270
O O3 0.400593 0.412562 0.551120
O O4 0.454361 0.463469 0.385742
O O5 0.070424 0.440085 0.549738
O O6 0.000000 0.500000 0.500000
O O7 0.051337 0.345644 0.471101
O O8 0.730373 0.663336 0.232013
O O9 0.426551 0.706647 0.549776
O O10 0.522826 0.185804 0.293615
O O11 0.688981 0.227580 0.241483
O O12 0.848912 0.183498 0.990699
O O13 0.714192 0.322884 0.125279
O O14 0.000000 0.138137 0.750000
O O15 0.700458 0.083804 0.044941
#
# Coordination Sequence:
#
# PCOD8151592 Si02
#       7
#     8   8   8   8   8   8   8
#     4  11  23  40  58  87 122 160 209 256 306 358
#     4  11  22  38  59  86 122 158 204 262 304 363
#     4  11  22  38  61  85 117 161 203 258 305 359
#     4  11  22  38  53  86 122 164 207 239 284 374
#     4  12  23  37  57  84 121 167 200 237 300 365
#     4  11  23  36  57  81 123 163 202 245 297 365
#     4  11  21  37  59  84 120 161 206 250 310 363
#
# _framework density 19.710650999999999
#
# number of rings (size 3 to 8) (size 9 to 14) (size 15 to 20)
#    0.000    0.857    4.286    5.143    0.000    0.000 
#    0.000    0.000    0.000    0.000    0.000    4.000 
#    0.000    0.000    0.000    0.286    0.000    0.000 
#
# Total GULP energy -346998.730004 kJ/mol
# GULP energy per Si atom -12392.811786 kJ/mol
# Density = 1.966579 g / cm^3
# Si number density = 19.710651 Si / 1000 Ang^3
#
#
#
# Elastic Constant Matrix: (Units=GPa)
#
#
# Indices 1 2 3 4 5 6 
#
# 1 108.5573 53.1521 25.6150 -0.0038 -8.3722 0.0029
# 2 53.1521 118.5597 39.9844 0.0040 -0.1071 0.0013
# 3 25.6150 39.9844 80.3981 0.0066 -4.2048 -0.0011
# 4 -0.0038 0.0040 0.0066 29.9532 -0.0007 0.5347
# 5 -8.3722 -0.1071 -4.2048 -0.0007 26.6650 -0.0037
# 6 0.0029 0.0013 -0.0011 0.5347 -0.0037 26.7912
#
#
#
# Elastic Compliance Matrix: (Units=1/GPa)
#
#
# Indices 1 2 3 4 5 6 
#
# 1 0.012268 -0.005098 -0.001183 0.000003 0.003645 -0.000001
# 2 -0.005098 0.012268 -0.004596 -0.000001 -0.002276 -0.000001
# 3 -0.001183 -0.004596 0.015206 -0.000003 0.002008 0.000001
# 4 0.000003 -0.000001 -0.000003 0.033397 0.000001 -0.000667
# 5 0.003645 -0.002276 0.002008 0.000001 0.038954 0.000005
# 6 -0.000001 -0.000001 0.000001 -0.000667 0.000005 0.037339
#
#
# Mechanical properties :
#
#
# Convention : Reuss Voigt Hill
#
# Bulk Modulus (GPa) = 55.59115 60.55756 58.07436
# Shear Modulus (GPa) = 28.21971 29.26613 28.74292
#
# Velocity S-wave (km/s) = 3.78788 3.85747 3.82284
# Velocity P-wave (km/s) = 6.88445 7.11548 7.00092
#
# Compressibility (1/GPa) = 0.01798847
#
# Stress axis : x y z
#
# Youngs Moduli (GPa) = 81.51395 81.51336 65.76477
#
# Poissons Ratio (x) = 0.41553 0.07778
# Poissons Ratio (y) = 0.41553 0.30226
# Poissons Ratio (z) = 0.09641 0.37464
#
# Static dielectric constant tensor:
#      x y z
#    x 3.646550 -0.000010 -0.110870 
#    y -0.000010 3.527650 0.000030 
#    z -0.110870 0.000030 3.880710 
# 
# 
# High freq. dielectric constant tensor:
#      x y z
#    x 1.741290 0.000000 -0.013300 
#    y 0.000000 1.735120 0.000010 
#    z -0.013300 0.000010 1.790120 
# 
# From -- ./inp_files/282070.got.cif
#   From: 2010.06.25/outbox.cif.g09.slc.cpg/sg15_142_cif.got.tgz:282070.got - 2010.06.28 07:06:18.
