data_PCOD8151076
_publ_section_title
;
Structure prediction by ZEFSAII (Michael W. Deem and Ramdas Pophale) SiO2 
 PCOD8151076
Probable space group: C 2/C
;
_chemical_formula_sum "Si O2"
_cell_formula_units_Z 36
_cell_length_a 18.954101
_cell_length_b 7.381056
_cell_length_c 14.536902
_cell_angle_alpha 90.000000
_cell_angle_beta 71.780175
_cell_angle_gamma 90.000000
_cell_volume 1931.767906
_symmetry_space_group_name_H-M "C 2/C"
_symmetry_group_IT_number 15
_symmetry_cell_setting 'monoclinic'
loop_
_space_group_symop_operation_xyz
x,y,z
-x,y,1/2-z
-x,-y,-z
x,-y,1/2+z
1/2+x,1/2+y,z
1/2-x,1/2+y,1/2-z
1/2-x,1/2-y,-z
1/2+x,1/2-y,1/2+z
loop_
_atom_site_type_symbol
_atom_site_label
_atom_site_fract_x
_atom_site_fract_y
_atom_site_fract_z
Si Si1 0.000000 0.507061 0.250000
Si Si2 0.337015 0.725314 0.464497
Si Si3 0.421736 0.340433 0.752653
Si Si4 0.084823 0.056348 0.446429
Si Si5 0.436126 0.928181 0.959478
O O1 0.063774 0.375395 0.267671
O O2 0.030024 0.628555 0.153986
O O3 0.250000 0.750000 0.500000
O O4 0.361344 0.635077 0.357809
O O5 0.358987 0.590290 0.537018
O O6 0.375712 0.916765 0.467518
O O7 0.500000 0.433537 0.750000
O O8 0.395381 0.433230 0.669513
O O9 0.102260 0.250967 0.483928
O O10 0.000000 0.000000 0.500000
O O11 0.500000 0.000000 0.000000
#
# Coordination Sequence:
#
# PCOD8151076 Si02
#       5
#     4   8   8   8   8
#     4   8  16  32  58  92 120 142 196 264 290 332
#     4  11  25  43  58  90 134 155 195 268 308 346
#     4   9  17  37  63  88 118 157 208 252 287 370
#     4  12  20  37  69  91 116 164 210 244 299 374
#     4  11  19  37  63  90 115 159 207 243 295 365
#
# _framework density 18.63578
#
# number of rings (size 3 to 8) (size 9 to 14) (size 15 to 20)
#    0.667    0.889    6.667    0.000    0.000    2.667 
#    4.000    0.000    0.000    0.000    0.000    0.000 
#    0.000    0.000    0.000    0.000    0.000    0.000 
#
# Total GULP energy -223111.206198 kJ/mol
# GULP energy per Si atom -12395.067011 kJ/mol
# Density = 1.859336 g / cm^3
# Si number density = 18.635780 Si / 1000 Ang^3
#
#
#
# Elastic Constant Matrix: (Units=GPa)
#
#
# Indices 1 2 3 4 5 6 
#
# 1 127.0749 40.3502 71.1076 0.0000 -5.9580 0.0000
# 2 40.3502 83.1560 46.3405 0.0000 12.6587 0.0000
# 3 71.1076 46.3405 169.2839 0.0000 12.3938 0.0000
# 4 0.0000 0.0000 0.0000 24.8303 0.0000 10.5491
# 5 -5.9580 12.6587 12.3938 0.0000 28.4369 0.0000
# 6 0.0000 0.0000 0.0000 10.5491 0.0000 27.0658
#
#
#
# Elastic Compliance Matrix: (Units=1/GPa)
#
#
# Indices 1 2 3 4 5 6 
#
# 1 0.011953 -0.004373 -0.004286 0.000000 0.006319 0.000000
# 2 -0.004373 0.016447 -0.002130 0.000000 -0.007309 0.000000
# 3 -0.004286 -0.002130 0.008560 0.000000 -0.003681 0.000000
# 4 0.000000 0.000000 0.000000 0.048266 0.000000 -0.018812
# 5 0.006319 -0.007309 -0.003681 0.000000 0.041347 0.000000
# 6 0.000000 0.000000 0.000000 -0.018812 0.000000 0.044279
#
#
# Mechanical properties :
#
#
# Convention : Reuss Voigt Hill
#
# Bulk Modulus (GPa) = 65.01528 77.23459 71.12493
# Shear Modulus (GPa) = 25.30888 30.84770 28.07829
#
# Velocity S-wave (km/s) = 3.68921 4.07294 3.88582
# Velocity P-wave (km/s) = 7.28767 7.97827 7.64077
#
# Compressibility (1/GPa) = 0.01538100
#
# Stress axis : x y z
#
# Youngs Moduli (GPa) = 83.66277 60.79961 116.81850
#
# Poissons Ratio (x) = 0.26589 0.50071
# Poissons Ratio (y) = 0.36588 0.24886
# Poissons Ratio (z) = 0.35860 0.12952
#
# Static dielectric constant tensor:
#      x y z
#    x 3.152840 0.000000 0.205760 
#    y 0.000000 3.365310 0.000000 
#    z 0.205760 0.000000 3.598960 
# 
# 
# High freq. dielectric constant tensor:
#      x y z
#    x 1.684460 0.000000 0.017300 
#    y 0.000000 1.715090 0.000000 
#    z 0.017300 0.000000 1.739230 
# 
# From -- ./inp_files/158719.got.cif
#   From: 2010.06.25/outbox.cif.g09.slc.cpg/sg15_80_cif.got.tgz:158719.got - 2010.06.28 07:06:18.
