data_PCOD8151181
_publ_section_title
;
Structure prediction by ZEFSAII (Michael W. Deem and Ramdas Pophale) SiO2 
 PCOD8151181
Probable space group: C 2/C
;
_chemical_formula_sum "Si O2"
_cell_formula_units_Z 64
_cell_length_a 29.601808
_cell_length_b 13.830077
_cell_length_c 8.515028
_cell_angle_alpha 90.000000
_cell_angle_beta 91.215339
_cell_angle_gamma 90.000000
_cell_volume 3485.228096
_symmetry_space_group_name_H-M "C 2/C"
_symmetry_group_IT_number 15
_symmetry_cell_setting 'monoclinic'
loop_
_space_group_symop_operation_xyz
x,y,z
-x,y,1/2-z
-x,-y,-z
x,-y,1/2+z
1/2+x,1/2+y,z
1/2-x,1/2+y,1/2-z
1/2-x,1/2-y,-z
1/2+x,1/2-y,1/2+z
loop_
_atom_site_type_symbol
_atom_site_label
_atom_site_fract_x
_atom_site_fract_y
_atom_site_fract_z
Si Si1 0.730815 0.229402 0.824304
Si Si2 0.859730 0.827509 0.639752
Si Si3 0.131411 0.789991 0.217178
Si Si4 0.699796 0.132425 0.304810
Si Si5 0.411701 0.572374 0.368077
Si Si6 0.830125 0.038892 0.590163
Si Si7 0.770977 0.550379 0.880496
Si Si8 0.450379 0.390439 0.184499
O O1 0.677933 0.252879 0.805885
O O2 0.758730 0.292674 0.702447
O O3 0.734509 0.117805 0.774134
O O4 0.750000 0.250000 0.000000
O O5 0.875094 0.800207 0.468370
O O6 0.904162 0.832359 0.756673
O O7 0.839973 0.934731 0.662480
O O8 0.152914 0.686737 0.261863
O O9 0.163361 0.876751 0.280071
O O10 0.081195 0.796987 0.287535
O O11 0.696477 0.094575 0.483208
O O12 0.707110 0.049081 0.176492
O O13 0.363434 0.555175 0.447464
O O14 0.426225 0.481104 0.265215
O O15 0.451501 0.590938 0.497159
O O16 0.777490 0.036588 0.537496
O O17 0.500000 0.370166 0.250000
#
# Coordination Sequence:
#
# PCOD8151181 Si02
#       8
#     8   8   8   8   8   8   8   8
#     4  12  23  37  56  82 118 163 206 242 280 334
#     4  12  20  34  57  82 116 161 194 231 281 336
#     4  11  23  39  56  80 117 151 196 236 293 349
#     4  12  25  39  55  82 116 159 202 250 287 337
#     4  11  21  33  56  83 116 155 187 230 290 352
#     4  11  20  34  55  81 115 160 195 232 272 337
#     4  12  26  37  55  83 118 160 207 246 284 328
#     4  11  22  38  58  85 116 148 190 242 298 367
#
# _framework density 18.363216999999999
#
# number of rings (size 3 to 8) (size 9 to 14) (size 15 to 20)
#    0.000    0.500    7.500    2.250    5.250    0.000 
#    0.000    0.000    0.000    0.000    0.000    0.875 
#    0.000    0.000    0.000    0.000    0.000    0.000 
#
# Total GULP energy -396711.332360 kJ/mol
# GULP energy per Si atom -12397.229136 kJ/mol
# Density = 1.832142 g / cm^3
# Si number density = 18.363217 Si / 1000 Ang^3
#
#
#
# Elastic Constant Matrix: (Units=GPa)
#
#
# Indices 1 2 3 4 5 6 
#
# 1 85.4949 32.4231 36.5066 0.0000 16.9846 0.0000
# 2 32.4231 72.7495 20.5508 0.0000 8.0295 0.0000
# 3 36.5066 20.5508 100.8119 0.0000 24.2675 0.0000
# 4 0.0000 0.0000 0.0000 28.6991 0.0000 2.5181
# 5 16.9846 8.0295 24.2675 0.0000 26.1856 0.0000
# 6 0.0000 0.0000 0.0000 2.5181 0.0000 16.4000
#
#
#
# Elastic Compliance Matrix: (Units=1/GPa)
#
#
# Indices 1 2 3 4 5 6 
#
# 1 0.016475 -0.005744 -0.003407 0.000000 -0.005768 0.000000
# 2 -0.005744 0.016688 -0.001270 0.000000 -0.000214 0.000000
# 3 -0.003407 -0.001270 0.013884 0.000000 -0.010267 0.000000
# 4 0.000000 0.000000 0.000000 0.035320 0.000000 -0.005423
# 5 -0.005768 -0.000214 -0.010267 0.000000 0.051511 0.000000
# 6 0.000000 0.000000 0.000000 -0.005423 0.000000 0.061808
#
#
# Mechanical properties :
#
#
# Convention : Reuss Voigt Hill
#
# Bulk Modulus (GPa) = 38.16020 48.66859 43.41440
# Shear Modulus (GPa) = 22.19618 25.56200 23.87909
#
# Velocity S-wave (km/s) = 3.48045 3.73503 3.60999
# Velocity P-wave (km/s) = 6.08090 6.72023 6.40854
#
# Compressibility (1/GPa) = 0.02620532
#
# Stress axis : x y z
#
# Youngs Moduli (GPa) = 60.69633 59.92251 72.02687
#
# Poissons Ratio (x) = 0.34418 0.24539
# Poissons Ratio (y) = 0.34863 0.09150
# Poissons Ratio (z) = 0.20678 0.07612
#
# Static dielectric constant tensor:
#      x y z
#    x 3.283430 0.000000 0.129620 
#    y 0.000000 3.345760 0.000000 
#    z 0.129620 0.000000 3.628550 
# 
# 
# High freq. dielectric constant tensor:
#      x y z
#    x 1.676960 0.000000 0.005200 
#    y 0.000000 1.684050 0.000000 
#    z 0.005200 0.000000 1.736960 
# 
# From -- ./inp_files/69367.got.cif
#   From: 2010.06.25/outbox.cif.g09.slc.cpg/sg15_35_cif.got.tgz:69367.got - 2010.06.28 07:06:18.
