data_PCOD8151876
_publ_section_title
;
Structure prediction by ZEFSAII (Michael W. Deem and Ramdas Pophale) SiO2 
 PCOD8151876
Probable space group: C 2/C
;
_chemical_formula_sum "Si O2"
_cell_formula_units_Z 60
_cell_length_a 23.036995
_cell_length_b 15.006211
_cell_length_c 16.859507
_cell_angle_alpha 90.000000
_cell_angle_beta 151.785504
_cell_angle_gamma 90.000000
_cell_volume 2755.466130
_symmetry_space_group_name_H-M "C 2/C"
_symmetry_group_IT_number 15
_symmetry_cell_setting 'monoclinic'
loop_
_space_group_symop_operation_xyz
x,y,z
-x,y,1/2-z
-x,-y,-z
x,-y,1/2+z
1/2+x,1/2+y,z
1/2-x,1/2+y,1/2-z
1/2-x,1/2-y,-z
1/2+x,1/2-y,1/2+z
loop_
_atom_site_type_symbol
_atom_site_label
_atom_site_fract_x
_atom_site_fract_y
_atom_site_fract_z
Si Si1 0.390613 0.632465 0.535813
Si Si2 0.000000 0.283553 0.750000
Si Si3 0.319740 0.914581 0.594779
Si Si4 0.504571 0.911884 0.552875
Si Si5 0.301283 0.172822 0.318275
Si Si6 0.979326 0.054164 0.137561
Si Si7 0.784228 0.032252 0.164768
Si Si8 0.276375 0.618983 0.784276
O O1 0.474825 0.720324 0.644225
O O2 0.294279 0.620768 0.491818
O O3 0.324004 0.638900 0.371936
O O4 0.487040 0.552450 0.652955
O O5 0.872293 0.336708 0.602390
O O6 0.438088 0.935732 0.792576
O O7 0.283998 0.999533 0.497863
O O8 0.584366 0.842679 0.600641
O O9 0.368743 0.874528 0.392642
O O10 0.500000 0.000000 0.500000
O O11 0.300732 0.110052 0.396980
O O12 0.316186 0.278583 0.341504
O O13 0.000000 0.097060 0.250000
O O14 0.088271 0.080805 0.207968
O O15 0.842347 0.076861 0.941050
O O16 0.813447 0.944605 0.254408
#
# Coordination Sequence:
#
# PCOD8151876 Si02
#       8
#     8   4   8   8   8   8   8   8
#     4  11  21  42  62  97 137 179 220 277 359 408
#     4  12  22  34  66 106 136 170 222 292 344 426
#     4  11  23  39  64 102 136 175 228 280 353 412
#     4  11  23  46  69  97 147 185 225 290 352 415
#     4  11  26  42  71 104 137 187 229 287 350 413
#     4  12  25  47  72  95 140 187 230 287 343 411
#     4  12  24  44  71 104 138 182 233 287 346 419
#     4  12  26  46  71 106 139 182 237 285 350 419
#
# _framework density 21.774899000000001
#
# number of rings (size 3 to 8) (size 9 to 14) (size 15 to 20)
#    0.000    0.533    4.667    4.000    1.867    3.200 
#    0.000    2.000    0.000    0.000    0.000    0.000 
#    0.000    0.000    0.000    0.000    0.000    0.000 
#
# Total GULP energy -371665.798507 kJ/mol
# GULP energy per Si atom -12388.859950 kJ/mol
# Density = 2.172534 g / cm^3
# Si number density = 21.774899 Si / 1000 Ang^3
#
#
#
# Elastic Constant Matrix: (Units=GPa)
#
#
# Indices 1 2 3 4 5 6 
#
# 1 83.1179 19.9204 25.6069 0.0000 -7.2658 0.0000
# 2 19.9204 104.7441 10.5698 0.0000 -11.9459 0.0000
# 3 25.6069 10.5698 122.5871 0.0000 -12.4501 0.0000
# 4 0.0000 0.0000 0.0000 32.2529 0.0000 -3.5889
# 5 -7.2658 -11.9459 -12.4501 0.0000 28.3685 0.0000
# 6 0.0000 0.0000 0.0000 -3.5889 0.0000 25.2855
#
#
#
# Elastic Compliance Matrix: (Units=1/GPa)
#
#
# Indices 1 2 3 4 5 6 
#
# 1 0.013433 -0.002139 -0.002474 0.000000 0.001454 0.000000
# 2 -0.002139 0.010394 -0.000063 0.000000 0.003801 0.000000
# 3 -0.002474 -0.000063 0.009014 0.000000 0.003296 0.000000
# 4 0.000000 0.000000 0.000000 0.031503 0.000000 0.004471
# 5 0.001454 0.003801 0.003296 0.000000 0.038670 0.000000
# 6 0.000000 0.000000 0.000000 0.004471 0.000000 0.040183
#
#
# Mechanical properties :
#
#
# Convention : Reuss Voigt Hill
#
# Bulk Modulus (GPa) = 42.57405 46.96037 44.76721
# Shear Modulus (GPa) = 31.17614 34.13817 32.65715
#
# Velocity S-wave (km/s) = 3.78795 3.96381 3.87688
# Velocity P-wave (km/s) = 6.22300 6.52397 6.37526
#
# Compressibility (1/GPa) = 0.02348849
#
# Stress axis : x y z
#
# Youngs Moduli (GPa) = 74.44322 96.21092 110.93331
#
# Poissons Ratio (x) = 0.20582 0.27444
# Poissons Ratio (y) = 0.15925 0.00702
# Poissons Ratio (z) = 0.18416 0.00609
#
# Static dielectric constant tensor:
#      x y z
#    x 3.855850 0.000000 -0.165280 
#    y 0.000000 3.879740 0.000000 
#    z -0.165280 0.000000 4.067060 
# 
# 
# High freq. dielectric constant tensor:
#      x y z
#    x 1.854190 0.000000 0.001350 
#    y 0.000000 1.845380 0.000000 
#    z 0.001350 0.000000 1.868950 
# 
# From -- ./inp_files/219613.got.cif
#   From: 2010.06.25/outbox.cif.g09.slc.cpg/sg15_110_cif.got.tgz:219613.got - 2010.06.28 07:06:18.
