data_PCOD8151431
_publ_section_title
;
Structure prediction by ZEFSAII (Michael W. Deem and Ramdas Pophale) SiO2 
 PCOD8151431
Probable space group: C 2/C
;
_chemical_formula_sum "Si O2"
_cell_formula_units_Z 56
_cell_length_a 14.474626
_cell_length_b 18.948240
_cell_length_c 19.453702
_cell_angle_alpha 90.000000
_cell_angle_beta 150.974683
_cell_angle_gamma 90.000000
_cell_volume 2588.783498
_symmetry_space_group_name_H-M "C 2/C"
_symmetry_group_IT_number 15
_symmetry_cell_setting 'monoclinic'
loop_
_space_group_symop_operation_xyz
x,y,z
-x,y,1/2-z
-x,-y,-z
x,-y,1/2+z
1/2+x,1/2+y,z
1/2-x,1/2+y,1/2-z
1/2-x,1/2-y,-z
1/2+x,1/2-y,1/2+z
loop_
_atom_site_type_symbol
_atom_site_label
_atom_site_fract_x
_atom_site_fract_y
_atom_site_fract_z
Si Si1 0.036692 0.220978 0.350918
Si Si2 0.160862 0.658806 0.707918
Si Si3 0.906057 0.851029 0.008309
Si Si4 0.181024 0.924490 0.409037
Si Si5 0.544253 0.996226 0.107579
Si Si6 0.216065 0.873852 0.721419
Si Si7 0.605054 0.196336 0.519401
O O1 0.250000 0.250000 0.500000
O O2 0.000000 0.192501 0.250000
O O3 0.909394 0.290709 0.277327
O O4 0.971010 0.156482 0.359792
O O5 0.374350 0.640579 0.864501
O O6 0.056531 0.583972 0.639740
O O7 0.125879 0.703088 0.615191
O O8 0.856089 0.904500 0.036497
O O9 0.858740 0.769963 0.995824
O O10 0.792695 0.868617 0.865984
O O11 0.362596 0.975236 0.531151
O O12 0.229426 0.855358 0.396736
O O13 0.000000 0.958250 0.250000
O O14 0.738791 0.042398 0.240583
O O15 0.500000 0.000000 0.000000
O O16 0.394815 0.829814 0.865156
#
# Coordination Sequence:
#
# PCOD8151431 Si02
#       7
#     8   8   8   8   8   8   8
#     4  12  25  45  70 103 132 178 242 287 340 419
#     4  12  23  46  70  94 142 186 221 292 355 398
#     4  12  22  41  70 101 139 169 235 287 342 412
#     4  11  23  41  66 106 133 183 234 274 339 427
#     4  11  24  46  69  94 144 189 225 280 350 421
#     4  11  24  43  72 100 135 184 225 287 359 398
#     4  11  20  41  70  97 141 178 220 282 350 405
#
# _framework density 21.631782000000001
#
# number of rings (size 3 to 8) (size 9 to 14) (size 15 to 20)
#    0.000    0.571    7.143    2.143    0.000    2.857 
#    7.714    0.000    0.000    0.000    0.000    0.000 
#    0.000    0.000    0.000    0.000    0.000    0.000 
#
# Total GULP energy -347077.908336 kJ/mol
# GULP energy per Si atom -12395.639583 kJ/mol
# Density = 2.158255 g / cm^3
# Si number density = 21.631782 Si / 1000 Ang^3
#
#
#
# Elastic Constant Matrix: (Units=GPa)
#
#
# Indices 1 2 3 4 5 6 
#
# 1 87.4211 20.1949 4.2860 -0.0018 8.2447 0.0003
# 2 20.1949 95.1107 -12.2755 0.0127 5.0257 0.0109
# 3 4.2860 -12.2755 53.4683 0.0038 6.5695 0.0070
# 4 -0.0018 0.0127 0.0038 17.2722 -0.0053 -9.3208
# 5 8.2447 5.0257 6.5695 -0.0053 41.5275 -0.0038
# 6 0.0003 0.0109 0.0070 -9.3208 -0.0038 21.1668
#
#
#
# Elastic Compliance Matrix: (Units=1/GPa)
#
#
# Indices 1 2 3 4 5 6 
#
# 1 0.012307 -0.002689 -0.001370 0.000005 -0.001901 0.000003
# 2 -0.002689 0.011547 0.003032 -0.000018 -0.001343 -0.000015
# 3 -0.001370 0.003032 0.019907 -0.000016 -0.003244 -0.000016
# 4 0.000005 -0.000018 -0.000016 0.075943 0.000017 0.033441
# 5 -0.001901 -0.001343 -0.003244 0.000017 0.025134 0.000014
# 6 0.000003 -0.000015 -0.000016 0.033441 0.000014 0.061969
#
#
# Mechanical properties :
#
#
# Convention : Reuss Voigt Hill
#
# Bulk Modulus (GPa) = 23.97801 28.93455 26.45628
# Shear Modulus (GPa) = 22.44519 30.91296 26.67908
#
# Velocity S-wave (km/s) = 3.22468 3.78438 3.51569
# Velocity P-wave (km/s) = 4.99734 5.70091 5.36068
#
# Compressibility (1/GPa) = 0.04170487
#
# Stress axis : x y z
#
# Youngs Moduli (GPa) = 81.25685 86.59968 50.23321
#
# Poissons Ratio (x) = 0.23291 0.06884
# Poissons Ratio (y) = 0.21854 -0.15229
# Poissons Ratio (z) = 0.11135 -0.26255
#
# Static dielectric constant tensor:
#      x y z
#    x 4.118380 -0.000100 -0.010150 
#    y -0.000100 3.717380 -0.000050 
#    z -0.010150 -0.000050 3.943150 
# 
# 
# High freq. dielectric constant tensor:
#      x y z
#    x 1.845200 0.000000 0.000630 
#    y 0.000000 1.847810 0.000000 
#    z 0.000630 0.000000 1.859710 
# 
# From -- ./inp_files/206997.got.cif
#   From: 2010.06.25/outbox.cif.g09.slc.cpg/sg15_104_cif.got.tgz:206997.got - 2010.06.28 07:06:18.
