data_PCOD8151255
_publ_section_title
;
Structure prediction by ZEFSAII (Michael W. Deem and Ramdas Pophale) SiO2 
 PCOD8151255
Probable space group: C 2/C
;
_chemical_formula_sum "Si O2"
_cell_formula_units_Z 48
_cell_length_a 18.878444
_cell_length_b 13.597726
_cell_length_c 19.671647
_cell_angle_alpha 90.000000
_cell_angle_beta 28.842849
_cell_angle_gamma 90.000000
_cell_volume 2436.062954
_symmetry_space_group_name_H-M "C 2/C"
_symmetry_group_IT_number 15
_symmetry_cell_setting 'monoclinic'
loop_
_space_group_symop_operation_xyz
x,y,z
-x,y,1/2-z
-x,-y,-z
x,-y,1/2+z
1/2+x,1/2+y,z
1/2-x,1/2+y,1/2-z
1/2-x,1/2-y,-z
1/2+x,1/2-y,1/2+z
loop_
_atom_site_type_symbol
_atom_site_label
_atom_site_fract_x
_atom_site_fract_y
_atom_site_fract_z
Si Si1 0.190628 0.228089 0.360256
Si Si2 0.436360 0.478031 0.369333
Si Si3 0.615949 0.921735 0.598497
Si Si4 0.579625 0.446498 0.871345
Si Si5 0.506384 0.725152 0.638752
Si Si6 0.632641 0.049820 0.926289
O O1 0.135306 0.162792 0.343256
O O2 0.366594 0.223826 0.220006
O O3 0.120703 0.183221 0.487026
O O4 0.129807 0.337656 0.404753
O O5 0.500000 0.534289 0.250000
O O6 0.269092 0.446427 0.504073
O O7 0.458745 0.553700 0.412833
O O8 0.536791 0.376744 0.287866
O O9 0.500000 0.967945 0.750000
O O10 0.587877 0.803766 0.618679
O O11 0.608939 0.964347 0.527535
O O12 0.716021 0.506147 0.727286
O O13 0.500000 0.500000 0.000000
O O14 0.500000 0.000000 0.000000
#
# Coordination Sequence:
#
# PCOD8151255 Si02
#       6
#     8   8   8   8   8   8
#     4  11  21  39  61  94 123 164 214 257 311 373
#     4  12  21  38  57  91 129 165 208 263 325 379
#     4  11  23  37  60  95 130 165 205 262 332 388
#     4  12  23  39  63  89 127 172 213 259 312 381
#     4  11  20  37  60  92 126 161 206 258 330 385
#     4  11  24  42  65  93 129 169 215 262 310 378
#
# _framework density 19.703924000000001
#
# number of rings (size 3 to 8) (size 9 to 14) (size 15 to 20)
#    0.000    0.667    5.000    5.000    2.333    0.000 
#    0.000    0.000    0.000    2.000    0.000    0.000 
#    0.000    0.000    0.000    0.000    0.000    0.000 
#
# Total GULP energy -297467.432021 kJ/mol
# GULP energy per Si atom -12394.476334 kJ/mol
# Density = 1.965908 g / cm^3
# Si number density = 19.703924 Si / 1000 Ang^3
#
#
#
# Elastic Constant Matrix: (Units=GPa)
#
#
# Indices 1 2 3 4 5 6 
#
# 1 158.5152 60.1243 60.6543 -0.0003 -2.1070 0.0004
# 2 60.1243 71.6493 29.3027 -0.0007 0.1876 0.0009
# 3 60.6543 29.3027 132.2813 -0.0003 12.9311 0.0002
# 4 -0.0003 -0.0007 -0.0003 20.5580 0.0001 0.1420
# 5 -2.1070 0.1876 12.9311 0.0001 42.9598 -0.0002
# 6 0.0004 0.0009 0.0002 0.1420 -0.0002 39.4148
#
#
#
# Elastic Compliance Matrix: (Units=1/GPa)
#
#
# Indices 1 2 3 4 5 6 
#
# 1 0.010379 -0.007374 -0.003275 0.000000 0.001527 0.000000
# 2 -0.007374 0.020627 -0.001179 0.000001 -0.000097 0.000000
# 3 -0.003275 -0.001179 0.009621 0.000000 -0.003051 0.000000
# 4 0.000000 0.000001 0.000000 0.048644 0.000000 -0.000175
# 5 0.001527 -0.000097 -0.003051 0.000000 0.024271 0.000000
# 6 0.000000 0.000000 0.000000 -0.000175 0.000000 0.025372
#
#
# Mechanical properties :
#
#
# Convention : Reuss Voigt Hill
#
# Bulk Modulus (GPa) = 58.92178 73.62315 66.27247
# Shear Modulus (GPa) = 29.72195 34.74415 32.23305
#
# Velocity S-wave (km/s) = 3.88806 4.20374 4.04898
# Velocity P-wave (km/s) = 7.07987 7.81074 7.45427
#
# Compressibility (1/GPa) = 0.01697165
#
# Stress axis : x y z
#
# Youngs Moduli (GPa) = 96.34980 48.47998 103.94417
#
# Poissons Ratio (x) = 0.35750 0.34039
# Poissons Ratio (y) = 0.71049 0.12251
# Poissons Ratio (z) = 0.31552 0.05714
#
# Static dielectric constant tensor:
#      x y z
#    x 0.176970 -0.000020 0.569890 
#    y -0.000020 3.490940 0.000000 
#    z 0.569890 0.000000 3.885610 
# 
# 
# High freq. dielectric constant tensor:
#      x y z
#    x 1.773230 0.000000 -0.000570 
#    y 0.000000 1.724400 0.000000 
#    z -0.000570 0.000000 1.794320 
# 
# From -- ./inp_files/69848.got.cif
#   From: 2010.06.25/outbox.cif.g09.slc.cpg/sg15_35_cif.got.tgz:69848.got - 2010.06.28 07:06:18.
