data_PCOD8151690
_publ_section_title
;
Structure prediction by ZEFSAII (Michael W. Deem and Ramdas Pophale) SiO2 
 PCOD8151690
Probable space group: C 2/C
;
_chemical_formula_sum "Si O2"
_cell_formula_units_Z 44
_cell_length_a 7.478371
_cell_length_b 13.763553
_cell_length_c 20.287520
_cell_angle_alpha 90.000000
_cell_angle_beta 113.422298
_cell_angle_gamma 90.000000
_cell_volume 1916.107763
_symmetry_space_group_name_H-M "C 2/C"
_symmetry_group_IT_number 15
_symmetry_cell_setting 'monoclinic'
loop_
_space_group_symop_operation_xyz
x,y,z
-x,y,1/2-z
-x,-y,-z
x,-y,1/2+z
1/2+x,1/2+y,z
1/2-x,1/2+y,1/2-z
1/2-x,1/2-y,-z
1/2+x,1/2-y,1/2+z
loop_
_atom_site_type_symbol
_atom_site_label
_atom_site_fract_x
_atom_site_fract_y
_atom_site_fract_z
Si Si1 0.050166 0.826994 0.665319
Si Si2 0.809332 0.172877 0.652433
Si Si3 0.476383 0.389003 0.985983
Si Si4 0.423601 0.107604 0.002614
Si Si5 0.151121 0.243583 0.612645
Si Si6 0.500000 0.501081 0.250000
O O1 0.236825 0.755365 0.692867
O O2 0.989792 0.857195 0.583200
O O3 0.100843 0.926451 0.711783
O O4 0.868954 0.766404 0.671310
O O5 0.634489 0.159093 0.574458
O O6 0.012886 0.210637 0.652390
O O7 0.840215 0.068929 0.692645
O O8 0.500000 0.500000 0.000000
O O9 0.257336 0.369067 0.976386
O O10 0.641542 0.339895 0.055791
O O11 0.596477 0.157697 0.066938
O O12 0.500000 0.000000 0.000000
#
# Coordination Sequence:
#
# PCOD8151690 Si02
#       6
#     8   8   8   8   8   4
#     4  12  25  47  73 102 140 194 239 289 362 426
#     4  11  25  49  70  98 148 184 236 302 348 421
#     4  11  21  38  68 108 141 173 226 294 364 430
#     4  11  21  40  70 110 141 173 225 302 371 421
#     4  11  22  44  73 108 137 175 230 305 373 423
#     4  12  30  50  68 104 144 196 262 286 330 448
#
# _framework density 22.963218999999999
#
# number of rings (size 3 to 8) (size 9 to 14) (size 15 to 20)
#    0.000    0.727    3.636    6.000    5.091    0.000 
#    0.000    1.818    0.000    0.000    0.000    0.000 
#    0.000    0.000    0.000    0.000    0.000    0.000 
#
# Total GULP energy -272675.478411 kJ/mol
# GULP energy per Si atom -12394.339928 kJ/mol
# Density = 2.291095 g / cm^3
# Si number density = 22.963219 Si / 1000 Ang^3
#
#
#
# Elastic Constant Matrix: (Units=GPa)
#
#
# Indices 1 2 3 4 5 6 
#
# 1 87.9931 47.1917 47.2931 0.0000 -19.0850 0.0000
# 2 47.1917 179.1016 43.4377 0.0000 -19.8194 0.0000
# 3 47.2931 43.4377 65.0610 0.0000 -5.9693 0.0000
# 4 0.0000 0.0000 0.0000 54.8516 0.0000 -1.1873
# 5 -19.0850 -19.8194 -5.9693 0.0000 17.9858 0.0000
# 6 0.0000 0.0000 0.0000 -1.1873 0.0000 46.4462
#
#
#
# Elastic Compliance Matrix: (Units=1/GPa)
#
#
# Indices 1 2 3 4 5 6 
#
# 1 0.024325 -0.000399 -0.015561 0.000000 0.020207 0.000000
# 2 -0.000399 0.007374 -0.004050 0.000000 0.006359 0.000000
# 3 -0.015561 -0.004050 0.028324 0.000000 -0.011575 0.000000
# 4 0.000000 0.000000 0.000000 0.018241 0.000000 0.000466
# 5 0.020207 0.006359 -0.011575 0.000000 0.080206 0.000000
# 6 0.000000 0.000000 0.000000 0.000466 0.000000 0.021542
#
#
# Mechanical properties :
#
#
# Convention : Reuss Voigt Hill
#
# Bulk Modulus (GPa) = 49.99471 67.55564 58.77518
# Shear Modulus (GPa) = 22.05540 36.80560 29.43050
#
# Velocity S-wave (km/s) = 3.10250 4.00785 3.58388
# Velocity P-wave (km/s) = 5.88667 7.13443 6.54038
#
# Compressibility (1/GPa) = 0.02000212
#
# Stress axis : x y z
#
# Youngs Moduli (GPa) = 41.10982 135.60263 35.30596
#
# Poissons Ratio (x) = 0.05413 0.54941
# Poissons Ratio (y) = 0.01641 0.14299
# Poissons Ratio (z) = 0.63973 0.54919
#
# Static dielectric constant tensor:
#      x y z
#    x 4.009090 0.000000 -0.176380 
#    y 0.000000 4.337010 0.000000 
#    z -0.176380 0.000000 4.128230 
# 
# 
# High freq. dielectric constant tensor:
#      x y z
#    x 1.899300 0.000000 -0.009580 
#    y 0.000000 1.926670 0.000000 
#    z -0.009580 0.000000 1.907060 
# 
# From -- ./inp_files/230300.got.cif
#   From: 2010.06.25/outbox.cif.g09.slc.cpg/sg15_116_cif.got.tgz:230300.got - 2010.06.28 07:06:18.
