data_PCOD8151491
_publ_section_title
;
Structure prediction by ZEFSAII (Michael W. Deem and Ramdas Pophale) SiO2 
 PCOD8151491
Probable space group: C 2/C
;
_chemical_formula_sum "Si O2"
_cell_formula_units_Z 48
_cell_length_a 12.550270
_cell_length_b 15.571956
_cell_length_c 11.899946
_cell_angle_alpha 90.000000
_cell_angle_beta 79.382749
_cell_angle_gamma 90.000000
_cell_volume 2285.818219
_symmetry_space_group_name_H-M "C 2/C"
_symmetry_group_IT_number 15
_symmetry_cell_setting 'monoclinic'
loop_
_space_group_symop_operation_xyz
x,y,z
-x,y,1/2-z
-x,-y,-z
x,-y,1/2+z
1/2+x,1/2+y,z
1/2-x,1/2+y,1/2-z
1/2-x,1/2-y,-z
1/2+x,1/2-y,1/2+z
loop_
_atom_site_type_symbol
_atom_site_label
_atom_site_fract_x
_atom_site_fract_y
_atom_site_fract_z
Si Si1 0.948568 0.821391 0.140156
Si Si2 0.752288 0.402850 0.417541
Si Si3 0.116674 0.715916 0.769613
Si Si4 0.129437 0.715753 0.015515
Si Si5 0.384486 0.942414 0.817267
Si Si6 0.714430 0.163156 0.339922
O O1 0.873286 0.898037 0.102243
O O2 0.875986 0.736022 0.159243
O O3 0.000000 0.848849 0.250000
O O4 0.050747 0.798578 0.041956
O O5 0.827913 0.354670 0.316533
O O6 0.807225 0.496871 0.408494
O O7 0.759569 0.356555 0.535967
O O8 0.179849 0.805669 0.747464
O O9 0.000000 0.738332 0.750000
O O10 0.112694 0.676919 0.895397
O O11 0.098030 0.644413 0.114018
O O12 0.250000 0.750000 0.000000
O O13 0.500000 0.980559 0.750000
O O14 0.322054 0.923620 0.713530
#
# Coordination Sequence:
#
# PCOD8151491 Si02
#       6
#     8   8   8   8   8   8
#     4  11  20  44  69  95 129 185 228 273 329 413
#     4  11  26  40  66  99 140 174 220 286 352 389
#     4  11  22  38  65  98 126 175 229 274 334 408
#     4  12  21  40  69  97 128 175 234 272 327 412
#     4  12  25  43  67 102 135 180 221 290 342 395
#     4  11  21  44  65  92 136 175 230 277 335 402
#
# _framework density 20.999046
#
# number of rings (size 3 to 8) (size 9 to 14) (size 15 to 20)
#    0.000    0.667    5.000    5.500    2.333    0.667 
#    0.000    1.667    0.000    0.000    0.000    0.000 
#    0.000    0.000    0.000    0.000    0.000    0.000 
#
# Total GULP energy -297461.772671 kJ/mol
# GULP energy per Si atom -12394.240528 kJ/mol
# Density = 2.095125 g / cm^3
# Si number density = 20.999046 Si / 1000 Ang^3
#
#
#
# Elastic Constant Matrix: (Units=GPa)
#
#
# Indices 1 2 3 4 5 6 
#
# 1 156.4225 26.6086 35.9042 0.0000 -1.5616 0.0000
# 2 26.6086 47.3570 8.7694 0.0000 -1.7997 0.0000
# 3 35.9042 8.7694 130.2524 0.0000 16.9453 0.0000
# 4 0.0000 0.0000 0.0000 28.2142 0.0000 -4.4748
# 5 -1.5616 -1.7997 16.9453 0.0000 45.3156 0.0000
# 6 0.0000 0.0000 0.0000 -4.4748 0.0000 34.5403
#
#
#
# Elastic Compliance Matrix: (Units=1/GPa)
#
#
# Indices 1 2 3 4 5 6 
#
# 1 0.007491 -0.003823 -0.001914 0.000000 0.000822 0.000000
# 2 -0.003823 0.023426 -0.000659 0.000000 0.001045 0.000000
# 3 -0.001914 -0.000659 0.008684 0.000000 -0.003339 0.000000
# 4 0.000000 0.000000 0.000000 0.036187 0.000000 0.004688
# 5 0.000822 0.001045 -0.003339 0.000000 0.023386 0.000000
# 6 0.000000 0.000000 0.000000 0.004688 0.000000 0.029559
#
#
# Mechanical properties :
#
#
# Convention : Reuss Voigt Hill
#
# Bulk Modulus (GPa) = 37.30347 52.95514 45.12930
# Shear Modulus (GPa) = 33.23088 39.13066 36.18077
#
# Velocity S-wave (km/s) = 3.98237 4.32145 4.15537
# Velocity P-wave (km/s) = 6.24089 7.08326 6.67537
#
# Compressibility (1/GPa) = 0.02680716
#
# Stress axis : x y z
#
# Youngs Moduli (GPa) = 133.49477 42.68736 115.15486
#
# Poissons Ratio (x) = 0.16320 0.22046
# Poissons Ratio (y) = 0.51038 0.07592
# Poissons Ratio (z) = 0.25557 0.02814
#
# Static dielectric constant tensor:
#      x y z
#    x 4.345520 0.000000 0.047380 
#    y 0.000000 3.605590 0.000000 
#    z 0.047380 0.000000 3.958840 
# 
# 
# High freq. dielectric constant tensor:
#      x y z
#    x 1.844460 0.000000 0.002860 
#    y 0.000000 1.783630 0.000000 
#    z 0.002860 0.000000 1.838000 
# 
# From -- ./inp_files/87265.got.cif
#   From: 2010.06.25/outbox.cif.g09.slc.cpg/sg15_44_cif.got.tgz:87265.got - 2010.06.28 07:06:18.
