data_PCOD8151050
_publ_section_title
;
Structure prediction by ZEFSAII (Michael W. Deem and Ramdas Pophale) SiO2 
 PCOD8151050
Probable space group: C 2/C
;
_chemical_formula_sum "Si O2"
_cell_formula_units_Z 60
_cell_length_a 23.898950
_cell_length_b 11.948766
_cell_length_c 20.196445
_cell_angle_alpha 90.000000
_cell_angle_beta 147.254935
_cell_angle_gamma 90.000000
_cell_volume 3119.574908
_symmetry_space_group_name_H-M "C 2/C"
_symmetry_group_IT_number 15
_symmetry_cell_setting 'monoclinic'
loop_
_space_group_symop_operation_xyz
x,y,z
-x,y,1/2-z
-x,-y,-z
x,-y,1/2+z
1/2+x,1/2+y,z
1/2-x,1/2+y,1/2-z
1/2-x,1/2-y,-z
1/2+x,1/2-y,1/2+z
loop_
_atom_site_type_symbol
_atom_site_label
_atom_site_fract_x
_atom_site_fract_y
_atom_site_fract_z
Si Si1 0.176430 0.552146 0.558078
Si Si2 0.499270 0.225717 0.114029
Si Si3 0.501042 0.335518 0.986471
Si Si4 0.672757 0.051230 0.282091
Si Si5 0.228152 0.883044 0.482526
Si Si6 0.999087 0.582992 0.562355
Si Si7 0.671748 0.499900 0.675509
Si Si8 0.000000 0.159527 0.750000
O O1 0.228476 0.551228 0.537798
O O2 0.262222 0.554912 0.700319
O O3 0.110601 0.664721 0.500381
O O4 0.101162 0.444777 0.492210
O O5 0.594470 0.150199 0.185683
O O6 0.522540 0.260557 0.211236
O O7 0.494385 0.330771 0.060008
O O8 0.503756 0.212759 0.958354
O O9 0.400930 0.405174 0.863186
O O10 0.604850 0.403615 0.072523
O O11 0.718974 0.063068 0.400944
O O12 0.604901 0.937093 0.209284
O O13 0.759654 0.056617 0.312728
O O14 0.250000 0.750000 0.500000
O O15 0.105144 0.910748 0.365910
O O16 0.000000 0.500000 0.500000
#
# Coordination Sequence:
#
# PCOD8151050 Si02
#       8
#     8   8   8   8   8   8   8   4
#     4  11  22  38  60  95 126 167 210 253 335 378
#     4  11  19  35  60  86 130 158 205 259 310 401
#     4  11  23  38  58  90 125 166 219 262 321 372
#     4  11  22  38  60  95 126 167 210 253 335 378
#     4  12  24  38  64  97 130 169 200 270 326 375
#     4  11  21  40  63  89 123 170 217 266 303 387
#     4  11  24  37  60  90 130 171 206 275 320 380
#     4  12  22  34  56  98 128 172 194 262 334 384
#
# _framework density 19.23339
#
# number of rings (size 3 to 8) (size 9 to 14) (size 15 to 20)
#    0.000    0.800    6.667    1.600    0.000    5.867 
#    0.000    0.000    0.000    4.800    0.000    0.000 
#    0.000    0.000    0.000    0.000    0.000    0.000 
#
# Total GULP energy -371957.526945 kJ/mol
# GULP energy per Si atom -12398.584231 kJ/mol
# Density = 1.918961 g / cm^3
# Si number density = 19.233390 Si / 1000 Ang^3
#
#
#
# Elastic Constant Matrix: (Units=GPa)
#
#
# Indices 1 2 3 4 5 6 
#
# 1 98.7151 22.8170 49.4249 0.0000 -1.3701 0.0000
# 2 22.8170 87.0447 36.3095 0.0000 1.8803 0.0000
# 3 49.4249 36.3095 141.0865 0.0000 8.3364 0.0000
# 4 0.0000 0.0000 0.0000 26.7574 0.0000 -1.5112
# 5 -1.3701 1.8803 8.3364 0.0000 39.6592 0.0000
# 6 0.0000 0.0000 0.0000 -1.5112 0.0000 27.1801
#
#
#
# Elastic Compliance Matrix: (Units=1/GPa)
#
#
# Indices 1 2 3 4 5 6 
#
# 1 0.012559 -0.001627 -0.004061 0.000000 0.001365 0.000000
# 2 -0.001627 0.013081 -0.002791 0.000000 -0.000090 0.000000
# 3 -0.004061 -0.002791 0.009345 0.000000 -0.001972 0.000000
# 4 0.000000 0.000000 0.000000 0.037491 0.000000 0.002084
# 5 0.001365 -0.000090 -0.001972 0.000000 0.025681 0.000000
# 6 0.000000 0.000000 0.000000 0.002084 0.000000 0.036908
#
#
# Mechanical properties :
#
#
# Convention : Reuss Voigt Hill
#
# Bulk Modulus (GPa) = 55.47649 60.43879 57.95764
# Shear Modulus (GPa) = 31.63907 33.27233 32.45570
#
# Velocity S-wave (km/s) = 4.06027 4.16375 4.11233
# Velocity P-wave (km/s) = 7.13355 7.38971 7.26276
#
# Compressibility (1/GPa) = 0.01802565
#
# Stress axis : x y z
#
# Youngs Moduli (GPa) = 79.62612 76.44592 107.00378
#
# Poissons Ratio (x) = 0.12440 0.43458
# Poissons Ratio (y) = 0.12958 0.29866
# Poissons Ratio (z) = 0.32339 0.21337
#
# Static dielectric constant tensor:
#      x y z
#    x 3.661420 0.000000 0.153840 
#    y 0.000000 3.365580 0.000000 
#    z 0.153840 0.000000 3.914580 
# 
# 
# High freq. dielectric constant tensor:
#      x y z
#    x 1.748480 0.000000 0.014190 
#    y 0.000000 1.717160 0.000000 
#    z 0.014190 0.000000 1.771080 
# 
# From -- ./inp_files/255563.got.cif
#   From: 2010.06.25/outbox.cif.g09.slc.cpg/sg15_128_cif.got.tgz:255563.got - 2010.06.28 07:06:18.
