data_PCOD8151829
_publ_section_title
;
Structure prediction by ZEFSAII (Michael W. Deem and Ramdas Pophale) SiO2 
 PCOD8151829
Probable space group: C 2/C
;
_chemical_formula_sum "Si O2"
_cell_formula_units_Z 40
_cell_length_a 12.143461
_cell_length_b 23.717965
_cell_length_c 10.745124
_cell_angle_alpha 90.000000
_cell_angle_beta 37.561303
_cell_angle_gamma 90.000000
_cell_volume 1886.615350
_symmetry_space_group_name_H-M "C 2/C"
_symmetry_group_IT_number 15
_symmetry_cell_setting 'monoclinic'
loop_
_space_group_symop_operation_xyz
x,y,z
-x,y,1/2-z
-x,-y,-z
x,-y,1/2+z
1/2+x,1/2+y,z
1/2-x,1/2+y,1/2-z
1/2-x,1/2-y,-z
1/2+x,1/2-y,1/2+z
loop_
_atom_site_type_symbol
_atom_site_label
_atom_site_fract_x
_atom_site_fract_y
_atom_site_fract_z
Si Si1 0.079488 0.313783 0.818663
Si Si2 0.645522 0.464028 0.719986
Si Si3 0.367108 0.424009 0.154562
Si Si4 0.012127 0.808771 0.095656
Si Si5 0.505928 0.105427 0.880472
O O1 0.291133 0.326046 0.625974
O O2 0.000000 0.323493 0.750000
O O3 0.047561 0.251584 0.905966
O O4 0.996017 0.354895 0.996860
O O5 0.500000 0.443469 0.750000
O O6 0.666411 0.532311 0.701655
O O7 0.842163 0.438384 0.526722
O O8 0.559983 0.441840 0.925237
O O9 0.373886 0.358828 0.189868
O O10 0.194942 0.429197 0.216477
O O11 0.000000 0.796217 0.250000
O O12 0.500000 0.136937 0.750000
#
# Coordination Sequence:
#
# PCOD8151829 Si02
#       5
#     8   8   8   8   8
#     4  11  23  41  67  99 135 173 226 274 334 393
#     4  11  23  43  64  94 133 179 217 276 329 395
#     4  11  23  41  67  93 132 175 223 271 335 389
#     4  11  21  41  66  98 132 173 223 284 329 393
#     4  12  24  44  67 100 139 179 219 274 328 399
#
# _framework density 21.201991
#
# number of rings (size 3 to 8) (size 9 to 14) (size 15 to 20)
#    0.000    0.800    4.000    6.000    0.000    0.000 
#    0.000    5.000    0.000    0.000    0.000    0.000 
#    0.000    0.000    0.000    0.000    0.000    0.000 
#
# Total GULP energy -247832.414119 kJ/mol
# GULP energy per Si atom -12391.620706 kJ/mol
# Density = 2.115373 g / cm^3
# Si number density = 21.201991 Si / 1000 Ang^3
#
#
#
# Elastic Constant Matrix: (Units=GPa)
#
#
# Indices 1 2 3 4 5 6 
#
# 1 90.4591 51.9204 37.5317 0.0000 -8.3989 0.0000
# 2 51.9204 112.5769 27.7957 0.0000 -0.1855 0.0000
# 3 37.5317 27.7957 104.4075 0.0000 -16.0144 0.0000
# 4 0.0000 0.0000 0.0000 23.7613 0.0000 -0.5120
# 5 -8.3989 -0.1855 -16.0144 0.0000 47.1028 0.0000
# 6 0.0000 0.0000 0.0000 -0.5120 0.0000 26.3508
#
#
#
# Elastic Compliance Matrix: (Units=1/GPa)
#
#
# Indices 1 2 3 4 5 6 
#
# 1 0.016710 -0.006724 -0.003971 0.000000 0.001603 0.000000
# 2 -0.006724 0.012247 -0.001076 0.000000 -0.001517 0.000000
# 3 -0.003971 -0.001076 0.011798 0.000000 0.003299 0.000000
# 4 0.000000 0.000000 0.000000 0.042103 0.000000 0.000818
# 5 0.001603 -0.001517 0.003299 0.000000 0.022632 0.000000
# 6 0.000000 0.000000 0.000000 0.000818 0.000000 0.037965
#
#
# Mechanical properties :
#
#
# Convention : Reuss Voigt Hill
#
# Bulk Modulus (GPa) = 58.09383 60.21546 59.15465
# Shear Modulus (GPa) = 28.94620 32.12270 30.53445
#
# Velocity S-wave (km/s) = 3.69895 3.89662 3.79907
# Velocity P-wave (km/s) = 6.76037 6.97907 6.87059
#
# Compressibility (1/GPa) = 0.01721353
#
# Stress axis : x y z
#
# Youngs Moduli (GPa) = 59.84333 81.65302 84.76163
#
# Poissons Ratio (x) = 0.54901 0.33659
# Poissons Ratio (y) = 0.40237 0.09121
# Poissons Ratio (z) = 0.23764 0.08786
#
# Static dielectric constant tensor:
#      x y z
#    x 3.681260 0.000000 -0.034480 
#    y 0.000000 3.902250 0.000000 
#    z -0.034480 0.000000 3.894610 
# 
# 
# High freq. dielectric constant tensor:
#      x y z
#    x 1.822160 0.000000 -0.017220 
#    y 0.000000 1.826290 0.000000 
#    z -0.017220 0.000000 1.848790 
# 
# From -- ./inp_files/41050.got.cif
#   From: 2010.06.25/outbox.cif.g09.slc.cpg/sg15_21_cif.got.tgz:41050.got - 2010.06.28 07:06:18.
