data_PCOD8151446
_publ_section_title
;
Structure prediction by ZEFSAII (Michael W. Deem and Ramdas Pophale) SiO2 
 PCOD8151446
Probable space group: C 2/C
;
_chemical_formula_sum "Si O2"
_cell_formula_units_Z 32
_cell_length_a 8.500625
_cell_length_b 21.110250
_cell_length_c 11.955232
_cell_angle_alpha 90.000000
_cell_angle_beta 38.510070
_cell_angle_gamma 90.000000
_cell_volume 1335.819416
_symmetry_space_group_name_H-M "C 2/C"
_symmetry_group_IT_number 15
_symmetry_cell_setting 'monoclinic'
loop_
_space_group_symop_operation_xyz
x,y,z
-x,y,1/2-z
-x,-y,-z
x,-y,1/2+z
1/2+x,1/2+y,z
1/2-x,1/2+y,1/2-z
1/2-x,1/2-y,-z
1/2+x,1/2-y,1/2+z
loop_
_atom_site_type_symbol
_atom_site_label
_atom_site_fract_x
_atom_site_fract_y
_atom_site_fract_z
Si Si1 0.611918 0.866650 0.345142
Si Si2 0.659378 0.686507 0.990060
Si Si3 0.728941 0.001757 0.707202
Si Si4 0.882567 0.363427 0.693724
O O1 0.786141 0.818311 0.174641
O O2 0.328416 0.869910 0.449494
O O3 0.584751 0.840363 0.487561
O O4 0.729625 0.937028 0.287469
O O5 0.750000 0.750000 0.000000
O O6 0.365801 0.679243 0.178612
O O7 0.500000 0.010399 0.750000
O O8 0.689275 0.936129 0.795434
O O9 0.000000 0.000000 0.500000
O O10 0.000000 0.355892 0.750000
#
# Coordination Sequence:
#
# PCOD8151446 Si02
#       4
#     8   8   8   8
#     4  11  23  43  73 101 141 196 246 296 365 433
#     4  11  25  45  74 103 137 193 259 298 351 446
#     4  11  20  42  68 109 151 189 242 307 370 447
#     4  11  25  42  69 108 151 186 240 306 379 433
#
# _framework density 23.955334000000001
#
# number of rings (size 3 to 8) (size 9 to 14) (size 15 to 20)
#    0.000    1.000    5.000    1.500    7.000    1.000 
#    0.000    3.750    0.000    0.000    0.000    0.000 
#    0.000    0.000    0.000    0.000    0.000    0.000 
#
# Total GULP energy -198310.217262 kJ/mol
# GULP energy per Si atom -12394.388579 kJ/mol
# Density = 2.390081 g / cm^3
# Si number density = 23.955334 Si / 1000 Ang^3
#
#
#
# Elastic Constant Matrix: (Units=GPa)
#
#
# Indices 1 2 3 4 5 6 
#
# 1 75.8605 42.8035 62.9220 0.0000 6.3758 0.0000
# 2 42.8035 133.1860 62.3972 0.0000 2.1472 0.0000
# 3 62.9220 62.3972 197.7303 0.0000 27.5313 0.0000
# 4 0.0000 0.0000 0.0000 32.7435 0.0000 -4.9438
# 5 6.3758 2.1472 27.5313 0.0000 52.2836 0.0000
# 6 0.0000 0.0000 0.0000 -4.9438 0.0000 31.1168
#
#
#
# Elastic Compliance Matrix: (Units=1/GPa)
#
#
# Indices 1 2 3 4 5 6 
#
# 1 0.019541 -0.003926 -0.005040 0.000000 0.000432 0.000000
# 2 -0.003926 0.009669 -0.001957 0.000000 0.001112 0.000000
# 3 -0.005040 -0.001957 0.007750 0.000000 -0.003386 0.000000
# 4 0.000000 0.000000 0.000000 0.031291 0.000000 0.004972
# 5 0.000432 0.001112 -0.003386 0.000000 0.020811 0.000000
# 6 0.000000 0.000000 0.000000 0.004972 0.000000 0.032927
#
#
# Mechanical properties :
#
#
# Convention : Reuss Voigt Hill
#
# Bulk Modulus (GPa) = 66.15809 82.55800 74.35804
# Shear Modulus (GPa) = 33.58590 39.13905 36.36247
#
# Velocity S-wave (km/s) = 3.74842 4.04646 3.90029
# Velocity P-wave (km/s) = 6.81259 7.50799 7.16873
#
# Compressibility (1/GPa) = 0.01511531
#
# Stress axis : x y z
#
# Youngs Moduli (GPa) = 51.17421 103.42532 129.03202
#
# Poissons Ratio (x) = 0.40605 0.65027
# Poissons Ratio (y) = 0.20091 0.25247
# Poissons Ratio (z) = 0.25790 0.20237
#
# Static dielectric constant tensor:
#      x y z
#    x 4.015680 0.000000 0.007970 
#    y 0.000000 4.568370 0.000000 
#    z 0.007970 0.000000 4.721550 
# 
# 
# High freq. dielectric constant tensor:
#      x y z
#    x 1.917340 0.000000 0.001240 
#    y 0.000000 1.949390 0.000000 
#    z 0.001240 0.000000 1.970130 
# 
# From -- ./inp_files/78883.got.cif
#   From: 2010.06.25/outbox.cif.g09.slc.cpg/sg15_40_cif.got.tgz:78883.got - 2010.06.28 07:06:18.
