data_PCOD8151921
_publ_section_title
;
Structure prediction by ZEFSAII (Michael W. Deem and Ramdas Pophale) SiO2 
 PCOD8151921
Probable space group: C 2/C
;
_chemical_formula_sum "Si O2"
_cell_formula_units_Z 40
_cell_length_a 8.836190
_cell_length_b 18.207606
_cell_length_c 12.303139
_cell_angle_alpha 90.000000
_cell_angle_beta 90.409775
_cell_angle_gamma 90.000000
_cell_volume 1979.350550
_symmetry_space_group_name_H-M "C 2/C"
_symmetry_group_IT_number 15
_symmetry_cell_setting 'monoclinic'
loop_
_space_group_symop_operation_xyz
x,y,z
-x,y,1/2-z
-x,-y,-z
x,-y,1/2+z
1/2+x,1/2+y,z
1/2-x,1/2+y,1/2-z
1/2-x,1/2-y,-z
1/2+x,1/2-y,1/2+z
loop_
_atom_site_type_symbol
_atom_site_label
_atom_site_fract_x
_atom_site_fract_y
_atom_site_fract_z
Si Si1 0.584247 0.749900 0.049553
Si Si2 0.210062 0.608863 0.139798
Si Si3 0.607132 0.271962 0.154866
Si Si4 0.000000 0.492821 0.250000
Si Si5 0.500000 0.654927 0.250000
Si Si6 0.369908 0.126913 0.598185
O O1 0.584534 0.704460 0.160671
O O2 0.529869 0.833397 0.072334
O O3 0.750000 0.750000 0.000000
O O4 0.468227 0.713683 0.962963
O O5 0.137310 0.686197 0.174064
O O6 0.377519 0.602785 0.191297
O O7 0.111473 0.542000 0.180953
O O8 0.217288 0.601337 0.010071
O O9 0.500000 0.301751 0.250000
O O10 0.765627 0.314778 0.162043
O O11 0.897884 0.443956 0.170569
#
# Coordination Sequence:
#
# PCOD8151921 Si02
#       6
#     8   8   8   4   4   8
#     4  11  23  37  71 108 130 175 230 298 340 396
#     4  11  23  45  65  98 136 184 218 286 344 410
#     4  11  21  42  71 100 139 175 238 285 339 398
#     4  12  27  44  70  93 144 192 218 274 363 424
#     4  12  21  42  68  97 140 172 232 284 345 394
#     4  11  24  46  66 101 138 180 234 287 337 413
#
# _framework density 20.208648
#
# number of rings (size 3 to 8) (size 9 to 14) (size 15 to 20)
#    0.000    0.800    5.000    3.600    5.600    0.000 
#    1.800    1.000    0.000    0.000    0.000    0.000 
#    0.000    0.000    0.000    0.000    0.000    0.000 
#
# Total GULP energy -248096.273156 kJ/mol
# GULP energy per Si atom -12404.813658 kJ/mol
# Density = 2.016265 g / cm^3
# Si number density = 20.208648 Si / 1000 Ang^3
#
#
#
# Elastic Constant Matrix: (Units=GPa)
#
#
# Indices 1 2 3 4 5 6 
#
# 1 117.3313 50.8824 39.4894 0.0000 -2.5449 0.0000
# 2 50.8824 113.7280 50.5793 0.0000 -1.9978 0.0000
# 3 39.4894 50.5793 116.2863 0.0000 1.8104 0.0000
# 4 0.0000 0.0000 0.0000 30.1499 0.0000 -0.7577
# 5 -2.5449 -1.9978 1.8104 0.0000 46.1913 0.0000
# 6 0.0000 0.0000 0.0000 -0.7577 0.0000 23.0731
#
#
#
# Elastic Compliance Matrix: (Units=1/GPa)
#
#
# Indices 1 2 3 4 5 6 
#
# 1 0.010937 -0.004003 -0.001981 0.000000 0.000507 0.000000
# 2 -0.004003 0.012387 -0.004036 0.000000 0.000473 0.000000
# 3 -0.001981 -0.004036 0.011039 0.000000 -0.000716 0.000000
# 4 0.000000 0.000000 0.000000 0.033195 0.000000 0.001090
# 5 0.000507 0.000473 -0.000716 0.000000 0.021726 0.000000
# 6 0.000000 0.000000 0.000000 0.001090 0.000000 0.043376
#
#
# Mechanical properties :
#
#
# Convention : Reuss Voigt Hill
#
# Bulk Modulus (GPa) = 69.81759 69.91642 69.86701
# Shear Modulus (GPa) = 31.75150 33.64249 32.69700
#
# Velocity S-wave (km/s) = 3.96812 4.08457 4.02676
# Velocity P-wave (km/s) = 7.45775 7.54436 7.50118
#
# Compressibility (1/GPa) = 0.01432304
#
# Stress axis : x y z
#
# Youngs Moduli (GPa) = 91.43650 80.72852 90.59155
#
# Poissons Ratio (x) = 0.32318 0.17942
# Poissons Ratio (y) = 0.36605 0.36561
# Poissons Ratio (z) = 0.18109 0.32580
#
# Static dielectric constant tensor:
#      x y z
#    x 3.783220 0.000000 0.113800 
#    y 0.000000 3.389620 0.000000 
#    z 0.113800 0.000000 3.913060 
# 
# 
# High freq. dielectric constant tensor:
#      x y z
#    x 1.795280 0.000000 0.006960 
#    y 0.000000 1.758940 0.000000 
#    z 0.006960 0.000000 1.812630 
# 
# From -- ./inp_files/76760.got.cif
#   From: 2010.06.25/outbox.cif.g09.slc.cpg/sg15_39_cif.got.tgz:76760.got - 2010.06.28 07:06:18.
