data_PCOD8151611
_publ_section_title
;
Structure prediction by ZEFSAII (Michael W. Deem and Ramdas Pophale) SiO2 
 PCOD8151611
Probable space group: C 2/C
;
_chemical_formula_sum "Si O2"
_cell_formula_units_Z 64
_cell_length_a 21.938680
_cell_length_b 11.700025
_cell_length_c 14.252384
_cell_angle_alpha 90.000000
_cell_angle_beta 61.268174
_cell_angle_gamma 90.000000
_cell_volume 3207.927954
_symmetry_space_group_name_H-M "C 2/C"
_symmetry_group_IT_number 15
_symmetry_cell_setting 'monoclinic'
loop_
_space_group_symop_operation_xyz
x,y,z
-x,y,1/2-z
-x,-y,-z
x,-y,1/2+z
1/2+x,1/2+y,z
1/2-x,1/2+y,1/2-z
1/2-x,1/2-y,-z
1/2+x,1/2-y,1/2+z
loop_
_atom_site_type_symbol
_atom_site_label
_atom_site_fract_x
_atom_site_fract_y
_atom_site_fract_z
Si Si1 0.787244 0.496347 0.660079
Si Si2 0.841028 0.714874 0.195049
Si Si3 0.067764 0.882415 0.758860
Si Si4 0.460242 0.358957 0.189060
Si Si5 0.682681 0.570414 0.893719
Si Si6 0.915617 0.873144 0.544728
Si Si7 0.708017 0.357526 0.567392
Si Si8 0.784537 0.265257 0.076399
O O1 0.851156 0.416377 0.650660
O O2 0.745406 0.535206 0.781436
O O3 0.740186 0.411566 0.635413
O O4 0.808001 0.603828 0.580547
O O5 0.904798 0.759388 0.209904
O O6 0.834544 0.796399 0.109227
O O7 0.770177 0.719974 0.307430
O O8 0.067335 0.826424 0.863389
O O9 0.129869 0.824747 0.654493
O O10 0.000000 0.849494 0.750000
O O11 0.076789 0.020414 0.758974
O O12 0.500000 0.312190 0.250000
O O13 0.513270 0.375007 0.064521
O O14 0.611911 0.502667 0.923650
O O15 0.705513 0.550687 0.984361
O O16 0.855802 0.804607 0.533649
O O17 0.750000 0.250000 0.500000
O O18 0.750000 0.250000 0.000000
#
# Coordination Sequence:
#
# PCOD8151611 Si02
#       8
#     8   8   8   8   8   8   8   8
#     4  11  23  40  61  95 126 169 214 265 322 393
#     4  11  21  39  61  91 126 165 211 267 323 388
#     4  11  23  38  59  95 131 165 213 264 335 393
#     4  11  23  39  64  93 131 167 217 269 335 393
#     4  11  21  37  63  90 130 161 208 265 329 379
#     4  12  22  40  64  94 130 170 208 277 330 382
#     4  12  23  39  64  95 129 166 215 267 326 390
#     4  11  23  41  65  93 130 168 218 266 326 396
#
# _framework density 19.950572000000001
#
# number of rings (size 3 to 8) (size 9 to 14) (size 15 to 20)
#    0.000    0.750    5.000    4.125    3.500    0.000 
#    0.000    0.625    0.000    0.750    0.000    0.000 
#    0.000    0.000    0.000    0.000    0.000    0.000 
#
# Total GULP energy -396700.002110 kJ/mol
# GULP energy per Si atom -12396.875066 kJ/mol
# Density = 1.990516 g / cm^3
# Si number density = 19.950572 Si / 1000 Ang^3
#
#
#
# Elastic Constant Matrix: (Units=GPa)
#
#
# Indices 1 2 3 4 5 6 
#
# 1 98.5439 30.9379 33.6764 0.0000 9.3482 0.0000
# 2 30.9379 93.9909 24.2399 0.0000 -5.2375 0.0000
# 3 33.6764 24.2399 104.7029 0.0000 3.8317 0.0000
# 4 0.0000 0.0000 0.0000 21.7282 0.0000 1.8919
# 5 9.3482 -5.2375 3.8317 0.0000 41.8462 0.0000
# 6 0.0000 0.0000 0.0000 1.8919 0.0000 33.1489
#
#
#
# Elastic Compliance Matrix: (Units=1/GPa)
#
#
# Indices 1 2 3 4 5 6 
#
# 1 0.012600 -0.003505 -0.003133 0.000000 -0.002967 0.000000
# 2 -0.003505 0.012406 -0.001837 0.000000 0.002504 0.000000
# 3 -0.003133 -0.001837 0.011003 0.000000 -0.000538 0.000000
# 4 0.000000 0.000000 0.000000 0.046253 0.000000 -0.002640
# 5 -0.002967 0.002504 -0.000538 0.000000 0.024922 0.000000
# 6 0.000000 0.000000 0.000000 -0.002640 0.000000 0.030318
#
#
# Mechanical properties :
#
#
# Convention : Reuss Voigt Hill
#
# Bulk Modulus (GPa) = 52.46193 52.77178 52.61686
# Shear Modulus (GPa) = 31.09372 33.23690 32.16531
#
# Velocity S-wave (km/s) = 3.95211 4.08605 4.01964
# Velocity P-wave (km/s) = 6.86867 6.98353 6.92634
#
# Compressibility (1/GPa) = 0.01906144
#
# Stress axis : x y z
#
# Youngs Moduli (GPa) = 79.36446 80.60538 90.88204
#
# Poissons Ratio (x) = 0.28251 0.28471
# Poissons Ratio (y) = 0.27816 0.16691
# Poissons Ratio (z) = 0.24862 0.14803
#
# Static dielectric constant tensor:
#      x y z
#    x 3.789250 0.000000 0.308630 
#    y 0.000000 3.818370 0.000000 
#    z 0.308630 0.000000 3.826120 
# 
# 
# High freq. dielectric constant tensor:
#      x y z
#    x 1.779300 0.000000 0.022780 
#    y 0.000000 1.754500 0.000000 
#    z 0.022780 0.000000 1.791260 
# 
# From -- ./inp_files/167622.got.cif
#   From: 2010.06.25/outbox.cif.g09.slc.cpg/sg15_84_cif.got.tgz:167622.got - 2010.06.28 07:06:18.
