data_PCOD8151516
_publ_section_title
;
Structure prediction by ZEFSAII (Michael W. Deem and Ramdas Pophale) SiO2 
 PCOD8151516
Probable space group: C 2/C
;
_chemical_formula_sum "Si O2"
_cell_formula_units_Z 48
_cell_length_a 10.023160
_cell_length_b 23.528163
_cell_length_c 11.812044
_cell_angle_alpha 90.000000
_cell_angle_beta 70.567424
_cell_angle_gamma 90.000000
_cell_volume 2626.908406
_symmetry_space_group_name_H-M "C 2/C"
_symmetry_group_IT_number 15
_symmetry_cell_setting 'monoclinic'
loop_
_space_group_symop_operation_xyz
x,y,z
-x,y,1/2-z
-x,-y,-z
x,-y,1/2+z
1/2+x,1/2+y,z
1/2-x,1/2+y,1/2-z
1/2-x,1/2-y,-z
1/2+x,1/2-y,1/2+z
loop_
_atom_site_type_symbol
_atom_site_label
_atom_site_fract_x
_atom_site_fract_y
_atom_site_fract_z
Si Si1 0.166743 0.667244 0.218643
Si Si2 0.165525 0.795197 0.224661
Si Si3 0.859848 0.112928 0.593294
Si Si4 0.691837 0.618215 0.533567
Si Si5 0.166523 0.028144 0.711952
Si Si6 0.839520 0.900640 0.835556
O O1 0.227234 0.731598 0.202529
O O2 0.223153 0.642401 0.320279
O O3 0.000000 0.666744 0.250000
O O4 0.227057 0.626302 0.105412
O O5 0.198045 0.828030 0.334324
O O6 0.235136 0.829306 0.101660
O O7 0.000000 0.794101 0.250000
O O8 0.793065 0.059260 0.681189
O O9 0.817908 0.105318 0.475453
O O10 0.027668 0.114366 0.552315
O O11 0.738444 0.560384 0.584809
O O12 0.000000 0.035528 0.750000
O O13 0.208156 0.962476 0.696267
O O14 0.000000 0.886460 0.750000
#
# Coordination Sequence:
#
# PCOD8151516 Si02
#       6
#     8   8   8   8   8   8
#     4  11  22  34  50  77 107 140 175 205 251 312
#     4   8  17  33  54  76 101 138 171 215 255 298
#     4   9  17  33  54  81 105 125 174 220 261 297
#     4   9  16  33  56  76 101 135 176 212 252 306
#     4   8  18  30  54  82 103 131 167 220 262 295
#     4  11  21  32  54  82 106 134 166 218 261 297
#
# _framework density 18.272431000000001
#
# number of rings (size 3 to 8) (size 9 to 14) (size 15 to 20)
#    0.000    2.667    1.667    2.500    2.333    2.667 
#    0.000    0.833    0.000    2.000    0.000    0.000 
#    0.000    0.000    0.000    0.000    0.000    0.000 
#
# Total GULP energy -297375.083841 kJ/mol
# GULP energy per Si atom -12390.628493 kJ/mol
# Density = 1.823084 g / cm^3
# Si number density = 18.272431 Si / 1000 Ang^3
#
#
#
# Elastic Constant Matrix: (Units=GPa)
#
#
# Indices 1 2 3 4 5 6 
#
# 1 44.8079 38.7380 19.4593 0.0000 18.9195 0.0000
# 2 38.7380 108.7276 29.2922 0.0000 18.6704 0.0000
# 3 19.4593 29.2922 98.1017 0.0000 31.2166 0.0000
# 4 0.0000 0.0000 0.0000 22.8652 0.0000 2.8958
# 5 18.9195 18.6704 31.2166 0.0000 25.9030 0.0000
# 6 0.0000 0.0000 0.0000 2.8958 0.0000 10.3522
#
#
#
# Elastic Compliance Matrix: (Units=1/GPa)
#
#
# Indices 1 2 3 4 5 6 
#
# 1 0.041776 -0.011262 0.003573 0.000000 -0.026702 0.000000
# 2 -0.011262 0.013617 -0.002151 0.000000 0.001003 0.000000
# 3 0.003573 -0.002151 0.016973 0.000000 -0.021513 0.000000
# 4 0.000000 0.000000 0.000000 0.045341 0.000000 -0.012683
# 5 -0.026702 0.001003 -0.021513 0.000000 0.083312 0.000000
# 6 0.000000 0.000000 0.000000 -0.012683 0.000000 0.100146
#
#
# Mechanical properties :
#
#
# Convention : Reuss Voigt Hill
#
# Bulk Modulus (GPa) = 18.98059 47.40180 33.19119
# Shear Modulus (GPa) = 14.77509 22.76725 18.77117
#
# Velocity S-wave (km/s) = 2.84667 3.53369 3.20862
# Velocity P-wave (km/s) = 4.60596 6.53049 5.65076
#
# Compressibility (1/GPa) = 0.05268541
#
# Stress axis : x y z
#
# Youngs Moduli (GPa) = 23.93696 73.43789 58.91745
#
# Poissons Ratio (x) = 0.82703 -0.21048
# Poissons Ratio (y) = 0.26957 0.12675
# Poissons Ratio (z) = -0.08551 0.15799
#
# Static dielectric constant tensor:
#      x y z
#    x 2.887420 0.000000 0.116260 
#    y 0.000000 3.909950 0.000000 
#    z 0.116260 0.000000 3.639900 
# 
# 
# High freq. dielectric constant tensor:
#      x y z
#    x 1.650650 0.000000 0.019080 
#    y 0.000000 1.720120 0.000000 
#    z 0.019080 0.000000 1.714980 
# 
# From -- ./inp_files/79102.got.cif
#   From: 2010.06.25/outbox.cif.g09.slc.cpg/sg15_40_cif.got.tgz:79102.got - 2010.06.28 07:06:18.
