data_PCOD8151644
_publ_section_title
;
Structure prediction by ZEFSAII (Michael W. Deem and Ramdas Pophale) SiO2 
 PCOD8151644
Probable space group: C 2/C
;
_chemical_formula_sum "Si O2"
_cell_formula_units_Z 64
_cell_length_a 9.150493
_cell_length_b 18.065837
_cell_length_c 29.813689
_cell_angle_alpha 90.000000
_cell_angle_beta 139.017022
_cell_angle_gamma 90.000000
_cell_volume 3232.308051
_symmetry_space_group_name_H-M "C 2/C"
_symmetry_group_IT_number 15
_symmetry_cell_setting 'monoclinic'
loop_
_space_group_symop_operation_xyz
x,y,z
-x,y,1/2-z
-x,-y,-z
x,-y,1/2+z
1/2+x,1/2+y,z
1/2-x,1/2+y,1/2-z
1/2-x,1/2-y,-z
1/2+x,1/2-y,1/2+z
loop_
_atom_site_type_symbol
_atom_site_label
_atom_site_fract_x
_atom_site_fract_y
_atom_site_fract_z
Si Si1 0.992939 0.972111 0.301766
Si Si2 0.720155 0.288651 0.927966
Si Si3 0.226579 0.544481 0.060653
Si Si4 0.144542 0.294187 0.194819
Si Si5 0.572938 0.702816 0.052094
Si Si6 0.913212 0.193995 0.665420
Si Si7 0.087092 0.034138 0.066170
Si Si8 0.512202 0.946632 0.201844
O O1 0.000000 0.972143 0.250000
O O2 0.162340 0.027627 0.365361
O O3 0.738452 0.995287 0.253167
O O4 0.060629 0.892893 0.338974
O O5 0.831751 0.368847 0.949718
O O6 0.550922 0.267368 0.848392
O O7 0.569507 0.282832 0.936834
O O8 0.914499 0.226440 0.973908
O O9 0.394554 0.528158 0.058799
O O10 0.000000 0.500000 0.000000
O O11 0.334521 0.273458 0.274828
O O12 0.274411 0.296971 0.178342
O O13 0.035236 0.374686 0.176148
O O14 0.785335 0.758141 0.098332
O O15 0.652589 0.618284 0.069194
O O16 0.305171 0.994179 0.136032
O O17 0.000000 0.000000 0.000000
O O18 0.500000 0.919599 0.250000
#
# Coordination Sequence:
#
# PCOD8151644 Si02
#       8
#     8   8   8   8   8   8   8   8
#     4  11  21  38  62  90 118 156 195 235 292 352
#     4   9  18  34  55  82 109 146 194 243 282 332
#     4  11  24  39  61  88 119 154 199 246 291 351
#     4   9  17  32  58  82 110 147 188 234 284 338
#     4   9  18  33  56  83 109 144 197 243 279 333
#     4   9  16  32  57  88 106 142 194 238 277 333
#     4  11  24  39  60  89 119 157 195 243 300 346
#     4  11  21  38  58  88 124 153 189 238 297 356
#
# _framework density 19.800093
#
# number of rings (size 3 to 8) (size 9 to 14) (size 15 to 20)
#    0.000    2.000    3.750    1.500    1.750    3.000 
#    2.250    0.625    5.500    2.250    0.000    0.000 
#    0.000    0.000    0.000    0.000    0.000    0.000 
#
# Total GULP energy -396458.437173 kJ/mol
# GULP energy per Si atom -12389.326162 kJ/mol
# Density = 1.975503 g / cm^3
# Si number density = 19.800093 Si / 1000 Ang^3
#
#
#
# Elastic Constant Matrix: (Units=GPa)
#
#
# Indices 1 2 3 4 5 6 
#
# 1 45.8235 27.6848 35.7360 0.0000 11.6004 0.0000
# 2 27.6848 109.4514 74.6531 0.0001 21.3171 0.0000
# 3 35.7360 74.6531 148.1726 -0.0001 20.6271 -0.0001
# 4 0.0000 0.0001 -0.0001 38.1841 0.0000 7.8323
# 5 11.6004 21.3171 20.6271 0.0000 30.2428 0.0000
# 6 0.0000 0.0000 -0.0001 7.8323 0.0000 23.0173
#
#
#
# Elastic Compliance Matrix: (Units=1/GPa)
#
#
# Indices 1 2 3 4 5 6 
#
# 1 0.028680 -0.002990 -0.004610 0.000000 -0.005749 0.000000
# 2 -0.002990 0.015131 -0.006162 0.000000 -0.005315 0.000000
# 3 -0.004610 -0.006162 0.011176 0.000000 -0.001510 0.000000
# 4 0.000000 0.000000 0.000000 0.028154 0.000000 -0.009580
# 5 -0.005749 -0.005315 -0.001510 0.000000 0.040048 0.000000
# 6 0.000000 0.000000 0.000000 -0.009580 0.000000 0.046706
#
#
# Mechanical properties :
#
#
# Convention : Reuss Voigt Hill
#
# Bulk Modulus (GPa) = 36.41456 64.39950 50.40703
# Shear Modulus (GPa) = 24.20443 29.31375 26.75909
#
# Velocity S-wave (km/s) = 3.50013 3.85188 3.68021
# Velocity P-wave (km/s) = 5.89624 7.23727 6.60090
#
# Compressibility (1/GPa) = 0.02746154
#
# Stress axis : x y z
#
# Youngs Moduli (GPa) = 34.86736 66.08849 89.47935
#
# Poissons Ratio (x) = 0.19763 0.41251
# Poissons Ratio (y) = 0.10426 0.55140
# Poissons Ratio (z) = 0.16074 0.40726
#
# Static dielectric constant tensor:
#      x y z
#    x 3.475190 0.000000 0.270810 
#    y 0.000000 3.801100 0.000000 
#    z 0.270810 0.000000 4.228140 
# 
# 
# High freq. dielectric constant tensor:
#      x y z
#    x 1.740290 0.000000 0.019040 
#    y 0.000000 1.764330 0.000000 
#    z 0.019040 0.000000 1.790810 
# 
# From -- ./inp_files/308827.got.cif
#   From: 2010.06.25/outbox.cif.g09.slc.cpg/sg15_155_cif.got.tgz:308827.got - 2010.06.28 07:06:18.
