data_PCOD8151237
_publ_section_title
;
Structure prediction by ZEFSAII (Michael W. Deem and Ramdas Pophale) SiO2 
 PCOD8151237
Probable space group: C 2/C
;
_chemical_formula_sum "Si O2"
_cell_formula_units_Z 56
_cell_length_a 23.097722
_cell_length_b 20.211490
_cell_length_c 12.023331
_cell_angle_alpha 90.000000
_cell_angle_beta 150.738495
_cell_angle_gamma 90.000000
_cell_volume 2743.596933
_symmetry_space_group_name_H-M "C 2/C"
_symmetry_group_IT_number 15
_symmetry_cell_setting 'monoclinic'
loop_
_space_group_symop_operation_xyz
x,y,z
-x,y,1/2-z
-x,-y,-z
x,-y,1/2+z
1/2+x,1/2+y,z
1/2-x,1/2+y,1/2-z
1/2-x,1/2-y,-z
1/2+x,1/2-y,1/2+z
loop_
_atom_site_type_symbol
_atom_site_label
_atom_site_fract_x
_atom_site_fract_y
_atom_site_fract_z
Si Si1 0.647111 0.863980 0.703944
Si Si2 0.460646 0.267877 0.480856
Si Si3 0.787424 0.176243 0.054388
Si Si4 0.135333 0.584018 0.959245
Si Si5 0.254046 0.167579 0.768062
Si Si6 0.382565 0.282637 0.103526
Si Si7 0.880329 0.564925 0.114728
O O1 0.543156 0.810817 0.491791
O O2 0.680290 0.915169 0.661498
O O3 0.603544 0.906408 0.735162
O O4 0.771735 0.829388 0.937055
O O5 0.574218 0.315417 0.683369
O O6 0.373041 0.304813 0.415823
O O7 0.413814 0.258248 0.278017
O O8 0.750000 0.250000 0.000000
O O9 0.717250 0.133353 0.026394
O O10 0.751145 0.150399 0.871492
O O11 0.148185 0.512571 0.924540
O O12 0.000000 0.606570 0.750000
O O13 0.353646 0.221377 0.971532
O O14 0.274962 0.100004 0.870599
O O15 0.500000 0.318455 0.250000
O O16 0.000000 0.578759 0.250000
#
# Coordination Sequence:
#
# PCOD8151237 Si02
#       7
#     8   8   8   8   8   8   8
#     4  11  22  42  67  93 132 167 217 271 317 385
#     4  11  21  40  64  99 128 167 215 269 331 384
#     4  12  25  40  66  97 132 164 210 274 337 386
#     4  11  27  43  63  95 132 174 213 264 329 386
#     4  11  22  40  63  97 129 168 213 273 326 382
#     4  11  20  36  65  96 128 167 219 267 324 382
#     4  11  25  41  67  94 124 175 223 265 313 391
#
# _framework density 20.411162999999998
#
# number of rings (size 3 to 8) (size 9 to 14) (size 15 to 20)
#    0.000    0.857    2.857    6.000    6.000    1.143 
#    0.000    0.714    0.000    0.000    0.000    0.000 
#    0.000    0.000    0.000    0.000    0.000    0.000 
#
# Total GULP energy -346882.371273 kJ/mol
# GULP energy per Si atom -12388.656117 kJ/mol
# Density = 2.036471 g / cm^3
# Si number density = 20.411163 Si / 1000 Ang^3
#
#
#
# Elastic Constant Matrix: (Units=GPa)
#
#
# Indices 1 2 3 4 5 6 
#
# 1 148.3069 63.7073 40.0027 0.0000 -11.5807 0.0000
# 2 63.7073 114.0288 30.2103 0.0000 0.3021 0.0000
# 3 40.0027 30.2103 76.7659 0.0000 -18.7758 0.0000
# 4 0.0000 0.0000 0.0000 14.9863 0.0000 2.1812
# 5 -11.5807 0.3021 -18.7758 0.0000 34.2631 0.0000
# 6 0.0000 0.0000 0.0000 2.1812 0.0000 35.7759
#
#
#
# Elastic Compliance Matrix: (Units=1/GPa)
#
#
# Indices 1 2 3 4 5 6 
#
# 1 0.009622 -0.004653 -0.002745 0.000000 0.001789 0.000000
# 2 -0.004653 0.012236 -0.003235 0.000000 -0.003453 0.000000
# 3 -0.002745 -0.003235 0.017911 0.000000 0.008916 0.000000
# 4 0.000000 0.000000 0.000000 0.067325 0.000000 -0.004105
# 5 0.001789 -0.003453 0.008916 0.000000 0.034707 0.000000
# 6 0.000000 0.000000 0.000000 -0.004105 0.000000 0.028202
#
#
# Mechanical properties :
#
#
# Convention : Reuss Voigt Hill
#
# Bulk Modulus (GPa) = 54.04975 67.43803 60.74389
# Shear Modulus (GPa) = 25.32467 30.68380 28.00424
#
# Velocity S-wave (km/s) = 3.52622 3.88143 3.70808
# Velocity P-wave (km/s) = 6.56635 7.29375 6.93959
#
# Compressibility (1/GPa) = 0.01850147
#
# Stress axis : x y z
#
# Youngs Moduli (GPa) = 103.93191 81.72888 55.83179
#
# Poissons Ratio (x) = 0.38029 0.15327
# Poissons Ratio (y) = 0.48360 0.18062
# Poissons Ratio (z) = 0.28532 0.26440
#
# Static dielectric constant tensor:
#      x y z
#    x 4.070160 0.000000 -0.163320 
#    y 0.000000 3.461810 0.000000 
#    z -0.163320 0.000000 3.665310 
# 
# 
# High freq. dielectric constant tensor:
#      x y z
#    x 1.822690 0.000000 -0.006170 
#    y 0.000000 1.773420 0.000000 
#    z -0.006170 0.000000 1.802070 
# 
# From -- ./inp_files/89046.got.cif
#   From: 2010.06.25/outbox.cif.g09.slc.cpg/sg15_45_cif.got.tgz:89046.got - 2010.06.28 07:06:18.
