data_PCOD8151005
_publ_section_title
;
Structure prediction by ZEFSAII (Michael W. Deem and Ramdas Pophale) SiO2 
 PCOD8151005
Probable space group: C 2/C
;
_chemical_formula_sum "Si O2"
_cell_formula_units_Z 48
_cell_length_a 9.047387
_cell_length_b 20.301457
_cell_length_c 16.750912
_cell_angle_alpha 90.000000
_cell_angle_beta 48.364422
_cell_angle_gamma 90.000000
_cell_volume 2299.501008
_symmetry_space_group_name_H-M "C 2/C"
_symmetry_group_IT_number 15
_symmetry_cell_setting 'monoclinic'
loop_
_space_group_symop_operation_xyz
x,y,z
-x,y,1/2-z
-x,-y,-z
x,-y,1/2+z
1/2+x,1/2+y,z
1/2-x,1/2+y,1/2-z
1/2-x,1/2-y,-z
1/2+x,1/2-y,1/2+z
loop_
_atom_site_type_symbol
_atom_site_label
_atom_site_fract_x
_atom_site_fract_y
_atom_site_fract_z
Si Si1 0.070575 0.992254 0.567393
Si Si2 0.871617 0.890757 0.226082
Si Si3 0.968861 0.542304 0.872679
Si Si4 0.500000 0.078197 0.250000
Si Si5 0.895436 0.859704 0.643330
Si Si6 0.500000 0.727185 0.250000
Si Si7 0.272468 0.663444 0.603809
O O1 0.305503 0.979022 0.496292
O O2 0.965692 0.931017 0.646566
O O3 0.000000 0.000000 0.500000
O O4 0.013407 0.055350 0.636831
O O5 0.665826 0.921674 0.333908
O O6 0.841433 0.834422 0.171208
O O7 0.000000 0.857747 0.250000
O O8 0.850992 0.594873 0.858423
O O9 0.025997 0.472545 0.813413
O O10 0.316487 0.128644 0.322370
O O11 0.878545 0.816041 0.729368
O O12 0.048350 0.830731 0.522924
O O13 0.360295 0.771532 0.357047
#
# Coordination Sequence:
#
# PCOD8151005 Si02
#       7
#     8   8   8   4   8   4   8
#     4  11  19  37  64  92 131 162 205 252 330 392
#     4  12  22  35  64  99 125 162 213 266 309 390
#     4  11  18  37  69  88 123 178 193 256 333 388
#     4  12  17  38  64  96 133 156 202 252 348 370
#     4  11  24  38  67  97 124 170 210 265 318 383
#     4  12  25  44  68  90 121 170 230 268 298 384
#     4  11  21  47  66  86 125 178 220 248 328 378
#
# _framework density 20.874092999999998
#
# number of rings (size 3 to 8) (size 9 to 14) (size 15 to 20)
#    0.000    0.667   10.000    0.500    1.167    0.667 
#    1.500    5.833    0.000    0.000    0.000    0.000 
#    0.000    0.000    0.000    0.000    0.000    0.000 
#
# Total GULP energy -297323.101824 kJ/mol
# GULP energy per Si atom -12388.462576 kJ/mol
# Density = 2.082658 g / cm^3
# Si number density = 20.874093 Si / 1000 Ang^3
#
#
#
# Elastic Constant Matrix: (Units=GPa)
#
#
# Indices 1 2 3 4 5 6 
#
# 1 93.5963 14.9563 31.0659 0.0000 -15.3855 0.0000
# 2 14.9563 77.8285 18.6289 0.0000 -0.0822 0.0000
# 3 31.0659 18.6289 85.9776 0.0000 -25.2256 0.0000
# 4 0.0000 0.0000 0.0000 25.1618 0.0000 2.1616
# 5 -15.3855 -0.0822 -25.2256 0.0000 31.6004 0.0000
# 6 0.0000 0.0000 0.0000 2.1616 0.0000 22.2756
#
#
#
# Elastic Compliance Matrix: (Units=1/GPa)
#
#
# Indices 1 2 3 4 5 6 
#
# 1 0.012583 -0.001668 -0.003120 0.000000 0.003632 0.000000
# 2 -0.001668 0.013996 -0.003470 0.000000 -0.003546 0.000000
# 3 -0.003120 -0.003470 0.017057 0.000000 0.012088 0.000000
# 4 0.000000 0.000000 0.000000 0.040077 0.000000 -0.003889
# 5 0.003632 -0.003546 0.012088 0.000000 0.043053 0.000000
# 6 0.000000 0.000000 0.000000 -0.003889 0.000000 0.045270
#
#
# Mechanical properties :
#
#
# Convention : Reuss Voigt Hill
#
# Bulk Modulus (GPa) = 36.87235 42.96718 39.91977
# Shear Modulus (GPa) = 25.30474 28.65764 26.98119
#
# Velocity S-wave (km/s) = 3.48552 3.70926 3.59913
# Velocity P-wave (km/s) = 5.82246 6.24287 6.03633
#
# Compressibility (1/GPa) = 0.02712059
#
# Stress axis : x y z
#
# Youngs Moduli (GPa) = 79.47154 71.44833 58.62814
#
# Poissons Ratio (x) = 0.11914 0.18291
# Poissons Ratio (y) = 0.13252 0.20346
# Poissons Ratio (z) = 0.24793 0.24795
#
# Static dielectric constant tensor:
#      x y z
#    x 8.395950 0.000000 2.197380 
#    y 0.000000 3.656950 0.000000 
#    z 2.197380 0.000000 5.399390 
# 
# 
# High freq. dielectric constant tensor:
#      x y z
#    x 1.796020 0.000000 -0.024590 
#    y 0.000000 1.800370 0.000000 
#    z -0.024590 0.000000 1.822560 
# 
# From -- ./inp_files/191986.got.cif
#   From: 2010.06.25/outbox.cif.g09.slc.cpg/sg15_96_cif.got.tgz:191986.got - 2010.06.28 07:06:18.
