data_PCOD8151792
_publ_section_title
;
Structure prediction by ZEFSAII (Michael W. Deem and Ramdas Pophale) SiO2 
 PCOD8151792
Probable space group: C 2/C
;
_chemical_formula_sum "Si O2"
_cell_formula_units_Z 60
_cell_length_a 22.352888
_cell_length_b 8.600294
_cell_length_c 22.016842
_cell_angle_alpha 90.000000
_cell_angle_beta 42.281745
_cell_angle_gamma 90.000000
_cell_volume 2847.560691
_symmetry_space_group_name_H-M "C 2/C"
_symmetry_group_IT_number 15
_symmetry_cell_setting 'monoclinic'
loop_
_space_group_symop_operation_xyz
x,y,z
-x,y,1/2-z
-x,-y,-z
x,-y,1/2+z
1/2+x,1/2+y,z
1/2-x,1/2+y,1/2-z
1/2-x,1/2-y,-z
1/2+x,1/2-y,1/2+z
loop_
_atom_site_type_symbol
_atom_site_label
_atom_site_fract_x
_atom_site_fract_y
_atom_site_fract_z
Si Si1 0.591862 0.452383 0.961462
Si Si2 0.157829 0.622832 0.274033
Si Si3 0.500000 0.553162 0.750000
Si Si4 0.292131 0.912039 0.987454
Si Si5 0.531432 0.773170 0.611370
Si Si6 0.826731 0.910734 0.837687
Si Si7 0.201642 0.972095 0.267507
Si Si8 0.254815 0.930199 0.395115
O O1 0.656283 0.426165 0.855669
O O2 0.648712 0.578974 0.958693
O O3 0.500000 0.500000 0.000000
O O4 0.574505 0.309038 0.019841
O O5 0.187864 0.789145 0.277484
O O6 0.192676 0.504625 0.300758
O O7 0.198445 0.569584 0.178380
O O8 0.051639 0.623479 0.347774
O O9 0.503172 0.655434 0.686244
O O10 0.414303 0.440924 0.812359
O O11 0.397473 0.893662 0.915362
O O12 0.267640 0.038551 0.956017
O O13 0.250000 0.750000 0.000000
O O14 0.252852 0.979816 0.079098
O O15 0.802029 0.732294 0.849527
O O16 0.846012 0.964159 0.755624
#
# Coordination Sequence:
#
# PCOD8151792 Si02
#       8
#     8   8   4   8   8   8   8   8
#     4  11  21  40  67  98 132 179 229 277 344 398
#     4  11  23  44  68 100 133 187 231 277 350 404
#     4  12  22  42  72 102 144 180 232 274 354 418
#     4  12  23  44  69 100 133 178 228 284 347 410
#     4  12  24  41  72 106 133 183 231 288 340 419
#     4  12  25  42  68 105 135 183 228 279 352 412
#     4  11  23  41  67  95 139 177 229 281 343 416
#     4  11  25  44  67  97 142 179 226 291 345 412
#
# _framework density 21.070667
#
# number of rings (size 3 to 8) (size 9 to 14) (size 15 to 20)
#    0.000    0.533    5.333    3.600    1.867    1.067 
#    0.000    4.667    0.000    0.000    0.000    0.000 
#    0.000    0.000    0.000    0.000    0.000    0.000 
#
# Total GULP energy -371715.324480 kJ/mol
# GULP energy per Si atom -12390.510816 kJ/mol
# Density = 2.102271 g / cm^3
# Si number density = 21.070667 Si / 1000 Ang^3
#
#
#
# Elastic Constant Matrix: (Units=GPa)
#
#
# Indices 1 2 3 4 5 6 
#
# 1 173.4330 41.5552 41.2746 0.0004 -32.4418 -0.0004
# 2 41.5552 66.9740 37.7222 0.0007 -8.0060 -0.0010
# 3 41.2746 37.7222 85.4019 -0.0004 -0.8139 0.0002
# 4 0.0004 0.0007 -0.0004 26.4276 -0.0003 -2.2677
# 5 -32.4418 -8.0060 -0.8139 -0.0003 52.9090 0.0005
# 6 -0.0004 -0.0010 0.0002 -2.2677 0.0005 39.2586
#
#
#
# Elastic Compliance Matrix: (Units=1/GPa)
#
#
# Indices 1 2 3 4 5 6 
#
# 1 0.007876 -0.002992 -0.002444 0.000000 0.004339 0.000000
# 2 -0.002992 0.021459 -0.008020 -0.000001 0.001289 0.000000
# 3 -0.002444 -0.008020 0.016409 0.000000 -0.002459 0.000000
# 4 0.000000 -0.000001 0.000000 0.038028 0.000000 0.002197
# 5 0.004339 0.001289 -0.002459 0.000000 0.021718 0.000000
# 6 0.000000 0.000000 0.000000 0.002197 0.000000 0.025599
#
#
# Mechanical properties :
#
#
# Convention : Reuss Voigt Hill
#
# Bulk Modulus (GPa) = 53.09813 62.99032 58.04422
# Shear Modulus (GPa) = 30.43624 37.40284 33.91954
#
# Velocity S-wave (km/s) = 3.80476 4.21778 4.01658
# Velocity P-wave (km/s) = 6.67505 7.32661 7.00841
#
# Compressibility (1/GPa) = 0.01883306
#
# Stress axis : x y z
#
# Youngs Moduli (GPa) = 126.96928 46.60080 60.94060
#
# Poissons Ratio (x) = 0.13942 0.14891
# Poissons Ratio (y) = 0.37986 0.48876
# Poissons Ratio (z) = 0.31026 0.37375
#
# Static dielectric constant tensor:
#      x y z
#    x 0.694190 -0.000580 -2.434560 
#    y -0.000580 2.937710 -0.000370 
#    z -2.434560 -0.000370 2.541510 
# 
# 
# High freq. dielectric constant tensor:
#      x y z
#    x 1.860420 0.000000 0.004170 
#    y 0.000000 1.803120 0.000000 
#    z 0.004170 0.000000 1.822160 
# 
# From -- ./inp_files/213852.got.cif
#   From: 2010.06.25/outbox.cif.g09.slc.cpg/sg15_107_cif.got.tgz:213852.got - 2010.06.28 07:06:18.
