data_PCOD8151841
_publ_section_title
;
Structure prediction by ZEFSAII (Michael W. Deem and Ramdas Pophale) SiO2 
 PCOD8151841
Probable space group: C 2/C
;
_chemical_formula_sum "Si O2"
_cell_formula_units_Z 64
_cell_length_a 11.802891
_cell_length_b 23.477967
_cell_length_c 10.768245
_cell_angle_alpha 90.000000
_cell_angle_beta 77.902596
_cell_angle_gamma 90.000000
_cell_volume 2917.699882
_symmetry_space_group_name_H-M "C 2/C"
_symmetry_group_IT_number 15
_symmetry_cell_setting 'monoclinic'
loop_
_space_group_symop_operation_xyz
x,y,z
-x,y,1/2-z
-x,-y,-z
x,-y,1/2+z
1/2+x,1/2+y,z
1/2-x,1/2+y,1/2-z
1/2-x,1/2-y,-z
1/2+x,1/2-y,1/2+z
loop_
_atom_site_type_symbol
_atom_site_label
_atom_site_fract_x
_atom_site_fract_y
_atom_site_fract_z
Si Si1 0.854732 0.293802 0.436054
Si Si2 0.878572 0.054561 0.608438
Si Si3 0.760991 0.600234 0.080784
Si Si4 0.724359 0.098798 0.850989
Si Si5 0.624622 0.436246 0.969094
Si Si6 0.386730 0.333494 0.697454
Si Si7 0.928284 0.495057 0.642204
Si Si8 0.890446 0.284945 0.137697
O O1 0.750000 0.250000 0.500000
O O2 0.834801 0.359779 0.473135
O O3 0.880741 0.294809 0.286017
O O4 0.983249 0.279825 0.459530
O O5 0.839335 0.071362 0.477987
O O6 0.827416 0.096720 0.724739
O O7 0.017417 0.051502 0.585950
O O8 0.841037 0.988000 0.632189
O O9 0.712647 0.644711 0.190563
O O10 0.833314 0.553595 0.139841
O O11 0.763230 0.074217 0.973901
O O12 0.683413 0.162310 0.897822
O O13 0.625457 0.057459 0.819468
O O14 0.579244 0.382201 0.905024
O O15 0.500000 0.314287 0.750000
O O16 0.337571 0.278690 0.632155
O O17 0.000000 0.478630 0.750000
O O18 0.000000 0.500000 0.500000
#
# Coordination Sequence:
#
# PCOD8151841 Si02
#       8
#     8   8   8   8   8   8   8   8
#     4  11  21  41  68 101 129 174 235 284 328 404
#     4  11  23  42  69 102 133 177 225 282 350 421
#     4  12  22  42  72  97 132 176 224 285 339 405
#     4  12  25  44  68  96 140 177 225 287 351 414
#     4  11  26  41  67 102 139 177 225 282 352 414
#     4  12  23  42  68  99 131 177 224 280 334 411
#     4  12  28  45  68 100 138 181 230 287 355 425
#     4  11  24  39  69 100 133 179 234 279 343 411
#
# _framework density 21.935088
#
# number of rings (size 3 to 8) (size 9 to 14) (size 15 to 20)
#    0.000    0.500    6.250    2.625    3.500    0.500 
#    0.000    0.000    0.000    0.000    0.000    0.000 
#    0.000    0.000    0.000    0.000    0.000    0.000 
#
# Total GULP energy -396472.304992 kJ/mol
# GULP energy per Si atom -12389.759531 kJ/mol
# Density = 2.188516 g / cm^3
# Si number density = 21.935088 Si / 1000 Ang^3
#
#
#
# Elastic Constant Matrix: (Units=GPa)
#
#
# Indices 1 2 3 4 5 6 
#
# 1 83.1469 38.4706 25.5347 0.0000 -5.7257 0.0000
# 2 38.4706 169.0593 20.5504 0.0000 -3.4745 0.0000
# 3 25.5347 20.5504 56.7904 0.0000 -9.3617 0.0000
# 4 0.0000 0.0000 0.0000 32.1941 0.0000 -2.8681
# 5 -5.7257 -3.4745 -9.3617 0.0000 38.4967 0.0000
# 6 0.0000 0.0000 0.0000 -2.8681 0.0000 33.2304
#
#
#
# Elastic Compliance Matrix: (Units=1/GPa)
#
#
# Indices 1 2 3 4 5 6 
#
# 1 0.015079 -0.002727 -0.005692 0.000000 0.000612 0.000000
# 2 -0.002727 0.006680 -0.001207 0.000000 -0.000096 0.000000
# 3 -0.005692 -0.001207 0.021301 0.000000 0.004225 0.000000
# 4 0.000000 0.000000 0.000000 0.031302 0.000000 0.002702
# 5 0.000612 -0.000096 0.004225 0.000000 0.027086 0.000000
# 6 0.000000 0.000000 0.000000 0.002702 0.000000 0.030326
#
#
# Mechanical properties :
#
#
# Convention : Reuss Voigt Hill
#
# Bulk Modulus (GPa) = 42.00266 53.12311 47.56289
# Shear Modulus (GPa) = 31.45385 35.74697 33.60041
#
# Velocity S-wave (km/s) = 3.79086 4.04130 3.91808
# Velocity P-wave (km/s) = 6.19282 6.78580 6.49608
#
# Compressibility (1/GPa) = 0.02380801
#
# Stress axis : x y z
#
# Youngs Moduli (GPa) = 66.31830 149.69289 46.94566
#
# Poissons Ratio (x) = 0.40818 0.26722
# Poissons Ratio (y) = 0.18083 0.05667
# Poissons Ratio (z) = 0.37750 0.18071
#
# Static dielectric constant tensor:
#      x y z
#    x 3.908600 0.000000 -0.327030 
#    y 0.000000 4.743660 0.000000 
#    z -0.327030 0.000000 3.801020 
# 
# 
# High freq. dielectric constant tensor:
#      x y z
#    x 1.851630 0.000000 -0.018410 
#    y 0.000000 1.882670 0.000000 
#    z -0.018410 0.000000 1.851540 
# 
# From -- ./inp_files/90785.got.cif
#   From: 2010.06.25/outbox.cif.g09.slc.cpg/sg15_46_cif.got.tgz:90785.got - 2010.06.28 07:06:18.
