data_PCOD8151962
_publ_section_title
;
Structure prediction by ZEFSAII (Michael W. Deem and Ramdas Pophale) SiO2 
 PCOD8151962
Probable space group: C 2/C
;
_chemical_formula_sum "Si O2"
_cell_formula_units_Z 48
_cell_length_a 25.742061
_cell_length_b 9.031582
_cell_length_c 15.492356
_cell_angle_alpha 90.000000
_cell_angle_beta 37.063551
_cell_angle_gamma 90.000000
_cell_volume 2170.831671
_symmetry_space_group_name_H-M "C 2/C"
_symmetry_group_IT_number 15
_symmetry_cell_setting 'monoclinic'
loop_
_space_group_symop_operation_xyz
x,y,z
-x,y,1/2-z
-x,-y,-z
x,-y,1/2+z
1/2+x,1/2+y,z
1/2-x,1/2+y,1/2-z
1/2-x,1/2-y,-z
1/2+x,1/2-y,1/2+z
loop_
_atom_site_type_symbol
_atom_site_label
_atom_site_fract_x
_atom_site_fract_y
_atom_site_fract_z
Si Si1 0.276482 0.450484 0.634042
Si Si2 0.613961 0.766976 0.794059
Si Si3 0.079927 0.959279 0.194516
Si Si4 0.016219 0.543534 0.131351
Si Si5 0.654657 0.795199 0.344244
Si Si6 0.014403 0.231732 0.391345
O O1 0.207115 0.330702 0.692866
O O2 0.343897 0.498713 0.471627
O O3 0.322566 0.369649 0.653345
O O4 0.238448 0.607032 0.713676
O O5 0.622504 0.647080 0.708028
O O6 0.558123 0.905486 0.835636
O O7 0.564610 0.688742 0.939916
O O8 0.000000 0.880893 0.250000
O O9 0.037962 0.101867 0.295029
O O10 0.020709 0.366997 0.119384
O O11 0.000000 0.594194 0.250000
O O12 0.105553 0.617557 0.985047
O O13 0.599270 0.776868 0.331579
#
# Coordination Sequence:
#
# PCOD8151962 Si02
#       6
#     8   8   8   8   8   8
#     4  12  26  44  69 101 139 179 233 287 341 408
#     4  11  22  46  68  96 134 181 227 279 346 408
#     4  12  27  42  66 104 137 175 230 285 346 402
#     4  11  21  43  71  95 129 179 226 282 338 411
#     4  11  25  45  68  99 136 183 230 280 347 410
#     4  11  23  45  69  94 134 181 228 280 342 417
#
# _framework density 22.111340999999999
#
# number of rings (size 3 to 8) (size 9 to 14) (size 15 to 20)
#    0.000    0.667    3.333    6.000    4.667    2.000 
#    0.000    0.000    0.000    0.000    0.000    0.000 
#    0.000    0.000    0.000    0.000    0.000    0.000 
#
# Total GULP energy -297683.906839 kJ/mol
# GULP energy per Si atom -12403.496118 kJ/mol
# Density = 2.206101 g / cm^3
# Si number density = 22.111341 Si / 1000 Ang^3
#
#
#
# Elastic Constant Matrix: (Units=GPa)
#
#
# Indices 1 2 3 4 5 6 
#
# 1 58.7395 5.6113 34.2325 0.0000 -0.0073 -0.0018
# 2 5.6113 61.9892 19.9456 -0.0136 9.5239 -0.0236
# 3 34.2325 19.9456 156.2195 -0.0104 7.0087 -0.0139
# 4 0.0000 -0.0136 -0.0104 83.5110 -0.0002 56.5380
# 5 -0.0073 9.5239 7.0087 -0.0002 29.2102 -0.0002
# 6 -0.0018 -0.0236 -0.0139 56.5380 -0.0002 98.3300
#
#
#
# Elastic Compliance Matrix: (Units=1/GPa)
#
#
# Indices 1 2 3 4 5 6 
#
# 1 0.019568 -0.000585 -0.004268 -0.000001 0.001220 0.000000
# 2 -0.000585 0.017603 -0.001882 0.000000 -0.005288 0.000004
# 3 -0.004268 -0.001882 0.007631 0.000000 -0.001219 0.000000
# 4 -0.000001 0.000000 0.000000 0.019607 0.000000 -0.011274
# 5 0.001220 -0.005288 -0.001219 0.000000 0.036251 -0.000001
# 6 0.000000 0.000004 0.000000 -0.011274 -0.000001 0.016652
#
#
# Mechanical properties :
#
#
# Convention : Reuss Voigt Hill
#
# Bulk Modulus (GPa) = 31.91690 44.05856 37.98773
# Shear Modulus (GPa) = 35.40416 56.68749 46.04582
#
# Velocity S-wave (km/s) = 4.00581 5.06882 4.56834
# Velocity P-wave (km/s) = 5.98843 7.36385 6.71147
#
# Compressibility (1/GPa) = 0.03133137
#
# Stress axis : x y z
#
# Youngs Moduli (GPa) = 51.10477 56.80915 131.03722
#
# Poissons Ratio (x) = 0.03326 0.55925
# Poissons Ratio (y) = 0.02992 0.24660
# Poissons Ratio (z) = 0.21811 0.10691
#
# Static dielectric constant tensor:
#      x y z
#    x 4.018810 0.000000 0.078760 
#    y 0.000000 3.894030 0.000000 
#    z 0.078760 0.000000 4.105040 
# 
# 
# High freq. dielectric constant tensor:
#      x y z
#    x 1.872240 0.000000 0.003380 
#    y 0.000000 1.876710 0.000000 
#    z 0.003380 0.000000 1.878040 
# 
# From -- ./inp_files/176842.got.cif
#   From: 2010.06.25/outbox.cif.g09.slc.cpg/sg15_89_cif.got.tgz:176842.got - 2010.06.28 07:06:18.
