data_PCOD8151143
_publ_section_title
;
Structure prediction by ZEFSAII (Michael W. Deem and Ramdas Pophale) SiO2 
 PCOD8151143
Probable space group: C 2/C
;
_chemical_formula_sum "Si O2"
_cell_formula_units_Z 44
_cell_length_a 26.301410
_cell_length_b 16.233520
_cell_length_c 16.404451
_cell_angle_alpha 90.000000
_cell_angle_beta 17.717766
_cell_angle_gamma 90.000000
_cell_volume 2131.552219
_symmetry_space_group_name_H-M "C 2/C"
_symmetry_group_IT_number 15
_symmetry_cell_setting 'monoclinic'
loop_
_space_group_symop_operation_xyz
x,y,z
-x,y,1/2-z
-x,-y,-z
x,-y,1/2+z
1/2+x,1/2+y,z
1/2-x,1/2+y,1/2-z
1/2-x,1/2-y,-z
1/2+x,1/2-y,1/2+z
loop_
_atom_site_type_symbol
_atom_site_label
_atom_site_fract_x
_atom_site_fract_y
_atom_site_fract_z
Si Si1 0.500000 0.517664 0.750000
Si Si2 0.583001 0.153826 0.881849
Si Si3 0.720660 0.553792 0.032102
Si Si4 0.702367 0.816033 0.947417
Si Si5 0.698534 0.903054 0.794189
Si Si6 0.486631 0.058561 0.177699
O O1 0.464621 0.463976 0.721148
O O2 0.658570 0.573907 0.487882
O O3 0.676342 0.071789 0.708221
O O4 0.711221 0.228249 0.674490
O O5 0.421081 0.161586 0.070987
O O6 0.530967 0.137895 0.054923
O O7 0.734374 0.630218 0.072704
O O8 0.794936 0.470558 0.958042
O O9 0.776150 0.855328 0.752622
O O10 0.500000 0.810089 0.250000
O O11 0.602279 0.980795 0.979657
O O12 0.500000 0.087519 0.250000
#
# Coordination Sequence:
#
# PCOD8151143 Si02
#       6
#     4   8   8   8   8   8
#     4  12  24  38  70  94 132 178 226 276 320 402
#     4  11  23  39  65  99 138 171 214 282 344 389
#     4  11  21  40  68  97 128 169 227 276 330 390
#     4  12  24  41  69 101 133 172 224 282 338 396
#     4  11  22  43  63  95 135 177 223 276 329 394
#     4  11  19  43  70  93 129 174 224 279 333 392
#
# _framework density 20.642233999999998
#
# number of rings (size 3 to 8) (size 9 to 14) (size 15 to 20)
#    0.000    0.727    9.091    1.636    1.273    0.727 
#    1.636    0.909    0.000    0.000    0.000    0.000 
#    0.000    0.000    0.000    0.000    0.000    0.000 
#
# Total GULP energy -272655.724732 kJ/mol
# GULP energy per Si atom -12393.442033 kJ/mol
# Density = 2.059525 g / cm^3
# Si number density = 20.642234 Si / 1000 Ang^3
#
#
#
# Elastic Constant Matrix: (Units=GPa)
#
#
# Indices 1 2 3 4 5 6 
#
# 1 165.7698 49.3457 46.1444 0.0019 1.9245 -0.0008
# 2 49.3457 67.0434 34.5851 0.0083 -5.5298 -0.0026
# 3 46.1444 34.5851 66.0682 0.0103 -7.9618 -0.0022
# 4 0.0019 0.0083 0.0103 26.2057 -0.0011 2.1237
# 5 1.9245 -5.5298 -7.9618 -0.0011 39.4789 0.0007
# 6 -0.0008 -0.0026 -0.0022 2.1237 0.0007 28.0253
#
#
#
# Elastic Compliance Matrix: (Units=1/GPa)
#
#
# Indices 1 2 3 4 5 6 
#
# 1 0.008415 -0.004381 -0.003800 0.000002 -0.001790 -0.000001
# 2 -0.004381 0.022735 -0.008642 -0.000003 0.001655 0.000002
# 3 -0.003800 -0.008642 0.022743 -0.000006 0.003561 0.000001
# 4 0.000002 -0.000003 -0.000006 0.038395 -0.000001 -0.002910
# 5 -0.001790 0.001655 0.003561 -0.000001 0.026367 0.000000
# 6 -0.000001 0.000002 0.000001 -0.002910 0.000000 0.035903
#
#
# Mechanical properties :
#
#
# Convention : Reuss Voigt Hill
#
# Bulk Modulus (GPa) = 49.38908 62.11464 55.75186
# Shear Modulus (GPa) = 25.64731 29.99573 27.82152
#
# Velocity S-wave (km/s) = 3.52869 3.81612 3.67522
# Velocity P-wave (km/s) = 6.37027 7.04084 6.71393
#
# Compressibility (1/GPa) = 0.02024739
#
# Stress axis : x y z
#
# Youngs Moduli (GPa) = 118.83326 43.98529 43.97042
#
# Poissons Ratio (x) = 0.19271 0.16707
# Poissons Ratio (y) = 0.52065 0.37998
# Poissons Ratio (z) = 0.45153 0.38010
#
# Static dielectric constant tensor:
#      x y z
#    x 4.146740 0.000000 -0.142720 
#    y 0.000000 3.362320 0.000010 
#    z -0.142720 0.000010 3.697140 
# 
# 
# High freq. dielectric constant tensor:
#      x y z
#    x 1.836220 0.000000 -0.002480 
#    y 0.000000 1.774930 0.000000 
#    z -0.002480 0.000000 1.787130 
# 
# From -- ./inp_files/123390.got.cif
#   From: 2010.06.25/outbox.cif.g09.slc.cpg/sg15_62_cif.got.tgz:123390.got - 2010.06.28 07:06:18.
