data_PCOD8151987
_publ_section_title
;
Structure prediction by ZEFSAII (Michael W. Deem and Ramdas Pophale) SiO2 
 PCOD8151987
Probable space group: C 2/C
;
_chemical_formula_sum "Si O2"
_cell_formula_units_Z 64
_cell_length_a 10.950596
_cell_length_b 23.811461
_cell_length_c 12.454590
_cell_angle_alpha 90.000000
_cell_angle_beta 101.906756
_cell_angle_gamma 90.000000
_cell_volume 3177.658766
_symmetry_space_group_name_H-M "C 2/C"
_symmetry_group_IT_number 15
_symmetry_cell_setting 'monoclinic'
loop_
_space_group_symop_operation_xyz
x,y,z
-x,y,1/2-z
-x,-y,-z
x,-y,1/2+z
1/2+x,1/2+y,z
1/2-x,1/2+y,1/2-z
1/2-x,1/2-y,-z
1/2+x,1/2-y,1/2+z
loop_
_atom_site_type_symbol
_atom_site_label
_atom_site_fract_x
_atom_site_fract_y
_atom_site_fract_z
Si Si1 0.887022 0.261372 0.155870
Si Si2 0.272882 0.156145 0.355114
Si Si3 0.804644 0.384389 0.467880
Si Si4 0.490448 0.215717 0.041886
Si Si5 0.283803 0.362161 0.415623
Si Si6 0.459165 0.667077 0.621211
Si Si7 0.638531 0.057555 0.741320
Si Si8 0.142342 0.428787 0.792283
O O1 0.836386 0.201178 0.185191
O O2 0.775924 0.305980 0.146178
O O3 0.000000 0.281589 0.250000
O O4 0.933333 0.257251 0.042854
O O5 0.408726 0.184287 0.366259
O O6 0.259588 0.128235 0.470040
O O7 0.264200 0.109103 0.262052
O O8 0.884005 0.327023 0.484575
O O9 0.661176 0.369119 0.427514
O O10 0.847263 0.423752 0.378678
O O11 0.821670 0.421399 0.577325
O O12 0.429368 0.267071 0.095993
O O13 0.432358 0.356049 0.436682
O O14 0.239169 0.414446 0.337511
O O15 0.500000 0.657160 0.750000
O O16 0.500000 0.075400 0.750000
O O17 0.661470 0.991673 0.755465
O O18 0.000000 0.409882 0.750000
#
# Coordination Sequence:
#
# PCOD8151987 Si02
#       8
#     8   8   8   8   8   8   8   8
#     4  11  22  36  66  98 134 175 224 263 332 412
#     4  11  22  41  66  94 137 174 219 269 342 398
#     4  12  26  44  69 104 136 173 234 280 340 405
#     4  11  22  40  64 100 135 178 211 275 337 406
#     4  11  21  44  66  96 130 182 220 274 327 405
#     4  12  25  41  66  99 143 181 216 271 343 406
#     4  11  25  45  72  96 128 175 233 284 341 396
#     4  11  27  44  70 101 133 176 222 295 344 384
#
# _framework density 20.140613999999999
#
# number of rings (size 3 to 8) (size 9 to 14) (size 15 to 20)
#    0.000    0.750    5.000    3.750    5.250    1.000 
#    0.000    0.625    5.500    0.000    0.000    0.000 
#    0.000    0.000    0.000    0.000    0.000    0.000 
#
# Total GULP energy -396984.093121 kJ/mol
# GULP energy per Si atom -12405.752910 kJ/mol
# Density = 2.009477 g / cm^3
# Si number density = 20.140614 Si / 1000 Ang^3
#
#
#
# Elastic Constant Matrix: (Units=GPa)
#
#
# Indices 1 2 3 4 5 6 
#
# 1 118.8080 55.1551 49.6624 0.0000 7.9795 0.0000
# 2 55.1551 101.2479 57.3368 0.0000 -9.9062 0.0000
# 3 49.6624 57.3368 115.5581 0.0000 -8.5762 0.0000
# 4 0.0000 0.0000 0.0000 30.3853 0.0000 -4.5668
# 5 7.9795 -9.9062 -8.5762 0.0000 27.6654 0.0000
# 6 0.0000 0.0000 0.0000 -4.5668 0.0000 20.2613
#
#
#
# Elastic Compliance Matrix: (Units=1/GPa)
#
#
# Indices 1 2 3 4 5 6 
#
# 1 0.012942 -0.005955 -0.003114 0.000000 -0.006830 0.000000
# 2 -0.005955 0.016703 -0.005279 0.000000 0.006062 0.000000
# 3 -0.003114 -0.005279 0.012833 0.000000 0.002986 0.000000
# 4 0.000000 0.000000 0.000000 0.034065 0.000000 0.007678
# 5 -0.006830 0.006062 0.002986 0.000000 0.041213 0.000000
# 6 0.000000 0.000000 0.000000 0.007678 0.000000 0.051086
#
#
# Mechanical properties :
#
#
# Convention : Reuss Voigt Hill
#
# Bulk Modulus (GPa) = 72.55601 73.32472 72.94037
# Shear Modulus (GPa) = 24.73655 27.22639 25.98147
#
# Velocity S-wave (km/s) = 3.50836 3.68069 3.59556
# Velocity P-wave (km/s) = 7.24668 7.38571 7.31653
#
# Compressibility (1/GPa) = 0.01378246
#
# Stress axis : x y z
#
# Youngs Moduli (GPa) = 77.26824 59.86939 77.92587
#
# Poissons Ratio (x) = 0.35651 0.24268
# Poissons Ratio (y) = 0.46012 0.41133
# Poissons Ratio (z) = 0.24063 0.31602
#
# Static dielectric constant tensor:
#      x y z
#    x 3.742810 0.000000 -0.004530 
#    y 0.000000 3.558330 0.000000 
#    z -0.004530 0.000000 3.730570 
# 
# 
# High freq. dielectric constant tensor:
#      x y z
#    x 1.788190 0.000000 -0.004400 
#    y 0.000000 1.778780 0.000000 
#    z -0.004400 0.000000 1.793130 
# 
# From -- ./inp_files/90839.got.cif
#   From: 2010.06.25/outbox.cif.g09.slc.cpg/sg15_46_cif.got.tgz:90839.got - 2010.06.28 07:06:18.
