data_PCOD8151522
_publ_section_title
;
Structure prediction by ZEFSAII (Michael W. Deem and Ramdas Pophale) SiO2 
 PCOD8151522
Probable space group: C 2/C
;
_chemical_formula_sum "Si O2"
_cell_formula_units_Z 64
_cell_length_a 22.906100
_cell_length_b 14.455118
_cell_length_c 15.983844
_cell_angle_alpha 90.000000
_cell_angle_beta 39.880801
_cell_angle_gamma 90.000000
_cell_volume 3393.458009
_symmetry_space_group_name_H-M "C 2/C"
_symmetry_group_IT_number 15
_symmetry_cell_setting 'monoclinic'
loop_
_space_group_symop_operation_xyz
x,y,z
-x,y,1/2-z
-x,-y,-z
x,-y,1/2+z
1/2+x,1/2+y,z
1/2-x,1/2+y,1/2-z
1/2-x,1/2-y,-z
1/2+x,1/2-y,1/2+z
loop_
_atom_site_type_symbol
_atom_site_label
_atom_site_fract_x
_atom_site_fract_y
_atom_site_fract_z
Si Si1 0.395882 0.265491 0.887674
Si Si2 0.665499 0.689253 0.461031
Si Si3 0.905084 0.328502 0.838068
Si Si4 0.380682 0.424043 0.637531
Si Si5 0.424685 0.386677 0.017844
Si Si6 0.153089 0.793540 0.242640
Si Si7 0.727522 0.566545 0.535814
Si Si8 0.765729 0.131817 0.411755
O O1 0.500000 0.236161 0.750000
O O2 0.398562 0.345036 0.956216
O O3 0.343379 0.299932 0.862349
O O4 0.334979 0.177599 0.984316
O O5 0.596145 0.742273 0.596981
O O6 0.610182 0.655804 0.441647
O O7 0.746785 0.757096 0.343823
O O8 0.701726 0.599891 0.471639
O O9 0.895763 0.288031 0.755127
O O10 0.828539 0.400636 0.946042
O O11 0.000000 0.380486 0.750000
O O12 0.469941 0.418524 0.597844
O O13 0.366616 0.522249 0.606131
O O14 0.291729 0.402772 0.790543
O O15 0.404497 0.309776 0.110380
O O16 0.160474 0.888494 0.179678
O O17 0.730741 0.456404 0.531265
#
# Coordination Sequence:
#
# PCOD8151522 Si02
#       8
#     8   8   8   8   8   8   8   8
#     4  11  24  41  58  82 111 153 197 234 277 339
#     4   9  18  32  51  79 107 140 174 221 277 337
#     4   9  17  30  52  80 108 139 174 220 281 338
#     4  11  21  33  55  84 107 139 182 225 292 325
#     4  11  21  35  55  82 111 137 183 239 273 335
#     4   9  17  32  53  76 108 138 171 224 278 328
#     4   9  18  34  53  78 110 139 184 222 275 344
#     4  11  22  40  60  77 113 154 186 236 283 329
#
# _framework density 18.859817
#
# number of rings (size 3 to 8) (size 9 to 14) (size 15 to 20)
#    0.000    2.000    2.500    3.750    0.000    0.500 
#    0.000    0.625    0.000    0.000    0.000    8.750 
#    0.000    0.000    0.000    0.000    0.000    0.000 
#
# Total GULP energy -396650.857064 kJ/mol
# GULP energy per Si atom -12395.339283 kJ/mol
# Density = 1.881689 g / cm^3
# Si number density = 18.859817 Si / 1000 Ang^3
#
#
#
# Elastic Constant Matrix: (Units=GPa)
#
#
# Indices 1 2 3 4 5 6 
#
# 1 63.4588 9.6944 24.4725 0.0000 -8.3952 0.0000
# 2 9.6944 65.8060 19.1285 0.0000 0.8778 0.0000
# 3 24.4725 19.1285 93.3992 0.0000 -2.3493 0.0000
# 4 0.0000 0.0000 0.0000 26.1460 0.0000 1.7354
# 5 -8.3952 0.8778 -2.3493 0.0000 28.5365 0.0000
# 6 0.0000 0.0000 0.0000 1.7354 0.0000 18.5918
#
#
#
# Elastic Compliance Matrix: (Units=1/GPa)
#
#
# Indices 1 2 3 4 5 6 
#
# 1 0.018346 -0.001500 -0.004372 0.000000 0.005083 0.000000
# 2 -0.001500 0.016298 -0.002975 0.000000 -0.001187 0.000000
# 3 -0.004372 -0.002975 0.012457 0.000000 -0.000169 0.000000
# 4 0.000000 0.000000 0.000000 0.038485 0.000000 -0.003592
# 5 0.005083 -0.001187 -0.000169 0.000000 0.036561 0.000000
# 6 0.000000 0.000000 0.000000 -0.003592 0.000000 0.054122
#
#
# Mechanical properties :
#
#
# Convention : Reuss Voigt Hill
#
# Bulk Modulus (GPa) = 34.00433 36.58388 35.29411
# Shear Modulus (GPa) = 24.53809 25.94611 25.24210
#
# Velocity S-wave (km/s) = 3.61096 3.71311 3.66239
# Velocity P-wave (km/s) = 5.95437 6.15003 6.05299
#
# Compressibility (1/GPa) = 0.02940802
#
# Stress axis : x y z
#
# Youngs Moduli (GPa) = 54.50808 61.35853 80.27438
#
# Poissons Ratio (x) = 0.09202 0.35096
# Poissons Ratio (y) = 0.08174 0.23880
# Poissons Ratio (z) = 0.23831 0.18253
#
# Static dielectric constant tensor:
#      x y z
#    x 3.309520 0.000000 -0.025240 
#    y 0.000000 3.322710 0.000000 
#    z -0.025240 0.000000 3.384130 
# 
# 
# High freq. dielectric constant tensor:
#      x y z
#    x 1.724640 0.000000 0.000660 
#    y 0.000000 1.716650 0.000000 
#    z 0.000660 0.000000 1.730210 
# 
# From -- ./inp_files/173662.got.cif
#   From: 2010.06.25/outbox.cif.g09.slc.cpg/sg15_87_cif.got.tgz:173662.got - 2010.06.28 07:06:18.
