data_PCOD8151816
_publ_section_title
;
Structure prediction by ZEFSAII (Michael W. Deem and Ramdas Pophale) SiO2 
 PCOD8151816
Probable space group: C 2/C
;
_chemical_formula_sum "Si O2"
_cell_formula_units_Z 52
_cell_length_a 9.967283
_cell_length_b 27.078910
_cell_length_c 15.872756
_cell_angle_alpha 90.000000
_cell_angle_beta 146.582576
_cell_angle_gamma 90.000000
_cell_volume 2359.405937
_symmetry_space_group_name_H-M "C 2/C"
_symmetry_group_IT_number 15
_symmetry_cell_setting 'monoclinic'
loop_
_space_group_symop_operation_xyz
x,y,z
-x,y,1/2-z
-x,-y,-z
x,-y,1/2+z
1/2+x,1/2+y,z
1/2-x,1/2+y,1/2-z
1/2-x,1/2-y,-z
1/2+x,1/2-y,1/2+z
loop_
_atom_site_type_symbol
_atom_site_label
_atom_site_fract_x
_atom_site_fract_y
_atom_site_fract_z
Si Si1 0.083303 0.307092 0.126478
Si Si2 0.678431 0.102886 0.453684
Si Si3 0.000000 0.154754 0.750000
Si Si4 0.757515 0.999970 0.931233
Si Si5 0.327819 0.893455 0.079773
Si Si6 0.298983 0.358052 0.840016
Si Si7 0.203651 0.220579 0.297134
O O1 0.365738 0.312779 0.249685
O O2 0.093269 0.274660 0.216951
O O3 0.958335 0.360841 0.076304
O O4 0.949069 0.277640 0.980701
O O5 0.785248 0.122686 0.596411
O O6 0.789743 0.048308 0.505131
O O7 0.382286 0.102168 0.300273
O O8 0.751767 0.140178 0.415486
O O9 0.500000 0.992491 0.750000
O O10 0.735176 0.049451 0.977325
O O11 0.000000 0.000000 0.000000
O O12 0.500000 0.895609 0.250000
O O13 0.078518 0.868122 0.972617
O O14 0.245216 0.306133 0.765361
O O15 0.000000 0.194177 0.250000
#
# Coordination Sequence:
#
# PCOD8151816 Si02
#       7
#     8   8   4   8   8   8   8
#     4  12  28  45  68 100 139 184 236 298 350 425
#     4  11  23  44  70 102 143 186 236 285 352 424
#     4  12  28  46  66 102 146 180 236 296 356 410
#     4  11  21  40  71 107 139 188 238 290 356 431
#     4  11  23  40  71 105 137 180 236 293 349 413
#     4  11  22  44  70  97 140 184 228 285 353 421
#     4  12  26  46  71  99 135 179 234 290 362 422
#
# _framework density 22.039446000000002
#
# number of rings (size 3 to 8) (size 9 to 14) (size 15 to 20)
#    0.000    0.615    6.154    1.846    6.462    1.846 
#    0.000    2.308    0.000    0.000    0.000    0.000 
#    0.000    0.000    0.000    0.000    0.000    0.000 
#
# Total GULP energy -322185.334958 kJ/mol
# GULP energy per Si atom -12391.743652 kJ/mol
# Density = 2.198928 g / cm^3
# Si number density = 22.039446 Si / 1000 Ang^3
#
#
#
# Elastic Constant Matrix: (Units=GPa)
#
#
# Indices 1 2 3 4 5 6 
#
# 1 89.0177 41.9472 31.6784 0.0000 15.7172 0.0001
# 2 41.9472 111.4245 19.2879 0.0000 -7.7089 0.0000
# 3 31.6784 19.2879 116.0952 0.0000 9.0629 0.0001
# 4 0.0000 0.0000 0.0000 21.6727 0.0000 -2.4898
# 5 15.7172 -7.7089 9.0629 0.0000 45.4262 0.0001
# 6 0.0001 0.0000 0.0001 -2.4898 0.0001 61.7167
#
#
#
# Elastic Compliance Matrix: (Units=1/GPa)
#
#
# Indices 1 2 3 4 5 6 
#
# 1 0.016171 -0.005994 -0.002946 0.000000 -0.006024 0.000000
# 2 -0.005994 0.011628 -0.000622 0.000000 0.004171 0.000000
# 3 -0.002946 -0.000622 0.009599 0.000000 -0.001001 0.000000
# 4 0.000000 0.000000 0.000000 0.046356 0.000000 0.001870
# 5 -0.006024 0.004171 -0.001001 0.000000 0.025006 0.000000
# 6 0.000000 0.000000 0.000000 0.001870 0.000000 0.016279
#
#
# Mechanical properties :
#
#
# Convention : Reuss Voigt Hill
#
# Bulk Modulus (GPa) = 54.72734 55.81828 55.27281
# Shear Modulus (GPa) = 33.27724 40.67138 36.97431
#
# Velocity S-wave (km/s) = 3.88995 4.30046 4.10035
# Velocity P-wave (km/s) = 6.71276 7.07391 6.89570
#
# Compressibility (1/GPa) = 0.01827240
#
# Stress axis : x y z
#
# Youngs Moduli (GPa) = 61.84077 86.00243 104.17755
#
# Poissons Ratio (x) = 0.51553 0.30693
# Poissons Ratio (y) = 0.37070 0.06477
# Poissons Ratio (z) = 0.18220 0.05347
#
# Static dielectric constant tensor:
#      x y z
#    x 3.772400 0.000000 0.383550 
#    y 0.000000 4.266860 0.000000 
#    z 0.383550 0.000000 4.012170 
# 
# 
# High freq. dielectric constant tensor:
#      x y z
#    x 1.854660 0.000000 0.022430 
#    y 0.000000 1.860690 0.000000 
#    z 0.022430 0.000000 1.880160 
# 
# From -- ./inp_files/139879.got.cif
#   From: 2010.06.25/outbox.cif.g09.slc.cpg/sg15_70_cif.got.tgz:139879.got - 2010.06.28 07:06:18.
