data_PCOD8151534
_publ_section_title
;
Structure prediction by ZEFSAII (Michael W. Deem and Ramdas Pophale) SiO2 
 PCOD8151534
Probable space group: C 2/C
;
_chemical_formula_sum "Si O2"
_cell_formula_units_Z 64
_cell_length_a 16.888016
_cell_length_b 9.937468
_cell_length_c 28.854259
_cell_angle_alpha 90.000000
_cell_angle_beta 140.124644
_cell_angle_gamma 90.000000
_cell_volume 3104.583570
_symmetry_space_group_name_H-M "C 2/C"
_symmetry_group_IT_number 15
_symmetry_cell_setting 'monoclinic'
loop_
_space_group_symop_operation_xyz
x,y,z
-x,y,1/2-z
-x,-y,-z
x,-y,1/2+z
1/2+x,1/2+y,z
1/2-x,1/2+y,1/2-z
1/2-x,1/2-y,-z
1/2+x,1/2-y,1/2+z
loop_
_atom_site_type_symbol
_atom_site_label
_atom_site_fract_x
_atom_site_fract_y
_atom_site_fract_z
Si Si1 0.960285 0.507129 0.585308
Si Si2 0.195134 0.048877 0.924954
Si Si3 0.987337 0.246819 0.454208
Si Si4 0.026973 0.954694 0.431508
Si Si5 0.273250 0.687914 0.417998
Si Si6 0.121743 0.281639 0.609634
Si Si7 0.909838 0.544545 0.666344
Si Si8 0.860777 0.172788 0.171767
O O1 0.818931 0.470315 0.510627
O O2 0.976261 0.509238 0.647918
O O3 0.993876 0.653157 0.580109
O O4 0.054040 0.396948 0.608224
O O5 0.072577 0.019322 0.899858
O O6 0.186121 0.200773 0.902251
O O7 0.194502 0.950046 0.881554
O O8 0.844386 0.253370 0.406146
O O9 0.076730 0.289214 0.536130
O O10 0.015388 0.094294 0.452648
O O11 0.125901 0.857963 0.499834
O O12 0.901442 0.865824 0.377619
O O13 0.194030 0.561756 0.366407
O O14 0.269744 0.307298 0.675349
O O15 0.852141 0.693577 0.635974
O O16 0.000000 0.546613 0.750000
O O17 0.000000 0.141143 0.250000
#
# Coordination Sequence:
#
# PCOD8151534 Si02
#       8
#     8   8   8   8   8   8   8   8
#     4  12  22  39  65  98 125 163 209 265 314 368
#     4  12  22  38  65  97 129 158 212 264 314 369
#     4  11  21  34  61  98 126 156 206 260 317 362
#     4  11  21  34  60  98 125 161 201 264 311 366
#     4  11  21  38  61  92 129 158 203 262 313 372
#     4  11  21  39  62  94 128 161 202 260 320 368
#     4  11  25  44  62  87 127 174 211 253 315 377
#     4  11  25  44  62  88 129 171 210 256 315 381
#
# _framework density 20.614681999999998
#
# number of rings (size 3 to 8) (size 9 to 14) (size 15 to 20)
#    0.000    0.750    5.000    6.000    0.000    1.500 
#    0.000    6.250    0.000    0.000    0.000    0.000 
#    0.000    0.000    0.000    0.000    0.000    0.000 
#
# Total GULP energy -396860.648763 kJ/mol
# GULP energy per Si atom -12401.895274 kJ/mol
# Density = 2.056776 g / cm^3
# Si number density = 20.614682 Si / 1000 Ang^3
#
#
#
# Elastic Constant Matrix: (Units=GPa)
#
#
# Indices 1 2 3 4 5 6 
#
# 1 134.8981 29.5317 37.7659 0.0000 4.4957 0.0000
# 2 29.5317 110.9800 31.2183 0.0000 -6.5460 0.0000
# 3 37.7659 31.2183 52.5575 0.0000 -0.0936 0.0000
# 4 0.0000 0.0000 0.0000 7.9147 0.0000 11.6787
# 5 4.4957 -6.5460 -0.0936 0.0000 23.5443 0.0000
# 6 0.0000 0.0000 0.0000 11.6787 0.0000 39.4940
#
#
#
# Elastic Compliance Matrix: (Units=1/GPa)
#
#
# Indices 1 2 3 4 5 6 
#
# 1 0.009425 -0.000869 -0.006260 0.000000 -0.002066 0.000000
# 2 -0.000869 0.011112 -0.005970 0.000000 0.003232 0.000000
# 3 -0.006260 -0.005970 0.027070 0.000000 -0.000357 0.000000
# 4 0.000000 0.000000 0.000000 0.224154 0.000000 -0.066284
# 5 -0.002066 0.003232 -0.000357 0.000000 0.043765 0.000000
# 6 0.000000 0.000000 0.000000 -0.066284 0.000000 0.044921
#
#
# Mechanical properties :
#
#
# Convention : Reuss Voigt Hill
#
# Bulk Modulus (GPa) = 46.70889 55.05195 50.88042
# Shear Modulus (GPa) = 12.69743 27.51859 20.10801
#
# Velocity S-wave (km/s) = 2.48451 3.65760 3.12656
# Velocity P-wave (km/s) = 5.56216 6.67836 6.14566
#
# Compressibility (1/GPa) = 0.02140920
#
# Stress axis : x y z
#
# Youngs Moduli (GPa) = 106.10607 89.99416 36.94087
#
# Poissons Ratio (x) = 0.07820 0.23124
# Poissons Ratio (y) = 0.09220 0.22054
# Poissons Ratio (z) = 0.66419 0.53728
#
# Static dielectric constant tensor:
#      x y z
#    x 4.338410 0.000000 0.202130 
#    y 0.000000 4.046580 0.000000 
#    z 0.202130 0.000000 3.325280 
# 
# 
# High freq. dielectric constant tensor:
#      x y z
#    x 1.827660 0.000000 0.008410 
#    y 0.000000 1.828860 0.000000 
#    z 0.008410 0.000000 1.755260 
# 
# From -- ./inp_files/315725.got.cif
#   From: 2010.06.25/outbox.cif.g09.slc.cpg/sg15_158_cif.got.tgz:315725.got - 2010.06.28 07:06:18.
