data_PCOD8151057
_publ_section_title
;
Structure prediction by ZEFSAII (Michael W. Deem and Ramdas Pophale) SiO2 
 PCOD8151057
Probable space group: C 2/C
;
_chemical_formula_sum "Si O2"
_cell_formula_units_Z 56
_cell_length_a 17.858325
_cell_length_b 16.641530
_cell_length_c 10.762034
_cell_angle_alpha 90.000000
_cell_angle_beta 60.719812
_cell_angle_gamma 90.000000
_cell_volume 2789.738894
_symmetry_space_group_name_H-M "C 2/C"
_symmetry_group_IT_number 15
_symmetry_cell_setting 'monoclinic'
loop_
_space_group_symop_operation_xyz
x,y,z
-x,y,1/2-z
-x,-y,-z
x,-y,1/2+z
1/2+x,1/2+y,z
1/2-x,1/2+y,1/2-z
1/2-x,1/2-y,-z
1/2+x,1/2-y,1/2+z
loop_
_atom_site_type_symbol
_atom_site_label
_atom_site_fract_x
_atom_site_fract_y
_atom_site_fract_z
Si Si1 0.610955 0.075065 0.339043
Si Si2 0.680001 0.615936 0.639720
Si Si3 0.038539 0.589941 0.844380
Si Si4 0.591596 0.227334 0.188307
Si Si5 0.329204 0.192181 0.633154
Si Si6 0.054751 0.021382 0.331221
Si Si7 0.798369 0.874134 0.673540
O O1 0.545859 0.077375 0.505100
O O2 0.585909 0.147241 0.270822
O O3 0.711586 0.083734 0.295776
O O4 0.594641 0.991009 0.282795
O O5 0.653938 0.707063 0.694910
O O6 0.765809 0.616331 0.653817
O O7 0.610827 0.555126 0.748381
O O8 0.693982 0.605319 0.480297
O O9 0.102344 0.662281 0.823746
O O10 0.000000 0.620653 0.750000
O O11 0.500000 0.270122 0.250000
O O12 0.618306 0.204167 0.031776
O O13 0.289843 0.278534 0.705611
O O14 0.119382 0.093239 0.316635
O O15 0.000000 0.044780 0.250000
O O16 0.000000 0.000000 0.500000
#
# Coordination Sequence:
#
# PCOD8151057 Si02
#       7
#     8   8   8   8   8   8   8
#     4  11  22  41  65  93 128 170 216 264 326 387
#     4  11  22  41  68 100 129 166 227 278 325 387
#     4  11  26  40  60  94 136 173 212 262 329 403
#     4  11  19  35  69  97 121 163 220 272 319 377
#     4  11  22  41  67  99 128 170 216 276 330 388
#     4  12  26  45  67  99 136 181 222 274 337 396
#     4  11  23  43  71  99 130 167 223 277 331 392
#
# _framework density 20.073564000000001
#
# number of rings (size 3 to 8) (size 9 to 14) (size 15 to 20)
#    0.000    0.857    5.714    2.571    4.000    1.714 
#    2.571    0.714    0.000    0.000    0.000    0.000 
#    0.000    0.000    0.000    0.000    0.000    0.000 
#
# Total GULP energy -346875.159335 kJ/mol
# GULP energy per Si atom -12388.398548 kJ/mol
# Density = 2.002788 g / cm^3
# Si number density = 20.073564 Si / 1000 Ang^3
#
#
#
# Elastic Constant Matrix: (Units=GPa)
#
#
# Indices 1 2 3 4 5 6 
#
# 1 179.0332 16.8788 83.7097 0.0000 30.0035 0.0000
# 2 16.8788 163.6976 -36.3548 0.0000 -49.1585 0.0000
# 3 83.7097 -36.3548 155.6957 0.0000 57.2904 0.0000
# 4 0.0000 0.0000 0.0000 28.6861 0.0000 -9.6107
# 5 30.0035 -49.1585 57.2904 0.0000 82.5676 0.0000
# 6 0.0000 0.0000 0.0000 -9.6107 0.0000 40.3049
#
#
#
# Elastic Compliance Matrix: (Units=1/GPa)
#
#
# Indices 1 2 3 4 5 6 
#
# 1 0.008039 -0.002151 -0.004402 0.000000 -0.001147 0.000000
# 2 -0.002151 0.008017 0.001322 0.000000 0.004637 0.000000
# 3 -0.004402 0.001322 0.011038 0.000000 -0.005272 0.000000
# 4 0.000000 0.000000 0.000000 0.037887 0.000000 0.009034
# 5 -0.001147 0.004637 -0.005272 0.000000 0.018947 0.000000
# 6 0.000000 0.000000 0.000000 0.009034 0.000000 0.026965
#
#
# Mechanical properties :
#
#
# Convention : Reuss Voigt Hill
#
# Bulk Modulus (GPa) = 60.12633 69.65488 64.89061
# Shear Modulus (GPa) = 39.40118 59.25793 49.32956
#
# Velocity S-wave (km/s) = 4.43520 5.43916 4.96263
# Velocity P-wave (km/s) = 7.49974 8.61517 8.07673
#
# Compressibility (1/GPa) = 0.01663165
#
# Stress axis : x y z
#
# Youngs Moduli (GPa) = 124.39387 124.73741 90.59328
#
# Poissons Ratio (x) = 0.26833 0.39881
# Poissons Ratio (y) = 0.26759 -0.11977
# Poissons Ratio (z) = 0.54761 -0.16492
#
# Static dielectric constant tensor:
#      x y z
#    x 4.014340 0.000000 -0.256400 
#    y 0.000000 23.995360 0.000000 
#    z -0.256400 0.000000 3.537520 
# 
# 
# High freq. dielectric constant tensor:
#      x y z
#    x 1.803810 0.000000 -0.018280 
#    y 0.000000 1.786290 0.000000 
#    z -0.018280 0.000000 1.772500 
# 
# From -- ./inp_files/105647.got.cif
#   From: 2010.06.25/outbox.cif.g09.slc.cpg/sg15_53_cif.got.tgz:105647.got - 2010.06.28 07:06:18.
