data_PCOD8151088
_publ_section_title
;
Structure prediction by ZEFSAII (Michael W. Deem and Ramdas Pophale) SiO2 
 PCOD8151088
Probable space group: C 2/C
;
_chemical_formula_sum "Si O2"
_cell_formula_units_Z 56
_cell_length_a 22.833102
_cell_length_b 12.709518
_cell_length_c 11.816979
_cell_angle_alpha 90.000000
_cell_angle_beta 51.630868
_cell_angle_gamma 90.000000
_cell_volume 2688.636103
_symmetry_space_group_name_H-M "C 2/C"
_symmetry_group_IT_number 15
_symmetry_cell_setting 'monoclinic'
loop_
_space_group_symop_operation_xyz
x,y,z
-x,y,1/2-z
-x,-y,-z
x,-y,1/2+z
1/2+x,1/2+y,z
1/2-x,1/2+y,1/2-z
1/2-x,1/2-y,-z
1/2+x,1/2-y,1/2+z
loop_
_atom_site_type_symbol
_atom_site_label
_atom_site_fract_x
_atom_site_fract_y
_atom_site_fract_z
Si Si1 0.783722 0.886746 0.983039
Si Si2 0.920315 0.969693 0.055255
Si Si3 0.080486 0.781135 0.604720
Si Si4 0.199230 0.385805 0.321109
Si Si5 0.682962 0.880754 0.886084
Si Si6 0.679422 0.609154 0.639650
Si Si7 0.671585 0.672703 0.411479
O O1 0.750829 0.878333 0.148886
O O2 0.851826 0.801575 0.886015
O O3 0.722869 0.867872 0.959707
O O4 0.815567 0.002147 0.936682
O O5 0.888410 0.897219 0.192707
O O6 0.871415 0.074397 0.092443
O O7 0.928208 0.896753 0.937259
O O8 0.000000 0.000000 0.000000
O O9 0.107859 0.690142 0.483702
O O10 0.000000 0.745134 0.750000
O O11 0.158998 0.499160 0.382757
O O12 0.246929 0.366634 0.377781
O O13 0.143667 0.284141 0.388929
O O14 0.739676 0.840403 0.721948
O O15 0.662122 0.689406 0.558144
#
# Coordination Sequence:
#
# PCOD8151088 Si02
#       7
#     8   8   8   8   8   8   8
#     4  11  19  38  62  94 124 157 216 266 315 372
#     4  12  25  40  63  96 134 167 212 266 330 389
#     4  12  24  40  64  90 127 172 214 268 326 383
#     4  11  22  37  62  95 123 166 209 267 319 374
#     4  11  23  39  64  97 127 164 222 272 312 384
#     4  11  19  39  59  96 127 162 205 262 324 375
#     4  12  22  38  65  94 131 163 211 266 326 373
#
# _framework density 20.828403999999999
#
# number of rings (size 3 to 8) (size 9 to 14) (size 15 to 20)
#    0.000    0.571    8.571    1.714    0.000    0.000 
#    0.000    0.000    3.143    1.714    0.000    0.000 
#    0.000    0.000    0.000    0.000    0.000    0.000 
#
# Total GULP energy -346886.198055 kJ/mol
# GULP energy per Si atom -12388.792788 kJ/mol
# Density = 2.078100 g / cm^3
# Si number density = 20.828404 Si / 1000 Ang^3
#
#
#
# Elastic Constant Matrix: (Units=GPa)
#
#
# Indices 1 2 3 4 5 6 
#
# 1 28.3240 13.8773 29.2311 0.0000 -0.1803 0.0000
# 2 13.8773 114.9955 28.6225 0.0000 -15.8682 0.0000
# 3 29.2311 28.6225 89.9116 0.0000 -3.9902 0.0000
# 4 0.0000 0.0000 0.0000 33.9999 0.0000 0.6185
# 5 -0.1803 -15.8682 -3.9902 0.0000 35.3451 0.0000
# 6 0.0000 0.0000 0.0000 0.6185 0.0000 17.2881
#
#
#
# Elastic Compliance Matrix: (Units=1/GPa)
#
#
# Indices 1 2 3 4 5 6 
#
# 1 0.053963 -0.002722 -0.016804 0.000000 -0.002844 0.000000
# 2 -0.002722 0.010155 -0.002157 0.000000 0.004302 0.000000
# 3 -0.016804 -0.002157 0.017312 0.000000 0.000900 0.000000
# 4 0.000000 0.000000 0.000000 0.029431 0.000000 -0.001053
# 5 -0.002844 0.004302 0.000900 0.000000 0.030311 0.000000
# 6 0.000000 0.000000 0.000000 -0.001053 0.000000 0.057881
#
#
# Mechanical properties :
#
#
# Convention : Reuss Voigt Hill
#
# Bulk Modulus (GPa) = 26.27115 41.85477 34.06296
# Shear Modulus (GPa) = 19.59975 28.09331 23.84653
#
# Velocity S-wave (km/s) = 3.07092 3.67658 3.38731
# Velocity P-wave (km/s) = 5.02141 6.17751 5.62922
#
# Compressibility (1/GPa) = 0.03806457
#
# Stress axis : x y z
#
# Youngs Moduli (GPa) = 18.53124 98.47461 57.76480
#
# Poissons Ratio (x) = 0.26805 0.97065
# Poissons Ratio (y) = 0.05044 0.12459
# Poissons Ratio (z) = 0.31139 0.21239
#
# Static dielectric constant tensor:
#      x y z
#    x 3.555520 0.000000 0.174110 
#    y 0.000000 0.838170 0.000000 
#    z 0.174110 0.000000 3.709390 
# 
# 
# High freq. dielectric constant tensor:
#      x y z
#    x 1.780000 0.000000 0.030280 
#    y 0.000000 1.834020 0.000000 
#    z 0.030280 0.000000 1.809820 
# 
# From -- ./inp_files/123320.got.cif
#   From: 2010.06.25/outbox.cif.g09.slc.cpg/sg15_62_cif.got.tgz:123320.got - 2010.06.28 07:06:18.
