data_PCOD8151846
_publ_section_title
;
Structure prediction by ZEFSAII (Michael W. Deem and Ramdas Pophale) SiO2 
 PCOD8151846
Probable space group: C 2/C
;
_chemical_formula_sum "Si O2"
_cell_formula_units_Z 48
_cell_length_a 18.272386
_cell_length_b 8.761299
_cell_length_c 29.943316
_cell_angle_alpha 90.000000
_cell_angle_beta 24.456718
_cell_angle_gamma 90.000000
_cell_volume 1984.586377
_symmetry_space_group_name_H-M "C 2/C"
_symmetry_group_IT_number 15
_symmetry_cell_setting 'monoclinic'
loop_
_space_group_symop_operation_xyz
x,y,z
-x,y,1/2-z
-x,-y,-z
x,-y,1/2+z
1/2+x,1/2+y,z
1/2-x,1/2+y,1/2-z
1/2-x,1/2-y,-z
1/2+x,1/2-y,1/2+z
loop_
_atom_site_type_symbol
_atom_site_label
_atom_site_fract_x
_atom_site_fract_y
_atom_site_fract_z
Si Si1 0.295452 0.679604 0.851876
Si Si2 0.750830 0.865322 0.539827
Si Si3 0.117972 0.189425 0.036605
Si Si4 0.366980 0.866368 0.729959
Si Si5 0.757501 0.695873 0.777148
Si Si6 0.292850 0.333931 0.854552
O O1 0.500000 0.672434 0.750000
O O2 0.195359 0.780531 0.944444
O O3 0.261902 0.757491 0.822764
O O4 0.222620 0.507476 0.892795
O O5 0.750000 0.750000 0.500000
O O6 0.547284 0.926833 0.652939
O O7 0.883753 0.005537 0.459854
O O8 0.925769 0.250796 0.154690
O O9 0.250000 0.250000 0.000000
O O10 0.179518 0.242163 0.953588
O O11 0.402069 0.766089 0.664846
O O12 0.246773 0.013113 0.785421
O O13 0.753114 0.763188 0.828729
O O14 0.500000 0.321148 0.750000
#
# Coordination Sequence:
#
# PCOD8151846 Si02
#       6
#     8   8   8   8   8   8
#     4   9  21  39  66  93 127 173 217 265 330 391
#     4  11  23  40  69  96 131 167 224 273 324 394
#     4  12  23  42  69 101 127 173 229 268 325 397
#     4  11  24  44  62  96 134 175 212 274 335 388
#     4  12  26  43  69  96 138 173 219 273 336 394
#     4  11  21  41  68  96 132 173 221 276 328 393
#
# _framework density 24.186399999999999
#
# number of rings (size 3 to 8) (size 9 to 14) (size 15 to 20)
#    0.000    1.000    3.333    3.000    7.000    1.333 
#    3.000    3.333    0.000    0.000    0.000    0.000 
#    0.000    0.000    0.000    0.000    0.000    0.000 
#
# Total GULP energy -297672.512993 kJ/mol
# GULP energy per Si atom -12403.021375 kJ/mol
# Density = 2.413135 g / cm^3
# Si number density = 24.186400 Si / 1000 Ang^3
#
#
#
# Elastic Constant Matrix: (Units=GPa)
#
#
# Indices 1 2 3 4 5 6 
#
# 1 149.4899 55.6245 22.6290 0.0200 46.2970 0.0085
# 2 55.6245 188.5252 8.2772 0.0231 29.3707 -0.0079
# 3 22.6290 8.2772 63.6566 0.0243 26.1133 0.0343
# 4 0.0200 0.0231 0.0243 28.0608 0.0268 13.5216
# 5 46.2970 29.3707 26.1133 0.0268 47.8795 0.0138
# 6 0.0085 -0.0079 0.0343 13.5216 0.0138 46.6207
#
#
#
# Elastic Compliance Matrix: (Units=1/GPa)
#
#
# Indices 1 2 3 4 5 6 
#
# 1 0.009966 -0.001579 0.000281 0.000003 -0.008822 0.000000
# 2 -0.001579 0.006157 0.000881 -0.000003 -0.002731 0.000002
# 3 0.000281 0.000881 0.020390 -0.000002 -0.011933 -0.000011
# 4 0.000003 -0.000003 -0.000002 0.041427 -0.000019 -0.012015
# 5 -0.008822 -0.002731 -0.011933 -0.000019 0.037600 0.000004
# 6 0.000000 0.000002 -0.000011 -0.012015 0.000004 0.024934
#
#
# Mechanical properties :
#
#
# Convention : Reuss Voigt Hill
#
# Bulk Modulus (GPa) = 28.02655 63.85925 45.94290
# Shear Modulus (GPa) = 32.63707 45.52161 39.07934
#
# Velocity S-wave (km/s) = 3.67740 4.34304 4.02401
# Velocity P-wave (km/s) = 5.44462 7.18398 6.37391
#
# Compressibility (1/GPa) = 0.03568046
#
# Stress axis : x y z
#
# Youngs Moduli (GPa) = 100.33706 162.42085 49.04389
#
# Poissons Ratio (x) = 0.25639 -0.01380
# Poissons Ratio (y) = 0.15839 -0.04320
# Poissons Ratio (z) = -0.02823 -0.14306
#
# Static dielectric constant tensor:
#      x y z
#    x 4.796190 0.000640 -0.396390 
#    y 0.000640 4.704780 0.000020 
#    z -0.396390 0.000020 4.825000 
# 
# 
# High freq. dielectric constant tensor:
#      x y z
#    x 1.976240 0.000000 0.005050 
#    y 0.000000 1.973950 0.000000 
#    z 0.005050 0.000000 1.953290 
# 
# From -- ./inp_files/315616.got.cif
#   From: 2010.06.25/outbox.cif.g09.slc.cpg/sg15_158_cif.got.tgz:315616.got - 2010.06.28 07:06:18.
