data_PCOD8151501
_publ_section_title
;
Structure prediction by ZEFSAII (Michael W. Deem and Ramdas Pophale) SiO2 
 PCOD8151501
Probable space group: C 2/C
;
_chemical_formula_sum "Si O2"
_cell_formula_units_Z 60
_cell_length_a 20.980874
_cell_length_b 8.678534
_cell_length_c 21.406489
_cell_angle_alpha 90.000000
_cell_angle_beta 135.372867
_cell_angle_gamma 90.000000
_cell_volume 2738.139896
_symmetry_space_group_name_H-M "C 2/C"
_symmetry_group_IT_number 15
_symmetry_cell_setting 'monoclinic'
loop_
_space_group_symop_operation_xyz
x,y,z
-x,y,1/2-z
-x,-y,-z
x,-y,1/2+z
1/2+x,1/2+y,z
1/2-x,1/2+y,1/2-z
1/2-x,1/2-y,-z
1/2+x,1/2-y,1/2+z
loop_
_atom_site_type_symbol
_atom_site_label
_atom_site_fract_x
_atom_site_fract_y
_atom_site_fract_z
Si Si1 0.890799 0.880974 0.846943
Si Si2 0.896759 0.187871 0.179293
Si Si3 0.559011 0.490918 0.891831
Si Si4 0.916571 0.443135 0.402096
Si Si5 0.380500 0.984209 0.733740
Si Si6 0.323882 0.457073 0.412050
Si Si7 0.760086 0.630190 0.348035
Si Si8 0.500000 0.267263 0.250000
O O1 0.929502 0.739667 0.913576
O O2 0.795885 0.817504 0.752449
O O3 0.874775 0.023886 0.881469
O O4 0.957882 0.930755 0.838207
O O5 0.900698 0.361653 0.206886
O O6 0.819771 0.083281 0.159199
O O7 0.000000 0.112850 0.250000
O O8 0.880395 0.153535 0.094208
O O9 0.552309 0.636014 0.840026
O O10 0.613954 0.537136 0.992150
O O11 0.916692 0.501061 0.330134
O O12 0.825460 0.490195 0.375926
O O13 0.000000 0.500000 0.500000
O O14 0.426222 0.839610 0.732925
O O15 0.272781 0.957450 0.657500
O O16 0.315499 0.273612 0.414941
#
# Coordination Sequence:
#
# PCOD8151501 Si02
#       8
#     8   8   8   8   8   8   8   4
#     4  12  22  44  71  99 140 178 223 287 345 409
#     4  11  20  45  69  96 136 183 227 272 343 414
#     4  12  26  45  69 102 136 183 229 283 346 411
#     4  12  26  44  71 105 136 181 232 287 344 405
#     4  11  25  46  68  97 138 181 229 284 343 415
#     4  11  26  44  69 104 135 175 233 286 341 408
#     4  11  22  43  71 102 132 185 224 284 341 410
#     4  12  28  42  70  96 138 188 224 288 344 414
#
# _framework density 21.912686000000001
#
# number of rings (size 3 to 8) (size 9 to 14) (size 15 to 20)
#    0.000    0.533    6.667    1.200    3.733    4.800 
#    2.400    0.000    0.000    0.000    0.000    0.000 
#    0.000    0.000    0.000    0.000    0.000    0.000 
#
# Total GULP energy -371684.341641 kJ/mol
# GULP energy per Si atom -12389.478055 kJ/mol
# Density = 2.186281 g / cm^3
# Si number density = 21.912686 Si / 1000 Ang^3
#
#
#
# Elastic Constant Matrix: (Units=GPa)
#
#
# Indices 1 2 3 4 5 6 
#
# 1 183.1484 65.1758 42.6650 0.0000 -8.5356 0.0000
# 2 65.1758 77.4085 28.8778 0.0000 -4.6912 0.0000
# 3 42.6650 28.8778 95.1169 0.0000 -1.1884 0.0000
# 4 0.0000 0.0000 0.0000 27.9523 0.0000 -3.4854
# 5 -8.5356 -4.6912 -1.1884 0.0000 30.3139 0.0000
# 6 0.0000 0.0000 0.0000 -3.4854 0.0000 42.6070
#
#
#
# Elastic Compliance Matrix: (Units=1/GPa)
#
#
# Indices 1 2 3 4 5 6 
#
# 1 0.008094 -0.006078 -0.001770 0.000000 0.001269 0.000000
# 2 -0.006078 0.019265 -0.003108 0.000000 0.001148 0.000000
# 3 -0.001770 -0.003108 0.012245 0.000000 -0.000499 0.000000
# 4 0.000000 0.000000 0.000000 0.036144 0.000000 0.002957
# 5 0.001269 0.001148 -0.000499 0.000000 0.033504 0.000000
# 6 0.000000 0.000000 0.000000 0.002957 0.000000 0.023712
#
#
# Mechanical properties :
#
#
# Convention : Reuss Voigt Hill
#
# Bulk Modulus (GPa) = 56.52204 69.90124 63.21164
# Shear Modulus (GPa) = 31.09962 34.77164 32.93563
#
# Velocity S-wave (km/s) = 3.77138 3.98782 3.88111
# Velocity P-wave (km/s) = 6.69437 7.29197 6.99955
#
# Compressibility (1/GPa) = 0.01769221
#
# Stress axis : x y z
#
# Youngs Moduli (GPa) = 123.54138 51.90672 81.66889
#
# Poissons Ratio (x) = 0.31550 0.14452
# Poissons Ratio (y) = 0.75091 0.25385
# Poissons Ratio (z) = 0.21861 0.16134
#
# Static dielectric constant tensor:
#      x y z
#    x 4.414490 0.000000 -0.095340 
#    y 0.000000 3.810730 0.000000 
#    z -0.095340 0.000000 4.006870 
# 
# 
# High freq. dielectric constant tensor:
#      x y z
#    x 1.884740 0.000000 -0.004570 
#    y 0.000000 1.841460 0.000000 
#    z -0.004570 0.000000 1.864950 
# 
# From -- ./inp_files/252122.got.cif
#   From: 2010.06.25/outbox.cif.g09.slc.cpg/sg15_127_cif.got.tgz:252122.got - 2010.06.28 07:06:18.
