data_PCOD8151517
_publ_section_title
;
Structure prediction by ZEFSAII (Michael W. Deem and Ramdas Pophale) SiO2 
 PCOD8151517
Probable space group: C 2/C
;
_chemical_formula_sum "Si O2"
_cell_formula_units_Z 60
_cell_length_a 22.145167
_cell_length_b 12.608118
_cell_length_c 18.823715
_cell_angle_alpha 90.000000
_cell_angle_beta 36.744913
_cell_angle_gamma 90.000000
_cell_volume 3144.269634
_symmetry_space_group_name_H-M "C 2/C"
_symmetry_group_IT_number 15
_symmetry_cell_setting 'monoclinic'
loop_
_space_group_symop_operation_xyz
x,y,z
-x,y,1/2-z
-x,-y,-z
x,-y,1/2+z
1/2+x,1/2+y,z
1/2-x,1/2+y,1/2-z
1/2-x,1/2-y,-z
1/2+x,1/2-y,1/2+z
loop_
_atom_site_type_symbol
_atom_site_label
_atom_site_fract_x
_atom_site_fract_y
_atom_site_fract_z
Si Si1 0.901044 0.373220 0.645425
Si Si2 0.860693 0.235486 0.922733
Si Si3 0.988757 0.830404 0.504370
Si Si4 0.000000 0.057270 0.750000
Si Si5 0.043255 0.551885 0.138617
Si Si6 0.204692 0.511467 0.874599
Si Si7 0.795336 0.241856 0.136002
Si Si8 0.938549 0.988649 0.662512
O O1 0.963811 0.287143 0.540611
O O2 0.856772 0.456824 0.631333
O O3 0.812671 0.311396 0.768611
O O4 0.964658 0.430530 0.647562
O O5 0.925710 0.340528 0.850007
O O6 0.902973 0.133471 0.842758
O O7 0.750000 0.250000 0.000000
O O8 0.861587 0.214387 0.005062
O O9 0.867167 0.814757 0.625316
O O10 0.005877 0.899434 0.559066
O O11 0.035454 0.895932 0.394469
O O12 0.016097 0.981710 0.801638
O O13 0.000000 0.487098 0.250000
O O14 0.141996 0.498452 0.008136
O O15 0.214978 0.633442 0.842093
O O16 0.317779 0.466154 0.776937
#
# Coordination Sequence:
#
# PCOD8151517 Si02
#       8
#     8   8   8   4   8   8   8   8
#     4  12  22  39  63  86 121 161 197 241 305 351
#     4  11  21  32  54  86 122 152 184 235 304 355
#     4  11  22  40  59  85 123 159 195 248 293 351
#     4  12  20  36  60  84 116 164 190 244 302 352
#     4  11  22  36  55  89 125 153 190 243 302 360
#     4  11  23  37  62  92 115 158 203 242 291 367
#     4  11  21  36  58  89 119 156 196 244 290 354
#     4  11  23  39  60  90 120 153 207 242 297 357
#
# _framework density 19.082332999999998
#
# number of rings (size 3 to 8) (size 9 to 14) (size 15 to 20)
#    0.000    0.800    7.333    2.800    0.000    0.000 
#    0.000    0.000    1.467    0.800    0.000    0.000 
#    0.000    0.000    0.000    0.000    0.000    0.000 
#
# Total GULP energy -371694.246591 kJ/mol
# GULP energy per Si atom -12389.808220 kJ/mol
# Density = 1.903890 g / cm^3
# Si number density = 19.082333 Si / 1000 Ang^3
#
#
#
# Elastic Constant Matrix: (Units=GPa)
#
#
# Indices 1 2 3 4 5 6 
#
# 1 101.7061 22.2967 36.7418 0.0000 2.7704 0.0000
# 2 22.2967 41.3958 27.5572 0.0000 11.1337 0.0000
# 3 36.7418 27.5572 100.1955 0.0000 -5.3550 0.0000
# 4 0.0000 0.0000 0.0000 25.1993 0.0000 -4.5502
# 5 2.7704 11.1337 -5.3550 0.0000 36.7898 0.0000
# 6 0.0000 0.0000 0.0000 -4.5502 0.0000 22.3073
#
#
#
# Elastic Compliance Matrix: (Units=1/GPa)
#
#
# Indices 1 2 3 4 5 6 
#
# 1 0.011928 -0.004274 -0.003202 0.000000 -0.000071 0.000000
# 2 -0.004274 0.035472 -0.008814 0.000000 -0.011696 0.000000
# 3 -0.003202 -0.008814 0.013842 0.000000 0.004923 0.000000
# 4 0.000000 0.000000 0.000000 0.041201 0.000000 0.008404
# 5 -0.000071 -0.011696 0.004923 0.000000 0.031443 0.000000
# 6 0.000000 0.000000 0.000000 0.008404 0.000000 0.046543
#
#
# Mechanical properties :
#
#
# Convention : Reuss Voigt Hill
#
# Bulk Modulus (GPa) = 34.88940 46.27655 40.58297
# Shear Modulus (GPa) = 22.46555 27.30608 24.88581
#
# Velocity S-wave (km/s) = 3.43490 3.78691 3.61519
# Velocity P-wave (km/s) = 5.83564 6.58973 6.22411
#
# Compressibility (1/GPa) = 0.02866200
#
# Stress axis : x y z
#
# Youngs Moduli (GPa) = 83.83650 28.19116 72.24361
#
# Poissons Ratio (x) = 0.12048 0.23135
# Poissons Ratio (y) = 0.35830 0.63675
# Poissons Ratio (z) = 0.26848 0.24848
#
# Static dielectric constant tensor:
#      x y z
#    x 2.238310 0.000000 -0.543500 
#    y 0.000000 3.201450 0.000000 
#    z -0.543500 0.000000 3.547720 
# 
# 
# High freq. dielectric constant tensor:
#      x y z
#    x 1.739110 0.000000 -0.011170 
#    y 0.000000 1.706500 0.000000 
#    z -0.011170 0.000000 1.764530 
# 
# From -- ./inp_files/215201.got.cif
#   From: 2010.06.25/outbox.cif.g09.slc.cpg/sg15_108_cif.got.tgz:215201.got - 2010.06.28 07:06:18.
