data_PCOD8151917
_publ_section_title
;
Structure prediction by ZEFSAII (Michael W. Deem and Ramdas Pophale) SiO2 
 PCOD8151917
Probable space group: C 2/C
;
_chemical_formula_sum "Si O2"
_cell_formula_units_Z 56
_cell_length_a 11.008361
_cell_length_b 15.547965
_cell_length_c 27.183783
_cell_angle_alpha 90.000000
_cell_angle_beta 33.471602
_cell_angle_gamma 90.000000
_cell_volume 2566.080179
_symmetry_space_group_name_H-M "C 2/C"
_symmetry_group_IT_number 15
_symmetry_cell_setting 'monoclinic'
loop_
_space_group_symop_operation_xyz
x,y,z
-x,y,1/2-z
-x,-y,-z
x,-y,1/2+z
1/2+x,1/2+y,z
1/2-x,1/2+y,1/2-z
1/2-x,1/2-y,-z
1/2+x,1/2-y,1/2+z
loop_
_atom_site_type_symbol
_atom_site_label
_atom_site_fract_x
_atom_site_fract_y
_atom_site_fract_z
Si Si1 0.531945 0.165099 0.915310
Si Si2 0.126257 0.249407 0.935510
Si Si3 0.555651 0.574441 0.519273
Si Si4 0.987220 0.641450 0.113337
Si Si5 0.269556 0.499542 0.351865
Si Si6 0.907030 0.204322 0.189935
Si Si7 0.137227 0.945651 0.571955
O O1 0.731974 0.102757 0.862745
O O2 0.604005 0.212950 0.841447
O O3 0.476658 0.234881 0.975848
O O4 0.315392 0.106342 0.979042
O O5 0.974231 0.298943 0.947411
O O6 0.376959 0.285412 0.848059
O O7 0.130004 0.147692 0.922509
O O8 0.500000 0.500000 0.500000
O O9 0.553602 0.532140 0.574050
O O10 0.789607 0.623198 0.431498
O O11 0.909308 0.548074 0.121134
O O12 0.815824 0.695298 0.204259
O O13 0.500000 0.524413 0.250000
O O14 0.248486 0.530347 0.415057
O O15 0.928983 0.116542 0.151054
#
# Coordination Sequence:
#
# PCOD8151917 Si02
#       7
#     8   8   8   8   8   8   8
#     4  11  22  38  67  97 131 176 230 274 330 409
#     4  11  23  43  68  97 134 181 228 274 337 410
#     4  12  26  43  67 100 140 177 224 279 340 412
#     4  12  23  45  68  97 139 178 227 283 342 398
#     4  12  22  40  69 101 129 172 235 292 333 390
#     4  11  23  42  69  99 136 179 223 282 346 394
#     4  11  21  42  70  96 132 184 228 275 335 408
#
# _framework density 21.823169
#
# number of rings (size 3 to 8) (size 9 to 14) (size 15 to 20)
#    0.000    0.571    5.714    5.571    0.000    2.286 
#    0.000    3.571    0.000    0.000    0.000    0.000 
#    0.000    0.000    0.000    0.000    0.000    0.000 
#
# Total GULP energy -347246.343062 kJ/mol
# GULP energy per Si atom -12401.655109 kJ/mol
# Density = 2.177350 g / cm^3
# Si number density = 21.823169 Si / 1000 Ang^3
#
#
#
# Elastic Constant Matrix: (Units=GPa)
#
#
# Indices 1 2 3 4 5 6 
#
# 1 82.8573 40.4245 36.1945 0.0019 2.7943 0.0020
# 2 40.4245 135.6927 25.1276 0.0020 3.8117 -0.0002
# 3 36.1945 25.1276 61.9383 0.0284 4.4018 -0.0181
# 4 0.0019 0.0020 0.0284 25.5570 -0.0137 6.8249
# 5 2.7943 3.8117 4.4018 -0.0137 26.1148 0.0024
# 6 0.0020 -0.0002 -0.0181 6.8249 0.0024 54.5919
#
#
#
# Elastic Compliance Matrix: (Units=1/GPa)
#
#
# Indices 1 2 3 4 5 6 
#
# 1 0.017723 -0.003637 -0.008890 0.000010 0.000133 -0.000005
# 2 -0.003637 0.008725 -0.001368 0.000001 -0.000654 0.000000
# 3 -0.008890 -0.001368 0.022078 -0.000028 -0.002570 0.000011
# 4 0.000010 0.000001 -0.000028 0.040480 0.000025 -0.005061
# 5 0.000133 -0.000654 -0.002570 0.000025 0.038807 -0.000006
# 6 -0.000005 0.000000 0.000011 -0.005061 -0.000006 0.018950
#
#
# Mechanical properties :
#
#
# Convention : Reuss Voigt Hill
#
# Bulk Modulus (GPa) = 48.22799 53.77573 51.00186
# Shear Modulus (GPa) = 27.55369 33.16886 30.36128
#
# Velocity S-wave (km/s) = 3.55715 3.90281 3.73398
# Velocity P-wave (km/s) = 6.24648 6.70852 6.48162
#
# Compressibility (1/GPa) = 0.02073485
#
# Stress axis : x y z
#
# Youngs Moduli (GPa) = 56.42542 114.61611 45.29435
#
# Poissons Ratio (x) = 0.41688 0.40268
# Poissons Ratio (y) = 0.20523 0.06195
# Poissons Ratio (z) = 0.50164 0.15675
#
# Static dielectric constant tensor:
#      x y z
#    x 3.911660 -0.000010 0.007870 
#    y -0.000010 4.180670 0.000040 
#    z 0.007870 0.000040 3.739430 
# 
# 
# High freq. dielectric constant tensor:
#      x y z
#    x 1.848040 0.000000 0.004820 
#    y 0.000000 1.877660 0.000000 
#    z 0.004820 0.000000 1.835470 
# 
# From -- ./inp_files/311305.got.cif
#   From: 2010.06.25/outbox.cif.g09.slc.cpg/sg15_156_cif.got.tgz:311305.got - 2010.06.28 07:06:18.
