data_PCOD8151795
_publ_section_title
;
Structure prediction by ZEFSAII (Michael W. Deem and Ramdas Pophale) SiO2 
 PCOD8151795
Probable space group: C 2/C
;
_chemical_formula_sum "Si O2"
_cell_formula_units_Z 48
_cell_length_a 7.852608
_cell_length_b 16.660819
_cell_length_c 25.969668
_cell_angle_alpha 90.000000
_cell_angle_beta 41.780435
_cell_angle_gamma 90.000000
_cell_volume 2263.768703
_symmetry_space_group_name_H-M "C 2/C"
_symmetry_group_IT_number 15
_symmetry_cell_setting 'monoclinic'
loop_
_space_group_symop_operation_xyz
x,y,z
-x,y,1/2-z
-x,-y,-z
x,-y,1/2+z
1/2+x,1/2+y,z
1/2-x,1/2+y,1/2-z
1/2-x,1/2-y,-z
1/2+x,1/2-y,1/2+z
loop_
_atom_site_type_symbol
_atom_site_label
_atom_site_fract_x
_atom_site_fract_y
_atom_site_fract_z
Si Si1 0.615461 0.639695 0.568401
Si Si2 0.657025 0.971123 0.168841
Si Si3 0.747000 0.847055 0.285026
Si Si4 0.798003 0.266254 0.683204
Si Si5 0.955364 0.729122 0.569527
Si Si6 0.313395 0.115812 0.410831
O O1 0.418805 0.569482 0.631561
O O2 0.441903 0.720941 0.602901
O O3 0.718313 0.610434 0.490491
O O4 0.853860 0.658605 0.553119
O O5 0.500000 0.015932 0.250000
O O6 0.458668 0.904621 0.194139
O O7 0.731960 0.031077 0.106182
O O8 0.879734 0.784179 0.215287
O O9 0.590684 0.798004 0.362268
O O10 0.000000 0.893060 0.250000
O O11 0.500000 0.262636 0.750000
O O12 0.886573 0.359144 0.660617
O O13 0.250000 0.750000 0.500000
O O14 0.820151 0.813137 0.589784
#
# Coordination Sequence:
#
# PCOD8151795 Si02
#       6
#     8   8   8   8   8   8
#     4  11  21  45  64  94 131 180 212 261 345 404
#     4  12  24  44  66  93 133 183 216 269 335 396
#     4  12  21  40  67  94 128 172 218 261 330 396
#     4  11  21  40  68  95 125 174 218 268 323 395
#     4  11  24  40  68  98 128 168 222 278 324 390
#     4  11  26  40  67  98 131 164 225 276 322 388
#
# _framework density 21.203579000000001
#
# number of rings (size 3 to 8) (size 9 to 14) (size 15 to 20)
#    0.000    0.667    6.667    3.500    4.667    0.667 
#    0.000    5.000    0.000    0.000    0.000    0.000 
#    0.000    0.000    0.000    0.000    0.000    0.000 
#
# Total GULP energy -297340.685269 kJ/mol
# GULP energy per Si atom -12389.195220 kJ/mol
# Density = 2.115532 g / cm^3
# Si number density = 21.203579 Si / 1000 Ang^3
#
#
#
# Elastic Constant Matrix: (Units=GPa)
#
#
# Indices 1 2 3 4 5 6 
#
# 1 90.4383 22.7381 49.1410 -0.0062 -15.0418 0.0095
# 2 22.7381 71.9056 38.4114 -0.0097 1.6245 0.0074
# 3 49.1410 38.4114 123.8911 0.0161 1.0559 0.0120
# 4 -0.0062 -0.0097 0.0161 16.9713 -0.0025 14.2583
# 5 -15.0418 1.6245 1.0559 -0.0025 32.5140 -0.0028
# 6 0.0095 0.0074 0.0120 14.2583 -0.0028 24.2686
#
#
#
# Elastic Compliance Matrix: (Units=1/GPa)
#
#
# Indices 1 2 3 4 5 6 
#
# 1 0.016002 -0.002167 -0.005741 0.000025 0.007697 -0.000017
# 2 -0.002167 0.016976 -0.004389 0.000029 -0.001708 -0.000019
# 3 -0.005741 -0.004389 0.011733 -0.000028 -0.002818 0.000014
# 4 0.000025 0.000029 -0.000028 0.116356 0.000014 -0.068362
# 5 0.007697 -0.001708 -0.002818 0.000014 0.034494 -0.000005
# 6 -0.000017 -0.000019 0.000014 -0.068362 -0.000005 0.081369
#
#
# Mechanical properties :
#
#
# Convention : Reuss Voigt Hill
#
# Bulk Modulus (GPa) = 49.70964 56.31289 53.01126
# Shear Modulus (GPa) = 16.22168 26.48042 21.35105
#
# Velocity S-wave (km/s) = 2.76894 3.53776 3.17670
# Velocity P-wave (km/s) = 5.80669 6.58054 6.20569
#
# Compressibility (1/GPa) = 0.02011682
#
# Stress axis : x y z
#
# Youngs Moduli (GPa) = 62.49337 58.90803 85.22705
#
# Poissons Ratio (x) = 0.12768 0.48926
# Poissons Ratio (y) = 0.13545 0.37405
# Poissons Ratio (z) = 0.35875 0.25854
#
# Static dielectric constant tensor:
#      x y z
#    x 3.726060 -0.000360 0.274270 
#    y -0.000360 3.077960 0.000300 
#    z 0.274270 0.000300 3.899130 
# 
# 
# High freq. dielectric constant tensor:
#      x y z
#    x 1.831210 0.000000 -0.007190 
#    y 0.000000 1.799500 0.000000 
#    z -0.007190 0.000000 1.862030 
# 
# From -- ./inp_files/289030.got.cif
#   From: 2010.06.25/outbox.cif.g09.slc.cpg/sg15_145_cif.got.tgz:289030.got - 2010.06.28 07:06:18.
