data_PCOD8151692
_publ_section_title
;
Structure prediction by ZEFSAII (Michael W. Deem and Ramdas Pophale) SiO2 
 PCOD8151692
Probable space group: C 2/C
;
_chemical_formula_sum "Si O2"
_cell_formula_units_Z 48
_cell_length_a 21.717323
_cell_length_b 6.427160
_cell_length_c 22.692445
_cell_angle_alpha 90.000000
_cell_angle_beta 134.559961
_cell_angle_gamma 90.000000
_cell_volume 2256.844555
_symmetry_space_group_name_H-M "C 2/C"
_symmetry_group_IT_number 15
_symmetry_cell_setting 'monoclinic'
loop_
_space_group_symop_operation_xyz
x,y,z
-x,y,1/2-z
-x,-y,-z
x,-y,1/2+z
1/2+x,1/2+y,z
1/2-x,1/2+y,1/2-z
1/2-x,1/2-y,-z
1/2+x,1/2-y,1/2+z
loop_
_atom_site_type_symbol
_atom_site_label
_atom_site_fract_x
_atom_site_fract_y
_atom_site_fract_z
Si Si1 0.977053 0.858988 0.301807
Si Si2 0.302043 0.092417 0.866163
Si Si3 0.794679 0.558080 0.559486
Si Si4 0.843278 0.206158 0.200384
Si Si5 0.335436 0.911031 0.770590
Si Si6 0.361941 0.736196 0.519442
O O1 0.918236 0.686564 0.294092
O O2 0.000000 0.789860 0.250000
O O3 0.059377 0.894097 0.399929
O O4 0.931797 0.082629 0.269757
O O5 0.249932 0.275780 0.798285
O O6 0.234815 0.958245 0.860500
O O7 0.348466 0.940320 0.849965
O O8 0.373188 0.190196 0.958851
O O9 0.750000 0.750000 0.500000
O O10 0.854511 0.646070 0.651483
O O11 0.724925 0.398605 0.538810
O O12 0.856567 0.441605 0.555833
O O13 0.822241 0.352508 0.241104
#
# Coordination Sequence:
#
# PCOD8151692 Si02
#       6
#     8   8   8   8   8   8
#     4  11  26  43  63  99 142 171 215 279 347 395
#     4  11  22  41  69  98 127 175 234 272 321 399
#     4  11  21  38  69  97 128 178 226 271 335 398
#     4  11  22  41  66  94 129 182 222 267 336 397
#     4  11  23  42  69  94 132 181 223 276 329 403
#     4  11  24  40  65 103 139 167 226 288 322 402
#
# _framework density 21.268633000000001
#
# number of rings (size 3 to 8) (size 9 to 14) (size 15 to 20)
#    0.000    1.000    5.000    2.000    4.667    4.000 
#    0.000    0.833    0.000    0.000    0.000    0.000 
#    0.000    0.000    0.000    0.000    0.000    0.000 
#
# Total GULP energy -297563.488886 kJ/mol
# GULP energy per Si atom -12398.478704 kJ/mol
# Density = 2.122023 g / cm^3
# Si number density = 21.268633 Si / 1000 Ang^3
#
#
#
# Elastic Constant Matrix: (Units=GPa)
#
#
# Indices 1 2 3 4 5 6 
#
# 1 88.1754 36.2444 46.1123 0.0001 -18.8813 -0.0007
# 2 36.2444 107.9719 45.6942 0.0006 -8.8765 -0.0029
# 3 46.1123 45.6942 141.3668 0.0001 -18.6895 0.0003
# 4 0.0001 0.0006 0.0001 44.9532 0.0001 -6.4348
# 5 -18.8813 -8.8765 -18.6895 0.0001 35.7407 0.0001
# 6 -0.0007 -0.0029 0.0003 -6.4348 0.0001 23.6477
#
#
#
# Elastic Compliance Matrix: (Units=1/GPa)
#
#
# Indices 1 2 3 4 5 6 
#
# 1 0.015672 -0.003414 -0.003251 0.000000 0.005731 0.000000
# 2 -0.003414 0.011501 -0.002648 0.000000 -0.000332 0.000001
# 3 -0.003251 -0.002648 0.009320 0.000000 0.002499 -0.000001
# 4 0.000000 0.000000 0.000000 0.023147 0.000000 0.006299
# 5 0.005731 -0.000332 0.002499 0.000000 0.032231 0.000000
# 6 0.000000 0.000001 -0.000001 0.006299 0.000000 0.044001
#
#
# Mechanical properties :
#
#
# Convention : Reuss Voigt Hill
#
# Bulk Modulus (GPa) = 55.96518 65.95733 60.96126
# Shear Modulus (GPa) = 31.16174 34.83252 32.99713
#
# Velocity S-wave (km/s) = 3.83188 4.05129 3.94311
# Velocity P-wave (km/s) = 6.77852 7.27756 7.03247
#
# Compressibility (1/GPa) = 0.01786825
#
# Stress axis : x y z
#
# Youngs Moduli (GPa) = 63.80997 86.94970 107.29197
#
# Poissons Ratio (x) = 0.29683 0.34878
# Poissons Ratio (y) = 0.21783 0.28408
# Poissons Ratio (z) = 0.20743 0.23022
#
# Static dielectric constant tensor:
#      x y z
#    x 3.925820 0.000000 -0.646770 
#    y 0.000000 3.944780 0.000000 
#    z -0.646770 0.000000 5.180530 
# 
# 
# High freq. dielectric constant tensor:
#      x y z
#    x 1.813460 0.000000 -0.022180 
#    y 0.000000 1.848170 0.000000 
#    z -0.022180 0.000000 1.832610 
# 
# From -- ./inp_files/254478.got.cif
#   From: 2010.06.25/outbox.cif.g09.slc.cpg/sg15_128_cif.got.tgz:254478.got - 2010.06.28 07:06:18.
