data_PCOD8151650
_publ_section_title
;
Structure prediction by ZEFSAII (Michael W. Deem and Ramdas Pophale) SiO2 
 PCOD8151650
Probable space group: C 2/C
;
_chemical_formula_sum "Si O2"
_cell_formula_units_Z 48
_cell_length_a 15.468652
_cell_length_b 18.198760
_cell_length_c 17.648357
_cell_angle_alpha 90.000000
_cell_angle_beta 152.103074
_cell_angle_gamma 90.000000
_cell_volume 2324.530530
_symmetry_space_group_name_H-M "C 2/C"
_symmetry_group_IT_number 15
_symmetry_cell_setting 'monoclinic'
loop_
_space_group_symop_operation_xyz
x,y,z
-x,y,1/2-z
-x,-y,-z
x,-y,1/2+z
1/2+x,1/2+y,z
1/2-x,1/2+y,1/2-z
1/2-x,1/2-y,-z
1/2+x,1/2-y,1/2+z
loop_
_atom_site_type_symbol
_atom_site_label
_atom_site_fract_x
_atom_site_fract_y
_atom_site_fract_z
Si Si1 0.505994 0.990036 0.416115
Si Si2 0.936936 0.813492 0.889165
Si Si3 0.825993 0.000410 0.565435
Si Si4 0.791724 0.657065 0.567068
Si Si5 0.620146 0.172825 0.022907
Si Si6 0.137101 0.944768 0.565797
O O1 0.522092 0.902124 0.418567
O O2 0.500000 0.000000 0.500000
O O3 0.678931 0.032962 0.511738
O O4 0.336533 0.027659 0.243888
O O5 0.769637 0.837125 0.704989
O O6 0.909875 0.861969 0.943473
O O7 0.949263 0.726034 0.916709
O O8 0.141663 0.820416 0.012999
O O9 0.880862 0.055940 0.539769
O O10 0.000000 0.976370 0.750000
O O11 0.733484 0.930463 0.455173
O O12 0.762277 0.696752 0.461539
O O13 0.000000 0.677597 0.750000
O O14 0.000000 0.000000 0.500000
#
# Coordination Sequence:
#
# PCOD8151650 Si02
#       6
#     8   8   8   8   8   8
#     4  11  22  43  66  95 122 165 215 267 320 369
#     4  12  24  40  60  95 130 173 210 259 324 388
#     4  11  22  39  63  95 129 164 213 267 320 374
#     4  11  21  38  60  89 132 172 211 256 319 386
#     4  11  24  39  62  88 132 168 213 260 320 382
#     4  12  24  39  65  96 132 168 214 260 316 388
#
# _framework density 20.649329999999999
#
# number of rings (size 3 to 8) (size 9 to 14) (size 15 to 20)
#    0.000    0.667    3.333    7.500    2.333    0.000 
#    0.000    0.000    0.000    1.000    0.000    0.000 
#    0.000    0.000    0.000    0.000    0.000    0.000 
#
# Total GULP energy -297404.478580 kJ/mol
# GULP energy per Si atom -12391.853274 kJ/mol
# Density = 2.060233 g / cm^3
# Si number density = 20.649330 Si / 1000 Ang^3
#
#
#
# Elastic Constant Matrix: (Units=GPa)
#
#
# Indices 1 2 3 4 5 6 
#
# 1 148.1219 43.3823 24.6692 -0.0141 0.4746 -0.0061
# 2 43.3823 86.8582 19.1584 -0.0315 4.9849 -0.0128
# 3 24.6692 19.1584 91.5738 -0.0325 11.8429 -0.0209
# 4 -0.0141 -0.0315 -0.0325 25.8203 -0.0234 -0.0363
# 5 0.4746 4.9849 11.8429 -0.0234 35.2341 -0.0101
# 6 -0.0061 -0.0128 -0.0209 -0.0363 -0.0101 36.4379
#
#
#
# Elastic Compliance Matrix: (Units=1/GPa)
#
#
# Indices 1 2 3 4 5 6 
#
# 1 0.008104 -0.003767 -0.001516 -0.000001 0.000933 -0.000001
# 2 -0.003767 0.013848 -0.001710 0.000011 -0.001334 0.000003
# 3 -0.001516 -0.001710 0.012182 0.000009 -0.003832 0.000005
# 4 -0.000001 0.000011 0.000009 0.038729 0.000021 0.000039
# 5 0.000933 -0.001334 -0.003832 0.000021 0.029846 0.000006
# 6 -0.000001 0.000003 0.000005 0.000039 0.000006 0.027444
#
#
# Mechanical properties :
#
#
# Convention : Reuss Voigt Hill
#
# Bulk Modulus (GPa) = 49.63074 55.66373 52.64724
# Shear Modulus (GPa) = 33.14456 35.45472 34.29964
#
# Velocity S-wave (km/s) = 4.01074 4.14815 4.08002
# Velocity P-wave (km/s) = 6.74798 7.06811 6.90990
#
# Compressibility (1/GPa) = 0.02014880
#
# Stress axis : x y z
#
# Youngs Moduli (GPa) = 123.39779 72.21205 82.08940
#
# Poissons Ratio (x) = 0.27201 0.12443
# Poissons Ratio (y) = 0.46481 0.14037
# Poissons Ratio (z) = 0.18704 0.12348
#
# Static dielectric constant tensor:
#      x y z
#    x 4.255620 -0.000130 -0.145060 
#    y -0.000130 4.341250 -0.000350 
#    z -0.145060 -0.000350 3.019760 
# 
# 
# High freq. dielectric constant tensor:
#      x y z
#    x 1.805470 0.000000 -0.000500 
#    y 0.000000 1.789740 0.000000 
#    z -0.000500 0.000000 1.817860 
# 
# From -- ./inp_files/249763.got.cif
#   From: 2010.06.25/outbox.cif.g09.slc.cpg/sg15_125_cif.got.tgz:249763.got - 2010.06.28 07:06:18.
