data_PCOD8151798
_publ_section_title
;
Structure prediction by ZEFSAII (Michael W. Deem and Ramdas Pophale) SiO2 
 PCOD8151798
Probable space group: C 2/C
;
_chemical_formula_sum "Si O2"
_cell_formula_units_Z 40
_cell_length_a 7.532788
_cell_length_b 23.705638
_cell_length_c 13.203200
_cell_angle_alpha 90.000000
_cell_angle_beta 50.827964
_cell_angle_gamma 90.000000
_cell_volume 1827.805485
_symmetry_space_group_name_H-M "C 2/C"
_symmetry_group_IT_number 15
_symmetry_cell_setting 'monoclinic'
loop_
_space_group_symop_operation_xyz
x,y,z
-x,y,1/2-z
-x,-y,-z
x,-y,1/2+z
1/2+x,1/2+y,z
1/2-x,1/2+y,1/2-z
1/2-x,1/2-y,-z
1/2+x,1/2-y,1/2+z
loop_
_atom_site_type_symbol
_atom_site_label
_atom_site_fract_x
_atom_site_fract_y
_atom_site_fract_z
Si Si1 0.750568 0.244838 0.619802
Si Si2 0.396351 0.050602 0.895947
Si Si3 0.354791 0.931597 0.999018
Si Si4 0.734825 0.638879 0.221192
Si Si5 0.003445 0.864727 0.011828
O O1 0.500000 0.229888 0.750000
O O2 0.750000 0.250000 0.500000
O O3 0.837407 0.303007 0.638467
O O4 0.915832 0.193768 0.590599
O O5 0.500000 0.036975 0.750000
O O6 0.203286 0.098340 0.958859
O O7 0.291953 0.994145 0.982780
O O8 0.599688 0.071529 0.896959
O O9 0.582216 0.910610 0.858772
O O10 0.131326 0.894777 0.058053
O O11 0.500000 0.622128 0.250000
O O12 0.686829 0.647012 0.357191
#
# Coordination Sequence:
#
# PCOD8151798 Si02
#       5
#     8   8   8   8   8
#     4  11  21  40  68  98 136 187 230 281 350 407
#     4  11  24  45  67 100 140 176 224 291 348 413
#     4  11  25  43  70 101 133 181 232 280 352 419
#     4  11  21  42  67  96 134 184 225 280 347 411
#     4  12  23  42  70  99 137 181 232 284 344 418
#
# _framework density 21.884166
#
# number of rings (size 3 to 8) (size 9 to 14) (size 15 to 20)
#    0.000    0.800    6.000    3.000    0.000    1.600 
#    0.000    0.000    0.000    0.000    0.000    0.000 
#    0.000    0.000    0.000    0.000    0.000    0.000 
#
# Total GULP energy -248085.645151 kJ/mol
# GULP energy per Si atom -12404.282258 kJ/mol
# Density = 2.183436 g / cm^3
# Si number density = 21.884166 Si / 1000 Ang^3
#
#
#
# Elastic Constant Matrix: (Units=GPa)
#
#
# Indices 1 2 3 4 5 6 
#
# 1 107.2283 43.9031 25.2722 0.0000 24.4363 0.0000
# 2 43.9031 112.1408 11.0622 0.0000 1.4925 0.0000
# 3 25.2722 11.0622 90.2203 0.0000 21.8664 0.0000
# 4 0.0000 0.0000 0.0000 22.4728 0.0000 -6.9610
# 5 24.4363 1.4925 21.8664 0.0000 28.3426 0.0000
# 6 0.0000 0.0000 0.0000 -6.9610 0.0000 38.6049
#
#
#
# Elastic Compliance Matrix: (Units=1/GPa)
#
#
# Indices 1 2 3 4 5 6 
#
# 1 0.014315 -0.005398 -0.000524 0.000000 -0.011654 0.000000
# 2 -0.005398 0.011067 -0.001023 0.000000 0.004860 0.000000
# 3 -0.000524 -0.001023 0.013817 0.000000 -0.010155 0.000000
# 4 0.000000 0.000000 0.000000 0.047131 0.000000 0.008498
# 5 -0.011654 0.004860 -0.010155 0.000000 0.052909 0.000000
# 6 0.000000 0.000000 0.000000 0.008498 0.000000 0.027436
#
#
# Mechanical properties :
#
#
# Convention : Reuss Voigt Hill
#
# Bulk Modulus (GPa) = 39.50853 52.22940 45.86896
# Shear Modulus (GPa) = 26.45509 33.17418 29.81464
#
# Velocity S-wave (km/s) = 3.48065 3.89768 3.69505
# Velocity P-wave (km/s) = 5.85200 6.64635 6.26178
#
# Compressibility (1/GPa) = 0.02531099
#
# Stress axis : x y z
#
# Youngs Moduli (GPa) = 69.85623 90.36080 72.37336
#
# Poissons Ratio (x) = 0.48773 0.03789
# Poissons Ratio (y) = 0.37706 0.07403
# Poissons Ratio (z) = 0.03657 0.09243
#
# Static dielectric constant tensor:
#      x y z
#    x 3.930740 0.000000 0.133510 
#    y 0.000000 4.211990 0.000000 
#    z 0.133510 0.000000 3.856690 
# 
# 
# High freq. dielectric constant tensor:
#      x y z
#    x 1.856860 0.000000 0.008530 
#    y 0.000000 1.871180 0.000000 
#    z 0.008530 0.000000 1.858710 
# 
# From -- ./inp_files/135761.got.cif
#   From: 2010.06.25/outbox.cif.g09.slc.cpg/sg15_68_cif.got.tgz:135761.got - 2010.06.28 07:06:18.
