data_PCOD8151827
_publ_section_title
;
Structure prediction by ZEFSAII (Michael W. Deem and Ramdas Pophale) SiO2 
 PCOD8151827
Probable space group: C 2/C
;
_chemical_formula_sum "Si O2"
_cell_formula_units_Z 48
_cell_length_a 16.406832
_cell_length_b 8.031272
_cell_length_c 16.927037
_cell_angle_alpha 90.000000
_cell_angle_beta 69.915147
_cell_angle_gamma 90.000000
_cell_volume 2094.793366
_symmetry_space_group_name_H-M "C 2/C"
_symmetry_group_IT_number 15
_symmetry_cell_setting 'monoclinic'
loop_
_space_group_symop_operation_xyz
x,y,z
-x,y,1/2-z
-x,-y,-z
x,-y,1/2+z
1/2+x,1/2+y,z
1/2-x,1/2+y,1/2-z
1/2-x,1/2-y,-z
1/2+x,1/2-y,1/2+z
loop_
_atom_site_type_symbol
_atom_site_label
_atom_site_fract_x
_atom_site_fract_y
_atom_site_fract_z
Si Si1 0.807680 0.599252 0.948102
Si Si2 0.773016 0.030981 0.798755
Si Si3 0.516110 0.269206 0.953175
Si Si4 0.604555 0.934875 0.921300
Si Si5 0.579574 0.342645 0.665321
Si Si6 0.800685 0.886402 0.625517
O O1 0.867746 0.668980 0.856872
O O2 0.752111 0.450569 0.931301
O O3 0.750000 0.750000 0.000000
O O4 0.864013 0.520484 0.999792
O O5 0.690603 0.905488 0.839922
O O6 0.854837 0.987543 0.827878
O O7 0.801376 0.015258 0.698427
O O8 0.739097 0.213620 0.830942
O O9 0.458280 0.373661 0.909932
O O10 0.601978 0.374271 0.941878
O O11 0.547019 0.088822 0.908104
O O12 0.455859 0.231845 0.051009
O O13 0.500000 0.320812 0.750000
#
# Coordination Sequence:
#
# PCOD8151827 Si02
#       6
#     8   8   8   8   8   8
#     4  11  23  42  69  97 132 178 223 271 334 396
#     4  11  22  40  68  95 134 171 226 269 339 397
#     4   9  20  38  66  94 129 171 222 270 326 385
#     4   9  20  40  66  94 129 176 218 273 328 397
#     4  11  21  41  66  92 134 172 216 277 330 388
#     4  11  24  41  69  99 130 180 218 277 328 398
#
# _framework density 22.913955000000001
#
# number of rings (size 3 to 8) (size 9 to 14) (size 15 to 20)
#    0.000    1.667    3.333    1.000    2.333    2.667 
#    0.000    5.833    7.333    0.000    0.000    0.000 
#    0.000    0.000    0.000    0.000    0.000    0.000 
#
# Total GULP energy -297382.304717 kJ/mol
# GULP energy per Si atom -12390.929363 kJ/mol
# Density = 2.286180 g / cm^3
# Si number density = 22.913955 Si / 1000 Ang^3
#
#
#
# Elastic Constant Matrix: (Units=GPa)
#
#
# Indices 1 2 3 4 5 6 
#
# 1 139.8372 37.0143 24.9248 0.0000 -14.1878 0.0000
# 2 37.0143 59.8440 25.7210 0.0000 0.6276 0.0000
# 3 24.9248 25.7210 52.7877 0.0000 -17.3551 0.0000
# 4 0.0000 0.0000 0.0000 27.9332 0.0000 3.7996
# 5 -14.1878 0.6276 -17.3551 0.0000 48.6862 0.0000
# 6 0.0000 0.0000 0.0000 3.7996 0.0000 36.3045
#
#
#
# Elastic Compliance Matrix: (Units=1/GPa)
#
#
# Indices 1 2 3 4 5 6 
#
# 1 0.008914 -0.005133 -0.000943 0.000000 0.002328 0.000000
# 2 -0.005133 0.024986 -0.011722 0.000000 -0.005997 0.000000
# 3 -0.000943 -0.011722 0.028387 0.000000 0.009995 0.000000
# 4 0.000000 0.000000 0.000000 0.036317 0.000000 -0.003801
# 5 0.002328 -0.005997 0.009995 0.000000 0.024858 0.000000
# 6 0.000000 0.000000 0.000000 -0.003801 0.000000 0.027943
#
#
# Mechanical properties :
#
#
# Convention : Reuss Voigt Hill
#
# Bulk Modulus (GPa) = 37.46557 47.53215 42.49886
# Shear Modulus (GPa) = 25.52360 33.57205 29.54783
#
# Velocity S-wave (km/s) = 3.34112 3.83186 3.59487
# Velocity P-wave (km/s) = 5.59197 6.35345 5.98483
#
# Compressibility (1/GPa) = 0.02669117
#
# Stress axis : x y z
#
# Youngs Moduli (GPa) = 112.18347 40.02254 35.22749
#
# Poissons Ratio (x) = 0.20542 0.03321
# Poissons Ratio (y) = 0.57580 0.41295
# Poissons Ratio (z) = 0.10576 0.46916
#
# Static dielectric constant tensor:
#      x y z
#    x 4.646980 0.000000 -0.295710 
#    y 0.000000 3.797510 0.000000 
#    z -0.295710 0.000000 4.168910 
# 
# 
# High freq. dielectric constant tensor:
#      x y z
#    x 1.932640 0.000000 -0.021240 
#    y 0.000000 1.878530 0.000000 
#    z -0.021240 0.000000 1.888880 
# 
# From -- ./inp_files/208573.got.cif
#   From: 2010.06.25/outbox.cif.g09.slc.cpg/sg15_105_cif.got.tgz:208573.got - 2010.06.28 07:06:18.
