data_PCOD8151320
_publ_section_title
;
Structure prediction by ZEFSAII (Michael W. Deem and Ramdas Pophale) SiO2 
 PCOD8151320
Probable space group: C 2/C
;
_chemical_formula_sum "Si O2"
_cell_formula_units_Z 48
_cell_length_a 16.838365
_cell_length_b 24.663957
_cell_length_c 9.647179
_cell_angle_alpha 90.000000
_cell_angle_beta 144.906110
_cell_angle_gamma 90.000000
_cell_volume 2303.397642
_symmetry_space_group_name_H-M "C 2/C"
_symmetry_group_IT_number 15
_symmetry_cell_setting 'monoclinic'
loop_
_space_group_symop_operation_xyz
x,y,z
-x,y,1/2-z
-x,-y,-z
x,-y,1/2+z
1/2+x,1/2+y,z
1/2-x,1/2+y,1/2-z
1/2-x,1/2-y,-z
1/2+x,1/2-y,1/2+z
loop_
_atom_site_type_symbol
_atom_site_label
_atom_site_fract_x
_atom_site_fract_y
_atom_site_fract_z
Si Si1 0.211552 0.015662 0.519302
Si Si2 0.871680 0.463774 0.982354
Si Si3 0.588856 0.237697 0.244175
Si Si4 0.000000 0.102584 0.250000
Si Si5 0.000000 0.074909 0.750000
Si Si6 0.609888 0.838781 0.520915
Si Si7 0.579984 0.340188 0.590258
O O1 0.248882 0.037495 0.419860
O O2 0.127139 0.063603 0.473881
O O3 0.339195 0.001842 0.803844
O O4 0.122868 0.961786 0.366548
O O5 0.902528 0.403247 0.973768
O O6 0.000000 0.489026 0.250000
O O7 0.500000 0.218593 0.250000
O O8 0.750000 0.250000 0.500000
O O9 0.572593 0.189429 0.111847
O O10 0.523475 0.292954 0.097172
O O11 0.960107 0.142193 0.315074
O O12 0.935530 0.110067 0.536375
O O13 0.761719 0.820299 0.688002
O O14 0.500000 0.818955 0.250000
#
# Coordination Sequence:
#
# PCOD8151320 Si02
#       7
#     8   8   8   4   4   8   8
#     4  11  21  40  67  98 134 181 230 270 347 415
#     4  11  23  42  64  96 143 178 222 280 340 416
#     4  12  26  48  76 102 133 183 237 290 361 417
#     4  11  24  38  68 108 132 182 230 279 346 420
#     4  11  20  38  70  96 134 176 226 293 342 406
#     4  11  25  46  69  99 142 182 231 290 352 412
#     4  12  23  45  68 100 144 174 233 299 344 406
#
# _framework density 20.838781999999998
#
# number of rings (size 3 to 8) (size 9 to 14) (size 15 to 20)
#    0.000    0.667    5.833    1.500    1.167    4.667 
#    0.000    0.833    0.000    0.000    0.000    0.000 
#    0.000    0.000    0.000    0.000    0.000    0.000 
#
# Total GULP energy -297673.825270 kJ/mol
# GULP energy per Si atom -12403.076053 kJ/mol
# Density = 2.079135 g / cm^3
# Si number density = 20.838782 Si / 1000 Ang^3
#
#
#
# Elastic Constant Matrix: (Units=GPa)
#
#
# Indices 1 2 3 4 5 6 
#
# 1 143.5042 57.4054 46.7174 0.0000 -13.0413 0.0000
# 2 57.4054 101.1336 45.8349 0.0000 -8.3976 0.0000
# 3 46.7174 45.8349 139.3853 0.0000 3.4485 0.0000
# 4 0.0000 0.0000 0.0000 31.2709 0.0000 -9.3490
# 5 -13.0413 -8.3976 3.4485 0.0000 38.4074 0.0000
# 6 0.0000 0.0000 0.0000 -9.3490 0.0000 29.3354
#
#
#
# Elastic Compliance Matrix: (Units=1/GPa)
#
#
# Indices 1 2 3 4 5 6 
#
# 1 0.009536 -0.004388 -0.001814 0.000000 0.002441 0.000000
# 2 -0.004388 0.013968 -0.003168 0.000000 0.001848 0.000000
# 3 -0.001814 -0.003168 0.008876 0.000000 -0.002105 0.000000
# 4 0.000000 0.000000 0.000000 0.035346 0.000000 0.011265
# 5 0.002441 0.001848 -0.002105 0.000000 0.027459 0.000000
# 6 0.000000 0.000000 0.000000 0.011265 0.000000 0.037678
#
#
# Mechanical properties :
#
#
# Convention : Reuss Voigt Hill
#
# Bulk Modulus (GPa) = 73.31180 75.99318 74.65249
# Shear Modulus (GPa) = 32.02034 35.40709 33.71372
#
# Velocity S-wave (km/s) = 3.92417 4.12648 4.02660
# Velocity P-wave (km/s) = 7.46920 7.69741 7.58417
#
# Compressibility (1/GPa) = 0.01364037
#
# Stress axis : x y z
#
# Youngs Moduli (GPa) = 104.86450 71.59179 112.66201
#
# Poissons Ratio (x) = 0.31416 0.20432
# Poissons Ratio (y) = 0.46017 0.35693
# Poissons Ratio (z) = 0.19018 0.22681
#
# Static dielectric constant tensor:
#      x y z
#    x 4.041420 0.000000 0.005940 
#    y 0.000000 3.694410 0.000000 
#    z 0.005940 0.000000 4.051020 
# 
# 
# High freq. dielectric constant tensor:
#      x y z
#    x 1.821390 0.000000 0.004350 
#    y 0.000000 1.811720 0.000000 
#    z 0.004350 0.000000 1.832200 
# 
# From -- ./inp_files/32568.got.cif
#   From: 2010.06.25/outbox.cif.g09.slc.cpg/sg15_17_cif.got.tgz:32568.got - 2010.06.28 07:06:18.
