data_PCOD8151624
_publ_section_title
;
Structure prediction by ZEFSAII (Michael W. Deem and Ramdas Pophale) SiO2 
 PCOD8151624
Probable space group: C 2/C
;
_chemical_formula_sum "Si O2"
_cell_formula_units_Z 56
_cell_length_a 13.564957
_cell_length_b 18.044597
_cell_length_c 12.305188
_cell_angle_alpha 90.000000
_cell_angle_beta 58.549415
_cell_angle_gamma 90.000000
_cell_volume 2569.501979
_symmetry_space_group_name_H-M "C 2/C"
_symmetry_group_IT_number 15
_symmetry_cell_setting 'monoclinic'
loop_
_space_group_symop_operation_xyz
x,y,z
-x,y,1/2-z
-x,-y,-z
x,-y,1/2+z
1/2+x,1/2+y,z
1/2-x,1/2+y,1/2-z
1/2-x,1/2-y,-z
1/2+x,1/2-y,1/2+z
loop_
_atom_site_type_symbol
_atom_site_label
_atom_site_fract_x
_atom_site_fract_y
_atom_site_fract_z
Si Si1 0.634862 0.437477 0.170815
Si Si2 0.721882 0.293911 0.733352
Si Si3 0.265380 0.877683 0.297991
Si Si4 0.517986 0.816232 0.857248
Si Si5 0.748579 0.589287 0.045272
Si Si6 0.650744 0.696451 0.510684
Si Si7 0.489561 0.079202 0.558689
O O1 0.500000 0.458616 0.250000
O O2 0.671503 0.395579 0.259747
O O3 0.712082 0.510683 0.115470
O O4 0.663069 0.385019 0.052659
O O5 0.710109 0.209401 0.704644
O O6 0.686320 0.346576 0.652868
O O7 0.645077 0.309921 0.883604
O O8 0.848887 0.316527 0.694541
O O9 0.208765 0.905256 0.443195
O O10 0.388070 0.918716 0.206422
O O11 0.500000 0.854104 0.750000
O O12 0.470296 0.732307 0.882385
O O13 0.450221 0.863623 0.986779
O O14 0.886931 0.601313 0.962971
O O15 0.750000 0.750000 0.500000
O O16 0.500000 0.000000 0.500000
#
# Coordination Sequence:
#
# PCOD8151624 Si02
#       7
#     8   8   8   8   8   8   8
#     4  12  27  47  71 104 140 186 233 290 353 408
#     4  11  24  43  68 102 139 182 231 287 350 417
#     4  12  23  48  72  98 142 183 237 292 346 420
#     4  11  21  37  65 102 131 174 230 290 340 400
#     4  11  28  45  68 103 142 188 230 282 360 428
#     4  12  21  40  71 102 133 175 236 288 338 403
#     4  11  23  42  67 103 140 177 228 291 355 406
#
# _framework density 21.794107
#
# number of rings (size 3 to 8) (size 9 to 14) (size 15 to 20)
#    0.000    0.571    5.714    2.143    2.000    1.714 
#    2.571    1.429    0.000    0.000    0.000    0.000 
#    0.000    0.000    0.000    0.000    0.000    0.000 
#
# Total GULP energy -347309.702843 kJ/mol
# GULP energy per Si atom -12403.917959 kJ/mol
# Density = 2.174450 g / cm^3
# Si number density = 21.794107 Si / 1000 Ang^3
#
#
#
# Elastic Constant Matrix: (Units=GPa)
#
#
# Indices 1 2 3 4 5 6 
#
# 1 57.8295 15.0768 24.5998 0.0000 0.1145 0.0000
# 2 15.0768 130.9535 39.5407 0.0000 13.5410 0.0000
# 3 24.5998 39.5407 128.1587 0.0000 23.6197 0.0000
# 4 0.0000 0.0000 0.0000 35.3768 0.0000 5.6866
# 5 0.1145 13.5410 23.6197 0.0000 32.0766 0.0000
# 6 0.0000 0.0000 0.0000 5.6866 0.0000 28.6647
#
#
#
# Elastic Compliance Matrix: (Units=1/GPa)
#
#
# Indices 1 2 3 4 5 6 
#
# 1 0.019309 -0.001396 -0.003901 0.000000 0.003393 0.000000
# 2 -0.001396 0.008623 -0.001993 0.000000 -0.002168 0.000000
# 3 -0.003901 -0.001993 0.010423 0.000000 -0.006820 0.000000
# 4 0.000000 0.000000 0.000000 0.029198 0.000000 -0.005792
# 5 0.003393 -0.002168 -0.006820 0.000000 0.037100 0.000000
# 6 0.000000 0.000000 0.000000 -0.005792 0.000000 0.036035
#
#
# Mechanical properties :
#
#
# Convention : Reuss Voigt Hill
#
# Bulk Modulus (GPa) = 42.06019 52.81959 47.43989
# Shear Modulus (GPa) = 30.63843 35.07193 32.85518
#
# Velocity S-wave (km/s) = 3.75348 4.01588 3.88690
# Velocity P-wave (km/s) = 6.17460 6.76694 6.47754
#
# Compressibility (1/GPa) = 0.02377545
#
# Stress axis : x y z
#
# Youngs Moduli (GPa) = 51.78980 115.96988 95.93777
#
# Poissons Ratio (x) = 0.16190 0.37424
# Poissons Ratio (y) = 0.07230 0.19120
# Poissons Ratio (z) = 0.20203 0.23112
#
# Static dielectric constant tensor:
#      x y z
#    x 3.950830 0.000000 0.167330 
#    y 0.000000 4.154140 0.000000 
#    z 0.167330 0.000000 4.346510 
# 
# 
# High freq. dielectric constant tensor:
#      x y z
#    x 1.847860 0.000000 0.003820 
#    y 0.000000 1.856570 0.000000 
#    z 0.003820 0.000000 1.868420 
# 
# From -- ./inp_files/98654.got.cif
#   From: 2010.06.25/outbox.cif.g09.slc.cpg/sg15_50_cif.got.tgz:98654.got - 2010.06.28 07:06:18.
