data_PCOD8151097
_publ_section_title
;
Structure prediction by ZEFSAII (Michael W. Deem and Ramdas Pophale) SiO2 
 PCOD8151097
Probable space group: C 2/C
;
_chemical_formula_sum "Si O2"
_cell_formula_units_Z 64
_cell_length_a 22.944038
_cell_length_b 18.827977
_cell_length_c 13.961980
_cell_angle_alpha 90.000000
_cell_angle_beta 33.087254
_cell_angle_gamma 90.000000
_cell_volume 3292.653420
_symmetry_space_group_name_H-M "C 2/C"
_symmetry_group_IT_number 15
_symmetry_cell_setting 'monoclinic'
loop_
_space_group_symop_operation_xyz
x,y,z
-x,y,1/2-z
-x,-y,-z
x,-y,1/2+z
1/2+x,1/2+y,z
1/2-x,1/2+y,1/2-z
1/2-x,1/2-y,-z
1/2+x,1/2-y,1/2+z
loop_
_atom_site_type_symbol
_atom_site_label
_atom_site_fract_x
_atom_site_fract_y
_atom_site_fract_z
Si Si1 0.521842 0.185328 0.375693
Si Si2 0.905523 0.832943 0.156683
Si Si3 0.836661 0.648448 0.499623
Si Si4 0.413451 0.403189 0.939721
Si Si5 0.744854 0.530557 0.962926
Si Si6 0.966188 0.974865 0.150012
Si Si7 0.879522 0.512730 0.942230
Si Si8 0.597238 0.946880 0.880283
O O1 0.528676 0.261869 0.415521
O O2 0.400411 0.172748 0.507306
O O3 0.554528 0.130331 0.412892
O O4 0.601334 0.176720 0.177716
O O5 0.780613 0.817819 0.345072
O O6 0.957972 0.889256 0.159353
O O7 0.916706 0.859438 0.032327
O O8 0.820936 0.563497 0.525231
O O9 0.500000 0.366712 0.750000
O O10 0.295820 0.406372 0.052192
O O11 0.443209 0.488192 0.908747
O O12 0.648052 0.503114 0.160498
O O13 0.829002 0.560238 0.926067
O O14 0.802167 0.468174 0.823829
O O15 0.000000 0.000000 0.000000
O O16 0.000000 0.494860 0.750000
O O17 0.865477 0.554083 0.060774
O O18 0.500000 0.000000 0.000000
#
# Coordination Sequence:
#
# PCOD8151097 Si02
#       8
#     8   8   8   8   8   8   8   8
#     4  11  23  38  54  89 125 153 194 243 293 365
#     4  11  21  38  62  82 117 162 192 238 306 356
#     4  11  19  39  59  83 123 157 187 238 308 357
#     4   9  21  39  61  85 114 152 203 249 292 345
#     4  11  20  36  60  90 118 151 194 251 300 346
#     4   9  19  37  60  89 111 149 201 246 292 353
#     4  12  20  35  61  90 117 154 201 251 296 350
#     4  12  21  35  61  87 122 156 198 247 295 354
#
# _framework density 19.437211000000001
#
# number of rings (size 3 to 8) (size 9 to 14) (size 15 to 20)
#    0.000    1.250    6.250    1.125    1.750    0.000 
#    9.000    0.625    0.000    1.500    0.000    0.000 
#    0.000    0.000    0.000    0.000    0.000    0.000 
#
# Total GULP energy -396572.660122 kJ/mol
# GULP energy per Si atom -12392.895629 kJ/mol
# Density = 1.939297 g / cm^3
# Si number density = 19.437211 Si / 1000 Ang^3
#
#
#
# Elastic Constant Matrix: (Units=GPa)
#
#
# Indices 1 2 3 4 5 6 
#
# 1 128.7804 36.6266 14.4962 0.0000 6.1144 0.0000
# 2 36.6266 84.0118 14.4691 0.0000 3.6032 0.0000
# 3 14.4962 14.4691 69.6034 0.0000 3.0574 0.0000
# 4 0.0000 0.0000 0.0000 12.5898 0.0000 0.4303
# 5 6.1144 3.6032 3.0574 0.0000 33.3582 0.0000
# 6 0.0000 0.0000 0.0000 0.4303 0.0000 30.5280
#
#
#
# Elastic Compliance Matrix: (Units=1/GPa)
#
#
# Indices 1 2 3 4 5 6 
#
# 1 0.008987 -0.003687 -0.001055 0.000000 -0.001152 0.000000
# 2 -0.003687 0.013898 -0.002093 0.000000 -0.000634 0.000000
# 3 -0.001055 -0.002093 0.015064 0.000000 -0.000961 0.000000
# 4 0.000000 0.000000 0.000000 0.079468 0.000000 -0.001120
# 5 -0.001152 -0.000634 -0.000961 0.000000 0.030345 0.000000
# 6 0.000000 0.000000 0.000000 -0.001120 0.000000 0.032773
#
#
# Mechanical properties :
#
#
# Convention : Reuss Voigt Hill
#
# Bulk Modulus (GPa) = 41.18736 45.95328 43.57032
# Shear Modulus (GPa) = 24.71592 29.74878 27.23235
#
# Velocity S-wave (km/s) = 3.56979 3.91641 3.74711
# Velocity P-wave (km/s) = 6.18281 6.64412 6.41761
#
# Compressibility (1/GPa) = 0.02427929
#
# Stress axis : x y z
#
# Youngs Moduli (GPa) = 111.26881 71.95134 66.38264
#
# Poissons Ratio (x) = 0.26529 0.07001
# Poissons Ratio (y) = 0.41026 0.13897
# Poissons Ratio (z) = 0.11735 0.15063
#
# Static dielectric constant tensor:
#      x y z
#    x 4.140630 0.000000 0.004740 
#    y 0.000000 3.321180 0.000000 
#    z 0.004740 0.000000 3.688600 
# 
# 
# High freq. dielectric constant tensor:
#      x y z
#    x 1.776390 0.000000 0.002770 
#    y 0.000000 1.706540 0.000000 
#    z 0.002770 0.000000 1.766470 
# 
# From -- ./inp_files/174210.got.cif
#   From: 2010.06.25/outbox.cif.g09.slc.cpg/sg15_88_cif.got.tgz:174210.got - 2010.06.28 07:06:18.
