data_PCOD8151861
_publ_section_title
;
Structure prediction by ZEFSAII (Michael W. Deem and Ramdas Pophale) SiO2 
 PCOD8151861
Probable space group: C 2/C
;
_chemical_formula_sum "Si O2"
_cell_formula_units_Z 48
_cell_length_a 26.655739
_cell_length_b 5.417943
_cell_length_c 20.898120
_cell_angle_alpha 90.000000
_cell_angle_beta 139.219279
_cell_angle_gamma 90.000000
_cell_volume 1971.314194
_symmetry_space_group_name_H-M "C 2/C"
_symmetry_group_IT_number 15
_symmetry_cell_setting 'monoclinic'
loop_
_space_group_symop_operation_xyz
x,y,z
-x,y,1/2-z
-x,-y,-z
x,-y,1/2+z
1/2+x,1/2+y,z
1/2-x,1/2+y,1/2-z
1/2-x,1/2-y,-z
1/2+x,1/2-y,1/2+z
loop_
_atom_site_type_symbol
_atom_site_label
_atom_site_fract_x
_atom_site_fract_y
_atom_site_fract_z
Si Si1 0.390535 0.917370 0.758266
Si Si2 0.134941 0.360676 0.144284
Si Si3 0.763494 0.737584 0.939007
Si Si4 0.261726 0.847415 0.843132
Si Si5 0.969299 0.910966 0.791934
Si Si6 0.391794 0.532445 0.490321
O O1 0.297650 0.914936 0.657193
O O2 0.421931 0.659853 0.761074
O O3 0.408979 0.935910 0.853615
O O4 0.424223 0.152788 0.752927
O O5 0.173658 0.203072 0.239180
O O6 0.209551 0.436423 0.175994
O O7 0.080470 0.208952 0.042464
O O8 0.755721 0.453358 0.909385
O O9 0.850748 0.818010 0.007988
O O10 0.750000 0.750000 0.000000
O O11 0.328422 0.647096 0.899429
O O12 0.000000 0.935760 0.750000
O O13 0.036502 0.890833 0.910171
#
# Coordination Sequence:
#
# PCOD8151861 Si02
#       6
#     8   8   8   8   8   8
#     4  12  27  48  75 107 148 199 243 318 365 442
#     4  11  22  42  72 106 145 184 252 304 377 433
#     4  11  25  43  74 108 141 192 264 302 362 441
#     4  11  21  41  71 105 147 185 236 319 371 425
#     4  12  30  51  72 104 157 199 246 302 388 446
#     4  11  26  43  74 105 143 203 236 311 374 448
#
# _framework density 24.349240000000002
#
# number of rings (size 3 to 8) (size 9 to 14) (size 15 to 20)
#    0.000    0.667    3.333    3.500    9.333    2.000 
#    0.000    0.000    0.000    0.000    0.000    0.000 
#    0.000    0.000    0.000    0.000    0.000    0.000 
#
# Total GULP energy -297409.871149 kJ/mol
# GULP energy per Si atom -12392.077965 kJ/mol
# Density = 2.429382 g / cm^3
# Si number density = 24.349240 Si / 1000 Ang^3
#
#
#
# Elastic Constant Matrix: (Units=GPa)
#
#
# Indices 1 2 3 4 5 6 
#
# 1 90.9369 27.7700 15.7516 -0.0019 -29.9062 -0.0059
# 2 27.7700 101.5826 11.4786 -0.0064 -1.4506 -0.0116
# 3 15.7516 11.4786 77.0034 -0.0011 -9.0786 -0.0008
# 4 -0.0019 -0.0064 -0.0011 26.8270 -0.0012 -2.3032
# 5 -29.9062 -1.4506 -9.0786 -0.0012 52.2048 -0.0034
# 6 -0.0059 -0.0116 -0.0008 -2.3032 -0.0034 36.6761
#
#
#
# Elastic Compliance Matrix: (Units=1/GPa)
#
#
# Indices 1 2 3 4 5 6 
#
# 1 0.015178 -0.003855 -0.001549 0.000001 0.008318 0.000002
# 2 -0.003855 0.010992 -0.001097 0.000002 -0.002094 0.000003
# 3 -0.001549 -0.001097 0.013638 0.000000 0.001454 0.000000
# 4 0.000001 0.000002 0.000000 0.037478 0.000002 0.002354
# 5 0.008318 -0.002094 0.001454 0.000002 0.024115 0.000003
# 6 0.000002 0.000003 0.000000 0.002354 0.000003 0.027414
#
#
# Mechanical properties :
#
#
# Convention : Reuss Voigt Hill
#
# Bulk Modulus (GPa) = 37.30590 42.16925 39.73758
# Shear Modulus (GPa) = 33.16678 37.44310 35.30494
#
# Velocity S-wave (km/s) = 3.69471 3.92567 3.81194
# Velocity P-wave (km/s) = 5.79272 6.15662 5.97744
#
# Compressibility (1/GPa) = 0.02680541
#
# Stress axis : x y z
#
# Youngs Moduli (GPa) = 65.88490 90.97357 73.32318
#
# Poissons Ratio (x) = 0.35074 0.11360
# Poissons Ratio (y) = 0.25401 0.08042
# Poissons Ratio (z) = 0.10208 0.09978
#
# Static dielectric constant tensor:
#      x y z
#    x 4.544190 -0.000020 -0.058470 
#    y -0.000020 4.558190 -0.000020 
#    z -0.058470 -0.000020 4.236680 
# 
# 
# High freq. dielectric constant tensor:
#      x y z
#    x 1.979710 0.000000 -0.013200 
#    y 0.000000 1.973930 0.000000 
#    z -0.013200 0.000000 1.954000 
# 
# From -- ./inp_files/256643.got.cif
#   From: 2010.06.25/outbox.cif.g09.slc.cpg/sg15_129_cif.got.tgz:256643.got - 2010.06.28 07:06:18.
