data_PCOD8151259
_publ_section_title
;
Structure prediction by ZEFSAII (Michael W. Deem and Ramdas Pophale) SiO2 
 PCOD8151259
Probable space group: C 2/C
;
_chemical_formula_sum "Si O2"
_cell_formula_units_Z 56
_cell_length_a 10.695379
_cell_length_b 26.654069
_cell_length_c 14.398302
_cell_angle_alpha 90.000000
_cell_angle_beta 43.028349
_cell_angle_gamma 90.000000
_cell_volume 2800.816288
_symmetry_space_group_name_H-M "C 2/C"
_symmetry_group_IT_number 15
_symmetry_cell_setting 'monoclinic'
loop_
_space_group_symop_operation_xyz
x,y,z
-x,y,1/2-z
-x,-y,-z
x,-y,1/2+z
1/2+x,1/2+y,z
1/2-x,1/2+y,1/2-z
1/2-x,1/2-y,-z
1/2+x,1/2-y,1/2+z
loop_
_atom_site_type_symbol
_atom_site_label
_atom_site_fract_x
_atom_site_fract_y
_atom_site_fract_z
Si Si1 0.994398 0.615938 0.479297
Si Si2 0.175959 0.545703 0.245368
Si Si3 0.059135 0.449876 0.118086
Si Si4 0.031670 0.283398 0.879596
Si Si5 0.958892 0.991267 0.878181
Si Si6 0.798611 0.908863 0.504161
Si Si7 0.304483 0.697118 0.073860
O O1 0.035514 0.675389 0.459834
O O2 0.795017 0.606077 0.542277
O O3 0.146528 0.592187 0.329421
O O4 0.008108 0.593768 0.574147
O O5 0.388371 0.530348 0.136397
O O6 0.051612 0.499991 0.347928
O O7 0.149353 0.561779 0.151091
O O8 0.000000 0.428965 0.250000
O O9 0.271575 0.463435 0.005584
O O10 0.862673 0.295948 0.905168
O O11 0.224723 0.286346 0.718380
O O12 0.986323 0.229531 0.950394
O O13 0.000000 0.978154 0.750000
O O14 0.957603 0.051766 0.893045
O O15 0.868505 0.860908 0.526575
#
# Coordination Sequence:
#
# PCOD8151259 Si02
#       7
#     8   8   8   8   8   8   8
#     4  11  20  37  62  81 118 166 199 233 307 361
#     4  12  21  38  59  85 123 163 199 243 294 364
#     4  12  24  40  58  83 123 165 208 251 289 352
#     4   9  18  34  55  82 113 148 187 237 294 360
#     4  12  24  38  56  86 124 162 208 246 285 352
#     4  11  21  37  58  86 120 163 192 240 304 363
#     4   9  18  34  55  81 116 147 186 235 298 359
#
# _framework density 19.994171999999999
#
# number of rings (size 3 to 8) (size 9 to 14) (size 15 to 20)
#    0.000    1.143    5.714    2.143    0.000    0.000 
#   10.286    0.000    0.000    0.000    0.000    5.000 
#    0.000    0.000    0.000    0.000    0.000    0.000 
#
# Total GULP energy -347077.719140 kJ/mol
# GULP energy per Si atom -12395.632826 kJ/mol
# Density = 1.994866 g / cm^3
# Si number density = 19.994172 Si / 1000 Ang^3
#
#
#
# Elastic Constant Matrix: (Units=GPa)
#
#
# Indices 1 2 3 4 5 6 
#
# 1 45.9291 16.1722 20.6035 0.0000 7.4660 0.0000
# 2 16.1722 99.3026 23.1016 0.0000 8.4030 0.0000
# 3 20.6035 23.1016 82.8078 0.0000 15.1421 0.0000
# 4 0.0000 0.0000 0.0000 34.3576 0.0000 4.0570
# 5 7.4660 8.4030 15.1421 0.0000 30.3999 0.0000
# 6 0.0000 0.0000 0.0000 4.0570 0.0000 19.5249
#
#
#
# Elastic Compliance Matrix: (Units=1/GPa)
#
#
# Indices 1 2 3 4 5 6 
#
# 1 0.025476 -0.002725 -0.005030 0.000000 -0.002998 0.000000
# 2 -0.002725 0.011134 -0.002187 0.000000 -0.001319 0.000000
# 3 -0.005030 -0.002187 0.014964 0.000000 -0.005614 0.000000
# 4 0.000000 0.000000 0.000000 0.029838 0.000000 -0.006200
# 5 -0.002998 -0.001319 -0.005614 0.000000 0.036792 0.000000
# 6 0.000000 0.000000 0.000000 -0.006200 0.000000 0.052505
#
#
# Mechanical properties :
#
#
# Convention : Reuss Voigt Hill
#
# Bulk Modulus (GPa) = 31.55555 38.64379 35.09967
# Shear Modulus (GPa) = 24.85614 28.06731 26.46172
#
# Velocity S-wave (km/s) = 3.52969 3.75076 3.64190
# Velocity P-wave (km/s) = 5.69458 6.17472 5.93950
#
# Compressibility (1/GPa) = 0.03169015
#
# Stress axis : x y z
#
# Youngs Moduli (GPa) = 39.25251 89.81143 66.82523
#
# Poissons Ratio (x) = 0.24474 0.33615
# Poissons Ratio (y) = 0.10696 0.14615
# Poissons Ratio (z) = 0.19745 0.19642
#
# Static dielectric constant tensor:
#      x y z
#    x 3.470110 0.000000 -1.280550 
#    y 0.000000 3.771920 0.000000 
#    z -1.280550 0.000000 16.780700 
# 
# 
# High freq. dielectric constant tensor:
#      x y z
#    x 1.737510 0.000000 0.007980 
#    y 0.000000 1.771370 0.000000 
#    z 0.007980 0.000000 1.789420 
# 
# From -- ./inp_files/148510.got.cif
#   From: 2010.06.25/outbox.cif.g09.slc.cpg/sg15_75_cif.got.tgz:148510.got - 2010.06.28 07:06:18.
