data_PCOD8151720
_publ_section_title
;
Structure prediction by ZEFSAII (Michael W. Deem and Ramdas Pophale) SiO2 
 PCOD8151720
Probable space group: C 2/C
;
_chemical_formula_sum "Si O2"
_cell_formula_units_Z 64
_cell_length_a 11.668087
_cell_length_b 15.446064
_cell_length_c 25.999500
_cell_angle_alpha 90.000000
_cell_angle_beta 41.070102
_cell_angle_gamma 90.000000
_cell_volume 3078.476987
_symmetry_space_group_name_H-M "C 2/C"
_symmetry_group_IT_number 15
_symmetry_cell_setting 'monoclinic'
loop_
_space_group_symop_operation_xyz
x,y,z
-x,y,1/2-z
-x,-y,-z
x,-y,1/2+z
1/2+x,1/2+y,z
1/2-x,1/2+y,1/2-z
1/2-x,1/2-y,-z
1/2+x,1/2-y,1/2+z
loop_
_atom_site_type_symbol
_atom_site_label
_atom_site_fract_x
_atom_site_fract_y
_atom_site_fract_z
Si Si1 0.741443 0.510235 0.555017
Si Si2 0.086233 0.561634 0.898562
Si Si3 0.979250 0.152150 0.345662
Si Si4 0.650752 0.102198 0.321794
Si Si5 0.346077 0.222986 0.088298
Si Si6 0.939218 0.251373 0.082668
Si Si7 0.904104 0.183546 0.931649
Si Si8 0.578276 0.209108 0.168558
O O1 0.826118 0.555091 0.575526
O O2 0.598959 0.443662 0.624775
O O3 0.655170 0.584188 0.548362
O O4 0.881392 0.460998 0.472268
O O5 0.170016 0.500028 0.826036
O O6 0.120839 0.660154 0.868272
O O7 0.863378 0.215554 0.348096
O O8 0.170368 0.146635 0.256725
O O9 0.980030 0.187703 0.403177
O O10 0.590370 0.143104 0.397069
O O11 0.504071 0.121421 0.327989
O O12 0.425988 0.309112 0.088007
O O13 0.420476 0.214394 0.005857
O O14 0.786353 0.199952 0.104519
O O15 0.967491 0.210677 0.853215
O O16 0.750000 0.250000 0.000000
O O17 0.500000 0.230834 0.250000
#
# Coordination Sequence:
#
# PCOD8151720 Si02
#       8
#     8   8   8   8   8   8   8   8
#     4  11  22  39  65  98 130 164 224 274 324 393
#     4  11  21  39  65  96 124 168 221 275 323 391
#     4  12  25  43  65  99 140 174 216 280 346 391
#     4  11  24  41  68  97 133 175 219 282 337 391
#     4  11  22  40  68  95 129 176 220 267 331 401
#     4  12  23  43  69  97 134 175 225 274 331 404
#     4  11  21  39  68  98 127 169 225 272 319 394
#     4  11  22  40  64  96 129 170 219 271 336 390
#
# _framework density 20.789501000000001
#
# number of rings (size 3 to 8) (size 9 to 14) (size 15 to 20)
#    0.000    0.750    6.250    3.000    0.000    1.000 
#    0.000    1.875    0.000    0.000    0.000    0.000 
#    0.000    0.000    0.000    0.000    0.000    0.000 
#
# Total GULP energy -396713.086313 kJ/mol
# GULP energy per Si atom -12397.283947 kJ/mol
# Density = 2.074218 g / cm^3
# Si number density = 20.789501 Si / 1000 Ang^3
#
#
#
# Elastic Constant Matrix: (Units=GPa)
#
#
# Indices 1 2 3 4 5 6 
#
# 1 120.5126 42.7733 23.0792 -0.0004 -10.7757 0.0000
# 2 42.7733 74.0700 21.0849 0.0005 -9.5872 0.0000
# 3 23.0792 21.0849 72.9232 0.0023 10.2275 -0.0005
# 4 -0.0004 0.0005 0.0023 18.7691 0.0002 -1.3069
# 5 -10.7757 -9.5872 10.2275 0.0002 34.8970 0.0000
# 6 0.0000 0.0000 -0.0005 -1.3069 0.0000 33.4794
#
#
#
# Elastic Compliance Matrix: (Units=1/GPa)
#
#
# Indices 1 2 3 4 5 6 
#
# 1 0.010834 -0.005282 -0.002260 0.000001 0.002557 0.000000
# 2 -0.005282 0.018380 -0.004299 0.000000 0.004678 0.000000
# 3 -0.002260 -0.004299 0.016618 -0.000002 -0.006749 0.000000
# 4 0.000001 0.000000 -0.000002 0.053424 0.000000 0.002085
# 5 0.002557 0.004678 -0.006749 0.000000 0.032709 0.000000
# 6 0.000000 0.000000 0.000000 0.002085 0.000000 0.029950
#
#
# Mechanical properties :
#
#
# Convention : Reuss Voigt Hill
#
# Bulk Modulus (GPa) = 45.14665 49.04227 47.09446
# Shear Modulus (GPa) = 25.90926 29.46701 27.68814
#
# Velocity S-wave (km/s) = 3.53408 3.76892 3.65339
# Velocity P-wave (km/s) = 6.19808 6.52540 6.36384
#
# Compressibility (1/GPa) = 0.02215004
#
# Stress axis : x y z
#
# Youngs Moduli (GPa) = 92.30126 54.40612 60.17602
#
# Poissons Ratio (x) = 0.28738 0.13601
# Poissons Ratio (y) = 0.48754 0.25869
# Poissons Ratio (z) = 0.20862 0.23389
#
# Static dielectric constant tensor:
#      x y z
#    x 3.955930 0.000000 -0.064380 
#    y 0.000000 3.638320 0.000000 
#    z -0.064380 0.000000 3.764730 
# 
# 
# High freq. dielectric constant tensor:
#      x y z
#    x 1.816590 0.000000 -0.002650 
#    y 0.000000 1.788370 0.000000 
#    z -0.002650 0.000000 1.809910 
# 
# From -- ./inp_files/293047.got.cif
#   From: 2010.06.25/outbox.cif.g09.slc.cpg/sg15_147_cif.got.tgz:293047.got - 2010.06.28 07:06:18.
