data_PCOD8151845
_publ_section_title
;
Structure prediction by ZEFSAII (Michael W. Deem and Ramdas Pophale) SiO2 
 PCOD8151845
Probable space group: C 2/C
;
_chemical_formula_sum "Si O2"
_cell_formula_units_Z 56
_cell_length_a 17.965243
_cell_length_b 7.799356
_cell_length_c 24.236611
_cell_angle_alpha 90.000000
_cell_angle_beta 50.413774
_cell_angle_gamma 90.000000
_cell_volume 2617.159494
_symmetry_space_group_name_H-M "C 2/C"
_symmetry_group_IT_number 15
_symmetry_cell_setting 'monoclinic'
loop_
_space_group_symop_operation_xyz
x,y,z
-x,y,1/2-z
-x,-y,-z
x,-y,1/2+z
1/2+x,1/2+y,z
1/2-x,1/2+y,1/2-z
1/2-x,1/2-y,-z
1/2+x,1/2-y,1/2+z
loop_
_atom_site_type_symbol
_atom_site_label
_atom_site_fract_x
_atom_site_fract_y
_atom_site_fract_z
Si Si1 0.600108 0.688019 0.226822
Si Si2 0.054942 0.846152 0.867020
Si Si3 0.896766 0.864347 0.446324
Si Si4 0.241693 0.017377 0.078036
Si Si5 0.601706 0.949467 0.693083
Si Si6 0.912410 0.467831 0.423722
Si Si7 0.302987 0.301114 0.600789
O O1 0.500000 0.613280 0.250000
O O2 0.613729 0.619105 0.282515
O O3 0.686159 0.648293 0.143569
O O4 0.595119 0.891750 0.238166
O O5 0.130450 0.855188 0.880525
O O6 0.999619 0.663383 0.894682
O O7 0.984608 0.006004 0.907002
O O8 0.831380 0.896509 0.422851
O O9 0.935146 0.667022 0.428648
O O10 0.834213 0.901487 0.530680
O O11 0.307225 0.901300 0.087485
O O12 0.318387 0.107133 0.000734
O O13 0.500000 0.845024 0.750000
O O14 0.613658 0.036285 0.627867
O O15 0.691175 0.834454 0.668319
#
# Coordination Sequence:
#
# PCOD8151845 Si02
#       7
#     8   8   8   8   8   8   8
#     4  11  23  41  65 101 132 177 231 262 333 412
#     4  12  26  45  66 101 145 170 217 289 337 390
#     4  11  22  43  71 103 130 180 232 264 338 406
#     4  11  22  41  72  98 130 177 235 275 321 401
#     4  11  21  41  68  96 128 176 229 266 324 409
#     4  11  22  43  72  97 130 177 229 274 327 396
#     4  11  25  43  67 102 136 169 224 283 339 393
#
# _framework density 21.397243
#
# number of rings (size 3 to 8) (size 9 to 14) (size 15 to 20)
#    0.000    0.857    7.143    1.286    2.000    6.286 
#    2.571    0.000    0.000    0.000    0.000    0.000 
#    0.000    0.000    0.000    0.000    0.000    0.000 
#
# Total GULP energy -347042.069634 kJ/mol
# GULP energy per Si atom -12394.359630 kJ/mol
# Density = 2.134854 g / cm^3
# Si number density = 21.397243 Si / 1000 Ang^3
#
#
#
# Elastic Constant Matrix: (Units=GPa)
#
#
# Indices 1 2 3 4 5 6 
#
# 1 100.7811 31.6256 41.0656 -0.0017 3.3252 0.0007
# 2 31.6256 68.9437 28.1740 -0.0043 -4.5097 -0.0003
# 3 41.0656 28.1740 138.7472 0.0004 -11.6547 -0.0002
# 4 -0.0017 -0.0043 0.0004 17.3255 -0.0004 -10.8758
# 5 3.3252 -4.5097 -11.6547 -0.0004 28.8151 -0.0003
# 6 0.0007 -0.0003 -0.0002 -10.8758 -0.0003 24.1646
#
#
#
# Elastic Compliance Matrix: (Units=1/GPa)
#
#
# Indices 1 2 3 4 5 6 
#
# 1 0.012822 -0.004841 -0.003105 0.000000 -0.003493 -0.000001
# 2 -0.004841 0.017686 -0.001945 0.000006 0.002540 0.000003
# 3 -0.003105 -0.001945 0.008826 -0.000001 0.003624 0.000000
# 4 0.000000 0.000006 -0.000001 0.080447 0.000002 0.036207
# 5 -0.003493 0.002540 0.003624 0.000002 0.036970 0.000001
# 6 -0.000001 0.000003 0.000000 0.036207 0.000001 0.057678
#
#
# Mechanical properties :
#
#
# Convention : Reuss Voigt Hill
#
# Bulk Modulus (GPa) = 51.14871 56.68915 53.91893
# Shear Modulus (GPa) = 20.77011 27.90149 24.33580
#
# Velocity S-wave (km/s) = 3.11897 3.61498 3.37610
# Velocity P-wave (km/s) = 6.07675 6.63139 6.36012
#
# Compressibility (1/GPa) = 0.01955083
#
# Stress axis : x y z
#
# Youngs Moduli (GPa) = 77.98870 56.54058 113.30343
#
# Poissons Ratio (x) = 0.27373 0.35186
# Poissons Ratio (y) = 0.37757 0.22039
# Poissons Ratio (z) = 0.24219 0.10998
#
# Static dielectric constant tensor:
#      x y z
#    x 3.621450 0.000000 -0.011730 
#    y 0.000000 3.735150 0.000000 
#    z -0.011730 0.000000 4.278020 
# 
# 
# High freq. dielectric constant tensor:
#      x y z
#    x 1.811630 0.000000 0.000770 
#    y 0.000000 1.830130 0.000000 
#    z 0.000770 0.000000 1.864410 
# 
# From -- ./inp_files/276522.got.cif
#   From: 2010.06.25/outbox.cif.g09.slc.cpg/sg15_139_cif.got.tgz:276522.got - 2010.06.28 07:06:18.
