data_PCOD8151898
_publ_section_title
;
Structure prediction by ZEFSAII (Michael W. Deem and Ramdas Pophale) SiO2 
 PCOD8151898
Probable space group: C 2/C
;
_chemical_formula_sum "Si O2"
_cell_formula_units_Z 60
_cell_length_a 16.964578
_cell_length_b 18.227270
_cell_length_c 18.373716
_cell_angle_alpha 90.000000
_cell_angle_beta 30.107196
_cell_angle_gamma 90.000000
_cell_volume 2849.941881
_symmetry_space_group_name_H-M "C 2/C"
_symmetry_group_IT_number 15
_symmetry_cell_setting 'monoclinic'
loop_
_space_group_symop_operation_xyz
x,y,z
-x,y,1/2-z
-x,-y,-z
x,-y,1/2+z
1/2+x,1/2+y,z
1/2-x,1/2+y,1/2-z
1/2-x,1/2-y,-z
1/2+x,1/2-y,1/2+z
loop_
_atom_site_type_symbol
_atom_site_label
_atom_site_fract_x
_atom_site_fract_y
_atom_site_fract_z
Si Si1 0.485178 0.918682 0.537317
Si Si2 0.968111 0.963020 0.910290
Si Si3 0.195402 0.935106 0.858221
Si Si4 0.652714 0.788970 0.925230
Si Si5 0.008536 0.802867 0.657866
Si Si6 0.000000 0.068342 0.750000
Si Si7 0.467618 0.292881 0.447263
Si Si8 0.264409 0.665804 0.876839
O O1 0.376477 0.915258 0.696908
O O2 0.410981 0.871782 0.530304
O O3 0.657199 0.889312 0.416808
O O4 0.500000 0.000000 0.500000
O O5 0.117673 0.956474 0.843437
O O6 0.923203 0.883860 0.913245
O O7 0.013385 0.018316 0.810176
O O8 0.820653 0.995508 0.074120
O O9 0.113965 0.866016 0.960169
O O10 0.836970 0.791099 0.760010
O O11 0.564663 0.739662 0.936676
O O12 0.622807 0.757158 0.029831
O O13 0.000000 0.788595 0.750000
O O14 0.842585 0.119909 0.881061
O O15 0.586970 0.309437 0.288416
O O16 0.338090 0.236350 0.518333
#
# Coordination Sequence:
#
# PCOD8151898 Si02
#       8
#     8   8   8   8   8   4   8   8
#     4  11  23  39  66  99 129 166 227 289 336 393
#     4  11  23  40  71  93 132 175 229 275 341 417
#     4  11  22  43  69 101 123 173 232 282 336 403
#     4  11  22  40  62  93 126 172 218 285 330 401
#     4  12  24  40  62  93 136 177 221 270 346 412
#     4  12  24  46  64 100 138 188 218 274 360 426
#     4  11  21  42  67  97 128 168 230 283 334 394
#     4  11  25  40  68 100 135 177 221 279 346 416
#
# _framework density 21.053061
#
# number of rings (size 3 to 8) (size 9 to 14) (size 15 to 20)
#    0.000    0.800    4.667    4.400    1.867    1.600 
#    0.000    0.667    0.000    0.000    0.000    0.000 
#    0.000    0.000    0.000    0.000    0.000    0.000 
#
# Total GULP energy -372013.571107 kJ/mol
# GULP energy per Si atom -12400.452370 kJ/mol
# Density = 2.100514 g / cm^3
# Si number density = 21.053061 Si / 1000 Ang^3
#
#
#
# Elastic Constant Matrix: (Units=GPa)
#
#
# Indices 1 2 3 4 5 6 
#
# 1 41.5091 25.3802 24.1022 -0.0023 -2.4937 0.0025
# 2 25.3802 143.8649 71.5252 0.0007 -2.5292 0.0017
# 3 24.1022 71.5252 113.0660 0.0039 -6.1797 -0.0005
# 4 -0.0023 0.0007 0.0039 38.9952 -0.0001 10.5929
# 5 -2.4937 -2.5292 -6.1797 -0.0001 30.4824 -0.0012
# 6 0.0025 0.0017 -0.0005 10.5929 -0.0012 27.6881
#
#
#
# Elastic Compliance Matrix: (Units=1/GPa)
#
#
# Indices 1 2 3 4 5 6 
#
# 1 0.028351 -0.002930 -0.004122 0.000003 0.001241 -0.000004
# 2 -0.002930 0.010450 -0.006018 0.000000 -0.000593 -0.000001
# 3 -0.004122 -0.006018 0.013635 -0.000002 0.001928 0.000002
# 4 0.000003 0.000000 -0.000002 0.028618 0.000000 -0.010949
# 5 0.001241 -0.000593 0.001928 0.000000 0.033249 0.000002
# 6 -0.000004 -0.000001 0.000002 -0.010949 0.000002 0.040305
#
#
# Mechanical properties :
#
#
# Convention : Reuss Voigt Hill
#
# Bulk Modulus (GPa) = 38.03020 60.05058 49.04039
# Shear Modulus (GPa) = 26.38322 31.26194 28.82258
#
# Velocity S-wave (km/s) = 3.54386 3.85764 3.70407
# Velocity P-wave (km/s) = 5.90326 6.95896 6.45274
#
# Compressibility (1/GPa) = 0.02629489
#
# Stress axis : x y z
#
# Youngs Moduli (GPa) = 35.27235 95.69825 73.33835
#
# Poissons Ratio (x) = 0.28044 0.30230
# Poissons Ratio (y) = 0.10336 0.44135
# Poissons Ratio (z) = 0.14539 0.57592
#
# Static dielectric constant tensor:
#      x y z
#    x 3.950490 -0.000020 -0.392290 
#    y -0.000020 4.192780 0.000050 
#    z -0.392290 0.000050 4.721560 
# 
# 
# High freq. dielectric constant tensor:
#      x y z
#    x 1.808690 0.000000 -0.001170 
#    y 0.000000 1.846040 0.000000 
#    z -0.001170 0.000000 1.825520 
# 
# From -- ./inp_files/211729.got.cif
#   From: 2010.06.25/outbox.cif.g09.slc.cpg/sg15_106_cif.got.tgz:211729.got - 2010.06.28 07:06:18.
