data_PCOD8151176
_publ_section_title
;
Structure prediction by ZEFSAII (Michael W. Deem and Ramdas Pophale) SiO2 
 PCOD8151176
Probable space group: C 2/C
;
_chemical_formula_sum "Si O2"
_cell_formula_units_Z 40
_cell_length_a 9.343697
_cell_length_b 14.042316
_cell_length_c 17.614302
_cell_angle_alpha 90.000000
_cell_angle_beta 107.576204
_cell_angle_gamma 90.000000
_cell_volume 2203.230241
_symmetry_space_group_name_H-M "C 2/C"
_symmetry_group_IT_number 15
_symmetry_cell_setting 'monoclinic'
loop_
_space_group_symop_operation_xyz
x,y,z
-x,y,1/2-z
-x,-y,-z
x,-y,1/2+z
1/2+x,1/2+y,z
1/2-x,1/2+y,1/2-z
1/2-x,1/2-y,-z
1/2+x,1/2-y,1/2+z
loop_
_atom_site_type_symbol
_atom_site_label
_atom_site_fract_x
_atom_site_fract_y
_atom_site_fract_z
Si Si1 0.562371 0.158510 0.950021
Si Si2 0.140072 0.140656 0.427865
Si Si3 0.746025 0.141512 0.523981
Si Si4 0.023658 0.965000 0.339547
Si Si5 0.788267 0.026541 0.924727
O O1 0.541337 0.263260 0.908992
O O2 0.407492 0.117905 0.956270
O O3 0.631052 0.086016 0.898247
O O4 0.682063 0.167072 0.039688
O O5 0.097600 0.078858 0.496988
O O6 0.104206 0.069434 0.352538
O O7 0.750000 0.250000 0.500000
O O8 0.753293 0.079521 0.448586
O O9 0.879345 0.116117 0.603279
O O10 0.000000 0.931669 0.250000
O O11 0.860787 0.974699 0.353344
#
# Coordination Sequence:
#
# PCOD8151176 Si02
#       5
#     8   8   8   8   8
#     4   9  17  32  61  85  99 131 190 235 253 309
#     4   8  17  33  60  78 106 134 188 216 274 322
#     4  11  20  33  61  82 107 141 199 222 263 324
#     4  11  22  36  52  80 117 148 175 225 282 328
#     4   9  18  33  54  78 106 140 184 218 264 320
#
# _framework density 18.155161
#
# number of rings (size 3 to 8) (size 9 to 14) (size 15 to 20)
#    1.200    1.200    0.000    5.400    0.000    0.000 
#    0.000    5.000    0.000    0.000    0.000    0.000 
#    0.000    0.000    0.000    0.000    0.000    0.000 
#
# Total GULP energy -247840.189521 kJ/mol
# GULP energy per Si atom -12392.009476 kJ/mol
# Density = 1.811384 g / cm^3
# Si number density = 18.155161 Si / 1000 Ang^3
#
#
#
# Elastic Constant Matrix: (Units=GPa)
#
#
# Indices 1 2 3 4 5 6 
#
# 1 129.7174 43.0196 36.6951 0.0000 -9.3888 0.0000
# 2 43.0196 146.9166 35.8363 0.0000 -8.5016 0.0000
# 3 36.6951 35.8363 62.1621 0.0000 -13.1300 0.0000
# 4 0.0000 0.0000 0.0000 17.1838 0.0000 2.6246
# 5 -9.3888 -8.5016 -13.1300 0.0000 17.6151 0.0000
# 6 0.0000 0.0000 0.0000 2.6246 0.0000 23.1324
#
#
#
# Elastic Compliance Matrix: (Units=1/GPa)
#
#
# Indices 1 2 3 4 5 6 
#
# 1 0.009604 -0.001656 -0.004513 0.000000 0.000956 0.000000
# 2 -0.001656 0.008210 -0.003685 0.000000 0.000333 0.000000
# 3 -0.004513 -0.003685 0.023727 0.000000 0.013502 0.000000
# 4 0.000000 0.000000 0.000000 0.059221 0.000000 -0.006719
# 5 0.000956 0.000333 0.013502 0.000000 0.067504 0.000000
# 6 0.000000 0.000000 0.000000 -0.006719 0.000000 0.043992
#
#
# Mechanical properties :
#
#
# Convention : Reuss Voigt Hill
#
# Bulk Modulus (GPa) = 45.80141 63.32198 54.56170
# Shear Modulus (GPa) = 20.89927 26.46924 23.68425
#
# Velocity S-wave (km/s) = 3.39654 3.82245 3.61577
# Velocity P-wave (km/s) = 6.37687 7.37804 6.89565
#
# Compressibility (1/GPa) = 0.02183339
#
# Stress axis : x y z
#
# Youngs Moduli (GPa) = 104.12228 121.80833 42.14572
#
# Poissons Ratio (x) = 0.20173 0.19019
# Poissons Ratio (y) = 0.17244 0.15530
# Poissons Ratio (z) = 0.46988 0.44885
#
# Static dielectric constant tensor:
#      x y z
#    x 3.341970 0.000000 0.095820 
#    y 0.000000 3.391420 0.000000 
#    z 0.095820 0.000000 2.769900 
# 
# 
# High freq. dielectric constant tensor:
#      x y z
#    x 1.708120 0.000000 0.006400 
#    y 0.000000 1.719070 0.000000 
#    z 0.006400 0.000000 1.631930 
# 
# From -- ./inp_files/230843.got.cif
#   From: 2010.06.25/outbox.cif.g09.slc.cpg/sg15_116_cif.got.tgz:230843.got - 2010.06.28 07:06:18.
