data_PCOD8151055
_publ_section_title
;
Structure prediction by ZEFSAII (Michael W. Deem and Ramdas Pophale) SiO2 
 PCOD8151055
Probable space group: C 2/C
;
_chemical_formula_sum "Si O2"
_cell_formula_units_Z 56
_cell_length_a 28.336594
_cell_length_b 13.047191
_cell_length_c 22.718887
_cell_angle_alpha 90.000000
_cell_angle_beta 160.420156
_cell_angle_gamma 90.000000
_cell_volume 2814.830533
_symmetry_space_group_name_H-M "C 2/C"
_symmetry_group_IT_number 15
_symmetry_cell_setting 'monoclinic'
loop_
_space_group_symop_operation_xyz
x,y,z
-x,y,1/2-z
-x,-y,-z
x,-y,1/2+z
1/2+x,1/2+y,z
1/2-x,1/2+y,1/2-z
1/2-x,1/2-y,-z
1/2+x,1/2-y,1/2+z
loop_
_atom_site_type_symbol
_atom_site_label
_atom_site_fract_x
_atom_site_fract_y
_atom_site_fract_z
Si Si1 0.290970 0.137656 0.527539
Si Si2 0.966078 0.149367 0.058654
Si Si3 0.194529 0.180885 0.740716
Si Si4 0.042328 0.645205 0.893423
Si Si5 0.057699 0.833683 0.478162
Si Si6 0.472355 0.509269 0.785537
Si Si7 0.201758 0.944064 0.751287
O O1 0.250000 0.250000 0.500000
O O2 0.403634 0.086838 0.706102
O O3 0.353975 0.161886 0.538495
O O4 0.174513 0.050685 0.382385
O O5 0.019838 0.248122 0.156241
O O6 0.917405 0.066417 0.051228
O O7 0.095856 0.107573 0.172820
O O8 0.834769 0.182818 0.863790
O O9 0.061966 0.222959 0.623090
O O10 0.209277 0.062985 0.776305
O O11 0.333186 0.247474 0.916369
O O12 0.135090 0.591432 0.053291
O O13 0.140575 0.920408 0.614151
O O14 0.981324 0.883428 0.331389
O O15 0.500000 0.531080 0.750000
#
# Coordination Sequence:
#
# PCOD8151055 Si02
#       7
#     8   8   8   8   8   8   8
#     4  11  21  34  55  91 131 167 203 256 328 400
#     4  11  19  35  65  97 126 166 207 262 333 396
#     4  11  22  42  70  94 127 169 223 274 330 393
#     4  11  20  33  59  94 127 157 210 265 324 391
#     4  11  23  43  69  96 127 174 224 277 334 388
#     4  12  23  41  63  90 131 179 218 256 327 406
#     4  11  20  40  66  93 128 167 213 273 339 391
#
# _framework density 19.894625000000001
#
# number of rings (size 3 to 8) (size 9 to 14) (size 15 to 20)
#    0.000    0.857    7.143    1.714    0.000    0.000 
#    2.571    1.429    3.143    0.000    0.000    0.000 
#    0.000    0.000    0.000    0.000    0.000    0.000 
#
# Total GULP energy -346875.918567 kJ/mol
# GULP energy per Si atom -12388.425663 kJ/mol
# Density = 1.984934 g / cm^3
# Si number density = 19.894625 Si / 1000 Ang^3
#
#
#
# Elastic Constant Matrix: (Units=GPa)
#
#
# Indices 1 2 3 4 5 6 
#
# 1 105.3088 39.2864 49.2995 -0.0005 -12.0112 -0.0008
# 2 39.2864 86.9276 51.0906 -0.0003 12.9228 -0.0013
# 3 49.2995 51.0906 107.0226 -0.0011 -1.6801 -0.0009
# 4 -0.0005 -0.0003 -0.0011 27.1453 -0.0009 6.0049
# 5 -12.0112 12.9228 -1.6801 -0.0009 28.3459 -0.0009
# 6 -0.0008 -0.0013 -0.0009 6.0049 -0.0009 17.7321
#
#
#
# Elastic Compliance Matrix: (Units=1/GPa)
#
#
# Indices 1 2 3 4 5 6 
#
# 1 0.014265 -0.005411 -0.003858 0.000000 0.008283 0.000000
# 2 -0.005411 0.019946 -0.007215 -0.000001 -0.011814 0.000000
# 3 -0.003858 -0.007215 0.014605 0.000001 0.002520 0.000000
# 4 0.000000 -0.000001 0.000001 0.039822 0.000001 -0.013486
# 5 0.008283 -0.011814 0.002520 0.000001 0.044323 0.000002
# 6 0.000000 0.000000 0.000000 -0.013486 0.000002 0.060962
#
#
# Mechanical properties :
#
#
# Convention : Reuss Voigt Hill
#
# Bulk Modulus (GPa) = 63.09780 64.29021 63.69401
# Shear Modulus (GPa) = 21.53561 25.28349 23.40955
#
# Velocity S-wave (km/s) = 3.29368 3.56879 3.43399
# Velocity P-wave (km/s) = 6.80068 7.02618 6.91435
#
# Compressibility (1/GPa) = 0.01584841
#
# Stress axis : x y z
#
# Youngs Moduli (GPa) = 70.09989 50.13570 68.47057
#
# Poissons Ratio (x) = 0.27128 0.26417
# Poissons Ratio (y) = 0.37930 0.49400
# Poissons Ratio (z) = 0.27046 0.36172
#
# Static dielectric constant tensor:
#      x y z
#    x 3.737260 0.000000 -0.392440 
#    y 0.000000 3.427480 0.000000 
#    z -0.392440 0.000000 3.783490 
# 
# 
# High freq. dielectric constant tensor:
#      x y z
#    x 1.771860 0.000000 -0.018690 
#    y 0.000000 1.749340 0.000000 
#    z -0.018690 0.000000 1.783920 
# 
# From -- ./inp_files/284614.got.cif
#   From: 2010.06.25/outbox.cif.g09.slc.cpg/sg15_143_cif.got.tgz:284614.got - 2010.06.28 07:06:18.
