data_PCOD8151441
_publ_section_title
;
Structure prediction by ZEFSAII (Michael W. Deem and Ramdas Pophale) SiO2 
 PCOD8151441
Probable space group: C 2/C
;
_chemical_formula_sum "Si O2"
_cell_formula_units_Z 64
_cell_length_a 9.000819
_cell_length_b 21.691772
_cell_length_c 16.278960
_cell_angle_alpha 90.000000
_cell_angle_beta 101.545125
_cell_angle_gamma 90.000000
_cell_volume 3114.057968
_symmetry_space_group_name_H-M "C 2/C"
_symmetry_group_IT_number 15
_symmetry_cell_setting 'monoclinic'
loop_
_space_group_symop_operation_xyz
x,y,z
-x,y,1/2-z
-x,-y,-z
x,-y,1/2+z
1/2+x,1/2+y,z
1/2-x,1/2+y,1/2-z
1/2-x,1/2-y,-z
1/2+x,1/2-y,1/2+z
loop_
_atom_site_type_symbol
_atom_site_label
_atom_site_fract_x
_atom_site_fract_y
_atom_site_fract_z
Si Si1 0.846484 0.915032 0.183473
Si Si2 0.542972 0.374041 0.478687
Si Si3 0.709796 0.933587 0.891281
Si Si4 0.398370 0.877550 0.905028
Si Si5 0.321870 0.548700 0.223534
Si Si6 0.164367 0.653757 0.793520
Si Si7 0.281024 0.932089 0.054761
Si Si8 0.148659 0.760154 0.068540
O O1 0.872808 0.891515 0.095404
O O2 0.740719 0.865723 0.216575
O O3 0.000000 0.920326 0.250000
O O4 0.778935 0.984256 0.173909
O O5 0.661668 0.385781 0.564628
O O6 0.394879 0.415456 0.477241
O O7 0.494951 0.302419 0.471783
O O8 0.546410 0.902553 0.876392
O O9 0.745624 0.953627 0.803555
O O10 0.707204 0.994426 0.947517
O O11 0.248864 0.896700 0.838303
O O12 0.413333 0.804092 0.905416
O O13 0.386062 0.902548 0.996273
O O14 0.500000 0.561144 0.250000
O O15 0.156968 0.594201 0.852071
O O16 0.255958 0.708017 0.848237
O O17 0.000000 0.678669 0.750000
O O18 0.250000 0.750000 0.000000
#
# Coordination Sequence:
#
# PCOD8151441 Si02
#       8
#     8   8   8   8   8   8   8   8
#     4  11  20  42  67 102 131 170 228 278 328 395
#     4  11  23  42  72  97 131 184 231 272 328 408
#     4  12  25  41  67 106 135 168 222 283 346 402
#     4  12  26  43  66  98 137 179 217 276 343 400
#     4  11  24  42  67  96 137 175 212 278 345 409
#     4  11  24  40  72  99 131 182 229 277 331 396
#     4  11  21  43  68  99 137 175 214 273 349 403
#     4  11  24  48  68  88 139 181 228 275 327 400
#
# _framework density 20.551960000000001
#
# number of rings (size 3 to 8) (size 9 to 14) (size 15 to 20)
#    0.000    0.750    6.250    3.375    3.500    1.000 
#    4.500    0.000    0.000    0.000    0.000    0.000 
#    0.000    0.000    0.000    0.000    0.000    0.000 
#
# Total GULP energy -396970.700035 kJ/mol
# GULP energy per Si atom -12405.334376 kJ/mol
# Density = 2.050518 g / cm^3
# Si number density = 20.551960 Si / 1000 Ang^3
#
#
#
# Elastic Constant Matrix: (Units=GPa)
#
#
# Indices 1 2 3 4 5 6 
#
# 1 106.9694 54.4464 29.8281 0.0000 -13.1868 0.0000
# 2 54.4464 162.0257 31.0708 0.0000 -4.8319 0.0000
# 3 29.8281 31.0708 68.4092 0.0000 -14.7952 0.0000
# 4 0.0000 0.0000 0.0000 27.7005 0.0000 -8.7699
# 5 -13.1868 -4.8319 -14.7952 0.0000 31.5360 0.0000
# 6 0.0000 0.0000 0.0000 -8.7699 0.0000 26.1283
#
#
#
# Elastic Compliance Matrix: (Units=1/GPa)
#
#
# Indices 1 2 3 4 5 6 
#
# 1 0.012377 -0.003463 -0.003138 0.000000 0.003173 0.000000
# 2 -0.003463 0.007735 -0.002293 0.000000 -0.001339 0.000000
# 3 -0.003138 -0.002293 0.018550 0.000000 0.007039 0.000000
# 4 0.000000 0.000000 0.000000 0.040393 0.000000 0.013558
# 5 0.003173 -0.001339 0.007039 0.000000 0.036134 0.000000
# 6 0.000000 0.000000 0.000000 0.013558 0.000000 0.042823
#
#
# Mechanical properties :
#
#
# Convention : Reuss Voigt Hill
#
# Bulk Modulus (GPa) = 47.90337 63.12165 55.51251
# Shear Modulus (GPa) = 27.35863 31.87689 29.61776
#
# Velocity S-wave (km/s) = 3.65251 3.94260 3.80032
# Velocity P-wave (km/s) = 6.41458 7.17672 6.80632
#
# Compressibility (1/GPa) = 0.02087536
#
# Stress axis : x y z
#
# Youngs Moduli (GPa) = 80.79437 129.27800 53.90864
#
# Poissons Ratio (x) = 0.44767 0.16915
# Poissons Ratio (y) = 0.27978 0.12361
# Poissons Ratio (z) = 0.25351 0.29642
#
# Static dielectric constant tensor:
#      x y z
#    x 3.812790 0.000000 -0.063300 
#    y 0.000000 3.853290 0.000000 
#    z -0.063300 0.000000 3.702290 
# 
# 
# High freq. dielectric constant tensor:
#      x y z
#    x 1.806280 0.000000 -0.009640 
#    y 0.000000 1.799420 0.000000 
#    z -0.009640 0.000000 1.810230 
# 
# From -- ./inp_files/137816.got.cif
#   From: 2010.06.25/outbox.cif.g09.slc.cpg/sg15_69_cif.got.tgz:137816.got - 2010.06.28 07:06:18.
