data_PCOD8151778
_publ_section_title
;
Structure prediction by ZEFSAII (Michael W. Deem and Ramdas Pophale) SiO2 
 PCOD8151778
Probable space group: C 2/C
;
_chemical_formula_sum "Si O2"
_cell_formula_units_Z 64
_cell_length_a 23.529253
_cell_length_b 17.480097
_cell_length_c 19.345539
_cell_angle_alpha 90.000000
_cell_angle_beta 158.874861
_cell_angle_gamma 90.000000
_cell_volume 2867.642200
_symmetry_space_group_name_H-M "C 2/C"
_symmetry_group_IT_number 15
_symmetry_cell_setting 'monoclinic'
loop_
_space_group_symop_operation_xyz
x,y,z
-x,y,1/2-z
-x,-y,-z
x,-y,1/2+z
1/2+x,1/2+y,z
1/2-x,1/2+y,1/2-z
1/2-x,1/2-y,-z
1/2+x,1/2-y,1/2+z
loop_
_atom_site_type_symbol
_atom_site_label
_atom_site_fract_x
_atom_site_fract_y
_atom_site_fract_z
Si Si1 0.644098 0.488647 0.958000
Si Si2 0.063290 0.197807 0.615848
Si Si3 0.084160 0.655160 0.514366
Si Si4 0.029016 0.525608 0.202834
Si Si5 0.908022 0.953833 0.954167
Si Si6 0.933578 0.598145 0.481512
Si Si7 0.456348 0.256093 0.856378
Si Si8 0.857926 0.815735 0.543913
O O1 0.500000 0.519343 0.750000
O O2 0.687204 0.401357 0.984650
O O3 0.786556 0.543838 0.097775
O O4 0.606961 0.491921 0.996893
O O5 0.042071 0.274813 0.637787
O O6 0.008670 0.120544 0.591763
O O7 0.933547 0.212321 0.407673
O O8 0.239704 0.189594 0.786387
O O9 0.068350 0.600902 0.429290
O O10 0.049146 0.604853 0.544610
O O11 0.000000 0.503248 0.250000
O O12 0.996681 0.458077 0.111831
O O13 0.737608 0.928959 0.734768
O O14 0.000000 0.000000 0.000000
O O15 0.933645 0.680622 0.517208
O O16 0.293179 0.239871 0.630231
O O17 0.560093 0.321416 0.937907
O O18 0.000000 0.778350 0.750000
#
# Coordination Sequence:
#
# PCOD8151778 Si02
#       8
#     8   8   8   8   8   8   8   8
#     4  11  27  47  67  99 146 184 239 298 353 427
#     4  11  24  41  71 106 139 176 234 301 361 424
#     4  11  24  46  73 104 142 182 238 304 365 427
#     4  12  27  47  72 100 142 193 242 295 363 428
#     4  12  25  41  73 108 139 186 234 297 360 433
#     4  11  23  43  71 103 139 182 240 299 352 425
#     4  11  21  40  65  96 135 175 225 283 348 417
#     4  11  23  41  60  94 136 189 223 275 342 426
#
# _framework density 22.317986999999999
#
# number of rings (size 3 to 8) (size 9 to 14) (size 15 to 20)
#    0.000    0.750    2.500    6.000    5.250    0.500 
#    2.250    1.250    0.000    0.000    0.000    0.000 
#    0.000    0.000    0.000    0.000    0.000    0.000 
#
# Total GULP energy -396590.494359 kJ/mol
# GULP energy per Si atom -12393.452949 kJ/mol
# Density = 2.226719 g / cm^3
# Si number density = 22.317987 Si / 1000 Ang^3
#
#
#
# Elastic Constant Matrix: (Units=GPa)
#
#
# Indices 1 2 3 4 5 6 
#
# 1 97.6531 26.2422 40.9929 0.0012 9.1452 0.0012
# 2 26.2422 70.1566 24.9439 0.0025 -3.1160 0.0011
# 3 40.9929 24.9439 145.6598 0.0004 3.3394 -0.0002
# 4 0.0012 0.0025 0.0004 20.4022 0.0001 2.2080
# 5 9.1452 -3.1160 3.3394 0.0001 27.3054 -0.0004
# 6 0.0012 0.0011 -0.0002 2.2080 -0.0004 30.2137
#
#
#
# Elastic Compliance Matrix: (Units=1/GPa)
#
#
# Indices 1 2 3 4 5 6 
#
# 1 0.012933 -0.004022 -0.002849 0.000000 -0.004442 0.000000
# 2 -0.004022 0.016545 -0.001780 -0.000002 0.003453 0.000000
# 3 -0.002849 -0.001780 0.007977 0.000000 -0.000225 0.000000
# 4 0.000000 -0.000002 0.000000 0.049405 0.000000 -0.003611
# 5 -0.004442 0.003453 -0.000225 0.000000 0.038532 0.000001
# 6 0.000000 0.000000 0.000000 -0.003611 0.000001 0.033361
#
#
# Mechanical properties :
#
#
# Convention : Reuss Voigt Hill
#
# Bulk Modulus (GPa) = 49.62346 55.31418 52.46882
# Shear Modulus (GPa) = 27.35613 30.33694 28.84654
#
# Velocity S-wave (km/s) = 3.50486 3.69087 3.59907
# Velocity P-wave (km/s) = 6.21786 6.55757 6.38997
#
# Compressibility (1/GPa) = 0.02015176
#
# Stress axis : x y z
#
# Youngs Moduli (GPa) = 77.32041 60.44250 125.35712
#
# Poissons Ratio (x) = 0.24310 0.35717
# Poissons Ratio (y) = 0.31098 0.22320
# Poissons Ratio (z) = 0.22030 0.10762
#
# Static dielectric constant tensor:
#      x y z
#    x 3.927460 -0.000010 -0.012330 
#    y -0.000010 4.132970 -0.000010 
#    z -0.012330 -0.000010 4.246880 
# 
# 
# High freq. dielectric constant tensor:
#      x y z
#    x 1.863370 0.000000 0.008820 
#    y 0.000000 1.877970 0.000000 
#    z 0.008820 0.000000 1.890930 
# 
# From -- ./inp_files/256029.got.cif
#   From: 2010.06.25/outbox.cif.g09.slc.cpg/sg15_129_cif.got.tgz:256029.got - 2010.06.28 07:06:18.
