data_PCOD8151738
_publ_section_title
;
Structure prediction by ZEFSAII (Michael W. Deem and Ramdas Pophale) SiO2 
 PCOD8151738
Probable space group: C 2/C
;
_chemical_formula_sum "Si O2"
_cell_formula_units_Z 32
_cell_length_a 18.710088
_cell_length_b 6.365822
_cell_length_c 13.826945
_cell_angle_alpha 90.000000
_cell_angle_beta 106.345341
_cell_angle_gamma 90.000000
_cell_volume 1580.298217
_symmetry_space_group_name_H-M "C 2/C"
_symmetry_group_IT_number 15
_symmetry_cell_setting 'monoclinic'
loop_
_space_group_symop_operation_xyz
x,y,z
-x,y,1/2-z
-x,-y,-z
x,-y,1/2+z
1/2+x,1/2+y,z
1/2-x,1/2+y,1/2-z
1/2-x,1/2-y,-z
1/2+x,1/2-y,1/2+z
loop_
_atom_site_type_symbol
_atom_site_label
_atom_site_fract_x
_atom_site_fract_y
_atom_site_fract_z
Si Si1 0.682320 0.236638 0.306260
Si Si2 0.316534 0.417453 0.544528
Si Si3 0.840030 0.072624 0.345656
Si Si4 0.587565 0.157102 0.777675
O O1 0.712813 0.384055 0.404926
O O2 0.753649 0.118647 0.290116
O O3 0.640103 0.364731 0.206971
O O4 0.622878 0.066134 0.319010
O O5 0.250000 0.250000 0.500000
O O6 0.352855 0.516742 0.462182
O O7 0.383847 0.317506 0.630088
O O8 0.889492 0.265030 0.322207
O O9 0.500000 0.138151 0.750000
#
# Coordination Sequence:
#
# PCOD8151738 Si02
#       4
#     8   8   8   8
#     4  11  21  39  67  95 127 164 215 265 318 380
#     4  11  23  39  70 100 124 164 226 265 310 385
#     4  11  21  39  67  93 124 171 218 259 315 383
#     4  11  26  42  61  96 136 168 209 271 327 371
#
# _framework density 20.249341999999999
#
# number of rings (size 3 to 8) (size 9 to 14) (size 15 to 20)
#    0.000    1.000    5.000    2.250    0.000    5.000 
#    0.000    2.500    0.000    0.000    0.000    0.000 
#    0.000    0.000    0.000    0.000    0.000    0.000 
#
# Total GULP energy -198363.678263 kJ/mol
# GULP energy per Si atom -12397.729891 kJ/mol
# Density = 2.020325 g / cm^3
# Si number density = 20.249342 Si / 1000 Ang^3
#
#
#
# Elastic Constant Matrix: (Units=GPa)
#
#
# Indices 1 2 3 4 5 6 
#
# 1 136.6743 44.8400 23.9165 0.0000 -1.2311 0.0000
# 2 44.8400 111.4912 45.1089 0.0000 -5.4435 0.0000
# 3 23.9165 45.1089 115.6240 0.0000 -23.0086 0.0000
# 4 0.0000 0.0000 0.0000 33.4624 0.0000 2.8389
# 5 -1.2311 -5.4435 -23.0086 0.0000 20.2623 0.0000
# 6 0.0000 0.0000 0.0000 2.8389 0.0000 21.0959
#
#
#
# Elastic Compliance Matrix: (Units=1/GPa)
#
#
# Indices 1 2 3 4 5 6 
#
# 1 0.008475 -0.003160 -0.000758 0.000000 -0.001195 0.000000
# 2 -0.003160 0.011920 -0.004390 0.000000 -0.001974 0.000000
# 3 -0.000758 -0.004390 0.013274 0.000000 0.013847 0.000000
# 4 0.000000 0.000000 0.000000 0.030229 0.000000 -0.004068
# 5 -0.001195 -0.001974 0.013847 0.000000 0.064474 0.000000
# 6 0.000000 0.000000 0.000000 -0.004068 0.000000 0.047950
#
#
# Mechanical properties :
#
#
# Convention : Reuss Voigt Hill
#
# Bulk Modulus (GPa) = 58.63953 65.72448 62.18200
# Shear Modulus (GPa) = 25.17341 31.62573 28.39957
#
# Velocity S-wave (km/s) = 3.52969 3.95627 3.74905
# Velocity P-wave (km/s) = 6.75524 7.30736 7.03671
#
# Compressibility (1/GPa) = 0.01705334
#
# Stress axis : x y z
#
# Youngs Moduli (GPa) = 117.98891 83.89288 75.33771
#
# Poissons Ratio (x) = 0.26513 0.05710
# Poissons Ratio (y) = 0.37289 0.33070
# Poissons Ratio (z) = 0.08942 0.36825
#
# Static dielectric constant tensor:
#      x y z
#    x 3.288720 0.000000 -0.192140 
#    y 0.000000 4.034270 0.000000 
#    z -0.192140 0.000000 3.775110 
# 
# 
# High freq. dielectric constant tensor:
#      x y z
#    x 1.755660 0.000000 -0.012420 
#    y 0.000000 1.813880 0.000000 
#    z -0.012420 0.000000 1.795020 
# 
# From -- ./inp_files/158019.got.cif
#   From: 2010.06.25/outbox.cif.g09.slc.cpg/sg15_80_cif.got.tgz:158019.got - 2010.06.28 07:06:18.
