data_PCOD8151971
_publ_section_title
;
Structure prediction by ZEFSAII (Michael W. Deem and Ramdas Pophale) SiO2 
 PCOD8151971
Probable space group: C 2/C
;
_chemical_formula_sum "Si O2"
_cell_formula_units_Z 48
_cell_length_a 20.658570
_cell_length_b 11.842766
_cell_length_c 11.646644
_cell_angle_alpha 90.000000
_cell_angle_beta 133.102489
_cell_angle_gamma 90.000000
_cell_volume 2080.443573
_symmetry_space_group_name_H-M "C 2/C"
_symmetry_group_IT_number 15
_symmetry_cell_setting 'monoclinic'
loop_
_space_group_symop_operation_xyz
x,y,z
-x,y,1/2-z
-x,-y,-z
x,-y,1/2+z
1/2+x,1/2+y,z
1/2-x,1/2+y,1/2-z
1/2-x,1/2-y,-z
1/2+x,1/2-y,1/2+z
loop_
_atom_site_type_symbol
_atom_site_label
_atom_site_fract_x
_atom_site_fract_y
_atom_site_fract_z
Si Si1 0.931635 0.775055 0.923167
Si Si2 0.403915 0.289763 0.636707
Si Si3 0.584966 0.457868 0.418138
Si Si4 0.768533 0.372990 0.566280
Si Si5 0.108750 0.648170 0.071675
Si Si6 0.086284 0.581412 0.429940
O O1 0.875532 0.788398 0.735946
O O2 0.922616 0.901148 0.965324
O O3 0.886147 0.686980 0.955553
O O4 0.032351 0.730430 0.029651
O O5 0.500000 0.228773 0.750000
O O6 0.418448 0.407030 0.585634
O O7 0.344891 0.208973 0.483412
O O8 0.500000 0.406739 0.250000
O O9 0.675037 0.434066 0.459825
O O10 0.750000 0.250000 0.500000
O O11 0.813596 0.371305 0.744816
O O12 0.830963 0.441145 0.553822
O O13 0.067669 0.527480 0.985852
O O14 0.000000 0.611774 0.250000
#
# Coordination Sequence:
#
# PCOD8151971 Si02
#       6
#     8   8   8   8   8   8
#     4  11  21  43  73 101 140 186 231 286 355 420
#     4   9  23  42  69 104 137 183 233 288 351 423
#     4  11  24  46  71  99 136 191 238 296 352 414
#     4  12  26  44  68 105 141 185 242 291 354 423
#     4  11  25  43  72 107 143 181 234 292 354 429
#     4  12  24  44  74 107 146 188 228 293 358 427
#
# _framework density 23.072002999999999
#
# number of rings (size 3 to 8) (size 9 to 14) (size 15 to 20)
#    0.000    1.000    3.333    3.500    2.333   10.000 
#    0.000    1.667    0.000    0.000    0.000    0.000 
#    0.000    0.000    0.000    0.000    0.000    0.000 
#
# Total GULP energy -297433.342107 kJ/mol
# GULP energy per Si atom -12393.055921 kJ/mol
# Density = 2.301949 g / cm^3
# Si number density = 23.072003 Si / 1000 Ang^3
#
#
#
# Elastic Constant Matrix: (Units=GPa)
#
#
# Indices 1 2 3 4 5 6 
#
# 1 115.5658 18.8545 66.7988 0.0000 -2.3055 0.0000
# 2 18.8545 106.2146 53.4550 0.0000 -24.3345 0.0000
# 3 66.7988 53.4550 105.7329 0.0000 -31.4122 0.0000
# 4 0.0000 0.0000 0.0000 29.3288 0.0000 -12.6773
# 5 -2.3055 -24.3345 -31.4122 0.0000 48.5116 0.0000
# 6 0.0000 0.0000 0.0000 -12.6773 0.0000 20.0722
#
#
#
# Elastic Compliance Matrix: (Units=1/GPa)
#
#
# Indices 1 2 3 4 5 6 
#
# 1 0.015647 0.002251 -0.012960 0.000000 -0.006519 0.000000
# 2 0.002251 0.013250 -0.007571 0.000000 0.001851 0.000000
# 3 -0.012960 -0.007571 0.024965 0.000000 0.011751 0.000000
# 4 0.000000 0.000000 0.000000 0.046900 0.000000 0.029621
# 5 -0.006519 0.001851 0.011751 0.000000 0.028841 0.000000
# 6 0.000000 0.000000 0.000000 0.029621 0.000000 0.068528
#
#
# Mechanical properties :
#
#
# Convention : Reuss Voigt Hill
#
# Bulk Modulus (GPa) = 57.79897 67.30333 62.55115
# Shear Modulus (GPa) = 20.79369 32.14284 26.46827
#
# Velocity S-wave (km/s) = 3.00534 3.73655 3.39071
# Velocity P-wave (km/s) = 6.09498 6.91737 6.51915
#
# Compressibility (1/GPa) = 0.01730135
#
# Stress axis : x y z
#
# Youngs Moduli (GPa) = 63.91028 75.47384 40.05674
#
# Poissons Ratio (x) = -0.16993 0.51915
# Poissons Ratio (y) = -0.14389 0.30327
# Poissons Ratio (z) = 0.82829 0.57142
#
# Static dielectric constant tensor:
#      x y z
#    x 4.444570 0.000000 -0.382860 
#    y 0.000000 4.092130 0.000000 
#    z -0.382860 0.000000 4.178050 
# 
# 
# High freq. dielectric constant tensor:
#      x y z
#    x 1.908300 0.000000 -0.022450 
#    y 0.000000 1.915170 0.000000 
#    z -0.022450 0.000000 1.909860 
# 
# From -- ./inp_files/111783.got.cif
#   From: 2010.06.25/outbox.cif.g09.slc.cpg/sg15_56_cif.got.tgz:111783.got - 2010.06.28 07:06:18.
