data_PCOD8151104
_publ_section_title
;
Structure prediction by ZEFSAII (Michael W. Deem and Ramdas Pophale) SiO2 
 PCOD8151104
Probable space group: C 2/C
;
_chemical_formula_sum "Si O2"
_cell_formula_units_Z 48
_cell_length_a 9.173733
_cell_length_b 19.983116
_cell_length_c 13.911625
_cell_angle_alpha 90.000000
_cell_angle_beta 68.597358
_cell_angle_gamma 90.000000
_cell_volume 2374.406302
_symmetry_space_group_name_H-M "C 2/C"
_symmetry_group_IT_number 15
_symmetry_cell_setting 'monoclinic'
loop_
_space_group_symop_operation_xyz
x,y,z
-x,y,1/2-z
-x,-y,-z
x,-y,1/2+z
1/2+x,1/2+y,z
1/2-x,1/2+y,1/2-z
1/2-x,1/2-y,-z
1/2+x,1/2-y,1/2+z
loop_
_atom_site_type_symbol
_atom_site_label
_atom_site_fract_x
_atom_site_fract_y
_atom_site_fract_z
Si Si1 0.663811 0.208226 0.248876
Si Si2 0.697001 0.832009 0.394185
Si Si3 0.343666 0.570040 0.725640
Si Si4 0.951539 0.876782 0.483816
Si Si5 0.632790 0.577570 0.297420
Si Si6 0.594398 0.757464 0.977146
O O1 0.500000 0.182329 0.250000
O O2 0.731866 0.260702 0.155353
O O3 0.759109 0.141139 0.242043
O O4 0.644414 0.244722 0.354648
O O5 0.705865 0.883670 0.302508
O O6 0.795046 0.865043 0.457912
O O7 0.514773 0.821642 0.468651
O O8 0.500000 0.577737 0.750000
O O9 0.396029 0.595673 0.608339
O O10 0.281249 0.493692 0.740628
O O11 0.925460 0.927363 0.578456
O O12 0.989366 0.806596 0.524754
O O13 0.500000 0.585821 0.250000
O O14 0.750000 0.750000 0.000000
#
# Coordination Sequence:
#
# PCOD8151104 Si02
#       6
#     8   8   8   8   8   8
#     4  12  22  39  62  90 124 159 208 251 304 375
#     4  11  21  41  66  89 122 163 211 256 302 373
#     4   9  20  39  64  91 120 164 210 252 303 376
#     4  11  19  39  65  91 120 163 214 252 302 372
#     4  11  23  38  60  92 130 162 203 257 315 361
#     4  12  24  36  59  96 123 156 202 262 315 359
#
# _framework density 20.215579999999999
#
# number of rings (size 3 to 8) (size 9 to 14) (size 15 to 20)
#    0.000    1.000    5.000    3.500    0.000    0.000 
#    0.000    2.500    0.000    0.000    0.000    0.000 
#    0.000    0.000    0.000    0.000    0.000    0.000 
#
# Total GULP energy -297484.779302 kJ/mol
# GULP energy per Si atom -12395.199138 kJ/mol
# Density = 2.016957 g / cm^3
# Si number density = 20.215580 Si / 1000 Ang^3
#
#
#
# Elastic Constant Matrix: (Units=GPa)
#
#
# Indices 1 2 3 4 5 6 
#
# 1 94.4661 28.4449 42.8529 0.0000 15.3616 0.0000
# 2 28.4449 112.8309 19.1858 0.0000 1.6606 0.0000
# 3 42.8529 19.1858 89.3150 0.0000 3.6105 0.0000
# 4 0.0000 0.0000 0.0000 35.3167 0.0000 -5.3620
# 5 15.3616 1.6606 3.6105 0.0000 17.2765 0.0000
# 6 0.0000 0.0000 0.0000 -5.3620 0.0000 24.5901
#
#
#
# Elastic Compliance Matrix: (Units=1/GPa)
#
#
# Indices 1 2 3 4 5 6 
#
# 1 0.016694 -0.002848 -0.006867 0.000000 -0.013135 0.000000
# 2 -0.002848 0.009688 -0.000786 0.000000 0.001765 0.000000
# 3 -0.006867 -0.000786 0.014533 0.000000 0.003144 0.000000
# 4 0.000000 0.000000 0.000000 0.029285 0.000000 0.006386
# 5 -0.013135 0.001765 0.003144 0.000000 0.068734 0.000000
# 6 0.000000 0.000000 0.000000 0.006386 0.000000 0.042059
#
#
# Mechanical properties :
#
#
# Convention : Reuss Voigt Hill
#
# Bulk Modulus (GPa) = 50.21700 53.06438 51.64069
# Shear Modulus (GPa) = 23.96537 29.17856 26.57196
#
# Velocity S-wave (km/s) = 3.44683 3.80329 3.62944
# Velocity P-wave (km/s) = 6.38244 6.75225 6.56995
#
# Compressibility (1/GPa) = 0.01991357
#
# Stress axis : x y z
#
# Youngs Moduli (GPa) = 59.90019 103.21580 68.80909
#
# Poissons Ratio (x) = 0.29393 0.47253
# Poissons Ratio (y) = 0.17058 0.05410
# Poissons Ratio (z) = 0.41135 0.08115
#
# Static dielectric constant tensor:
#      x y z
#    x 3.418210 0.000000 0.059950 
#    y 0.000000 3.755170 0.000000 
#    z 0.059950 0.000000 3.974630 
# 
# 
# High freq. dielectric constant tensor:
#      x y z
#    x 1.759780 0.000000 0.008950 
#    y 0.000000 1.792680 0.000000 
#    z 0.008950 0.000000 1.806200 
# 
# From -- ./inp_files/135908.got.cif
#   From: 2010.06.25/outbox.cif.g09.slc.cpg/sg15_68_cif.got.tgz:135908.got - 2010.06.28 07:06:18.
