data_PCOD8151377
_publ_section_title
;
Structure prediction by ZEFSAII (Michael W. Deem and Ramdas Pophale) SiO2 
 PCOD8151377
Probable space group: C 2/C
;
_chemical_formula_sum "Si O2"
_cell_formula_units_Z 48
_cell_length_a 18.601373
_cell_length_b 12.496558
_cell_length_c 14.560199
_cell_angle_alpha 90.000000
_cell_angle_beta 42.417905
_cell_angle_gamma 90.000000
_cell_volume 2283.000475
_symmetry_space_group_name_H-M "C 2/C"
_symmetry_group_IT_number 15
_symmetry_cell_setting 'monoclinic'
loop_
_space_group_symop_operation_xyz
x,y,z
-x,y,1/2-z
-x,-y,-z
x,-y,1/2+z
1/2+x,1/2+y,z
1/2-x,1/2+y,1/2-z
1/2-x,1/2-y,-z
1/2+x,1/2-y,1/2+z
loop_
_atom_site_type_symbol
_atom_site_label
_atom_site_fract_x
_atom_site_fract_y
_atom_site_fract_z
Si Si1 0.999692 0.573605 0.858361
Si Si2 0.499211 0.290582 0.948336
Si Si3 0.328924 0.672500 0.747379
Si Si4 0.007854 0.014331 0.642297
Si Si5 0.182313 0.846517 0.897859
Si Si6 0.669662 0.999834 0.840358
O O1 0.000000 0.543794 0.750000
O O2 0.008627 0.703152 0.858887
O O3 0.095904 0.513891 0.819626
O O4 0.892435 0.532874 0.008346
O O5 0.502665 0.415633 0.916810
O O6 0.594690 0.272852 0.929786
O O7 0.388799 0.270163 0.105794
O O8 0.412153 0.599979 0.724292
O O9 0.271452 0.768063 0.861046
O O10 0.229762 0.609125 0.801252
O O11 0.000000 0.963768 0.750000
O O12 0.122073 0.073930 0.524865
O O13 0.241018 0.912426 0.763363
#
# Coordination Sequence:
#
# PCOD8151377 Si02
#       6
#     8   8   8   8   8   8
#     4  11  25  40  64  99 125 157 208 263 313 367
#     4  11  20  40  66  91 122 152 209 266 302 365
#     4  11  21  40  65  87 118 172 209 241 317 374
#     4  11  24  38  60  95 127 156 208 267 302 363
#     4  11  21  40  65  87 118 172 209 241 317 374
#     4  11  22  43  64  88 132 169 200 251 316 378
#
# _framework density 21.024961999999999
#
# number of rings (size 3 to 8) (size 9 to 14) (size 15 to 20)
#    0.000    1.000    6.667    1.500    0.000    2.000 
#    0.000    3.333    0.000    0.000    0.000    0.000 
#    0.000    0.000    0.000    0.000    0.000    0.000 
#
# Total GULP energy -297401.498332 kJ/mol
# GULP energy per Si atom -12391.729097 kJ/mol
# Density = 2.097711 g / cm^3
# Si number density = 21.024962 Si / 1000 Ang^3
#
#
#
# Elastic Constant Matrix: (Units=GPa)
#
#
# Indices 1 2 3 4 5 6 
#
# 1 46.0041 22.1137 54.8094 0.0000 4.3884 0.0000
# 2 22.1137 77.3343 33.8101 0.0000 -16.8715 0.0000
# 3 54.8094 33.8101 122.2718 0.0000 -10.4684 0.0000
# 4 0.0000 0.0000 0.0000 12.4255 0.0000 18.6230
# 5 4.3884 -16.8715 -10.4684 0.0000 35.7394 0.0000
# 6 0.0000 0.0000 0.0000 18.6230 0.0000 1.1842
#
#
#
# Elastic Compliance Matrix: (Units=1/GPa)
#
#
# Indices 1 2 3 4 5 6 
#
# 1 0.057913 -0.009842 -0.024869 0.000000 -0.019042 0.000000
# 2 -0.009842 0.017704 0.000344 0.000000 0.009667 0.000000
# 3 -0.024869 0.000344 0.020008 0.000000 0.009077 0.000000
# 4 0.000000 0.000000 0.000000 -0.003566 0.000000 0.056076
# 5 -0.019042 0.009667 0.009077 0.000000 0.037540 0.000000
# 6 0.000000 0.000000 0.000000 0.056076 0.000000 -0.037414
#
#
# Mechanical properties :
#
#
# Convention : Reuss Voigt Hill
#
# Bulk Modulus (GPa) = 37.18644 51.89741 44.54193
# Shear Modulus (GPa) = 29.43197 18.86161 24.14679
#
# Velocity S-wave (km/s) = 3.74553 2.99842 3.39260
# Velocity P-wave (km/s) = 6.03577 6.06009 6.04794
#
# Compressibility (1/GPa) = 0.02689152
#
# Stress axis : x y z
#
# Youngs Moduli (GPa) = 17.26713 56.48557 49.97937
#
# Poissons Ratio (x) = 0.55592 1.24294
# Poissons Ratio (y) = 0.16994 -0.01719
# Poissons Ratio (z) = 0.42942 -0.01943
#
# Static dielectric constant tensor:
#      x y z
#    x 3.456400 0.000000 -0.345490 
#    y 0.000000 3.892810 0.000000 
#    z -0.345490 0.000000 3.916300 
# 
# 
# High freq. dielectric constant tensor:
#      x y z
#    x 1.797860 0.000000 -0.031050 
#    y 0.000000 1.839760 0.000000 
#    z -0.031050 0.000000 1.828890 
# 
# From -- ./inp_files/111807.got.cif
#   From: 2010.06.25/outbox.cif.g09.slc.cpg/sg15_56_cif.got.tgz:111807.got - 2010.06.28 07:06:18.
