data_PCOD8151090
_publ_section_title
;
Structure prediction by ZEFSAII (Michael W. Deem and Ramdas Pophale) SiO2 
 PCOD8151090
Probable space group: C 2/C
;
_chemical_formula_sum "Si O2"
_cell_formula_units_Z 48
_cell_length_a 21.064290
_cell_length_b 11.076314
_cell_length_c 12.889099
_cell_angle_alpha 90.000000
_cell_angle_beta 129.956983
_cell_angle_gamma 90.000000
_cell_volume 2305.111839
_symmetry_space_group_name_H-M "C 2/C"
_symmetry_group_IT_number 15
_symmetry_cell_setting 'monoclinic'
loop_
_space_group_symop_operation_xyz
x,y,z
-x,y,1/2-z
-x,-y,-z
x,-y,1/2+z
1/2+x,1/2+y,z
1/2-x,1/2+y,1/2-z
1/2-x,1/2-y,-z
1/2+x,1/2-y,1/2+z
loop_
_atom_site_type_symbol
_atom_site_label
_atom_site_fract_x
_atom_site_fract_y
_atom_site_fract_z
Si Si1 0.826790 0.592890 0.355711
Si Si2 0.210943 0.189181 0.059365
Si Si3 0.915007 0.980867 0.624983
Si Si4 0.968255 0.747339 0.599313
Si Si5 0.381442 0.169343 0.877634
Si Si6 0.297984 0.327892 0.632531
O O1 0.788493 0.657753 0.214303
O O2 0.885353 0.677290 0.485113
O O3 0.875902 0.474762 0.372037
O O4 0.753646 0.566144 0.362841
O O5 0.141451 0.279443 0.032604
O O6 0.250000 0.250000 0.000000
O O7 0.160351 0.066535 0.982957
O O8 0.944760 0.889887 0.565001
O O9 0.882451 0.888263 0.680396
O O10 0.000000 0.049554 0.750000
O O11 0.000000 0.712999 0.750000
O O12 0.029867 0.711728 0.570799
O O13 0.312828 0.223720 0.731351
O O14 0.250000 0.250000 0.500000
#
# Coordination Sequence:
#
# PCOD8151090 Si02
#       6
#     8   8   8   8   8   8
#     4  11  24  40  68  98 140 180 228 286 343 410
#     4  11  27  44  64  99 142 182 233 283 349 409
#     4  11  22  43  69  98 133 178 233 282 345 407
#     4  11  22  43  70 103 133 176 234 282 349 422
#     4  11  23  41  62 101 130 179 231 280 350 408
#     4  11  19  38  67  94 132 178 230 282 334 418
#
# _framework density 20.823284999999998
#
# number of rings (size 3 to 8) (size 9 to 14) (size 15 to 20)
#    0.000    1.000    5.000    2.500    2.333    3.333 
#    0.000    0.833    0.000    0.000    0.000    0.000 
#    0.000    0.000    0.000    0.000    0.000    0.000 
#
# Total GULP energy -297335.300028 kJ/mol
# GULP energy per Si atom -12388.970835 kJ/mol
# Density = 2.077589 g / cm^3
# Si number density = 20.823285 Si / 1000 Ang^3
#
#
#
# Elastic Constant Matrix: (Units=GPa)
#
#
# Indices 1 2 3 4 5 6 
#
# 1 146.2855 34.1040 36.7254 0.0000 -5.0200 0.0000
# 2 34.1040 90.2813 42.0235 0.0000 5.7156 0.0000
# 3 36.7254 42.0235 113.8196 0.0000 8.0139 0.0000
# 4 0.0000 0.0000 0.0000 21.6594 0.0000 5.2274
# 5 -5.0200 5.7156 8.0139 0.0000 30.8759 0.0000
# 6 0.0000 0.0000 0.0000 5.2274 0.0000 47.0704
#
#
#
# Elastic Compliance Matrix: (Units=1/GPa)
#
#
# Indices 1 2 3 4 5 6 
#
# 1 0.007907 -0.002253 -0.001873 0.000000 0.002189 0.000000
# 2 -0.002253 0.014062 -0.004335 0.000000 -0.001844 0.000000
# 3 -0.001873 -0.004335 0.011160 0.000000 -0.002399 0.000000
# 4 0.000000 0.000000 0.000000 0.047441 0.000000 -0.005269
# 5 0.002189 -0.001844 -0.002399 0.000000 0.033708 0.000000
# 6 0.000000 0.000000 0.000000 -0.005269 0.000000 0.021830
#
#
# Mechanical properties :
#
#
# Convention : Reuss Voigt Hill
#
# Bulk Modulus (GPa) = 61.70838 64.01023 62.85931
# Shear Modulus (GPa) = 31.55924 35.75671 33.65798
#
# Velocity S-wave (km/s) = 3.89726 4.14835 4.02476
# Velocity P-wave (km/s) = 7.06754 7.33154 7.20075
#
# Compressibility (1/GPa) = 0.01620525
#
# Stress axis : x y z
#
# Youngs Moduli (GPa) = 126.47498 71.11208 89.60793
#
# Poissons Ratio (x) = 0.16024 0.16787
# Poissons Ratio (y) = 0.28499 0.38845
# Poissons Ratio (z) = 0.23693 0.30827
#
# Static dielectric constant tensor:
#      x y z
#    x 2.758990 0.000000 -0.328650 
#    y 0.000000 3.721060 0.000000 
#    z -0.328650 0.000000 3.654790 
# 
# 
# High freq. dielectric constant tensor:
#      x y z
#    x 1.840480 0.000000 0.008740 
#    y 0.000000 1.801990 0.000000 
#    z 0.008740 0.000000 1.809150 
# 
# From -- ./inp_files/111799.got.cif
#   From: 2010.06.25/outbox.cif.g09.slc.cpg/sg15_56_cif.got.tgz:111799.got - 2010.06.28 07:06:18.
