data_PCOD8151160
_publ_section_title
;
Structure prediction by ZEFSAII (Michael W. Deem and Ramdas Pophale) SiO2 
 PCOD8151160
Probable space group: C 2/C
;
_chemical_formula_sum "Si O2"
_cell_formula_units_Z 64
_cell_length_a 17.738907
_cell_length_b 30.384107
_cell_length_c 9.688021
_cell_angle_alpha 90.000000
_cell_angle_beta 41.735657
_cell_angle_gamma 90.000000
_cell_volume 3476.030862
_symmetry_space_group_name_H-M "C 2/C"
_symmetry_group_IT_number 15
_symmetry_cell_setting 'monoclinic'
loop_
_space_group_symop_operation_xyz
x,y,z
-x,y,1/2-z
-x,-y,-z
x,-y,1/2+z
1/2+x,1/2+y,z
1/2-x,1/2+y,1/2-z
1/2-x,1/2-y,-z
1/2+x,1/2-y,1/2+z
loop_
_atom_site_type_symbol
_atom_site_label
_atom_site_fract_x
_atom_site_fract_y
_atom_site_fract_z
Si Si1 0.640435 0.132537 0.803597
Si Si2 0.787230 0.683411 0.033537
Si Si3 0.690676 0.187570 0.991855
Si Si4 0.068152 0.762086 0.783610
Si Si5 0.419326 0.725811 0.747461
Si Si6 0.366266 0.039018 0.263417
Si Si7 0.620766 0.866612 0.837673
Si Si8 0.364397 0.960197 0.076560
O O1 0.712441 0.141099 0.566741
O O2 0.665206 0.173314 0.871098
O O3 0.683266 0.086480 0.806299
O O4 0.509310 0.130818 0.940168
O O5 0.665264 0.705723 0.205275
O O6 0.812710 0.666319 0.152251
O O7 0.882132 0.716598 0.844525
O O8 0.826151 0.190351 0.827503
O O9 0.636980 0.234952 0.089116
O O10 0.631382 0.151755 0.169090
O O11 0.000000 0.784624 0.750000
O O12 0.982971 0.754002 0.027255
O O13 0.500000 0.702016 0.750000
O O14 0.327761 0.084044 0.239586
O O15 0.317824 0.033634 0.484647
O O16 0.317981 0.999329 0.236670
O O17 0.500860 0.039353 0.096764
#
# Coordination Sequence:
#
# PCOD8151160 Si02
#       8
#     8   8   8   8   8   8   8   8
#     4  11  20  33  51  76 107 142 174 211 252 305
#     4  11  23  34  53  76 102 140 182 216 255 308
#     4  11  21  34  53  76 100 136 178 213 257 309
#     4  11  22  39  52  72 105 140 177 221 265 301
#     4  11  22  35  54  74 101 136 173 221 264 302
#     4   9  18  31  48  72 105 141 168 202 251 310
#     4  11  20  33  51  76 109 138 174 214 249 304
#     4   9  18  31  48  72 105 140 171 200 251 310
#
# _framework density 18.411804
#
# number of rings (size 3 to 8) (size 9 to 14) (size 15 to 20)
#    0.000    1.500    1.250    6.000    1.750    4.000 
#    0.000    0.000    0.000    0.000    0.000    0.000 
#    0.000   20.000    0.000    0.000    0.000    0.000 
#
# Total GULP energy -396825.165495 kJ/mol
# GULP energy per Si atom -12400.786422 kJ/mol
# Density = 1.836990 g / cm^3
# Si number density = 18.411804 Si / 1000 Ang^3
#
#
#
# Elastic Constant Matrix: (Units=GPa)
#
#
# Indices 1 2 3 4 5 6 
#
# 1 88.7157 26.3643 17.0063 0.0000 12.1303 0.0000
# 2 26.3643 86.0772 9.2617 0.0000 3.0128 0.0000
# 3 17.0063 9.2617 41.2578 0.0000 6.2513 0.0000
# 4 0.0000 0.0000 0.0000 18.9359 0.0000 8.8097
# 5 12.1303 3.0128 6.2513 0.0000 24.6510 0.0000
# 6 0.0000 0.0000 0.0000 8.8097 0.0000 23.7575
#
#
#
# Elastic Compliance Matrix: (Units=1/GPa)
#
#
# Indices 1 2 3 4 5 6 
#
# 1 0.013862 -0.003619 -0.004092 0.000000 -0.005341 0.000000
# 2 -0.003619 0.012865 -0.001485 0.000000 0.000585 0.000000
# 3 -0.004092 -0.001485 0.026961 0.000000 -0.004642 0.000000
# 4 0.000000 0.000000 0.000000 0.063820 0.000000 -0.023666
# 5 -0.005341 0.000585 -0.004642 0.000000 0.044300 0.000000
# 6 0.000000 0.000000 0.000000 -0.023666 0.000000 0.050868
#
#
# Mechanical properties :
#
#
# Convention : Reuss Voigt Hill
#
# Bulk Modulus (GPa) = 28.33120 35.70171 32.01645
# Shear Modulus (GPa) = 20.59021 24.36344 22.47682
#
# Velocity S-wave (km/s) = 3.34775 3.64160 3.49776
# Velocity P-wave (km/s) = 5.51037 6.09216 5.80855
#
# Compressibility (1/GPa) = 0.03529678
#
# Stress axis : x y z
#
# Youngs Moduli (GPa) = 72.13924 77.72965 37.09010
#
# Poissons Ratio (x) = 0.28127 0.15178
# Poissons Ratio (y) = 0.26104 0.05508
# Poissons Ratio (z) = 0.29521 0.11544
#
# Static dielectric constant tensor:
#      x y z
#    x 3.435000 0.000000 0.177110 
#    y 0.000000 3.370970 0.000000 
#    z 0.177110 0.000000 3.294110 
# 
# 
# High freq. dielectric constant tensor:
#      x y z
#    x 1.706600 0.000000 0.035150 
#    y 0.000000 1.700640 0.000000 
#    z 0.035150 0.000000 1.696690 
# 
# From -- ./inp_files/52818.got.cif
#   From: 2010.06.25/outbox.cif.g09.slc.cpg/sg15_27_cif.got.tgz:52818.got - 2010.06.28 07:06:18.
