data_PCOD8151475
_publ_section_title
;
Structure prediction by ZEFSAII (Michael W. Deem and Ramdas Pophale) SiO2 
 PCOD8151475
Probable space group: C 2/C
;
_chemical_formula_sum "Si O2"
_cell_formula_units_Z 52
_cell_length_a 13.560342
_cell_length_b 17.168296
_cell_length_c 15.267621
_cell_angle_alpha 90.000000
_cell_angle_beta 37.950734
_cell_angle_gamma 90.000000
_cell_volume 2185.912594
_symmetry_space_group_name_H-M "C 2/C"
_symmetry_group_IT_number 15
_symmetry_cell_setting 'monoclinic'
loop_
_space_group_symop_operation_xyz
x,y,z
-x,y,1/2-z
-x,-y,-z
x,-y,1/2+z
1/2+x,1/2+y,z
1/2-x,1/2+y,1/2-z
1/2-x,1/2-y,-z
1/2+x,1/2-y,1/2+z
loop_
_atom_site_type_symbol
_atom_site_label
_atom_site_fract_x
_atom_site_fract_y
_atom_site_fract_z
Si Si1 0.516926 0.621326 0.065812
Si Si2 0.915062 0.582893 0.553124
Si Si3 0.948194 0.964611 0.193234
Si Si4 0.438080 0.797361 0.674192
Si Si5 0.709479 0.185389 0.721502
Si Si6 0.500000 0.714521 0.250000
Si Si7 0.157544 0.171211 0.473428
O O1 0.439456 0.536319 0.132253
O O2 0.558712 0.661603 0.128505
O O3 0.394507 0.673696 0.093919
O O4 0.679194 0.615467 0.894778
O O5 0.723185 0.576923 0.675207
O O6 0.932048 0.641151 0.624966
O O7 0.000000 0.500000 0.500000
O O8 0.006227 0.622838 0.409343
O O9 0.000000 0.999131 0.250000
O O10 0.090554 0.907062 0.063532
O O11 0.317549 0.743155 0.702946
O O12 0.352202 0.821662 0.827090
O O13 0.596958 0.744275 0.573442
O O14 0.642747 0.231616 0.684949
#
# Coordination Sequence:
#
# PCOD8151475 Si02
#       7
#     8   8   8   8   8   4   8
#     4  11  22  39  67  96 140 184 222 282 367 418
#     4  12  26  43  72 103 145 194 240 295 359 430
#     4  12  26  46  68 104 142 184 248 297 352 424
#     4  11  20  43  69 100 131 184 240 283 347 434
#     4  11  23  41  67 104 142 185 231 287 358 440
#     4  12  22  40  68 110 144 178 232 300 356 436
#     4  11  21  41  73  94 139 184 236 282 358 435
#
# _framework density 23.788692000000001
#
# number of rings (size 3 to 8) (size 9 to 14) (size 15 to 20)
#    0.000    0.615    6.923    2.769    2.154    1.231 
#    0.000    3.846    0.000    0.000    0.000    0.000 
#    0.000    0.000    0.000    0.000    0.000    0.000 
#
# Total GULP energy -322226.239626 kJ/mol
# GULP energy per Si atom -12393.316909 kJ/mol
# Density = 2.373455 g / cm^3
# Si number density = 23.788692 Si / 1000 Ang^3
#
#
#
# Elastic Constant Matrix: (Units=GPa)
#
#
# Indices 1 2 3 4 5 6 
#
# 1 20.5568 -2.2446 16.8823 0.0000 0.2168 -0.0009
# 2 -2.2446 140.1388 68.8318 0.0004 -12.2783 -0.0004
# 3 16.8823 68.8318 185.3949 0.0001 -19.2934 -0.0011
# 4 0.0000 0.0004 0.0001 60.3332 -0.0001 -2.4293
# 5 0.2168 -12.2783 -19.2934 -0.0001 32.0382 0.0010
# 6 -0.0009 -0.0004 -0.0011 -2.4293 0.0010 23.5814
#
#
#
# Elastic Compliance Matrix: (Units=1/GPa)
#
#
# Indices 1 2 3 4 5 6 
#
# 1 0.054639 0.003929 -0.006738 0.000000 -0.002922 0.000002
# 2 0.003929 0.009077 -0.003594 0.000000 0.001288 0.000000
# 3 -0.006738 -0.003594 0.007685 0.000000 0.003296 0.000000
# 4 0.000000 0.000000 0.000000 0.016644 0.000000 0.001715
# 5 -0.002922 0.001288 0.003296 0.000000 0.033711 -0.000001
# 6 0.000002 0.000000 0.000000 0.001715 -0.000001 0.042583
#
#
# Mechanical properties :
#
#
# Convention : Reuss Voigt Hill
#
# Bulk Modulus (GPa) = 17.06648 57.00328 37.03488
# Shear Modulus (GPa) = 25.42255 40.69861 33.06058
#
# Velocity S-wave (km/s) = 3.27262 4.14072 3.73199
# Velocity P-wave (km/s) = 4.63355 6.84654 5.84572
#
# Compressibility (1/GPa) = 0.05859441
#
# Stress axis : x y z
#
# Youngs Moduli (GPa) = 18.30186 110.17324 130.12857
#
# Poissons Ratio (x) = -0.43284 0.87683
# Poissons Ratio (y) = -0.07190 0.46763
# Poissons Ratio (z) = 0.12332 0.39592
#
# Static dielectric constant tensor:
#      x y z
#    x 4.150780 -0.000010 -0.018980 
#    y -0.000010 4.159730 0.000010 
#    z -0.018980 0.000010 4.840360 
# 
# 
# High freq. dielectric constant tensor:
#      x y z
#    x 1.924120 0.000000 0.005770 
#    y 0.000000 1.946670 0.000000 
#    z 0.005770 0.000000 1.969850 
# 
# From -- ./inp_files/155410.got.cif
#   From: 2010.06.25/outbox.cif.g09.slc.cpg/sg15_78_cif.got.tgz:155410.got - 2010.06.28 07:06:18.
