data_PCOD8151075
_publ_section_title
;
Structure prediction by ZEFSAII (Michael W. Deem and Ramdas Pophale) SiO2 
 PCOD8151075
Probable space group: C 2/C
;
_chemical_formula_sum "Si O2"
_cell_formula_units_Z 56
_cell_length_a 26.378435
_cell_length_b 8.751256
_cell_length_c 16.688078
_cell_angle_alpha 90.000000
_cell_angle_beta 137.374133
_cell_angle_gamma 90.000000
_cell_volume 2608.843081
_symmetry_space_group_name_H-M "C 2/C"
_symmetry_group_IT_number 15
_symmetry_cell_setting 'monoclinic'
loop_
_space_group_symop_operation_xyz
x,y,z
-x,y,1/2-z
-x,-y,-z
x,-y,1/2+z
1/2+x,1/2+y,z
1/2-x,1/2+y,1/2-z
1/2-x,1/2-y,-z
1/2+x,1/2-y,1/2+z
loop_
_atom_site_type_symbol
_atom_site_label
_atom_site_fract_x
_atom_site_fract_y
_atom_site_fract_z
Si Si1 0.612775 0.634405 0.215154
Si Si2 0.338825 0.337193 0.316382
Si Si3 0.550027 0.049450 0.236863
Si Si4 0.107939 0.244269 0.376703
Si Si5 0.248079 0.151605 0.629183
Si Si6 0.029569 0.693526 0.942817
Si Si7 0.703693 0.166191 0.377285
O O1 0.618025 0.473411 0.177412
O O2 0.606641 0.614784 0.305304
O O3 0.681605 0.742223 0.270862
O O4 0.537655 0.713791 0.094367
O O5 0.288969 0.402909 0.330515
O O6 0.397879 0.208521 0.416619
O O7 0.282400 0.257220 0.188788
O O8 0.500000 0.121452 0.250000
O O9 0.597773 0.905259 0.321758
O O10 0.495344 0.984864 0.101570
O O11 0.612786 0.172386 0.284391
O O12 0.189479 0.251478 0.510978
O O13 0.045223 0.226597 0.373333
O O14 0.267962 0.005195 0.599404
O O15 0.750000 0.250000 0.500000
#
# Coordination Sequence:
#
# PCOD8151075 Si02
#       7
#     8   8   8   8   8   8   8
#     4  11  19  37  63  87 118 164 208 256 311 372
#     4  11  25  38  58  92 131 166 208 260 315 373
#     4   9  19  40  64  93 122 161 214 259 319 377
#     4   9  18  34  67  89 111 161 213 256 303 385
#     4  11  22  40  60  88 126 168 211 249 321 380
#     4   9  19  39  63  90 119 160 217 257 305 385
#     4  12  25  42  62  97 130 160 212 271 316 376
#
# _framework density 21.465453
#
# number of rings (size 3 to 8) (size 9 to 14) (size 15 to 20)
#    0.000    1.714    2.857    3.857    2.000    0.571 
#    2.571    5.714    0.000    0.000    0.000    0.000 
#    0.000    0.000    0.000    0.000    0.000    0.000 
#
# Total GULP energy -347052.406802 kJ/mol
# GULP energy per Si atom -12394.728814 kJ/mol
# Density = 2.141660 g / cm^3
# Si number density = 21.465453 Si / 1000 Ang^3
#
#
#
# Elastic Constant Matrix: (Units=GPa)
#
#
# Indices 1 2 3 4 5 6 
#
# 1 87.9880 12.6432 33.8960 0.0000 10.7042 0.0000
# 2 12.6432 49.4719 21.5492 0.0000 3.2128 0.0000
# 3 33.8960 21.5492 104.7211 0.0000 -6.2264 0.0000
# 4 0.0000 0.0000 0.0000 32.5116 0.0000 2.9597
# 5 10.7042 3.2128 -6.2264 0.0000 34.1200 0.0000
# 6 0.0000 0.0000 0.0000 2.9597 0.0000 22.8215
#
#
#
# Elastic Compliance Matrix: (Units=1/GPa)
#
#
# Indices 1 2 3 4 5 6 
#
# 1 0.013915 -0.001244 -0.004550 0.000000 -0.005078 0.000000
# 2 -0.001244 0.022614 -0.004402 0.000000 -0.002542 0.000000
# 3 -0.004550 -0.004402 0.012169 0.000000 0.004063 0.000000
# 4 0.000000 0.000000 0.000000 0.031126 0.000000 -0.004037
# 5 -0.005078 -0.002542 0.004063 0.000000 0.031882 0.000000
# 6 0.000000 0.000000 0.000000 -0.004037 0.000000 0.044342
#
#
# Mechanical properties :
#
#
# Convention : Reuss Voigt Hill
#
# Bulk Modulus (GPa) = 35.32852 42.03976 38.68414
# Shear Modulus (GPa) = 26.89986 29.49680 28.19833
#
# Velocity S-wave (km/s) = 3.54385 3.71098 3.62838
# Velocity P-wave (km/s) = 5.76535 6.16354 5.96776
#
# Compressibility (1/GPa) = 0.02830574
#
# Stress axis : x y z
#
# Youngs Moduli (GPa) = 71.86737 44.22049 82.17504
#
# Poissons Ratio (x) = 0.05503 0.37387
# Poissons Ratio (y) = 0.08944 0.36172
# Poissons Ratio (z) = 0.32698 0.19465
#
# Static dielectric constant tensor:
#      x y z
#    x 4.229940 0.000000 0.032970 
#    y 0.000000 3.491450 0.000000 
#    z 0.032970 0.000000 3.944010 
# 
# 
# High freq. dielectric constant tensor:
#      x y z
#    x 1.859720 0.000000 0.006340 
#    y 0.000000 1.801230 0.000000 
#    z 0.006340 0.000000 1.847830 
# 
# From -- ./inp_files/222092.got.cif
#   From: 2010.06.25/outbox.cif.g09.slc.cpg/sg15_112_cif.got.tgz:222092.got - 2010.06.28 07:06:18.
