data_PCOD8151278
_publ_section_title
;
Structure prediction by ZEFSAII (Michael W. Deem and Ramdas Pophale) SiO2 
 PCOD8151278
Probable space group: C 2/C
;
_chemical_formula_sum "Si O2"
_cell_formula_units_Z 40
_cell_length_a 30.590559
_cell_length_b 10.690110
_cell_length_c 23.207547
_cell_angle_alpha 90.000000
_cell_angle_beta 14.863416
_cell_angle_gamma 90.000000
_cell_volume 1946.761617
_symmetry_space_group_name_H-M "C 2/C"
_symmetry_group_IT_number 15
_symmetry_cell_setting 'monoclinic'
loop_
_space_group_symop_operation_xyz
x,y,z
-x,y,1/2-z
-x,-y,-z
x,-y,1/2+z
1/2+x,1/2+y,z
1/2-x,1/2+y,1/2-z
1/2-x,1/2-y,-z
1/2+x,1/2-y,1/2+z
loop_
_atom_site_type_symbol
_atom_site_label
_atom_site_fract_x
_atom_site_fract_y
_atom_site_fract_z
Si Si1 0.250565 0.997345 0.428915
Si Si2 0.015829 0.111813 0.647533
Si Si3 0.302101 0.224032 0.999338
Si Si4 0.613387 0.506844 0.799640
Si Si5 0.032226 0.394975 0.643952
O O1 0.118744 0.022636 0.648822
O O2 0.437340 0.018846 0.217590
O O3 0.204582 0.088215 0.433698
O O4 0.229826 0.857773 0.429726
O O5 0.962823 0.254937 0.724789
O O6 0.008336 0.077364 0.590440
O O7 0.500000 0.182567 0.750000
O O8 0.250000 0.250000 0.000000
O O9 0.185272 0.123618 0.182019
O O10 0.767762 0.596301 0.622148
O O11 0.500000 0.500000 0.000000
O O12 0.000000 0.442810 0.750000
#
# Coordination Sequence:
#
# PCOD8151278 Si02
#       5
#     8   8   8   8   8
#     4  11  20  37  69 104 121 165 234 284 316 393
#     4  11  21  40  66  96 134 164 219 280 335 391
#     4  12  21  41  70  94 128 171 227 280 321 402
#     4  12  27  45  61  98 140 178 219 279 353 401
#     4  12  21  40  72  99 127 173 224 274 331 404
#
# _framework density 20.546942000000001
#
# number of rings (size 3 to 8) (size 9 to 14) (size 15 to 20)
#    0.000    0.400    8.000    3.600    0.000    0.000 
#   10.800    1.000    0.000    0.000    0.000    0.000 
#    0.000    0.000    0.000    0.000    0.000    0.000 
#
# Total GULP energy -247934.812645 kJ/mol
# GULP energy per Si atom -12396.740632 kJ/mol
# Density = 2.050018 g / cm^3
# Si number density = 20.546942 Si / 1000 Ang^3
#
#
#
# Elastic Constant Matrix: (Units=GPa)
#
#
# Indices 1 2 3 4 5 6 
#
# 1 147.5727 24.2520 75.4545 0.0010 -19.9979 -0.0020
# 2 24.2520 113.1227 28.0923 -0.0026 4.4125 -0.0010
# 3 75.4545 28.0923 105.7374 0.0023 -1.4753 -0.0034
# 4 0.0010 -0.0026 0.0023 23.4147 -0.0022 -8.1995
# 5 -19.9979 4.4125 -1.4753 -0.0022 35.3806 0.0015
# 6 -0.0020 -0.0010 -0.0034 -8.1995 0.0015 28.1701
#
#
#
# Elastic Compliance Matrix: (Units=1/GPa)
#
#
# Indices 1 2 3 4 5 6 
#
# 1 0.012028 -0.000777 -0.008285 0.000001 0.006550 0.000000
# 2 -0.000777 0.009573 -0.002013 0.000001 -0.001717 0.000001
# 3 -0.008285 -0.002013 0.015852 -0.000001 -0.003771 0.000001
# 4 0.000001 0.000001 -0.000001 0.047555 0.000003 0.013842
# 5 0.006550 -0.001717 -0.003771 0.000003 0.032023 -0.000001
# 6 0.000000 0.000001 0.000001 0.013842 -0.000001 0.039528
#
#
# Mechanical properties :
#
#
# Convention : Reuss Voigt Hill
#
# Bulk Modulus (GPa) = 65.34691 69.11450 67.23071
# Shear Modulus (GPa) = 27.20186 33.30203 30.25194
#
# Velocity S-wave (km/s) = 3.64248 4.03026 3.84126
# Velocity P-wave (km/s) = 7.04009 7.44095 7.24329
#
# Compressibility (1/GPa) = 0.01530294
#
# Stress axis : x y z
#
# Youngs Moduli (GPa) = 83.14014 104.45642 63.08289
#
# Poissons Ratio (x) = 0.08111 0.52267
# Poissons Ratio (y) = 0.06456 0.12700
# Poissons Ratio (z) = 0.68885 0.21030
#
# Static dielectric constant tensor:
#      x y z
#    x 3.979810 0.000000 -0.595910 
#    y 0.000000 4.078620 0.000000 
#    z -0.595910 0.000000 3.687220 
# 
# 
# High freq. dielectric constant tensor:
#      x y z
#    x 1.807330 0.000000 -0.043230 
#    y 0.000000 1.823560 0.000000 
#    z -0.043230 0.000000 1.763350 
# 
# From -- ./inp_files/257357.got.cif
#   From: 2010.06.25/outbox.cif.g09.slc.cpg/sg15_129_cif.got.tgz:257357.got - 2010.06.28 07:06:18.
