data_PCOD8151527
_publ_section_title
;
Structure prediction by ZEFSAII (Michael W. Deem and Ramdas Pophale) SiO2 
 PCOD8151527
Probable space group: C 2/C
;
_chemical_formula_sum "Si O2"
_cell_formula_units_Z 48
_cell_length_a 9.927140
_cell_length_b 15.655973
_cell_length_c 23.241011
_cell_angle_alpha 90.000000
_cell_angle_beta 138.354566
_cell_angle_gamma 90.000000
_cell_volume 2400.306058
_symmetry_space_group_name_H-M "C 2/C"
_symmetry_group_IT_number 15
_symmetry_cell_setting 'monoclinic'
loop_
_space_group_symop_operation_xyz
x,y,z
-x,y,1/2-z
-x,-y,-z
x,-y,1/2+z
1/2+x,1/2+y,z
1/2-x,1/2+y,1/2-z
1/2-x,1/2-y,-z
1/2+x,1/2-y,1/2+z
loop_
_atom_site_type_symbol
_atom_site_label
_atom_site_fract_x
_atom_site_fract_y
_atom_site_fract_z
Si Si1 0.684025 0.344581 0.038423
Si Si2 0.482822 0.275568 0.079182
Si Si3 0.648564 0.106495 0.085696
Si Si4 0.344344 0.706379 0.747019
Si Si5 0.457961 0.927067 0.402992
Si Si6 0.025782 0.183273 0.371921
O O1 0.556871 0.348411 0.057230
O O2 0.803788 0.256140 0.076478
O O3 0.849534 0.419744 0.079476
O O4 0.515087 0.348587 0.934328
O O5 0.603287 0.187726 0.110405
O O6 0.532166 0.318498 0.156358
O O7 0.250000 0.250000 0.000000
O O8 0.887544 0.109281 0.142883
O O9 0.607039 0.024920 0.112048
O O10 0.512836 0.109010 0.983879
O O11 0.500000 0.742706 0.750000
O O12 0.228620 0.625327 0.683322
O O13 0.191940 0.782508 0.716310
#
# Coordination Sequence:
#
# PCOD8151527 Si02
#       6
#     8   8   8   8   8   8
#     4   8  15  30  53  79 106 148 184 237 290 357
#     4  11  21  34  56  80 115 158 209 238 290 364
#     4   9  18  35  59  86 113 151 191 246 295 373
#     4  11  21  34  54  81 116 155 197 249 292 350
#     4   9  18  35  58  85 118 143 193 248 309 350
#     4   8  15  30  52  79 109 140 190 234 286 344
#
# _framework density 19.997450000000001
#
# number of rings (size 3 to 8) (size 9 to 14) (size 15 to 20)
#    0.000    2.667    0.000    5.000    0.000    6.000 
#    3.000    0.833    3.667    0.000    0.000    0.000 
#    0.000    0.000    0.000    0.000    0.000    0.000 
#
# Total GULP energy -297367.551190 kJ/mol
# GULP energy per Si atom -12390.314633 kJ/mol
# Density = 1.995194 g / cm^3
# Si number density = 19.997450 Si / 1000 Ang^3
#
#
#
# Elastic Constant Matrix: (Units=GPa)
#
#
# Indices 1 2 3 4 5 6 
#
# 1 141.6432 43.5016 55.1648 0.0000 -6.4370 0.0000
# 2 43.5016 79.4055 24.2258 0.0000 -4.0737 0.0000
# 3 55.1648 24.2258 106.4668 0.0000 -3.3657 0.0000
# 4 0.0000 0.0000 0.0000 21.4309 0.0000 -2.2601
# 5 -6.4370 -4.0737 -3.3657 0.0000 30.2874 0.0000
# 6 0.0000 0.0000 0.0000 -2.2601 0.0000 37.8753
#
#
#
# Elastic Compliance Matrix: (Units=1/GPa)
#
#
# Indices 1 2 3 4 5 6 
#
# 1 0.010027 -0.004150 -0.004216 0.000000 0.001104 0.000000
# 2 -0.004150 0.015318 -0.001302 0.000000 0.001033 0.000000
# 3 -0.004216 -0.001302 0.011881 0.000000 0.000249 0.000000
# 4 0.000000 0.000000 0.000000 0.046957 0.000000 0.002802
# 5 0.001104 0.001033 0.000249 0.000000 0.033418 0.000000
# 6 0.000000 0.000000 0.000000 0.002802 0.000000 0.026570
#
#
# Mechanical properties :
#
#
# Convention : Reuss Voigt Hill
#
# Bulk Modulus (GPa) = 55.90173 63.70000 59.80086
# Shear Modulus (GPa) = 29.50363 31.56027 30.53195
#
# Velocity S-wave (km/s) = 3.84522 3.97699 3.91166
# Velocity P-wave (km/s) = 6.90865 7.28092 7.09722
#
# Compressibility (1/GPa) = 0.01788854
#
# Stress axis : x y z
#
# Youngs Moduli (GPa) = 99.73306 65.28450 84.16574
#
# Poissons Ratio (x) = 0.27094 0.35485
# Poissons Ratio (y) = 0.41391 0.10962
# Poissons Ratio (z) = 0.42048 0.08503
#
# Static dielectric constant tensor:
#      x y z
#    x 4.046110 0.000000 -0.091490 
#    y 0.000000 3.377050 0.000000 
#    z -0.091490 0.000000 3.520930 
# 
# 
# High freq. dielectric constant tensor:
#      x y z
#    x 1.789030 0.000000 -0.002900 
#    y 0.000000 1.737560 0.000000 
#    z -0.002900 0.000000 1.773820 
# 
# From -- ./inp_files/232501.got.cif
#   From: 2010.06.25/outbox.cif.g09.slc.cpg/sg15_117_cif.got.tgz:232501.got - 2010.06.28 07:06:18.
