data_PCOD8151051
_publ_section_title
;
Structure prediction by ZEFSAII (Michael W. Deem and Ramdas Pophale) SiO2 
 PCOD8151051
Probable space group: C 2/C
;
_chemical_formula_sum "Si O2"
_cell_formula_units_Z 48
_cell_length_a 12.423119
_cell_length_b 20.678429
_cell_length_c 13.730381
_cell_angle_alpha 90.000000
_cell_angle_beta 136.159135
_cell_angle_gamma 90.000000
_cell_volume 2443.146391
_symmetry_space_group_name_H-M "C 2/C"
_symmetry_group_IT_number 15
_symmetry_cell_setting 'monoclinic'
loop_
_space_group_symop_operation_xyz
x,y,z
-x,y,1/2-z
-x,-y,-z
x,-y,1/2+z
1/2+x,1/2+y,z
1/2-x,1/2+y,1/2-z
1/2-x,1/2-y,-z
1/2+x,1/2-y,1/2+z
loop_
_atom_site_type_symbol
_atom_site_label
_atom_site_fract_x
_atom_site_fract_y
_atom_site_fract_z
Si Si1 0.867186 0.323397 0.987166
Si Si2 0.820077 0.517960 0.907192
Si Si3 0.198265 0.101790 0.225651
Si Si4 0.841960 0.396907 0.254013
Si Si5 0.114735 0.179543 0.480612
Si Si6 0.329756 0.032046 0.135799
O O1 0.830351 0.349241 0.853967
O O2 0.701824 0.321180 0.934050
O O3 0.942166 0.252051 0.030948
O O4 0.981449 0.370385 0.122570
O O5 0.705172 0.461486 0.797782
O O6 0.783155 0.583338 0.823485
O O7 0.775121 0.530360 0.989071
O O8 0.000000 0.500000 0.000000
O O9 0.225240 0.080669 0.131289
O O10 0.028841 0.131779 0.120301
O O11 0.835484 0.459610 0.181370
O O12 0.730545 0.341372 0.142020
O O13 0.500000 0.062680 0.250000
#
# Coordination Sequence:
#
# PCOD8151051 Si02
#       6
#     8   8   8   8   8   8
#     4  11  21  39  61  83 119 161 199 242 299 372
#     4  11  20  36  62  89 110 157 202 239 297 372
#     4  11  22  37  60  89 121 150 200 261 294 360
#     4  11  21  37  61  83 117 154 200 245 294 368
#     4  11  24  36  57  91 120 153 198 254 308 339
#     4  11  19  35  60  88 113 151 201 241 301 360
#
# _framework density 19.646795999999998
#
# number of rings (size 3 to 8) (size 9 to 14) (size 15 to 20)
#    0.000    1.000    5.000    4.000    0.000    5.333 
#    0.000    2.500    0.000   11.000    0.000    0.000 
#    0.000    0.000    0.000    0.000    0.000    0.000 
#
# Total GULP energy -297566.269395 kJ/mol
# GULP energy per Si atom -12398.594558 kJ/mol
# Density = 1.960208 g / cm^3
# Si number density = 19.646796 Si / 1000 Ang^3
#
#
#
# Elastic Constant Matrix: (Units=GPa)
#
#
# Indices 1 2 3 4 5 6 
#
# 1 97.8605 55.9344 53.6446 0.0000 -26.4923 0.0000
# 2 55.9344 100.9710 26.8166 0.0000 -2.3929 0.0000
# 3 53.6446 26.8166 81.0049 0.0000 -8.9456 0.0000
# 4 0.0000 0.0000 0.0000 38.9379 0.0000 2.9201
# 5 -26.4923 -2.3929 -8.9456 0.0000 42.3046 0.0000
# 6 0.0000 0.0000 0.0000 2.9201 0.0000 28.9026
#
#
#
# Elastic Compliance Matrix: (Units=1/GPa)
#
#
# Indices 1 2 3 4 5 6 
#
# 1 0.027752 -0.011590 -0.012998 0.000000 0.013975 0.000000
# 2 -0.011590 0.015700 0.001817 0.000000 -0.005986 0.000000
# 3 -0.012998 0.001817 0.019929 0.000000 -0.003823 0.000000
# 4 0.000000 0.000000 0.000000 0.025878 0.000000 -0.002614
# 5 0.013975 -0.005986 -0.003823 0.000000 0.031243 0.000000
# 6 0.000000 0.000000 0.000000 -0.002614 0.000000 0.034863
#
#
# Mechanical properties :
#
#
# Convention : Reuss Voigt Hill
#
# Bulk Modulus (GPa) = 56.05941 61.40307 58.73124
# Shear Modulus (GPa) = 24.17177 31.59172 27.88175
#
# Velocity S-wave (km/s) = 3.51139 4.01432 3.77125
# Velocity P-wave (km/s) = 6.71084 7.26689 6.99439
#
# Compressibility (1/GPa) = 0.01783822
#
# Stress axis : x y z
#
# Youngs Moduli (GPa) = 36.03394 63.69443 50.17793
#
# Poissons Ratio (x) = 0.73823 0.65221
# Poissons Ratio (y) = 0.41764 -0.09117
# Poissons Ratio (z) = 0.46837 -0.11573
#
# Static dielectric constant tensor:
#      x y z
#    x 3.588380 0.000000 -0.219720 
#    y 0.000000 3.709100 0.000000 
#    z -0.219720 0.000000 3.743280 
# 
# 
# High freq. dielectric constant tensor:
#      x y z
#    x 1.739250 0.000000 -0.014910 
#    y 0.000000 1.762360 0.000000 
#    z -0.014910 0.000000 1.774530 
# 
# From -- ./inp_files/147459.got.cif
#   From: 2010.06.25/outbox.cif.g09.slc.cpg/sg15_74_cif.got.tgz:147459.got - 2010.06.28 07:06:18.
