data_PCOD8151343
_publ_section_title
;
Structure prediction by ZEFSAII (Michael W. Deem and Ramdas Pophale) SiO2 
 PCOD8151343
Probable space group: C 2/C
;
_chemical_formula_sum "Si O2"
_cell_formula_units_Z 48
_cell_length_a 11.651093
_cell_length_b 9.558371
_cell_length_c 22.874303
_cell_angle_alpha 90.000000
_cell_angle_beta 69.019828
_cell_angle_gamma 90.000000
_cell_volume 2378.525555
_symmetry_space_group_name_H-M "C 2/C"
_symmetry_group_IT_number 15
_symmetry_cell_setting 'monoclinic'
loop_
_space_group_symop_operation_xyz
x,y,z
-x,y,1/2-z
-x,-y,-z
x,-y,1/2+z
1/2+x,1/2+y,z
1/2-x,1/2+y,1/2-z
1/2-x,1/2-y,-z
1/2+x,1/2-y,1/2+z
loop_
_atom_site_type_symbol
_atom_site_label
_atom_site_fract_x
_atom_site_fract_y
_atom_site_fract_z
Si Si1 0.448121 0.156178 0.318445
Si Si2 0.497324 0.841089 0.318082
Si Si3 0.323713 0.626345 0.016134
Si Si4 0.340810 0.350300 0.639650
Si Si5 0.458463 0.369950 0.103990
Si Si6 0.260498 0.168120 0.937474
O O1 0.500000 0.224411 0.250000
O O2 0.304805 0.135624 0.334333
O O3 0.481429 0.257575 0.364776
O O4 0.512437 0.007487 0.318750
O O5 0.500000 0.791171 0.250000
O O6 0.617463 0.772903 0.325362
O O7 0.378640 0.789190 0.376770
O O8 0.383590 0.683179 0.065488
O O9 0.233028 0.497484 0.048645
O O10 0.250000 0.750000 0.000000
O O11 0.431578 0.569266 0.955532
O O12 0.398356 0.499526 0.649600
O O13 0.357994 0.296499 0.080610
O O14 0.250000 0.250000 0.000000
#
# Coordination Sequence:
#
# PCOD8151343 Si02
#       6
#     8   8   8   8   8   8
#     4  11  25  43  65  96 127 168 215 260 318 382
#     4  11  24  44  65  95 132 168 213 265 318 381
#     4  11  20  39  65  92 127 162 208 262 316 375
#     4  11  23  43  65  92 132 165 209 265 315 375
#     4  11  22  42  66  92 131 167 209 266 319 377
#     4  11  22  40  64  96 128 167 215 261 318 379
#
# _framework density 20.180569999999999
#
# number of rings (size 3 to 8) (size 9 to 14) (size 15 to 20)
#    0.000    1.000    5.000    4.000    2.333    2.000 
#    3.000    3.333    0.000    0.000    0.000    0.000 
#    0.000    0.000    0.000    0.000    0.000    0.000 
#
# Total GULP energy -297560.968986 kJ/mol
# GULP energy per Si atom -12398.373708 kJ/mol
# Density = 2.013464 g / cm^3
# Si number density = 20.180570 Si / 1000 Ang^3
#
#
#
# Elastic Constant Matrix: (Units=GPa)
#
#
# Indices 1 2 3 4 5 6 
#
# 1 92.0186 59.0498 37.4863 0.0000 3.1833 0.0000
# 2 59.0498 89.1449 47.2530 0.0000 14.5668 0.0000
# 3 37.4863 47.2530 138.3004 0.0000 2.3964 0.0000
# 4 0.0000 0.0000 0.0000 20.7161 0.0000 -6.4868
# 5 3.1833 14.5668 2.3964 0.0000 33.1197 0.0000
# 6 0.0000 0.0000 0.0000 -6.4868 0.0000 17.9719
#
#
#
# Elastic Compliance Matrix: (Units=1/GPa)
#
#
# Indices 1 2 3 4 5 6 
#
# 1 0.019487 -0.013088 -0.000879 0.000000 0.003947 0.000000
# 2 -0.013088 0.023651 -0.004381 0.000000 -0.008828 0.000000
# 3 -0.000879 -0.004381 0.008942 0.000000 0.001364 0.000000
# 4 0.000000 0.000000 0.000000 0.054423 0.000000 0.019643
# 5 0.003947 -0.008828 0.001364 0.000000 0.033598 0.000000
# 6 0.000000 0.000000 0.000000 0.019643 0.000000 0.062732
#
#
# Mechanical properties :
#
#
# Convention : Reuss Voigt Hill
#
# Bulk Modulus (GPa) = 64.99117 67.44913 66.22015
# Shear Modulus (GPa) = 20.43682 26.07321 23.25501
#
# Velocity S-wave (km/s) = 3.18574 3.59833 3.39831
# Velocity P-wave (km/s) = 6.76806 7.12456 6.94860
#
# Compressibility (1/GPa) = 0.01538671
#
# Stress axis : x y z
#
# Youngs Moduli (GPa) = 51.31535 42.28074 111.83277
#
# Poissons Ratio (x) = 0.55335 0.09828
# Poissons Ratio (y) = 0.67159 0.48990
# Poissons Ratio (z) = 0.04510 0.18522
#
# Static dielectric constant tensor:
#      x y z
#    x 3.681230 0.000000 -0.039590 
#    y 0.000000 3.534670 0.000000 
#    z -0.039590 0.000000 4.254270 
# 
# 
# High freq. dielectric constant tensor:
#      x y z
#    x 1.788600 0.000000 -0.005680 
#    y 0.000000 1.775420 0.000000 
#    z -0.005680 0.000000 1.806520 
# 
# From -- ./inp_files/268040.got.cif
#   From: 2010.06.25/outbox.cif.g09.slc.cpg/sg15_135_cif.got.tgz:268040.got - 2010.06.28 07:06:18.
