data_PCOD8151544
_publ_section_title
;
Structure prediction by ZEFSAII (Michael W. Deem and Ramdas Pophale) SiO2 
 PCOD8151544
Probable space group: C 2/C
;
_chemical_formula_sum "Si O2"
_cell_formula_units_Z 56
_cell_length_a 19.907895
_cell_length_b 23.385595
_cell_length_c 11.965455
_cell_angle_alpha 90.000000
_cell_angle_beta 29.841856
_cell_angle_gamma 90.000000
_cell_volume 2771.980185
_symmetry_space_group_name_H-M "C 2/C"
_symmetry_group_IT_number 15
_symmetry_cell_setting 'monoclinic'
loop_
_space_group_symop_operation_xyz
x,y,z
-x,y,1/2-z
-x,-y,-z
x,-y,1/2+z
1/2+x,1/2+y,z
1/2-x,1/2+y,1/2-z
1/2-x,1/2-y,-z
1/2+x,1/2-y,1/2+z
loop_
_atom_site_type_symbol
_atom_site_label
_atom_site_fract_x
_atom_site_fract_y
_atom_site_fract_z
Si Si1 0.531364 0.237221 0.824496
Si Si2 0.777405 0.834528 0.967627
Si Si3 0.732387 0.743536 0.657872
Si Si4 0.149242 0.121907 0.765051
Si Si5 0.150660 0.060998 0.993787
Si Si6 0.649160 0.341213 0.878220
Si Si7 0.660452 0.563074 0.526443
O O1 0.500000 0.208586 0.750000
O O2 0.659286 0.204016 0.692691
O O3 0.577587 0.302665 0.730461
O O4 0.412117 0.234437 0.086660
O O5 0.753839 0.842180 0.869232
O O6 0.772604 0.893897 0.039670
O O7 0.750000 0.750000 0.500000
O O8 0.744415 0.675397 0.663239
O O9 0.844652 0.780471 0.563239
O O10 0.144371 0.078283 0.874014
O O11 0.210233 0.084447 0.575968
O O12 0.005068 0.147559 0.934954
O O13 0.000000 0.054308 0.250000
O O14 0.222377 0.999175 0.907063
O O15 0.712762 0.390666 0.862478
O O16 0.500000 0.561006 0.750000
#
# Coordination Sequence:
#
# PCOD8151544 Si02
#       7
#     8   8   8   8   8   8   8
#     4  11  22  37  56  87 117 153 195 237 292 358
#     4  11  22  35  61  84 120 151 197 240 293 358
#     4  12  23  37  60  88 120 160 194 245 304 359
#     4  11  22  37  55  87 126 150 193 243 301 362
#     4  11  21  35  59  86 117 157 195 246 299 353
#     4  11  21  37  57  84 117 158 190 239 296 358
#     4   9  22  35  54  83 118 153 197 238 300 356
#
# _framework density 20.202164
#
# number of rings (size 3 to 8) (size 9 to 14) (size 15 to 20)
#    0.000    1.143    5.714    1.286    4.000    1.714 
#    0.000    0.000    0.000    0.857    0.000    0.000 
#    0.000    0.000    0.000    0.000    0.000    0.000 
#
# Total GULP energy -347015.364339 kJ/mol
# GULP energy per Si atom -12393.405869 kJ/mol
# Density = 2.015618 g / cm^3
# Si number density = 20.202164 Si / 1000 Ang^3
#
#
#
# Elastic Constant Matrix: (Units=GPa)
#
#
# Indices 1 2 3 4 5 6 
#
# 1 106.7517 66.8415 35.9967 0.0033 35.6434 0.0082
# 2 66.8415 164.3118 24.7662 0.0000 13.6288 0.0041
# 3 35.9967 24.7662 78.4759 -0.0050 20.6232 0.0028
# 4 0.0033 0.0000 -0.0050 35.9334 0.0029 12.5283
# 5 35.6434 13.6288 20.6232 0.0029 29.0910 -0.0044
# 6 0.0082 0.0041 0.0028 12.5283 -0.0044 36.3967
#
#
#
# Elastic Compliance Matrix: (Units=1/GPa)
#
#
# Indices 1 2 3 4 5 6 
#
# 1 0.021461 -0.006619 -0.002040 0.000002 -0.021748 -0.000007
# 2 -0.006619 0.008520 -0.000903 0.000000 0.004759 0.000001
# 3 -0.002040 -0.000903 0.016217 0.000004 -0.008574 -0.000003
# 4 0.000002 0.000000 0.000004 0.031625 -0.000010 -0.010886
# 5 -0.021748 0.004759 -0.008574 -0.000010 0.064870 0.000016
# 6 -0.000007 0.000001 -0.000003 -0.010886 0.000016 0.031222
#
#
# Mechanical properties :
#
#
# Convention : Reuss Voigt Hill
#
# Bulk Modulus (GPa) = 36.93657 67.19426 52.06541
# Shear Modulus (GPa) = 24.74459 35.07988 29.91223
#
# Velocity S-wave (km/s) = 3.50358 4.17158 3.85209
# Velocity P-wave (km/s) = 5.88982 7.51904 6.75374
#
# Compressibility (1/GPa) = 0.02707344
#
# Stress axis : x y z
#
# Youngs Moduli (GPa) = 46.59525 117.37038 61.66477
#
# Poissons Ratio (x) = 0.77688 0.12580
# Poissons Ratio (y) = 0.30842 0.05570
# Poissons Ratio (z) = 0.09506 0.10602
#
# Static dielectric constant tensor:
#      x y z
#    x 3.678880 -0.000010 0.341530 
#    y -0.000010 4.300620 0.000000 
#    z 0.341530 0.000000 3.472840 
# 
# 
# High freq. dielectric constant tensor:
#      x y z
#    x 1.785350 0.000000 0.037870 
#    y 0.000000 1.793010 0.000000 
#    z 0.037870 0.000000 1.757860 
# 
# From -- ./inp_files/114683.got.cif
#   From: 2010.06.25/outbox.cif.g09.slc.cpg/sg15_58_cif.got.tgz:114683.got - 2010.06.28 07:06:18.
