data_PCOD8151612
_publ_section_title
;
Structure prediction by ZEFSAII (Michael W. Deem and Ramdas Pophale) SiO2 
 PCOD8151612
Probable space group: C 2/C
;
_chemical_formula_sum "Si O2"
_cell_formula_units_Z 40
_cell_length_a 10.731990
_cell_length_b 9.458089
_cell_length_c 20.656446
_cell_angle_alpha 90.000000
_cell_angle_beta 104.636402
_cell_angle_gamma 90.000000
_cell_volume 2028.673464
_symmetry_space_group_name_H-M "C 2/C"
_symmetry_group_IT_number 15
_symmetry_cell_setting 'monoclinic'
loop_
_space_group_symop_operation_xyz
x,y,z
-x,y,1/2-z
-x,-y,-z
x,-y,1/2+z
1/2+x,1/2+y,z
1/2-x,1/2+y,1/2-z
1/2-x,1/2-y,-z
1/2+x,1/2-y,1/2+z
loop_
_atom_site_type_symbol
_atom_site_label
_atom_site_fract_x
_atom_site_fract_y
_atom_site_fract_z
Si Si1 0.666807 0.922263 0.725794
Si Si2 0.911628 0.910551 0.682248
Si Si3 0.266397 0.806025 0.073623
Si Si4 0.044774 0.818518 0.142130
Si Si5 0.098877 0.556628 0.357427
O O1 0.788875 0.979260 0.702333
O O2 0.637722 0.753209 0.709299
O O3 0.541035 0.005685 0.682619
O O4 0.689949 0.943119 0.805348
O O5 0.862966 0.794838 0.625544
O O6 0.000000 0.839964 0.750000
O O7 0.994276 0.029015 0.656261
O O8 0.125313 0.823573 0.086221
O O9 0.334517 0.959253 0.079977
O O10 0.250000 0.750000 0.000000
O O11 0.921063 0.714192 0.115756
#
# Coordination Sequence:
#
# PCOD8151612 Si02
#       5
#     8   8   8   8   8
#     4   8  18  35  61  89 116 146 192 242 300 350
#     4  11  21  37  63  92 117 148 197 252 297 345
#     4  11  25  41  57  87 124 160 203 240 284 360
#     4   9  20  40  59  87 122 149 197 250 292 345
#     4   9  18  38  60  82 120 155 183 245 303 339
#
# _framework density 19.717319
#
# number of rings (size 3 to 8) (size 9 to 14) (size 15 to 20)
#    1.200    1.200    0.000    2.400    2.800    3.200 
#    3.600    1.000    0.000    0.000    0.000    0.000 
#    0.000    0.000    0.000    0.000    0.000    0.000 
#
# Total GULP energy -247768.567063 kJ/mol
# GULP energy per Si atom -12388.428353 kJ/mol
# Density = 1.967244 g / cm^3
# Si number density = 19.717319 Si / 1000 Ang^3
#
#
#
# Elastic Constant Matrix: (Units=GPa)
#
#
# Indices 1 2 3 4 5 6 
#
# 1 89.1936 23.9868 43.3978 0.0000 -21.2024 0.0000
# 2 23.9868 70.0800 29.6028 0.0000 1.8070 0.0000
# 3 43.3978 29.6028 89.6696 0.0000 -2.5467 0.0000
# 4 0.0000 0.0000 0.0000 23.0527 0.0000 0.2360
# 5 -21.2024 1.8070 -2.5467 0.0000 22.0481 0.0000
# 6 0.0000 0.0000 0.0000 0.2360 0.0000 29.7193
#
#
#
# Elastic Compliance Matrix: (Units=1/GPa)
#
#
# Indices 1 2 3 4 5 6 
#
# 1 0.021001 -0.004224 -0.008213 0.000000 0.019593 0.000000
# 2 -0.004224 0.017520 -0.003908 0.000000 -0.005949 0.000000
# 3 -0.008213 -0.003908 0.016255 0.000000 -0.005700 0.000000
# 4 0.000000 0.000000 0.000000 0.043382 0.000000 -0.000345
# 5 0.019593 -0.005949 -0.005700 0.000000 0.064026 0.000000
# 6 0.000000 0.000000 0.000000 -0.000345 0.000000 0.033651
#
#
# Mechanical properties :
#
#
# Convention : Reuss Voigt Hill
#
# Bulk Modulus (GPa) = 45.27957 49.21312 47.24634
# Shear Modulus (GPa) = 21.19643 25.09440 23.14542
#
# Velocity S-wave (km/s) = 3.28230 3.57137 3.42988
# Velocity P-wave (km/s) = 6.11383 6.48227 6.30074
#
# Compressibility (1/GPa) = 0.02208502
#
# Stress axis : x y z
#
# Youngs Moduli (GPa) = 47.61620 57.07891 61.51815
#
# Poissons Ratio (x) = 0.24111 0.50525
# Poissons Ratio (y) = 0.20114 0.24044
# Poissons Ratio (z) = 0.39108 0.22309
#
# Static dielectric constant tensor:
#      x y z
#    x 3.708120 0.000000 -0.113980 
#    y 0.000000 3.385280 0.000000 
#    z -0.113980 0.000000 3.210930 
# 
# 
# High freq. dielectric constant tensor:
#      x y z
#    x 1.779270 0.000000 -0.016400 
#    y 0.000000 1.753940 0.000000 
#    z -0.016400 0.000000 1.730220 
# 
# From -- ./inp_files/235895.got.cif
#   From: 2010.06.25/outbox.cif.g09.slc.cpg/sg15_118_cif.got.tgz:235895.got - 2010.06.28 07:06:18.
