data_PCOD8151993
_publ_section_title
;
Structure prediction by ZEFSAII (Michael W. Deem and Ramdas Pophale) SiO2 
 PCOD8151993
Probable space group: C 2/C
;
_chemical_formula_sum "Si O2"
_cell_formula_units_Z 56
_cell_length_a 20.854653
_cell_length_b 8.263482
_cell_length_c 18.971286
_cell_angle_alpha 90.000000
_cell_angle_beta 126.726619
_cell_angle_gamma 90.000000
_cell_volume 2620.385681
_symmetry_space_group_name_H-M "C 2/C"
_symmetry_group_IT_number 15
_symmetry_cell_setting 'monoclinic'
loop_
_space_group_symop_operation_xyz
x,y,z
-x,y,1/2-z
-x,-y,-z
x,-y,1/2+z
1/2+x,1/2+y,z
1/2-x,1/2+y,1/2-z
1/2-x,1/2-y,-z
1/2+x,1/2-y,1/2+z
loop_
_atom_site_type_symbol
_atom_site_label
_atom_site_fract_x
_atom_site_fract_y
_atom_site_fract_z
Si Si1 0.791296 0.182572 0.331869
Si Si2 0.562319 0.603461 0.848191
Si Si3 0.996012 0.536125 0.169521
Si Si4 0.738234 0.623856 0.928346
Si Si5 0.920926 0.967311 0.492281
Si Si6 0.377521 0.894975 0.984715
Si Si7 0.146365 0.513414 0.681582
O O1 0.744048 0.293128 0.356244
O O2 0.837442 0.293650 0.304522
O O3 0.852652 0.082709 0.418835
O O4 0.731065 0.074551 0.247201
O O5 0.500000 0.539230 0.750000
O O6 0.549659 0.793222 0.856129
O O7 0.648754 0.559373 0.874647
O O8 0.549960 0.505454 0.910701
O O9 0.086961 0.552179 0.202351
O O10 0.000000 0.457748 0.250000
O O11 0.951178 0.420138 0.085867
O O12 0.797999 0.467954 0.970709
O O13 0.750000 0.750000 0.000000
O O14 0.878267 0.792889 0.464238
O O15 0.000000 0.000000 0.500000
O O16 0.391635 0.985901 0.920468
#
# Coordination Sequence:
#
# PCOD8151993 Si02
#       7
#     8   8   8   8   8   8   8
#     4  11  23  42  67  93 128 174 222 279 343 408
#     4  11  23  41  67  95 129 177 222 277 341 407
#     4  11  22  40  68  95 127 172 222 275 343 414
#     4  11  21  44  69  96 131 172 230 281 340 415
#     4  12  25  42  64  93 136 176 222 278 339 413
#     4  11  24  40  65  98 133 178 221 282 349 408
#     4  11  23  41  66  95 129 169 225 279 339 419
#
# _framework density 21.370899000000001
#
# number of rings (size 3 to 8) (size 9 to 14) (size 15 to 20)
#    0.000    0.857    2.857    5.571    0.000    3.429 
#    0.000    4.286    0.000    0.000    0.000    0.000 
#    0.000    0.000    0.000    0.000    0.000    0.000 
#
# Total GULP energy -347160.049282 kJ/mol
# GULP energy per Si atom -12398.573189 kJ/mol
# Density = 2.132226 g / cm^3
# Si number density = 21.370899 Si / 1000 Ang^3
#
#
#
# Elastic Constant Matrix: (Units=GPa)
#
#
# Indices 1 2 3 4 5 6 
#
# 1 148.6925 44.3487 51.8892 0.0000 -1.3128 0.0000
# 2 44.3487 107.8462 32.2818 0.0000 3.9177 0.0000
# 3 51.8892 32.2818 129.3217 0.0000 6.5353 0.0000
# 4 0.0000 0.0000 0.0000 36.2443 0.0000 2.0481
# 5 -1.3128 3.9177 6.5353 0.0000 31.8778 0.0000
# 6 0.0000 0.0000 0.0000 2.0481 0.0000 36.1535
#
#
#
# Elastic Compliance Matrix: (Units=1/GPa)
#
#
# Indices 1 2 3 4 5 6 
#
# 1 0.008525 -0.002711 -0.002807 0.000000 0.001260 0.000000
# 2 -0.002711 0.010900 -0.001576 0.000000 -0.001128 0.000000
# 3 -0.002807 -0.001576 0.009345 0.000000 -0.001838 0.000000
# 4 0.000000 0.000000 0.000000 0.027679 0.000000 -0.001568
# 5 0.001260 -0.001128 -0.001838 0.000000 0.031937 0.000000
# 6 0.000000 0.000000 0.000000 -0.001568 0.000000 0.027749
#
#
# Mechanical properties :
#
#
# Convention : Reuss Voigt Hill
#
# Bulk Modulus (GPa) = 68.58182 71.43330 70.00756
# Shear Modulus (GPa) = 36.98652 38.01117 37.49885
#
# Velocity S-wave (km/s) = 4.16468 4.22197 4.19342
# Velocity P-wave (km/s) = 7.43552 7.56735 7.50172
#
# Compressibility (1/GPa) = 0.01458112
#
# Stress axis : x y z
#
# Youngs Moduli (GPa) = 117.30664 91.74277 107.00434
#
# Poissons Ratio (x) = 0.24871 0.30040
# Poissons Ratio (y) = 0.31801 0.16866
# Poissons Ratio (z) = 0.32933 0.14460
#
# Static dielectric constant tensor:
#      x y z
#    x 3.136300 0.000000 0.170380 
#    y 0.000000 3.815940 0.000000 
#    z 0.170380 0.000000 4.064650 
# 
# 
# High freq. dielectric constant tensor:
#      x y z
#    x 1.845300 0.000000 0.001550 
#    y 0.000000 1.828220 0.000000 
#    z 0.001550 0.000000 1.856330 
# 
# From -- ./inp_files/214000.got.cif
#   From: 2010.06.25/outbox.cif.g09.slc.cpg/sg15_107_cif.got.tgz:214000.got - 2010.06.28 07:06:18.
