data_PCOD8151115
_publ_section_title
;
Structure prediction by ZEFSAII (Michael W. Deem and Ramdas Pophale) SiO2 
 PCOD8151115
Probable space group: C 2/C
;
_chemical_formula_sum "Si O2"
_cell_formula_units_Z 56
_cell_length_a 28.805657
_cell_length_b 11.084091
_cell_length_c 14.375306
_cell_angle_alpha 90.000000
_cell_angle_beta 31.340329
_cell_angle_gamma 90.000000
_cell_volume 2387.255297
_symmetry_space_group_name_H-M "C 2/C"
_symmetry_group_IT_number 15
_symmetry_cell_setting 'monoclinic'
loop_
_space_group_symop_operation_xyz
x,y,z
-x,y,1/2-z
-x,-y,-z
x,-y,1/2+z
1/2+x,1/2+y,z
1/2-x,1/2+y,1/2-z
1/2-x,1/2-y,-z
1/2+x,1/2-y,1/2+z
loop_
_atom_site_type_symbol
_atom_site_label
_atom_site_fract_x
_atom_site_fract_y
_atom_site_fract_z
Si Si1 0.854276 0.167142 0.147279
Si Si2 0.667313 0.753800 0.511999
Si Si3 0.536325 0.040699 0.284691
Si Si4 0.520274 0.312791 0.616520
Si Si5 0.428136 0.855656 0.138140
Si Si6 0.329669 0.411388 0.232263
Si Si7 0.449011 0.434862 0.196391
O O1 0.812241 0.235029 0.131440
O O2 0.850796 0.260994 0.240258
O O3 0.794768 0.047221 0.270210
O O4 0.958328 0.136072 0.945950
O O5 0.584699 0.839882 0.669855
O O6 0.755244 0.822099 0.403161
O O7 0.638245 0.626689 0.605696
O O8 0.500000 0.981710 0.250000
O O9 0.459148 0.076140 0.490906
O O10 0.602823 0.950873 0.228837
O O11 0.500000 0.249540 0.750000
O O12 0.506956 0.218918 0.554442
O O13 0.625202 0.350455 0.435522
O O14 0.454798 0.429410 0.723954
O O15 0.420358 0.433366 0.137666
#
# Coordination Sequence:
#
# PCOD8151115 Si02
#       7
#     8   8   8   8   8   8   8
#     4  11  20  43  66  91 132 181 223 273 326 418
#     4  12  23  40  65 101 136 172 222 283 356 403
#     4  11  22  40  65  97 129 185 230 273 338 422
#     4  11  21  40  68  99 128 174 236 278 331 401
#     4  11  21  39  68  95 128 170 238 279 319 402
#     4  11  23  40  64 103 134 169 226 296 340 392
#     4  11  19  39  72  94 127 178 235 271 329 416
#
# _framework density 23.457901
#
# number of rings (size 3 to 8) (size 9 to 14) (size 15 to 20)
#    0.000    0.857    5.714    3.857    0.000    0.000 
#    5.143    5.000    0.000    0.000    0.000    0.000 
#    0.000    0.000    0.000    0.000    0.000    0.000 
#
# Total GULP energy -346877.466709 kJ/mol
# GULP energy per Si atom -12388.480954 kJ/mol
# Density = 2.340451 g / cm^3
# Si number density = 23.457901 Si / 1000 Ang^3
#
#
#
# Elastic Constant Matrix: (Units=GPa)
#
#
# Indices 1 2 3 4 5 6 
#
# 1 71.6124 17.4282 12.2128 0.0000 21.1033 0.0000
# 2 17.4282 113.6858 22.3324 0.0000 13.5887 0.0000
# 3 12.2128 22.3324 58.0255 0.0000 7.1346 0.0000
# 4 0.0000 0.0000 0.0000 34.4851 0.0000 4.2743
# 5 21.1033 13.5887 7.1346 0.0000 34.3880 0.0000
# 6 0.0000 0.0000 0.0000 4.2743 0.0000 33.4507
#
#
#
# Elastic Compliance Matrix: (Units=1/GPa)
#
#
# Indices 1 2 3 4 5 6 
#
# 1 0.017490 -0.001099 -0.002044 0.000000 -0.009875 0.000000
# 2 -0.001099 0.009913 -0.003269 0.000000 -0.002564 0.000000
# 3 -0.002044 -0.003269 0.019096 0.000000 -0.001416 0.000000
# 4 0.000000 0.000000 0.000000 0.029465 0.000000 -0.003765
# 5 -0.009875 -0.002564 -0.001416 0.000000 0.036447 0.000000
# 6 0.000000 0.000000 0.000000 -0.003765 0.000000 0.030376
#
#
# Mechanical properties :
#
#
# Convention : Reuss Voigt Hill
#
# Bulk Modulus (GPa) = 29.69500 38.58560 34.14030
# Shear Modulus (GPa) = 29.96946 33.22144 31.59545
#
# Velocity S-wave (km/s) = 3.57821 3.76735 3.67400
# Velocity P-wave (km/s) = 5.45507 5.95050 5.70816
#
# Compressibility (1/GPa) = 0.03367570
#
# Stress axis : x y z
#
# Youngs Moduli (GPa) = 57.17490 100.87419 52.36675
#
# Poissons Ratio (x) = 0.11091 0.10703
# Poissons Ratio (y) = 0.06286 0.17117
# Poissons Ratio (z) = 0.11686 0.32972
#
# Static dielectric constant tensor:
#      x y z
#    x 4.335440 0.000000 0.377400 
#    y 0.000000 4.564730 0.000000 
#    z 0.377400 0.000000 3.695220 
# 
# 
# High freq. dielectric constant tensor:
#      x y z
#    x 1.923710 0.000000 0.029110 
#    y 0.000000 1.947450 0.000000 
#    z 0.029110 0.000000 1.878570 
# 
# From -- ./inp_files/181895.got.cif
#   From: 2010.06.25/outbox.cif.g09.slc.cpg/sg15_91_cif.got.tgz:181895.got - 2010.06.28 07:06:18.
