data_PCOD8151542
_publ_section_title
;
Structure prediction by ZEFSAII (Michael W. Deem and Ramdas Pophale) SiO2 
 PCOD8151542
Probable space group: C 2/C
;
_chemical_formula_sum "Si O2"
_cell_formula_units_Z 48
_cell_length_a 19.482449
_cell_length_b 14.025347
_cell_length_c 16.359489
_cell_angle_alpha 90.000000
_cell_angle_beta 147.128034
_cell_angle_gamma 90.000000
_cell_volume 2426.261396
_symmetry_space_group_name_H-M "C 2/C"
_symmetry_group_IT_number 15
_symmetry_cell_setting 'monoclinic'
loop_
_space_group_symop_operation_xyz
x,y,z
-x,y,1/2-z
-x,-y,-z
x,-y,1/2+z
1/2+x,1/2+y,z
1/2-x,1/2+y,1/2-z
1/2-x,1/2-y,-z
1/2+x,1/2-y,1/2+z
loop_
_atom_site_type_symbol
_atom_site_label
_atom_site_fract_x
_atom_site_fract_y
_atom_site_fract_z
Si Si1 0.626400 0.247806 0.071609
Si Si2 0.370955 0.049533 0.398098
Si Si3 0.371782 0.920864 0.093791
Si Si4 0.619888 0.524633 0.321215
Si Si5 0.622240 0.746832 0.281355
Si Si6 0.122042 0.055203 0.651684
O O1 0.639833 0.157380 0.147317
O O2 0.752376 0.266370 0.145328
O O3 0.603584 0.337006 0.106710
O O4 0.503666 0.223840 0.893157
O O5 0.360103 0.073318 0.484296
O O6 0.500000 0.000000 0.500000
O O7 0.253297 0.987797 0.247195
O O8 0.500000 0.973439 0.250000
O O9 0.369159 0.812163 0.127578
O O10 0.249598 0.979877 0.004755
O O11 0.500000 0.488217 0.250000
O O12 0.606607 0.635604 0.284380
O O13 0.629454 0.451867 0.256217
O O14 0.000000 0.000000 0.500000
#
# Coordination Sequence:
#
# PCOD8151542 Si02
#       6
#     8   8   8   8   8   8
#     4  12  22  38  62  89 127 165 207 258 316 375
#     4  11  24  41  59  91 131 167 206 253 317 381
#     4  11  21  35  57  93 125 154 200 255 322 369
#     4  11  22  36  56  88 130 160 205 258 314 377
#     4  12  20  35  59  93 124 156 200 267 327 365
#     4  11  23  39  57  89 127 168 211 251 315 385
#
# _framework density 19.783525000000001
#
# number of rings (size 3 to 8) (size 9 to 14) (size 15 to 20)
#    0.000    0.667    6.667    3.000    0.000    0.000 
#    0.000    0.000    0.000    1.000    0.000    7.000 
#    0.000    0.000    0.000    0.000    0.000    0.000 
#
# Total GULP energy -297324.998547 kJ/mol
# GULP energy per Si atom -12388.541606 kJ/mol
# Density = 1.973850 g / cm^3
# Si number density = 19.783525 Si / 1000 Ang^3
#
#
#
# Elastic Constant Matrix: (Units=GPa)
#
#
# Indices 1 2 3 4 5 6 
#
# 1 100.2007 43.4255 39.5907 0.0000 32.3034 0.0000
# 2 43.4255 106.8015 29.3453 0.0000 -0.4157 0.0000
# 3 39.5907 29.3453 115.3093 0.0000 36.7535 0.0000
# 4 0.0000 0.0000 0.0000 22.2128 0.0000 -7.1162
# 5 32.3034 -0.4157 36.7535 0.0000 46.1501 0.0000
# 6 0.0000 0.0000 0.0000 -7.1162 0.0000 32.5137
#
#
#
# Elastic Compliance Matrix: (Units=1/GPa)
#
#
# Indices 1 2 3 4 5 6 
#
# 1 0.016763 -0.006759 -0.000370 0.000000 -0.011499 0.000000
# 2 -0.006759 0.013081 -0.003423 0.000000 0.007575 0.000000
# 3 -0.000370 -0.003423 0.012863 0.000000 -0.010016 0.000000
# 4 0.000000 0.000000 0.000000 0.048414 0.000000 0.010596
# 5 -0.011499 0.007575 -0.010016 0.000000 0.037762 0.000000
# 6 0.000000 0.000000 0.000000 0.010596 0.000000 0.033075
#
#
# Mechanical properties :
#
#
# Convention : Reuss Voigt Hill
#
# Bulk Modulus (GPa) = 46.28871 60.78159 53.53515
# Shear Modulus (GPa) = 26.27952 34.17197 30.22575
#
# Velocity S-wave (km/s) = 3.64861 4.16058 3.91298
# Velocity P-wave (km/s) = 6.41859 7.33966 6.89452
#
# Compressibility (1/GPa) = 0.02160354
#
# Stress axis : x y z
#
# Youngs Moduli (GPa) = 59.65683 76.44545 77.74355
#
# Poissons Ratio (x) = 0.51668 0.02876
# Poissons Ratio (y) = 0.40321 0.26610
# Poissons Ratio (z) = 0.02207 0.26166
#
# Static dielectric constant tensor:
#      x y z
#    x 2.397480 0.000000 -0.249590 
#    y 0.000000 3.629000 0.000000 
#    z -0.249590 0.000000 3.883140 
# 
# 
# High freq. dielectric constant tensor:
#      x y z
#    x 1.770940 0.000000 0.039420 
#    y 0.000000 1.744730 0.000000 
#    z 0.039420 0.000000 1.787690 
# 
# From -- ./inp_files/162367.got.cif
#   From: 2010.06.25/outbox.cif.g09.slc.cpg/sg15_82_cif.got.tgz:162367.got - 2010.06.28 07:06:18.
