data_PCOD8151439
_publ_section_title
;
Structure prediction by ZEFSAII (Michael W. Deem and Ramdas Pophale) SiO2 
 PCOD8151439
Probable space group: C 2/C
;
_chemical_formula_sum "Si O2"
_cell_formula_units_Z 48
_cell_length_a 15.949403
_cell_length_b 9.512796
_cell_length_c 15.537979
_cell_angle_alpha 90.000000
_cell_angle_beta 66.853578
_cell_angle_gamma 90.000000
_cell_volume 2167.706330
_symmetry_space_group_name_H-M "C 2/C"
_symmetry_group_IT_number 15
_symmetry_cell_setting 'monoclinic'
loop_
_space_group_symop_operation_xyz
x,y,z
-x,y,1/2-z
-x,-y,-z
x,-y,1/2+z
1/2+x,1/2+y,z
1/2-x,1/2+y,1/2-z
1/2-x,1/2-y,-z
1/2+x,1/2-y,1/2+z
loop_
_atom_site_type_symbol
_atom_site_label
_atom_site_fract_x
_atom_site_fract_y
_atom_site_fract_z
Si Si1 0.179137 0.664609 0.972052
Si Si2 0.868638 0.847569 0.086089
Si Si3 0.984441 0.252269 0.853309
Si Si4 0.546433 0.567395 0.112496
Si Si5 0.231969 0.129518 0.114635
Si Si6 0.654060 0.367709 0.823726
O O1 0.220447 0.512888 0.935364
O O2 0.160443 0.742263 0.889475
O O3 0.250000 0.750000 0.000000
O O4 0.085910 0.649050 0.065323
O O5 0.795379 0.759782 0.059848
O O6 0.918096 0.750552 0.137702
O O7 0.819643 0.982731 0.145804
O O8 0.946914 0.909170 0.992517
O O9 0.000000 0.310179 0.750000
O O10 0.943028 0.095405 0.865825
O O11 0.629626 0.649317 0.122449
O O12 0.447178 0.625485 0.179264
O O13 0.228605 0.150036 0.219243
#
# Coordination Sequence:
#
# PCOD8151439 Si02
#       6
#     8   8   8   8   8   8
#     4  12  24  42  67 101 129 169 220 269 320 387
#     4  11  22  41  65  94 126 169 214 270 323 372
#     4  11  22  41  69  91 125 173 225 260 315 387
#     4  11  20  42  64  91 122 172 219 261 310 389
#     4  12  25  37  67  99 132 162 213 271 329 380
#     4  11  22  43  67  92 129 170 220 260 317 388
#
# _framework density 22.143221
#
# number of rings (size 3 to 8) (size 9 to 14) (size 15 to 20)
#    0.000    0.667    5.000    5.000    2.333    0.667 
#    0.000    0.000    0.000    1.000    0.000    0.000 
#    0.000    0.000    0.000    0.000    0.000    0.000 
#
# Total GULP energy -297563.822653 kJ/mol
# GULP energy per Si atom -12398.492611 kJ/mol
# Density = 2.209282 g / cm^3
# Si number density = 22.143221 Si / 1000 Ang^3
#
#
#
# Elastic Constant Matrix: (Units=GPa)
#
#
# Indices 1 2 3 4 5 6 
#
# 1 100.1185 39.2264 2.3728 0.0000 7.3730 0.0000
# 2 39.2264 74.1137 14.8396 0.0000 -5.1902 0.0000
# 3 2.3728 14.8396 113.6161 0.0000 -10.4307 0.0000
# 4 0.0000 0.0000 0.0000 22.4173 0.0000 0.3623
# 5 7.3730 -5.1902 -10.4307 0.0000 27.5018 0.0000
# 6 0.0000 0.0000 0.0000 0.3623 0.0000 37.8568
#
#
#
# Elastic Compliance Matrix: (Units=1/GPa)
#
#
# Indices 1 2 3 4 5 6 
#
# 1 0.013237 -0.007395 0.000244 0.000000 -0.004852 0.000000
# 2 -0.007395 0.018093 -0.001775 0.000000 0.004724 0.000000
# 3 0.000244 -0.001775 0.009316 0.000000 0.003133 0.000000
# 4 0.000000 0.000000 0.000000 0.044615 0.000000 -0.000427
# 5 -0.004852 0.004724 0.003133 0.000000 0.039742 0.000000
# 6 0.000000 0.000000 0.000000 -0.000427 0.000000 0.026419
#
#
# Mechanical properties :
#
#
# Convention : Reuss Voigt Hill
#
# Bulk Modulus (GPa) = 43.87059 44.52509 44.19784
# Shear Modulus (GPa) = 28.26915 32.98246 30.62581
#
# Velocity S-wave (km/s) = 3.57690 3.86360 3.72301
# Velocity P-wave (km/s) = 6.07570 6.32887 6.20358
#
# Compressibility (1/GPa) = 0.02279431
#
# Stress axis : x y z
#
# Youngs Moduli (GPa) = 75.54679 55.27090 107.34298
#
# Poissons Ratio (x) = 0.40870 -0.02619
# Poissons Ratio (y) = 0.55863 0.19054
# Poissons Ratio (z) = -0.01843 0.09811
#
# Static dielectric constant tensor:
#      x y z
#    x 4.027420 0.000000 -0.042240 
#    y 0.000000 3.680030 0.000000 
#    z -0.042240 0.000000 4.297810 
# 
# 
# High freq. dielectric constant tensor:
#      x y z
#    x 1.880670 0.000000 0.000250 
#    y 0.000000 1.836490 0.000000 
#    z 0.000250 0.000000 1.894140 
# 
# From -- ./inp_files/151918.got.cif
#   From: 2010.06.25/outbox.cif.g09.slc.cpg/sg15_76_cif.got.tgz:151918.got - 2010.06.28 07:06:18.
