data_PCOD8151392
_publ_section_title
;
Structure prediction by ZEFSAII (Michael W. Deem and Ramdas Pophale) SiO2 
 PCOD8151392
Probable space group: C 2/C
;
_chemical_formula_sum "Si O2"
_cell_formula_units_Z 40
_cell_length_a 16.758621
_cell_length_b 7.679829
_cell_length_c 13.290057
_cell_angle_alpha 90.000000
_cell_angle_beta 71.043439
_cell_angle_gamma 90.000000
_cell_volume 1617.707403
_symmetry_space_group_name_H-M "C 2/C"
_symmetry_group_IT_number 15
_symmetry_cell_setting 'monoclinic'
loop_
_space_group_symop_operation_xyz
x,y,z
-x,y,1/2-z
-x,-y,-z
x,-y,1/2+z
1/2+x,1/2+y,z
1/2-x,1/2+y,1/2-z
1/2-x,1/2-y,-z
1/2+x,1/2-y,1/2+z
loop_
_atom_site_type_symbol
_atom_site_label
_atom_site_fract_x
_atom_site_fract_y
_atom_site_fract_z
Si Si1 0.553051 0.601101 0.632442
Si Si2 0.015920 0.251085 0.362506
Si Si3 0.889920 0.458648 0.938324
Si Si4 0.678779 0.102155 0.726191
Si Si5 0.770477 0.955311 0.866666
O O1 0.500000 0.663773 0.750000
O O2 0.504759 0.445900 0.591255
O O3 0.566041 0.770782 0.555310
O O4 0.644280 0.539805 0.630698
O O5 0.113122 0.311479 0.334074
O O6 0.000000 0.243900 0.250000
O O7 0.954967 0.389182 0.442151
O O8 0.868337 0.463954 0.827319
O O9 0.804116 0.481054 0.032767
O O10 0.719867 0.246664 0.635952
O O11 0.752123 0.008779 0.758616
#
# Coordination Sequence:
#
# PCOD8151392 Si02
#       5
#     8   8   8   8   8
#     4  11  20  40  69  93 126 181 219 258 341 398
#     4   9  19  41  65  90 132 175 214 263 333 387
#     4  11  23  41  70  96 128 174 226 271 326 392
#     4  11  23  43  63 100 138 172 220 280 326 394
#     4  12  24  41  67  99 132 174 222 274 328 388
#
# _framework density 24.72635
#
# number of rings (size 3 to 8) (size 9 to 14) (size 15 to 20)
#    0.000    1.200    6.000    4.200    0.000    0.800 
#    0.000    1.000    0.000    0.000    0.000    0.000 
#    0.000    0.000    0.000    0.000    0.000    0.000 
#
# Total GULP energy -248023.693128 kJ/mol
# GULP energy per Si atom -12401.184656 kJ/mol
# Density = 2.467007 g / cm^3
# Si number density = 24.726350 Si / 1000 Ang^3
#
#
#
# Elastic Constant Matrix: (Units=GPa)
#
#
# Indices 1 2 3 4 5 6 
#
# 1 43.1950 16.5263 4.1951 0.0000 -14.7957 0.0000
# 2 16.5263 136.5575 11.3599 0.0000 -10.5472 0.0000
# 3 4.1951 11.3599 53.7892 0.0000 -30.0113 0.0000
# 4 0.0000 0.0000 0.0000 40.1125 0.0000 -41.0223
# 5 -14.7957 -10.5472 -30.0113 0.0000 35.8958 0.0000
# 6 0.0000 0.0000 0.0000 -41.0223 0.0000 42.8167
#
#
#
# Elastic Compliance Matrix: (Units=1/GPa)
#
#
# Indices 1 2 3 4 5 6 
#
# 1 0.029835 -0.002889 0.008755 0.000000 0.018768 0.000000
# 2 -0.002889 0.007785 -0.001513 0.000000 -0.000168 0.000000
# 3 0.008755 -0.001513 0.037474 0.000000 0.034495 0.000000
# 4 0.000000 0.000000 0.000000 1.235523 0.000000 1.183744
# 5 0.018768 -0.000168 0.034495 0.000000 0.064385 0.000000
# 6 0.000000 0.000000 0.000000 1.183744 0.000000 1.157490
#
#
# Mechanical properties :
#
#
# Convention : Reuss Voigt Hill
#
# Bulk Modulus (GPa) = 11.93320 33.07827 22.50574
# Shear Modulus (GPa) = 1.95946 37.19570 19.57758
#
# Velocity S-wave (km/s) = 0.89117 3.88273 2.81689
# Velocity P-wave (km/s) = 2.42806 5.78857 4.43864
#
# Compressibility (1/GPa) = 0.08379981
#
# Stress axis : x y z
#
# Youngs Moduli (GPa) = 33.51801 128.44475 26.68526
#
# Poissons Ratio (x) = 0.37112 -0.23363
# Poissons Ratio (y) = 0.09685 0.04037
# Poissons Ratio (z) = -0.29345 0.19429
#
# Static dielectric constant tensor:
#      x y z
#    x 4.701910 0.000000 -0.267130 
#    y 0.000000 4.984130 0.000000 
#    z -0.267130 0.000000 4.224370 
# 
# 
# High freq. dielectric constant tensor:
#      x y z
#    x 1.986190 0.000000 -0.012040 
#    y 0.000000 1.993220 0.000000 
#    z -0.012040 0.000000 1.974340 
# 
# From -- ./inp_files/159116.got.cif
#   From: 2010.06.25/outbox.cif.g09.slc.cpg/sg15_80_cif.got.tgz:159116.got - 2010.06.28 07:06:18.
