data_PCOD8151563
_publ_section_title
;
Structure prediction by ZEFSAII (Michael W. Deem and Ramdas Pophale) SiO2 
 PCOD8151563
Probable space group: C 2/C
;
_chemical_formula_sum "Si O2"
_cell_formula_units_Z 52
_cell_length_a 9.324892
_cell_length_b 11.557425
_cell_length_c 25.173599
_cell_angle_alpha 90.000000
_cell_angle_beta 61.304070
_cell_angle_gamma 90.000000
_cell_volume 2379.792333
_symmetry_space_group_name_H-M "C 2/C"
_symmetry_group_IT_number 15
_symmetry_cell_setting 'monoclinic'
loop_
_space_group_symop_operation_xyz
x,y,z
-x,y,1/2-z
-x,-y,-z
x,-y,1/2+z
1/2+x,1/2+y,z
1/2-x,1/2+y,1/2-z
1/2-x,1/2-y,-z
1/2+x,1/2-y,1/2+z
loop_
_atom_site_type_symbol
_atom_site_label
_atom_site_fract_x
_atom_site_fract_y
_atom_site_fract_z
Si Si1 0.841379 0.930404 0.622771
Si Si2 0.472472 0.057737 0.814363
Si Si3 0.500000 0.400958 0.250000
Si Si4 0.639068 0.137025 0.351251
Si Si5 0.700425 0.739676 0.275819
Si Si6 0.703348 0.249391 0.069121
Si Si7 0.145050 0.007520 0.620741
O O1 0.719627 0.040601 0.637429
O O2 0.799802 0.869112 0.685675
O O3 0.818832 0.842960 0.577886
O O4 0.028638 0.973599 0.591648
O O5 0.500000 0.012847 0.750000
O O6 0.581308 0.979503 0.833142
O O7 0.528227 0.191182 0.810514
O O8 0.344193 0.322527 0.268637
O O9 0.468025 0.481001 0.306707
O O10 0.768447 0.202773 0.290613
O O11 0.488003 0.220834 0.390289
O O12 0.725167 0.095196 0.390720
O O13 0.737804 0.374207 0.089180
O O14 0.750000 0.250000 0.000000
#
# Coordination Sequence:
#
# PCOD8151563 Si02
#       7
#     8   8   4   8   8   8   8
#     4  11  24  41  64  94 130 165 208 257 324 381
#     4  11  21  36  58  91 132 166 198 238 303 393
#     4  12  18  38  62  96 136 162 194 258 308 388
#     4  11  23  41  65  94 129 170 209 260 327 381
#     4  12  21  36  63  95 132 166 198 246 319 392
#     4  11  26  47  67  88 123 171 226 280 322 368
#     4  12  24  42  65  97 130 167 208 263 319 390
#
# _framework density 21.850643999999999
#
# number of rings (size 3 to 8) (size 9 to 14) (size 15 to 20)
#    0.000    0.615    6.154    2.769    2.154    1.231 
#    0.000    0.769    0.000    0.000    0.000    0.000 
#    0.000    0.000    0.000    0.000    0.000    0.000 
#
# Total GULP energy -322454.560447 kJ/mol
# GULP energy per Si atom -12402.098479 kJ/mol
# Density = 2.180091 g / cm^3
# Si number density = 21.850644 Si / 1000 Ang^3
#
#
#
# Elastic Constant Matrix: (Units=GPa)
#
#
# Indices 1 2 3 4 5 6 
#
# 1 121.1249 37.4767 6.4479 0.0000 11.1989 0.0000
# 2 37.4767 69.1074 19.0075 0.0000 2.7944 0.0000
# 3 6.4479 19.0075 83.5894 0.0000 20.7859 0.0000
# 4 0.0000 0.0000 0.0000 24.8187 0.0000 -17.8035
# 5 11.1989 2.7944 20.7859 0.0000 17.5305 0.0000
# 6 0.0000 0.0000 0.0000 -17.8035 0.0000 86.6960
#
#
#
# Elastic Compliance Matrix: (Units=1/GPa)
#
#
# Indices 1 2 3 4 5 6 
#
# 1 0.010946 -0.006367 0.002964 0.000000 -0.009492 0.000000
# 2 -0.006367 0.019212 -0.005853 0.000000 0.007945 0.000000
# 3 0.002964 -0.005853 0.018867 0.000000 -0.023331 0.000000
# 4 0.000000 0.000000 0.000000 0.047253 0.000000 0.009704
# 5 -0.009492 0.007945 -0.023331 0.000000 0.089504 0.000000
# 6 0.000000 0.000000 0.000000 0.009704 0.000000 0.013527
#
#
# Mechanical properties :
#
#
# Convention : Reuss Voigt Hill
#
# Bulk Modulus (GPa) = 32.77445 44.40954 38.59199
# Shear Modulus (GPa) = 21.93054 39.86834 30.89944
#
# Velocity S-wave (km/s) = 3.17149 4.27615 3.76456
# Velocity P-wave (km/s) = 5.33320 6.68946 6.04946
#
# Compressibility (1/GPa) = 0.03051157
#
# Stress axis : x y z
#
# Youngs Moduli (GPa) = 91.35941 52.05151 53.00195
#
# Poissons Ratio (x) = 0.33142 -0.15708
# Poissons Ratio (y) = 0.58170 0.31023
# Poissons Ratio (z) = -0.27077 0.30466
#
# Static dielectric constant tensor:
#      x y z
#    x 4.288530 0.000000 0.049760 
#    y 0.000000 4.089200 0.000000 
#    z 0.049760 0.000000 3.524550 
# 
# 
# High freq. dielectric constant tensor:
#      x y z
#    x 1.878010 0.000000 0.007400 
#    y 0.000000 1.867670 0.000000 
#    z 0.007400 0.000000 1.804180 
# 
# From -- ./inp_files/287893.got.cif
#   From: 2010.06.25/outbox.cif.g09.slc.cpg/sg15_144_cif.got.tgz:287893.got - 2010.06.28 07:06:18.
