data_PCOD8151326
_publ_section_title
;
Structure prediction by ZEFSAII (Michael W. Deem and Ramdas Pophale) SiO2 
 PCOD8151326
Probable space group: C 2/C
;
_chemical_formula_sum "Si O2"
_cell_formula_units_Z 64
_cell_length_a 28.602158
_cell_length_b 18.792327
_cell_length_c 11.991962
_cell_angle_alpha 90.000000
_cell_angle_beta 30.692166
_cell_angle_gamma 90.000000
_cell_volume 3290.044999
_symmetry_space_group_name_H-M "C 2/C"
_symmetry_group_IT_number 15
_symmetry_cell_setting 'monoclinic'
loop_
_space_group_symop_operation_xyz
x,y,z
-x,y,1/2-z
-x,-y,-z
x,-y,1/2+z
1/2+x,1/2+y,z
1/2-x,1/2+y,1/2-z
1/2-x,1/2-y,-z
1/2+x,1/2-y,1/2+z
loop_
_atom_site_type_symbol
_atom_site_label
_atom_site_fract_x
_atom_site_fract_y
_atom_site_fract_z
Si Si1 0.357860 0.043464 0.188837
Si Si2 0.248781 0.593147 0.886592
Si Si3 0.015685 0.330280 0.090605
Si Si4 0.110533 0.329694 0.515552
Si Si5 0.399626 0.329174 0.409653
Si Si6 0.859120 0.608791 0.775542
Si Si7 0.152673 0.213034 0.720649
Si Si8 0.240352 0.942869 0.714766
O O1 0.279394 0.075575 0.428798
O O2 0.321418 0.045744 0.137051
O O3 0.394874 0.967845 0.158131
O O4 0.446897 0.091088 0.002319
O O5 0.328572 0.652713 0.724302
O O6 0.293378 0.523309 0.739494
O O7 0.156655 0.622164 0.016220
O O8 0.000000 0.309556 0.250000
O O9 0.923361 0.336144 0.209953
O O10 0.081755 0.271110 0.906322
O O11 0.136500 0.247244 0.475634
O O12 0.161169 0.349452 0.296645
O O13 0.000000 0.341889 0.750000
O O14 0.500000 0.344301 0.250000
O O15 0.393702 0.326724 0.288506
O O16 0.339768 0.394471 0.574992
O O17 0.773528 0.593999 0.031849
O O18 0.250000 0.250000 0.500000
#
# Coordination Sequence:
#
# PCOD8151326 Si02
#       8
#     8   8   8   8   8   8   8   8
#     4  11  20  39  59  91 132 175 205 253 325 398
#     4  11  22  39  67  92 125 175 224 255 317 392
#     4  12  23  37  60  98 135 165 212 266 327 386
#     4  11  22  38  61  96 129 165 217 270 324 389
#     4  11  23  43  70  92 123 171 225 269 319 384
#     4  11  24  37  61  95 135 166 207 271 328 390
#     4  12  22  42  70  92 126 178 221 259 315 397
#     4  11  23  42  63  95 128 172 214 263 328 385
#
# _framework density 19.452621000000001
#
# number of rings (size 3 to 8) (size 9 to 14) (size 15 to 20)
#    0.000    0.750    6.250    2.625    0.000    2.000 
#    0.000    2.500    0.000    0.000    0.000    0.000 
#    0.000    0.000    0.000    0.000    0.000    0.000 
#
# Total GULP energy -396593.416866 kJ/mol
# GULP energy per Si atom -12393.544277 kJ/mol
# Density = 1.940835 g / cm^3
# Si number density = 19.452621 Si / 1000 Ang^3
#
#
#
# Elastic Constant Matrix: (Units=GPa)
#
#
# Indices 1 2 3 4 5 6 
#
# 1 103.6796 42.3024 31.3451 0.0000 8.1579 0.0000
# 2 42.3024 136.7330 50.2026 0.0000 -3.7317 0.0000
# 3 31.3451 50.2026 63.5191 0.0000 6.0989 0.0000
# 4 0.0000 0.0000 0.0000 41.0624 0.0000 2.1706
# 5 8.1579 -3.7317 6.0989 0.0000 28.7289 0.0000
# 6 0.0000 0.0000 0.0000 2.1706 0.0000 34.2229
#
#
#
# Elastic Compliance Matrix: (Units=1/GPa)
#
#
# Indices 1 2 3 4 5 6 
#
# 1 0.011989 -0.002423 -0.003720 0.000000 -0.002930 0.000000
# 2 -0.002423 0.011077 -0.007924 0.000000 0.003809 0.000000
# 3 -0.003720 -0.007924 0.024335 0.000000 -0.005139 0.000000
# 4 0.000000 0.000000 0.000000 0.024435 0.000000 -0.001550
# 5 -0.002930 0.003809 -0.005139 0.000000 0.037226 0.000000
# 6 0.000000 0.000000 0.000000 -0.001550 0.000000 0.029319
#
#
# Mechanical properties :
#
#
# Convention : Reuss Voigt Hill
#
# Bulk Modulus (GPa) = 51.90434 61.29244 56.59839
# Shear Modulus (GPa) = 28.91218 32.80827 30.86022
#
# Velocity S-wave (km/s) = 3.85942 4.11125 3.98732
# Velocity P-wave (km/s) = 6.82646 7.35618 7.09627
#
# Compressibility (1/GPa) = 0.01926621
#
# Stress axis : x y z
#
# Youngs Moduli (GPa) = 83.41042 90.27919 41.09240
#
# Poissons Ratio (x) = 0.21878 0.15285
# Poissons Ratio (y) = 0.20214 0.32563
# Poissons Ratio (z) = 0.31025 0.71541
#
# Static dielectric constant tensor:
#      x y z
#    x 3.668490 0.000000 0.268400 
#    y 0.000000 3.823510 0.000000 
#    z 0.268400 0.000000 3.295880 
# 
# 
# High freq. dielectric constant tensor:
#      x y z
#    x 1.772610 0.000000 0.018290 
#    y 0.000000 1.770850 0.000000 
#    z 0.018290 0.000000 1.723410 
# 
# From -- ./inp_files/98785.got.cif
#   From: 2010.06.25/outbox.cif.g09.slc.cpg/sg15_50_cif.got.tgz:98785.got - 2010.06.28 07:06:18.
