data_PCOD8151150
_publ_section_title
;
Structure prediction by ZEFSAII (Michael W. Deem and Ramdas Pophale) SiO2 
 PCOD8151150
Probable space group: C 2/C
;
_chemical_formula_sum "Si O2"
_cell_formula_units_Z 56
_cell_length_a 17.937814
_cell_length_b 18.411857
_cell_length_c 11.764993
_cell_angle_alpha 90.000000
_cell_angle_beta 128.316881
_cell_angle_gamma 90.000000
_cell_volume 3048.622263
_symmetry_space_group_name_H-M "C 2/C"
_symmetry_group_IT_number 15
_symmetry_cell_setting 'monoclinic'
loop_
_space_group_symop_operation_xyz
x,y,z
-x,y,1/2-z
-x,-y,-z
x,-y,1/2+z
1/2+x,1/2+y,z
1/2-x,1/2+y,1/2-z
1/2-x,1/2-y,-z
1/2+x,1/2-y,1/2+z
loop_
_atom_site_type_symbol
_atom_site_label
_atom_site_fract_x
_atom_site_fract_y
_atom_site_fract_z
Si Si1 0.464317 0.303566 0.443312
Si Si2 0.275659 0.659495 0.119252
Si Si3 0.303961 0.654028 0.624245
Si Si4 0.598135 0.241062 0.898016
Si Si5 0.338786 0.511350 0.124126
Si Si6 0.529024 0.547237 0.424727
Si Si7 0.676454 0.273566 0.595426
O O1 0.404174 0.322143 0.274108
O O2 0.411337 0.246458 0.474356
O O3 0.478081 0.370080 0.542060
O O4 0.563136 0.268839 0.496471
O O5 0.368935 0.685462 0.136510
O O6 0.269837 0.571993 0.112638
O O7 0.278878 0.690764 0.249893
O O8 0.182126 0.683038 0.960715
O O9 0.296850 0.566563 0.620792
O O10 0.296378 0.676778 0.486155
O O11 0.219049 0.692289 0.615668
O O12 0.500000 0.213072 0.750000
O O13 0.445585 0.529552 0.259255
O O14 0.362647 0.522574 0.011401
O O15 0.500000 0.500000 0.500000
#
# Coordination Sequence:
#
# PCOD8151150 Si02
#       7
#     8   8   8   8   8   8   8
#     4  12  20  37  60  85 117 154 193 244 291 357
#     4  11  22  37  61  88 118 152 196 248 305 344
#     4  11  25  38  56  85 123 161 197 232 297 353
#     4  11  21  38  60  86 115 150 197 245 297 351
#     4  11  22  35  54  89 122 149 186 244 304 361
#     4  11  20  31  53  87 120 146 180 234 310 363
#     4  11  23  39  56  85 118 160 202 235 279 362
#
# _framework density 18.368953000000001
#
# number of rings (size 3 to 8) (size 9 to 14) (size 15 to 20)
#    0.000    0.857    7.143    1.286    2.000    0.000 
#    0.000    0.000    0.000    4.286    0.000    0.000 
#    0.000    0.000    0.000    0.000    0.000    0.000 
#
# Total GULP energy -346893.442726 kJ/mol
# GULP energy per Si atom -12389.051526 kJ/mol
# Density = 1.832714 g / cm^3
# Si number density = 18.368953 Si / 1000 Ang^3
#
#
#
# Elastic Constant Matrix: (Units=GPa)
#
#
# Indices 1 2 3 4 5 6 
#
# 1 106.7646 58.2397 35.1431 0.0000 0.4679 0.0000
# 2 58.2397 125.0345 34.2502 0.0000 12.2501 0.0000
# 3 35.1431 34.2502 79.8414 0.0000 4.6610 0.0000
# 4 0.0000 0.0000 0.0000 -48.3134 0.0000 -93.3538
# 5 0.4679 12.2501 4.6610 0.0000 30.0974 0.0000
# 6 0.0000 0.0000 0.0000 -93.3538 0.0000 -97.8538
#
#
#
# Elastic Compliance Matrix: (Units=1/GPa)
#
#
# Indices 1 2 3 4 5 6 
#
# 1 0.013638 -0.005580 -0.003763 0.000000 0.002642 0.000000
# 2 -0.005580 0.011645 -0.002288 0.000000 -0.004299 0.000000
# 3 -0.003763 -0.002288 0.015243 0.000000 -0.001371 0.000000
# 4 0.000000 0.000000 0.000000 0.024542 0.000000 -0.023413
# 5 0.002642 -0.004299 -0.001371 0.000000 0.035146 0.000000
# 6 0.000000 0.000000 0.000000 -0.023413 0.000000 0.012117
#
#
# Mechanical properties :
#
#
# Convention : Reuss Voigt Hill
#
# Bulk Modulus (GPa) = 57.93066 62.98961 60.46014
# Shear Modulus (GPa) = 35.37387 -10.94679 12.21354
#
# Velocity S-wave (km/s) = 4.39309 -2.44384 2.58137
# Velocity P-wave (km/s) = 7.57219 5.13835 6.47073
#
# Compressibility (1/GPa) = 0.01726202
#
# Stress axis : x y z
#
# Youngs Moduli (GPa) = 73.32720 85.87406 65.60439
#
# Poissons Ratio (x) = 0.47920 0.24688
# Poissons Ratio (y) = 0.40918 0.15012
# Poissons Ratio (z) = 0.27594 0.19650
#
# Static dielectric constant tensor:
#      x y z
#    x 3.371200 0.000000 -0.044830 
#    y 0.000000 3.162780 0.000000 
#    z -0.044830 0.000000 3.300500 
# 
# 
# High freq. dielectric constant tensor:
#      x y z
#    x 1.718500 0.000000 -0.021470 
#    y 0.000000 1.690440 0.000000 
#    z -0.021470 0.000000 1.712190 
# 
# From -- ./inp_files/106330.got.cif
#   From: 2010.06.25/outbox.cif.g09.slc.cpg/sg15_54_cif.got.tgz:106330.got - 2010.06.28 07:06:18.
