data_PCOD8151538
_publ_section_title
;
Structure prediction by ZEFSAII (Michael W. Deem and Ramdas Pophale) SiO2 
 PCOD8151538
Probable space group: C 2/C
;
_chemical_formula_sum "Si O2"
_cell_formula_units_Z 48
_cell_length_a 15.501559
_cell_length_b 23.076618
_cell_length_c 9.759395
_cell_angle_alpha 90.000000
_cell_angle_beta 143.474914
_cell_angle_gamma 90.000000
_cell_volume 2077.853314
_symmetry_space_group_name_H-M "C 2/C"
_symmetry_group_IT_number 15
_symmetry_cell_setting 'monoclinic'
loop_
_space_group_symop_operation_xyz
x,y,z
-x,y,1/2-z
-x,-y,-z
x,-y,1/2+z
1/2+x,1/2+y,z
1/2-x,1/2+y,1/2-z
1/2-x,1/2-y,-z
1/2+x,1/2-y,1/2+z
loop_
_atom_site_type_symbol
_atom_site_label
_atom_site_fract_x
_atom_site_fract_y
_atom_site_fract_z
Si Si1 0.876716 0.341380 0.981211
Si Si2 0.143376 0.303030 0.840407
Si Si3 0.394293 0.383132 0.230017
Si Si4 0.305758 0.494462 0.568140
Si Si5 0.865356 0.473372 0.901558
Si Si6 0.577362 0.632637 0.219552
O O1 0.896852 0.301201 0.872994
O O2 0.887445 0.405140 0.932203
O O3 0.721203 0.333001 0.856849
O O4 0.000000 0.327872 0.250000
O O5 0.000000 0.298064 0.750000
O O6 0.250000 0.250000 0.000000
O O7 0.230122 0.361523 0.993580
O O8 0.500000 0.356569 0.250000
O O9 0.405652 0.452782 0.244869
O O10 0.453654 0.361392 0.449140
O O11 0.159318 0.495102 0.474413
O O12 0.271540 0.506491 0.365051
O O13 0.386016 0.433822 0.694227
O O14 0.000000 0.500000 0.000000
O O15 0.500000 0.663289 0.250000
#
# Coordination Sequence:
#
# PCOD8151538 Si02
#       6
#     8   8   8   8   8   8
#     4  11  25  47  70 107 145 188 233 302 359 428
#     4  12  29  52  81 107 135 182 243 310 374 432
#     4  12  22  43  69 100 146 186 244 298 351 418
#     4  11  21  35  57 101 141 196 242 279 337 415
#     4  11  21  35  59  96 152 190 236 283 344 424
#     4  11  23  39  66 104 153 195 235 281 344 424
#
# _framework density 23.100764000000002
#
# number of rings (size 3 to 8) (size 9 to 14) (size 15 to 20)
#    0.000    0.667    3.333    6.000    4.667    0.000 
#    0.000    1.667    0.000    0.000    0.000    0.000 
#    0.000    0.000    0.000    0.000    0.000    0.000 
#
# Total GULP energy -297542.230215 kJ/mol
# GULP energy per Si atom -12397.592926 kJ/mol
# Density = 2.304819 g / cm^3
# Si number density = 23.100764 Si / 1000 Ang^3
#
#
#
# Elastic Constant Matrix: (Units=GPa)
#
#
# Indices 1 2 3 4 5 6 
#
# 1 197.1463 27.8175 53.8658 0.0000 6.4048 0.0000
# 2 27.8175 45.7869 18.7162 0.0000 -4.6495 0.0000
# 3 53.8658 18.7162 149.9480 0.0000 -16.9405 0.0000
# 4 0.0000 0.0000 0.0000 19.6723 0.0000 -3.6746
# 5 6.4048 -4.6495 -16.9405 0.0000 50.1468 0.0000
# 6 0.0000 0.0000 0.0000 -3.6746 0.0000 11.7847
#
#
#
# Elastic Compliance Matrix: (Units=1/GPa)
#
#
# Indices 1 2 3 4 5 6 
#
# 1 0.006111 -0.003068 -0.002009 0.000000 -0.001744 0.000000
# 2 -0.003068 0.024626 -0.001736 0.000000 0.002089 0.000000
# 3 -0.002009 -0.001736 0.007920 0.000000 0.002771 0.000000
# 4 0.000000 0.000000 0.000000 0.053977 0.000000 0.016831
# 5 -0.001744 0.002089 0.002771 0.000000 0.021294 0.000000
# 6 0.000000 0.000000 0.000000 0.016831 0.000000 0.090104
#
#
# Mechanical properties :
#
#
# Convention : Reuss Voigt Hill
#
# Bulk Modulus (GPa) = 39.95027 65.96445 52.95736
# Shear Modulus (GPa) = 22.12369 35.81956 28.97162
#
# Velocity S-wave (km/s) = 3.09804 3.94201 3.54523
# Velocity P-wave (km/s) = 5.48895 7.02398 6.30337
#
# Compressibility (1/GPa) = 0.02503112
#
# Stress axis : x y z
#
# Youngs Moduli (GPa) = 163.64036 40.60742 126.25492
#
# Poissons Ratio (x) = 0.12460 0.25368
# Poissons Ratio (y) = 0.50212 0.21912
# Poissons Ratio (z) = 0.32879 0.07047
#
# Static dielectric constant tensor:
#      x y z
#    x 4.677280 0.000000 -0.187410 
#    y 0.000000 3.852690 0.000000 
#    z -0.187410 0.000000 4.435390 
# 
# 
# High freq. dielectric constant tensor:
#      x y z
#    x 1.934570 0.000000 -0.007040 
#    y 0.000000 1.881940 0.000000 
#    z -0.007040 0.000000 1.923370 
# 
# From -- ./inp_files/43909.got.cif
#   From: 2010.06.25/outbox.cif.g09.slc.cpg/sg15_22_cif.got.tgz:43909.got - 2010.06.28 07:06:18.
