data_PCOD8151432
_publ_section_title
;
Structure prediction by ZEFSAII (Michael W. Deem and Ramdas Pophale) SiO2 
 PCOD8151432
Probable space group: C 2/C
;
_chemical_formula_sum "Si O2"
_cell_formula_units_Z 48
_cell_length_a 27.650096
_cell_length_b 16.809218
_cell_length_c 13.828400
_cell_angle_alpha 90.000000
_cell_angle_beta 21.224968
_cell_angle_gamma 90.000000
_cell_volume 2326.813786
_symmetry_space_group_name_H-M "C 2/C"
_symmetry_group_IT_number 15
_symmetry_cell_setting 'monoclinic'
loop_
_space_group_symop_operation_xyz
x,y,z
-x,y,1/2-z
-x,-y,-z
x,-y,1/2+z
1/2+x,1/2+y,z
1/2-x,1/2+y,1/2-z
1/2-x,1/2-y,-z
1/2+x,1/2-y,1/2+z
loop_
_atom_site_type_symbol
_atom_site_label
_atom_site_fract_x
_atom_site_fract_y
_atom_site_fract_z
Si Si1 0.537731 0.587049 0.887945
Si Si2 0.309063 0.968947 0.939080
Si Si3 0.405721 0.739914 0.228152
Si Si4 0.000000 0.049780 0.750000
Si Si5 0.909098 0.398641 0.130354
Si Si6 0.000000 0.195081 0.250000
Si Si7 0.716522 0.427899 0.319234
O O1 0.699429 0.589138 0.592974
O O2 0.485720 0.600642 0.874891
O O3 0.500000 0.500000 0.000000
O O4 0.466497 0.656153 0.080932
O O5 0.458201 0.945280 0.638781
O O6 0.309444 0.059278 0.894998
O O7 0.285079 0.966704 0.098026
O O8 0.250000 0.750000 0.500000
O O9 0.467602 0.814102 0.056175
O O10 0.434408 0.749242 0.289092
O O11 0.131711 0.997810 0.527179
O O12 0.826107 0.391479 0.186231
O O13 0.886574 0.142274 0.514966
#
# Coordination Sequence:
#
# PCOD8151432 Si02
#       7
#     8   8   8   4   8   4   8
#     4  12  22  43  70  95 133 177 225 279 331 405
#     4  11  23  43  69  94 132 182 225 274 341 413
#     4  12  25  45  68  98 139 173 225 291 343 400
#     4  11  22  36  70 102 123 174 236 270 331 416
#     4  11  25  44  65 101 137 177 227 281 345 409
#     4  11  22  42  70  96 127 182 224 276 351 410
#     4  11  20  41  71  94 130 176 223 276 342 405
#
# _framework density 20.629069000000001
#
# number of rings (size 3 to 8) (size 9 to 14) (size 15 to 20)
#    0.000    0.667    6.667    2.500    0.000    0.667 
#   12.000    0.000    0.000    0.000    0.000    0.000 
#    0.000    0.000    0.000    0.000    0.000    0.000 
#
# Total GULP energy -297423.430405 kJ/mol
# GULP energy per Si atom -12392.642934 kJ/mol
# Density = 2.058212 g / cm^3
# Si number density = 20.629069 Si / 1000 Ang^3
#
#
#
# Elastic Constant Matrix: (Units=GPa)
#
#
# Indices 1 2 3 4 5 6 
#
# 1 167.9680 42.7140 42.4285 0.0001 0.3531 0.0000
# 2 42.7140 88.6031 33.3313 0.0000 -0.1272 0.0000
# 3 42.4285 33.3313 101.6674 0.0001 -6.4303 -0.0001
# 4 0.0001 0.0000 0.0001 28.7590 -0.0001 2.8540
# 5 0.3531 -0.1272 -6.4303 -0.0001 38.1226 0.0000
# 6 0.0000 0.0000 -0.0001 2.8540 0.0000 30.1913
#
#
#
# Elastic Compliance Matrix: (Units=1/GPa)
#
#
# Indices 1 2 3 4 5 6 
#
# 1 0.007172 -0.002648 -0.002152 0.000000 -0.000438 0.000000
# 2 -0.002648 0.013869 -0.003474 0.000000 -0.000515 0.000000
# 3 -0.002152 -0.003474 0.012002 0.000000 0.002033 0.000000
# 4 0.000000 0.000000 0.000000 0.035101 0.000000 -0.003318
# 5 -0.000438 -0.000515 0.002033 0.000000 0.026576 0.000000
# 6 0.000000 0.000000 0.000000 -0.003318 0.000000 0.033436
#
#
# Mechanical properties :
#
#
# Convention : Reuss Voigt Hill
#
# Bulk Modulus (GPa) = 60.63301 66.13176 63.38239
# Shear Modulus (GPa) = 33.28821 35.39891 34.34356
#
# Velocity S-wave (km/s) = 4.02139 4.14692 4.08464
# Velocity P-wave (km/s) = 7.14268 7.42000 7.28266
#
# Compressibility (1/GPa) = 0.01649267
#
# Stress axis : x y z
#
# Youngs Moduli (GPa) = 139.43955 72.10205 83.32026
#
# Poissons Ratio (x) = 0.19094 0.17934
# Poissons Ratio (y) = 0.36927 0.28949
# Poissons Ratio (z) = 0.30013 0.25051
#
# Static dielectric constant tensor:
#      x y z
#    x 6.955060 0.000020 1.151990 
#    y 0.000020 4.998600 0.000010 
#    z 1.151990 0.000010 4.434610 
# 
# 
# High freq. dielectric constant tensor:
#      x y z
#    x 1.823260 0.000000 -0.007310 
#    y 0.000000 1.778830 0.000000 
#    z -0.007310 0.000000 1.816660 
# 
# From -- ./inp_files/182494.got.cif
#   From: 2010.06.25/outbox.cif.g09.slc.cpg/sg15_92_cif.got.tgz:182494.got - 2010.06.28 07:06:18.
