data_PCOD8151731
_publ_section_title
;
Structure prediction by ZEFSAII (Michael W. Deem and Ramdas Pophale) SiO2 
 PCOD8151731
Probable space group: C 2/C
;
_chemical_formula_sum "Si O2"
_cell_formula_units_Z 56
_cell_length_a 20.902296
_cell_length_b 13.694821
_cell_length_c 18.387218
_cell_angle_alpha 90.000000
_cell_angle_beta 149.000489
_cell_angle_gamma 90.000000
_cell_volume 2710.812915
_symmetry_space_group_name_H-M "C 2/C"
_symmetry_group_IT_number 15
_symmetry_cell_setting 'monoclinic'
loop_
_space_group_symop_operation_xyz
x,y,z
-x,y,1/2-z
-x,-y,-z
x,-y,1/2+z
1/2+x,1/2+y,z
1/2-x,1/2+y,1/2-z
1/2-x,1/2-y,-z
1/2+x,1/2-y,1/2+z
loop_
_atom_site_type_symbol
_atom_site_label
_atom_site_fract_x
_atom_site_fract_y
_atom_site_fract_z
Si Si1 0.810318 0.720823 0.345947
Si Si2 0.876324 0.076494 0.930799
Si Si3 0.354658 0.453534 0.778729
Si Si4 0.977418 0.409404 0.923023
Si Si5 0.369425 0.583726 0.662304
Si Si6 0.238975 0.917022 0.588725
Si Si7 0.703898 0.792297 0.097861
O O1 0.833763 0.816507 0.418184
O O2 0.746495 0.632110 0.326245
O O3 0.937504 0.681317 0.434483
O O4 0.724016 0.765072 0.200280
O O5 0.809682 0.042252 0.789186
O O6 0.854272 0.997480 0.971113
O O7 0.023714 0.087434 0.062522
O O8 0.381394 0.486905 0.722936
O O9 0.869959 0.430137 0.758070
O O10 0.000000 0.500000 0.000000
O O11 0.096744 0.375784 0.991997
O O12 0.500000 0.608202 0.750000
O O13 0.258247 0.565020 0.495385
O O14 0.326370 0.670413 0.674242
O O15 0.171425 0.811687 0.529670
#
# Coordination Sequence:
#
# PCOD8151731 Si02
#       7
#     8   8   8   8   8   8   8
#     4  11  22  39  68 101 123 175 226 278 329 381
#     4  11  21  39  66  96 126 172 230 274 319 395
#     4  11  22  40  68  94 132 174 224 278 321 389
#     4  11  23  41  65  99 139 167 221 283 338 388
#     4  12  25  43  67  96 139 178 221 268 338 407
#     4  11  25  41  64  99 134 179 218 271 340 403
#     4  11  23  40  65  99 137 172 214 277 339 403
#
# _framework density 20.658010999999998
#
# number of rings (size 3 to 8) (size 9 to 14) (size 15 to 20)
#    0.000    0.857    5.714    3.000    6.000    0.571 
#    0.000    0.714    0.000    0.000    0.000    0.000 
#    0.000    0.000    0.000    0.000    0.000    0.000 
#
# Total GULP energy -346906.707571 kJ/mol
# GULP energy per Si atom -12389.525270 kJ/mol
# Density = 2.061099 g / cm^3
# Si number density = 20.658011 Si / 1000 Ang^3
#
#
#
# Elastic Constant Matrix: (Units=GPa)
#
#
# Indices 1 2 3 4 5 6 
#
# 1 81.3485 49.9220 31.9160 0.0000 4.0433 0.0000
# 2 49.9220 141.2711 38.3323 0.0000 8.1037 0.0000
# 3 31.9160 38.3323 81.0793 0.0000 -6.5049 0.0000
# 4 0.0000 0.0000 0.0000 21.0394 0.0000 5.5468
# 5 4.0433 8.1037 -6.5049 0.0000 38.4836 0.0000
# 6 0.0000 0.0000 0.0000 5.5468 0.0000 30.8988
#
#
#
# Elastic Compliance Matrix: (Units=1/GPa)
#
#
# Indices 1 2 3 4 5 6 
#
# 1 0.017061 -0.004682 -0.004630 0.000000 -0.001589 0.000000
# 2 -0.004682 0.009628 -0.002871 0.000000 -0.002021 0.000000
# 3 -0.004630 -0.002871 0.015816 0.000000 0.003764 0.000000
# 4 0.000000 0.000000 0.000000 0.049891 0.000000 -0.008956
# 5 -0.001589 -0.002021 0.003764 0.000000 0.027214 0.000000
# 6 0.000000 0.000000 0.000000 -0.008956 0.000000 0.033971
#
#
# Mechanical properties :
#
#
# Convention : Reuss Voigt Hill
#
# Bulk Modulus (GPa) = 55.12943 60.44883 57.78913
# Shear Modulus (GPa) = 27.17485 30.31960 28.74723
#
# Velocity S-wave (km/s) = 3.63087 3.83520 3.73443
# Velocity P-wave (km/s) = 6.65749 6.99549 6.82859
#
# Compressibility (1/GPa) = 0.01813913
#
# Stress axis : x y z
#
# Youngs Moduli (GPa) = 58.61190 103.86455 63.22861
#
# Poissons Ratio (x) = 0.48625 0.29276
# Poissons Ratio (y) = 0.27440 0.18154
# Poissons Ratio (z) = 0.27138 0.29821
#
# Static dielectric constant tensor:
#      x y z
#    x 3.569860 0.000000 0.024040 
#    y 0.000000 4.479560 0.000000 
#    z 0.024040 0.000000 3.755690 
# 
# 
# High freq. dielectric constant tensor:
#      x y z
#    x 1.786600 0.000000 0.008870 
#    y 0.000000 1.814930 0.000000 
#    z 0.008870 0.000000 1.803830 
# 
# From -- ./inp_files/215767.got.cif
#   From: 2010.06.25/outbox.cif.g09.slc.cpg/sg15_108_cif.got.tgz:215767.got - 2010.06.28 07:06:18.
