data_PCOD8151609
_publ_section_title
;
Structure prediction by ZEFSAII (Michael W. Deem and Ramdas Pophale) SiO2 
 PCOD8151609
Probable space group: C 2/C
;
_chemical_formula_sum "Si O2"
_cell_formula_units_Z 64
_cell_length_a 14.335731
_cell_length_b 14.448910
_cell_length_c 18.683365
_cell_angle_alpha 90.000000
_cell_angle_beta 66.607645
_cell_angle_gamma 90.000000
_cell_volume 3551.907779
_symmetry_space_group_name_H-M "C 2/C"
_symmetry_group_IT_number 15
_symmetry_cell_setting 'monoclinic'
loop_
_space_group_symop_operation_xyz
x,y,z
-x,y,1/2-z
-x,-y,-z
x,-y,1/2+z
1/2+x,1/2+y,z
1/2-x,1/2+y,1/2-z
1/2-x,1/2-y,-z
1/2+x,1/2-y,1/2+z
loop_
_atom_site_type_symbol
_atom_site_label
_atom_site_fract_x
_atom_site_fract_y
_atom_site_fract_z
Si Si1 0.601547 0.725780 0.263827
Si Si2 0.743604 0.201237 0.608428
Si Si3 0.580895 0.793169 0.430619
Si Si4 0.267874 0.948714 0.070027
Si Si5 0.115558 0.015154 0.236830
Si Si6 0.115740 0.105048 0.496968
Si Si7 0.396972 0.552695 0.608200
Si Si8 0.642888 0.138501 0.500521
O O1 0.500000 0.739021 0.250000
O O2 0.689181 0.788409 0.201514
O O3 0.581363 0.756202 0.350245
O O4 0.638212 0.620395 0.251047
O O5 0.841729 0.136490 0.584916
O O6 0.664008 0.155667 0.577784
O O7 0.778222 0.301293 0.569831
O O8 0.665119 0.871478 0.412360
O O9 0.605089 0.711467 0.478436
O O10 0.471795 0.835025 0.483627
O O11 0.185809 0.984940 0.150802
O O12 0.212830 0.905005 0.018200
O O13 0.340620 0.031477 0.022728
O O14 0.139167 0.952403 0.298863
O O15 0.000000 0.001073 0.250000
O O16 0.017182 0.069637 0.569471
O O17 0.131364 0.043242 0.421678
#
# Coordination Sequence:
#
# PCOD8151609 Si02
#       8
#     8   8   8   8   8   8   8   8
#     4  11  22  37  62  89 120 155 202 257 316 363
#     4  11  21  37  63  86 121 152 196 258 304 360
#     4  12  24  42  61  87 128 168 205 250 300 375
#     4  12  24  42  61  87 128 168 205 250 300 375
#     4  11  22  37  62  89 120 155 202 257 316 363
#     4  11  23  38  62  92 113 159 210 244 306 367
#     4  11  21  37  63  86 121 152 196 258 304 360
#     4  11  23  38  62  92 113 159 210 244 306 367
#
# _framework density 18.018485999999999
#
# number of rings (size 3 to 8) (size 9 to 14) (size 15 to 20)
#    0.000    0.750    7.500    1.500    0.000    0.000 
#    0.000    0.000    0.000    0.000    0.000    3.500 
#    0.000    0.000    0.000    0.000    0.000    0.000 
#
# Total GULP energy -396965.396228 kJ/mol
# GULP energy per Si atom -12405.168632 kJ/mol
# Density = 1.797748 g / cm^3
# Si number density = 18.018486 Si / 1000 Ang^3
#
#
#
# Elastic Constant Matrix: (Units=GPa)
#
#
# Indices 1 2 3 4 5 6 
#
# 1 56.9178 62.1518 24.2032 0.0000 1.3057 0.0000
# 2 62.1518 103.0130 37.9003 0.0000 12.3599 0.0000
# 3 24.2032 37.9003 96.2307 0.0000 1.4644 0.0000
# 4 0.0000 0.0000 0.0000 20.4563 0.0000 -1.2811
# 5 1.3057 12.3599 1.4644 0.0000 19.6546 0.0000
# 6 0.0000 0.0000 0.0000 -1.2811 0.0000 35.7044
#
#
#
# Elastic Compliance Matrix: (Units=1/GPa)
#
#
# Indices 1 2 3 4 5 6 
#
# 1 0.057684 -0.037066 -0.000207 0.000000 0.019492 0.000000
# 2 -0.037066 0.036161 -0.004616 0.000000 -0.019934 0.000000
# 3 -0.000207 -0.004616 0.012231 0.000000 0.002005 0.000000
# 4 0.000000 0.000000 0.000000 0.048995 0.000000 0.001758
# 5 0.019492 -0.019934 0.002005 0.000000 0.061970 0.000000
# 6 0.000000 0.000000 0.000000 0.001758 0.000000 0.028071
#
#
# Mechanical properties :
#
#
# Convention : Reuss Voigt Hill
#
# Bulk Modulus (GPa) = 44.84459 56.07467 50.45963
# Shear Modulus (GPa) = 14.86670 23.95681 19.41176
#
# Velocity S-wave (km/s) = 2.87554 3.65028 3.28582
# Velocity P-wave (km/s) = 5.99726 6.99673 6.51619
#
# Compressibility (1/GPa) = 0.02229923
#
# Stress axis : x y z
#
# Youngs Moduli (GPa) = 17.33571 27.65413 81.75854
#
# Poissons Ratio (x) = 1.02503 0.01689
# Poissons Ratio (y) = 0.64257 0.37740
# Poissons Ratio (z) = 0.00358 0.12765
#
# Static dielectric constant tensor:
#      x y z
#    x 3.300810 0.000000 0.036710 
#    y 0.000000 3.334490 0.000000 
#    z 0.036710 0.000000 3.264750 
# 
# 
# High freq. dielectric constant tensor:
#      x y z
#    x 1.699180 0.000000 0.002900 
#    y 0.000000 1.701300 0.000000 
#    z 0.002900 0.000000 1.702690 
# 
# From -- ./inp_files/205401.got.cif
#   From: 2010.06.25/outbox.cif.g09.slc.cpg/sg15_103_cif.got.tgz:205401.got - 2010.06.28 07:06:18.
