data_PCOD8151905
_publ_section_title
;
Structure prediction by ZEFSAII (Michael W. Deem and Ramdas Pophale) SiO2 
 PCOD8151905
Probable space group: C 2/C
;
_chemical_formula_sum "Si O2"
_cell_formula_units_Z 48
_cell_length_a 13.589903
_cell_length_b 17.547823
_cell_length_c 14.506556
_cell_angle_alpha 90.000000
_cell_angle_beta 39.354358
_cell_angle_gamma 90.000000
_cell_volume 2193.672425
_symmetry_space_group_name_H-M "C 2/C"
_symmetry_group_IT_number 15
_symmetry_cell_setting 'monoclinic'
loop_
_space_group_symop_operation_xyz
x,y,z
-x,y,1/2-z
-x,-y,-z
x,-y,1/2+z
1/2+x,1/2+y,z
1/2-x,1/2+y,1/2-z
1/2-x,1/2-y,-z
1/2+x,1/2-y,1/2+z
loop_
_atom_site_type_symbol
_atom_site_label
_atom_site_fract_x
_atom_site_fract_y
_atom_site_fract_z
Si Si1 0.659780 0.162419 0.787223
Si Si2 0.877216 0.186563 0.914785
Si Si3 0.747518 0.065154 0.890789
Si Si4 0.513247 0.306012 0.519263
Si Si5 0.552567 0.001259 0.812765
Si Si6 0.378549 0.459709 0.654343
O O1 0.730183 0.136066 0.833578
O O2 0.535590 0.228828 0.894309
O O3 0.573155 0.092341 0.800785
O O4 0.799856 0.190967 0.620008
O O5 0.812933 0.101161 0.938069
O O6 0.000000 0.211422 0.750000
O O7 0.750000 0.250000 0.000000
O O8 0.947064 0.185538 0.965039
O O9 0.867951 0.004942 0.758969
O O10 0.582847 0.023941 0.019853
O O11 0.439944 0.375146 0.631549
O O12 0.500000 0.975226 0.750000
O O13 0.710049 0.958382 0.727448
O O14 0.500000 0.500000 0.500000
#
# Coordination Sequence:
#
# PCOD8151905 Si02
#       6
#     8   8   8   8   8   8
#     4  11  24  42  63  96 129 173 222 269 327 404
#     4  12  22  39  61 101 138 166 214 272 330 398
#     4  11  23  41  64  98 134 173 219 270 330 402
#     4  12  23  40  67  93 133 173 217 270 336 393
#     4  11  25  45  67  93 134 176 228 273 329 392
#     4  11  21  42  68  93 129 176 218 270 335 394
#
# _framework density 21.881114
#
# number of rings (size 3 to 8) (size 9 to 14) (size 15 to 20)
#    0.000    0.667    6.667    3.000    4.667    2.000 
#    0.000    0.833    0.000    0.000    0.000    0.000 
#    0.000    0.000    0.000    0.000    0.000    0.000 
#
# Total GULP energy -297619.122643 kJ/mol
# GULP energy per Si atom -12400.796777 kJ/mol
# Density = 2.183131 g / cm^3
# Si number density = 21.881114 Si / 1000 Ang^3
#
#
#
# Elastic Constant Matrix: (Units=GPa)
#
#
# Indices 1 2 3 4 5 6 
#
# 1 38.0569 -4.0828 8.6630 -0.0002 -2.0271 0.0000
# 2 -4.0828 107.8109 68.2018 0.0007 0.1602 -0.0001
# 3 8.6630 68.2018 182.0180 0.0018 -15.1652 0.0003
# 4 -0.0002 0.0007 0.0018 51.4939 0.0000 -7.5546
# 5 -2.0271 0.1602 -15.1652 0.0000 20.7432 -0.0002
# 6 0.0000 -0.0001 0.0003 -7.5546 -0.0002 27.1085
#
#
#
# Elastic Compliance Matrix: (Units=1/GPa)
#
#
# Indices 1 2 3 4 5 6 
#
# 1 0.027057 0.002332 -0.002069 0.000000 0.001114 0.000000
# 2 0.002332 0.012623 -0.005143 0.000000 -0.003630 0.000000
# 3 -0.002069 -0.005143 0.007993 0.000000 0.005681 0.000000
# 4 0.000000 0.000000 0.000000 0.020248 0.000000 0.005643
# 5 0.001114 -0.003630 0.005681 0.000000 0.052499 0.000000
# 6 0.000000 0.000000 0.000000 0.005643 0.000000 0.038461
#
#
# Mechanical properties :
#
#
# Convention : Reuss Voigt Hill
#
# Bulk Modulus (GPa) = 26.37676 52.60554 39.49115
# Shear Modulus (GPa) = 27.58197 36.87603 32.22900
#
# Velocity S-wave (km/s) = 3.55426 4.10968 3.84202
# Velocity P-wave (km/s) = 5.37814 6.82737 6.14563
#
# Compressibility (1/GPa) = 0.03791217
#
# Stress axis : x y z
#
# Youngs Moduli (GPa) = 36.95930 79.22198 125.11157
#
# Poissons Ratio (x) = -0.18471 0.25881
# Poissons Ratio (y) = -0.08617 0.64346
# Poissons Ratio (z) = 0.07645 0.40745
#
# Static dielectric constant tensor:
#      x y z
#    x 3.680880 0.000000 -0.008380 
#    y 0.000000 4.162310 -0.000010 
#    z -0.008380 -0.000010 4.301990 
# 
# 
# High freq. dielectric constant tensor:
#      x y z
#    x 1.832970 0.000000 -0.004240 
#    y 0.000000 1.861430 0.000000 
#    z -0.004240 0.000000 1.883690 
# 
# From -- ./inp_files/206394.got.cif
#   From: 2010.06.25/outbox.cif.g09.slc.cpg/sg15_104_cif.got.tgz:206394.got - 2010.06.28 07:06:18.
