data_PCOD8151397
_publ_section_title
;
Structure prediction by ZEFSAII (Michael W. Deem and Ramdas Pophale) SiO2 
 PCOD8151397
Probable space group: C 2/C
;
_chemical_formula_sum "Si O2"
_cell_formula_units_Z 48
_cell_length_a 29.403100
_cell_length_b 12.288827
_cell_length_c 12.281473
_cell_angle_alpha 90.000000
_cell_angle_beta 153.316458
_cell_angle_gamma 90.000000
_cell_volume 1992.786011
_symmetry_space_group_name_H-M "C 2/C"
_symmetry_group_IT_number 15
_symmetry_cell_setting 'monoclinic'
loop_
_space_group_symop_operation_xyz
x,y,z
-x,y,1/2-z
-x,-y,-z
x,-y,1/2+z
1/2+x,1/2+y,z
1/2-x,1/2+y,1/2-z
1/2-x,1/2-y,-z
1/2+x,1/2-y,1/2+z
loop_
_atom_site_type_symbol
_atom_site_label
_atom_site_fract_x
_atom_site_fract_y
_atom_site_fract_z
Si Si1 0.362672 0.624747 0.222390
Si Si2 0.291242 0.600180 0.574389
Si Si3 0.223995 0.250801 0.278958
Si Si4 0.128748 0.401273 0.905486
Si Si5 0.130901 0.386291 0.542435
Si Si6 0.542024 0.227311 0.042766
O O1 0.376400 0.494601 0.247388
O O2 0.349078 0.664611 0.317358
O O3 0.458084 0.681091 0.369666
O O4 0.259100 0.654714 0.936788
O O5 0.225227 0.567866 0.538437
O O6 0.225204 0.594659 0.324438
O O7 0.346276 0.716722 0.708273
O O8 0.156335 0.298903 0.038841
O O9 0.328910 0.196078 0.463124
O O10 0.094591 0.502709 0.906327
O O11 0.036229 0.361424 0.628669
O O12 0.037689 0.335693 0.416432
#
# Coordination Sequence:
#
# PCOD8151397 Si02
#       6
#     8   8   8   8   8   8
#     4  11  25  39  65  99 132 169 219 281 335 384
#     4  11  20  40  70  98 128 171 225 274 330 395
#     4  11  22  43  64  88 134 179 218 257 338 414
#     4  11  21  41  70  94 128 185 224 258 330 412
#     4  11  21  41  70  94 128 185 224 258 330 412
#     4  11  24  41  65 104 139 159 219 298 323 372
#
# _framework density 24.086881000000002
#
# number of rings (size 3 to 8) (size 9 to 14) (size 15 to 20)
#    0.000    1.000    6.667    1.500    0.000    1.333 
#    0.000    5.000    0.000    0.000    0.000    0.000 
#    0.000    0.000    0.000    0.000    0.000    0.000 
#
# Total GULP energy -297681.587138 kJ/mol
# GULP energy per Si atom -12403.399464 kJ/mol
# Density = 2.403206 g / cm^3
# Si number density = 24.086881 Si / 1000 Ang^3
#
#
#
# Elastic Constant Matrix: (Units=GPa)
#
#
# Indices 1 2 3 4 5 6 
#
# 1 110.2493 30.3245 16.5252 0.0000 -8.9956 0.0000
# 2 30.3245 103.9993 -0.4207 0.0000 -11.1739 0.0000
# 3 16.5252 -0.4207 26.2281 0.0000 -7.5352 0.0000
# 4 0.0000 0.0000 0.0000 37.0251 0.0000 0.8480
# 5 -8.9956 -11.1739 -7.5352 0.0000 41.4438 0.0000
# 6 0.0000 0.0000 0.0000 0.8480 0.0000 46.5193
#
#
#
# Elastic Compliance Matrix: (Units=1/GPa)
#
#
# Indices 1 2 3 4 5 6 
#
# 1 0.011011 -0.003210 -0.006912 0.000000 0.000268 0.000000
# 2 -0.003210 0.010862 0.002994 0.000000 0.002776 0.000000
# 3 -0.006912 0.002994 0.044664 0.000000 0.007428 0.000000
# 4 0.000000 0.000000 0.000000 0.027020 0.000000 -0.000493
# 5 0.000268 0.002776 0.007428 0.000000 0.026286 0.000000
# 6 0.000000 0.000000 0.000000 -0.000493 0.000000 0.021505
#
#
# Mechanical properties :
#
#
# Convention : Reuss Voigt Hill
#
# Bulk Modulus (GPa) = 19.12730 37.03720 28.08225
# Shear Modulus (GPa) = 28.89649 37.93415 33.41532
#
# Velocity S-wave (km/s) = 3.46739 3.97279 3.72867
# Velocity P-wave (km/s) = 4.89782 6.03771 5.49739
#
# Compressibility (1/GPa) = 0.05228130
#
# Stress axis : x y z
#
# Youngs Moduli (GPa) = 90.81707 92.06589 22.38937
#
# Poissons Ratio (x) = 0.29552 0.15476
# Poissons Ratio (y) = 0.29151 -0.06704
# Poissons Ratio (z) = 0.62774 -0.27566
#
# Static dielectric constant tensor:
#      x y z
#    x 4.513390 0.000000 -0.210640 
#    y 0.000000 4.304660 0.000000 
#    z -0.210640 0.000000 4.025910 
# 
# 
# High freq. dielectric constant tensor:
#      x y z
#    x 1.965000 0.000000 -0.014090 
#    y 0.000000 1.962420 0.000000 
#    z -0.014090 0.000000 1.948850 
# 
# From -- ./inp_files/123607.got.cif
#   From: 2010.06.25/outbox.cif.g09.slc.cpg/sg15_62_cif.got.tgz:123607.got - 2010.06.28 07:06:18.
