data_PCOD8151218
_publ_section_title
;
Structure prediction by ZEFSAII (Michael W. Deem and Ramdas Pophale) SiO2 
 PCOD8151218
Probable space group: C 2/C
;
_chemical_formula_sum "Si O2"
_cell_formula_units_Z 52
_cell_length_a 20.958736
_cell_length_b 18.324418
_cell_length_c 11.835037
_cell_angle_alpha 90.000000
_cell_angle_beta 143.953703
_cell_angle_gamma 90.000000
_cell_volume 2674.645199
_symmetry_space_group_name_H-M "C 2/C"
_symmetry_group_IT_number 15
_symmetry_cell_setting 'monoclinic'
loop_
_space_group_symop_operation_xyz
x,y,z
-x,y,1/2-z
-x,-y,-z
x,-y,1/2+z
1/2+x,1/2+y,z
1/2-x,1/2+y,1/2-z
1/2-x,1/2-y,-z
1/2+x,1/2-y,1/2+z
loop_
_atom_site_type_symbol
_atom_site_label
_atom_site_fract_x
_atom_site_fract_y
_atom_site_fract_z
Si Si1 0.387692 0.968909 0.272124
Si Si2 0.885598 0.758196 0.810236
Si Si3 0.658216 0.806731 0.011320
Si Si4 0.500000 0.066220 0.250000
Si Si5 0.802786 0.645411 0.512970
Si Si6 0.617495 0.251242 0.223521
Si Si7 0.101808 0.396484 0.584682
O O1 0.288530 0.927305 0.070157
O O2 0.472688 0.904153 0.429905
O O3 0.466665 0.016254 0.305829
O O4 0.342164 0.025103 0.301478
O O5 0.845939 0.721819 0.868217
O O6 0.863612 0.709823 0.667730
O O7 0.817106 0.832493 0.697806
O O8 0.012221 0.778492 0.003893
O O9 0.785863 0.808246 0.161258
O O10 0.605504 0.886536 0.935196
O O11 0.596683 0.756004 0.829125
O O12 0.878457 0.622171 0.517188
O O13 0.649257 0.169231 0.228304
#
# Coordination Sequence:
#
# PCOD8151218 Si02
#       7
#     8   8   8   4   8   8   8
#     4  11  22  34  59  86 122 155 196 257 308 359
#     4  11  22  38  58  87 130 160 205 252 299 374
#     4  11  22  35  57  89 122 160 208 253 306 354
#     4  12  20  36  56  90 116 144 202 256 300 360
#     4  11  23  36  58  90 121 164 196 247 316 358
#     4  11  21  37  59  86 125 164 200 253 306 357
#     4  11  20  36  55  88 122 154 195 251 310 360
#
# _framework density 19.441831000000001
#
# number of rings (size 3 to 8) (size 9 to 14) (size 15 to 20)
#    0.000    0.923    7.692    0.000    2.154    0.000 
#    0.000    0.000    0.000    0.923    0.000    0.000 
#    0.000    0.000    0.000    0.000    0.000    0.000 
#
# Total GULP energy -322145.085754 kJ/mol
# GULP energy per Si atom -12390.195606 kJ/mol
# Density = 1.939758 g / cm^3
# Si number density = 19.441831 Si / 1000 Ang^3
#
#
#
# Elastic Constant Matrix: (Units=GPa)
#
#
# Indices 1 2 3 4 5 6 
#
# 1 64.1143 20.5384 22.5243 0.0000 -14.2439 0.0000
# 2 20.5384 48.5669 22.3356 0.0000 9.8493 0.0000
# 3 22.5243 22.3356 107.2902 0.0000 6.6797 0.0000
# 4 0.0000 0.0000 0.0000 16.9143 0.0000 10.0495
# 5 -14.2439 9.8493 6.6797 0.0000 32.1102 0.0000
# 6 0.0000 0.0000 0.0000 10.0495 0.0000 23.7458
#
#
#
# Elastic Compliance Matrix: (Units=1/GPa)
#
#
# Indices 1 2 3 4 5 6 
#
# 1 0.023789 -0.011435 -0.003535 0.000000 0.014796 0.000000
# 2 -0.011435 0.029501 -0.002899 0.000000 -0.013518 0.000000
# 3 -0.003535 -0.002899 0.010849 0.000000 -0.002936 0.000000
# 4 0.000000 0.000000 0.000000 0.078981 0.000000 -0.033426
# 5 0.014796 -0.013518 -0.002936 0.000000 0.042463 0.000000
# 6 0.000000 0.000000 0.000000 -0.033426 0.000000 0.056259
#
#
# Mechanical properties :
#
#
# Convention : Reuss Voigt Hill
#
# Bulk Modulus (GPa) = 35.21043 38.97422 37.09232
# Shear Modulus (GPa) = 17.41874 24.85894 21.13884
#
# Velocity S-wave (km/s) = 2.99648 3.57968 3.30098
# Velocity P-wave (km/s) = 5.48833 6.09717 5.80075
#
# Compressibility (1/GPa) = 0.02840068
#
# Stress axis : x y z
#
# Youngs Moduli (GPa) = 42.03601 33.89751 92.17494
#
# Poissons Ratio (x) = 0.38762 0.32583
# Poissons Ratio (y) = 0.48068 0.26723
# Poissons Ratio (z) = 0.14859 0.09827
#
# Static dielectric constant tensor:
#      x y z
#    x 3.554310 0.000000 -0.274390 
#    y 0.000000 3.751330 0.000000 
#    z -0.274390 0.000000 3.865720 
# 
# 
# High freq. dielectric constant tensor:
#      x y z
#    x 1.747150 0.000000 -0.036310 
#    y 0.000000 1.739270 0.000000 
#    z -0.036310 0.000000 1.761650 
# 
# From -- ./inp_files/113711.got.cif
#   From: 2010.06.25/outbox.cif.g09.slc.cpg/sg15_57_cif.got.tgz:113711.got - 2010.06.28 07:06:18.
