data_PCOD8151466
_publ_section_title
;
Structure prediction by ZEFSAII (Michael W. Deem and Ramdas Pophale) SiO2 
 PCOD8151466
Probable space group: C 2/C
;
_chemical_formula_sum "Si O2"
_cell_formula_units_Z 64
_cell_length_a 29.997670
_cell_length_b 10.953550
_cell_length_c 8.984705
_cell_angle_alpha 90.000000
_cell_angle_beta 83.309134
_cell_angle_gamma 90.000000
_cell_volume 2932.096400
_symmetry_space_group_name_H-M "C 2/C"
_symmetry_group_IT_number 15
_symmetry_cell_setting 'monoclinic'
loop_
_space_group_symop_operation_xyz
x,y,z
-x,y,1/2-z
-x,-y,-z
x,-y,1/2+z
1/2+x,1/2+y,z
1/2-x,1/2+y,1/2-z
1/2-x,1/2-y,-z
1/2+x,1/2-y,1/2+z
loop_
_atom_site_type_symbol
_atom_site_label
_atom_site_fract_x
_atom_site_fract_y
_atom_site_fract_z
Si Si1 0.189775 0.905583 0.504010
Si Si2 0.841507 0.741450 0.530369
Si Si3 0.448616 0.372698 0.266381
Si Si4 0.769024 0.122868 0.189269
Si Si5 0.326743 0.191982 0.204203
Si Si6 0.948720 0.417215 0.744275
Si Si7 0.890705 0.498340 0.032555
Si Si8 0.395591 0.470350 0.545444
O O1 0.209463 0.879307 0.656372
O O2 0.194886 0.792324 0.392297
O O3 0.218901 0.009253 0.416688
O O4 0.137068 0.941102 0.536832
O O5 0.788910 0.755853 0.596642
O O6 0.849820 0.747296 0.346299
O O7 0.861494 0.618362 0.592101
O O8 0.865401 0.854668 0.607994
O O9 0.500000 0.412500 0.250000
O O10 0.442871 0.228640 0.240306
O O11 0.434599 0.409074 0.436229
O O12 0.418422 0.450541 0.165241
O O13 0.715257 0.115418 0.217699
O O14 0.360605 0.115994 0.085740
O O15 0.938417 0.483501 0.593738
O O16 0.000000 0.454692 0.750000
O O17 0.908708 0.478253 0.858637
#
# Coordination Sequence:
#
# PCOD8151466 Si02
#       8
#     8   8   8   8   8   8   8   8
#     4  11  24  42  65  99 130 184 235 282 355 414
#     4  11  24  44  66  95 138 180 229 283 352 419
#     4  11  23  42  68 100 131 169 221 283 346 414
#     4  11  26  41  69  97 139 180 230 300 351 404
#     4  12  26  43  70  98 140 185 239 289 351 420
#     4  11  25  47  70  99 141 182 231 290 352 423
#     4  12  24  44  71  99 136 185 234 281 355 419
#     4  11  20  43  66  91 131 171 216 278 340 415
#
# _framework density 21.827385
#
# number of rings (size 3 to 8) (size 9 to 14) (size 15 to 20)
#    0.000    0.750    2.500    6.000    5.250    0.000 
#    2.250    0.625    0.000    0.000    0.000    0.000 
#    0.000    0.000    0.000    0.000    0.000    0.000 
#
# Total GULP energy -396480.119744 kJ/mol
# GULP energy per Si atom -12390.003742 kJ/mol
# Density = 2.177770 g / cm^3
# Si number density = 21.827385 Si / 1000 Ang^3
#
#
#
# Elastic Constant Matrix: (Units=GPa)
#
#
# Indices 1 2 3 4 5 6 
#
# 1 96.2802 16.2006 3.6184 0.0000 -8.6216 0.0000
# 2 16.2006 67.8278 21.9299 0.0000 -6.2542 0.0000
# 3 3.6184 21.9299 54.9697 0.0000 1.0199 0.0000
# 4 0.0000 0.0000 0.0000 54.2740 0.0000 -7.9964
# 5 -8.6216 -6.2542 1.0199 0.0000 30.1654 0.0000
# 6 0.0000 0.0000 0.0000 -7.9964 0.0000 36.5770
#
#
#
# Elastic Compliance Matrix: (Units=1/GPa)
#
#
# Indices 1 2 3 4 5 6 
#
# 1 0.011028 -0.002458 0.000206 0.000000 0.002635 0.000000
# 2 -0.002458 0.017907 -0.007042 0.000000 0.003248 0.000000
# 3 0.000206 -0.007042 0.021027 0.000000 -0.002112 0.000000
# 4 0.000000 0.000000 0.000000 0.019038 0.000000 0.004162
# 5 0.002635 0.003248 -0.002112 0.000000 0.034649 0.000000
# 6 0.000000 0.000000 0.000000 0.004162 0.000000 0.028250
#
#
# Mechanical properties :
#
#
# Convention : Reuss Voigt Hill
#
# Bulk Modulus (GPa) = 31.87419 33.61949 32.74684
# Shear Modulus (GPa) = 31.06665 36.02520 33.54592
#
# Velocity S-wave (km/s) = 3.77674 4.06699 3.92455
# Velocity P-wave (km/s) = 5.80111 6.12289 5.96417
#
# Compressibility (1/GPa) = 0.03137334
#
# Stress axis : x y z
#
# Youngs Moduli (GPa) = 90.67715 55.84532 47.55792
#
# Poissons Ratio (x) = 0.13724 -0.00978
# Poissons Ratio (y) = 0.22284 0.33492
# Poissons Ratio (z) = -0.01864 0.39328
#
# Static dielectric constant tensor:
#      x y z
#    x 4.275230 0.000000 -0.122000 
#    y 0.000000 3.956200 0.000000 
#    z -0.122000 0.000000 3.866450 
# 
# 
# High freq. dielectric constant tensor:
#      x y z
#    x 1.879380 0.000000 -0.006130 
#    y 0.000000 1.855300 0.000000 
#    z -0.006130 0.000000 1.855960 
# 
# From -- ./inp_files/69378.got.cif
#   From: 2010.06.25/outbox.cif.g09.slc.cpg/sg15_35_cif.got.tgz:69378.got - 2010.06.28 07:06:18.
