data_PCOD8151029
_publ_section_title
;
Structure prediction by ZEFSAII (Michael W. Deem and Ramdas Pophale) SiO2 
 PCOD8151029
Probable space group: C 2/C
;
_chemical_formula_sum "Si O2"
_cell_formula_units_Z 60
_cell_length_a 21.392802
_cell_length_b 18.542311
_cell_length_c 11.578354
_cell_angle_alpha 90.000000
_cell_angle_beta 140.923904
_cell_angle_gamma 90.000000
_cell_volume 2895.086071
_symmetry_space_group_name_H-M "C 2/C"
_symmetry_group_IT_number 15
_symmetry_cell_setting 'monoclinic'
loop_
_space_group_symop_operation_xyz
x,y,z
-x,y,1/2-z
-x,-y,-z
x,-y,1/2+z
1/2+x,1/2+y,z
1/2-x,1/2+y,1/2-z
1/2-x,1/2-y,-z
1/2+x,1/2-y,1/2+z
loop_
_atom_site_type_symbol
_atom_site_label
_atom_site_fract_x
_atom_site_fract_y
_atom_site_fract_z
Si Si1 0.855816 0.321014 0.353994
Si Si2 0.332767 0.623623 0.025863
Si Si3 0.735516 0.822407 0.708049
Si Si4 0.917337 0.900918 0.419119
Si Si5 0.500000 0.193178 0.250000
Si Si6 0.649394 0.253344 0.286920
Si Si7 0.099497 0.724273 0.822995
Si Si8 0.862118 0.057314 0.299306
O O1 0.768039 0.376338 0.195780
O O2 0.811310 0.244178 0.328038
O O3 0.922694 0.308570 0.335006
O O4 0.922121 0.351830 0.557103
O O5 0.423217 0.611907 0.065752
O O6 0.347383 0.698425 0.115741
O O7 0.327939 0.563145 0.116913
O O8 0.656843 0.809800 0.699638
O O9 0.675715 0.825911 0.501888
O O10 0.794698 0.898242 0.794673
O O11 0.863030 0.832581 0.285089
O O12 0.026633 0.912094 0.525159
O O13 0.852303 0.972962 0.309926
O O14 0.557299 0.241899 0.239558
O O15 0.750000 0.250000 0.500000
O O16 0.000000 0.733462 0.750000
#
# Coordination Sequence:
#
# PCOD8151029 Si02
#       8
#     8   8   8   8   4   8   8   8
#     4  11  20  36  59  88 123 161 207 266 326 375
#     4  11  20  38  58  87 125 163 213 260 318 388
#     4  11  20  38  60  90 122 165 224 270 314 383
#     4  11  24  39  59  95 134 178 213 259 340 409
#     4  12  24  38  60  94 140 162 204 284 330 392
#     4  12  24  41  61  93 134 178 227 269 331 400
#     4  11  19  32  62  90 116 150 209 269 312 368
#     4  11  23  39  61  93 137 171 212 272 339 400
#
# _framework density 20.724772999999999
#
# number of rings (size 3 to 8) (size 9 to 14) (size 15 to 20)
#    0.000    0.800    6.667    3.600    0.000    1.067 
#    2.400    0.000    0.000    0.000    6.933    8.400 
#    0.000    0.000    0.000    0.000    0.000    0.000 
#
# Total GULP energy -371842.974696 kJ/mol
# GULP energy per Si atom -12394.765823 kJ/mol
# Density = 2.067760 g / cm^3
# Si number density = 20.724773 Si / 1000 Ang^3
#
#
#
# Elastic Constant Matrix: (Units=GPa)
#
#
# Indices 1 2 3 4 5 6 
#
# 1 125.0961 40.8207 21.2878 0.0000 -8.6143 0.0000
# 2 40.8207 100.5096 31.4428 0.0000 -0.1763 0.0000
# 3 21.2878 31.4428 98.3813 0.0000 -6.3533 0.0000
# 4 0.0000 0.0000 0.0000 22.8306 0.0000 6.4728
# 5 -8.6143 -0.1763 -6.3533 0.0000 31.5378 0.0000
# 6 0.0000 0.0000 0.0000 6.4728 0.0000 20.7037
#
#
#
# Elastic Compliance Matrix: (Units=1/GPa)
#
#
# Indices 1 2 3 4 5 6 
#
# 1 0.009463 -0.003608 -0.000739 0.000000 0.002416 0.000000
# 2 -0.003608 0.012444 -0.003298 0.000000 -0.001580 0.000000
# 3 -0.000739 -0.003298 0.011514 0.000000 0.002099 0.000000
# 4 0.000000 0.000000 0.000000 0.048061 0.000000 -0.015026
# 5 0.002416 -0.001580 0.002099 0.000000 0.032782 0.000000
# 6 0.000000 0.000000 0.000000 -0.015026 0.000000 0.052998
#
#
# Mechanical properties :
#
#
# Convention : Reuss Voigt Hill
#
# Bulk Modulus (GPa) = 55.15382 56.78774 55.97078
# Shear Modulus (GPa) = 26.51173 30.37680 28.44426
#
# Velocity S-wave (km/s) = 3.58051 3.83263 3.70871
# Velocity P-wave (km/s) = 6.61541 6.85899 6.73830
#
# Compressibility (1/GPa) = 0.01813111
#
# Stress axis : x y z
#
# Youngs Moduli (GPa) = 105.67180 80.36165 86.85032
#
# Poissons Ratio (x) = 0.28995 0.06414
# Poissons Ratio (y) = 0.38128 0.28646
# Poissons Ratio (z) = 0.07804 0.26506
#
# Static dielectric constant tensor:
#      x y z
#    x 4.182440 0.000000 -0.082140 
#    y 0.000000 3.335170 0.000000 
#    z -0.082140 0.000000 4.041620 
# 
# 
# High freq. dielectric constant tensor:
#      x y z
#    x 1.833150 0.000000 -0.003270 
#    y 0.000000 1.751300 0.000000 
#    z -0.003270 0.000000 1.818840 
# 
# From -- ./inp_files/113842.got.cif
#   From: 2010.06.25/outbox.cif.g09.slc.cpg/sg15_57_cif.got.tgz:113842.got - 2010.06.28 07:06:18.
