data_PCOD8151052
_publ_section_title
;
Structure prediction by ZEFSAII (Michael W. Deem and Ramdas Pophale) SiO2 
 PCOD8151052
Probable space group: C 2/C
;
_chemical_formula_sum "Si O2"
_cell_formula_units_Z 48
_cell_length_a 19.237323
_cell_length_b 6.732849
_cell_length_c 18.707625
_cell_angle_alpha 90.000000
_cell_angle_beta 112.923600
_cell_angle_gamma 90.000000
_cell_volume 2231.688670
_symmetry_space_group_name_H-M "C 2/C"
_symmetry_group_IT_number 15
_symmetry_cell_setting 'monoclinic'
loop_
_space_group_symop_operation_xyz
x,y,z
-x,y,1/2-z
-x,-y,-z
x,-y,1/2+z
1/2+x,1/2+y,z
1/2-x,1/2+y,1/2-z
1/2-x,1/2-y,-z
1/2+x,1/2-y,1/2+z
loop_
_atom_site_type_symbol
_atom_site_label
_atom_site_fract_x
_atom_site_fract_y
_atom_site_fract_z
Si Si1 0.414174 0.808158 0.434357
Si Si2 0.916219 0.540853 0.300138
Si Si3 0.785379 0.044183 0.354931
Si Si4 0.160267 0.718414 0.850495
Si Si5 0.181147 0.888198 0.282263
Si Si6 0.941081 0.427596 0.073194
O O1 0.379138 0.953998 0.358993
O O2 0.504026 0.781750 0.452080
O O3 0.370581 0.595374 0.415135
O O4 0.403537 0.906632 0.507532
O O5 0.890307 0.401777 0.225550
O O6 0.007348 0.536506 0.345337
O O7 0.890812 0.767053 0.277010
O O8 0.746764 0.865134 0.384312
O O9 0.779278 0.995369 0.268647
O O10 0.736936 0.243446 0.347101
O O11 0.155688 0.949461 0.829667
O O12 0.125496 0.694800 0.915737
#
# Coordination Sequence:
#
# PCOD8151052 Si02
#       6
#     8   8   8   8   8   8
#     4   9  19  39  63  78 123 161 195 239 306 357
#     4   9  19  36  62  83 110 153 198 241 291 352
#     4  11  20  34  58  88 114 156 196 246 294 355
#     4  11  21  34  62  88 119 147 200 255 293 345
#     4  11  19  35  62  88 112 152 197 243 298 342
#     4   9  20  39  59  86 120 160 192 250 296 358
#
# _framework density 21.508378
#
# number of rings (size 3 to 8) (size 9 to 14) (size 15 to 20)
#    1.000    1.000    3.333    1.500    0.000    0.667 
#    0.000   15.000    7.333    0.000    0.000    0.000 
#    0.000    0.000    0.000    0.000    0.000    0.000 
#
# Total GULP energy -297439.220702 kJ/mol
# GULP energy per Si atom -12393.300863 kJ/mol
# Density = 2.145942 g / cm^3
# Si number density = 21.508378 Si / 1000 Ang^3
#
#
#
# Elastic Constant Matrix: (Units=GPa)
#
#
# Indices 1 2 3 4 5 6 
#
# 1 68.5993 20.0777 -3.0997 0.0000 -14.2993 0.0000
# 2 20.0777 88.5093 1.3992 0.0000 -6.5780 0.0000
# 3 -3.0997 1.3992 17.0699 0.0000 -3.8097 0.0000
# 4 0.0000 0.0000 0.0000 20.7963 0.0000 8.7321
# 5 -14.2993 -6.5780 -3.8097 0.0000 33.1759 0.0000
# 6 0.0000 0.0000 0.0000 8.7321 0.0000 22.3243
#
#
#
# Elastic Compliance Matrix: (Units=1/GPa)
#
#
# Indices 1 2 3 4 5 6 
#
# 1 0.017361 -0.003470 0.005084 0.000000 0.007379 0.000000
# 2 -0.003470 0.012164 -0.001460 0.000000 0.000748 0.000000
# 3 0.005084 -0.001460 0.061629 0.000000 0.008979 0.000000
# 4 0.000000 0.000000 0.000000 0.057535 0.000000 -0.022505
# 5 0.007379 0.000748 0.008979 0.000000 0.034502 0.000000
# 6 0.000000 0.000000 0.000000 -0.022505 0.000000 0.053597
#
#
# Mechanical properties :
#
#
# Convention : Reuss Voigt Hill
#
# Bulk Modulus (GPa) = 10.93361 23.43698 17.18529
# Shear Modulus (GPa) = 18.72881 25.64606 22.18744
#
# Velocity S-wave (km/s) = 2.95408 3.45683 3.21529
# Velocity P-wave (km/s) = 4.09022 5.18201 4.66814
#
# Compressibility (1/GPa) = 0.09146112
#
# Stress axis : x y z
#
# Youngs Moduli (GPa) = 57.60102 82.20886 16.22603
#
# Poissons Ratio (x) = 0.28528 -0.08249
# Poissons Ratio (y) = 0.19989 0.02369
# Poissons Ratio (z) = -0.29283 0.12004
#
# Static dielectric constant tensor:
#      x y z
#    x 3.874010 0.000000 0.054720 
#    y 0.000000 3.653990 0.000000 
#    z 0.054720 0.000000 3.587380 
# 
# 
# High freq. dielectric constant tensor:
#      x y z
#    x 1.837150 0.000000 0.001720 
#    y 0.000000 1.820600 0.000000 
#    z 0.001720 0.000000 1.825150 
# 
# From -- ./inp_files/217790.got.cif
#   From: 2010.06.25/outbox.cif.g09.slc.cpg/sg15_109_cif.got.tgz:217790.got - 2010.06.28 07:06:18.
