data_PCOD8151505
_publ_section_title
;
Structure prediction by ZEFSAII (Michael W. Deem and Ramdas Pophale) SiO2 
 PCOD8151505
Probable space group: C 2/C
;
_chemical_formula_sum "Si O2"
_cell_formula_units_Z 40
_cell_length_a 12.725854
_cell_length_b 16.513930
_cell_length_c 9.063519
_cell_angle_alpha 90.000000
_cell_angle_beta 111.020526
_cell_angle_gamma 90.000000
_cell_volume 1777.977283
_symmetry_space_group_name_H-M "C 2/C"
_symmetry_group_IT_number 15
_symmetry_cell_setting 'monoclinic'
loop_
_space_group_symop_operation_xyz
x,y,z
-x,y,1/2-z
-x,-y,-z
x,-y,1/2+z
1/2+x,1/2+y,z
1/2-x,1/2+y,1/2-z
1/2-x,1/2-y,-z
1/2+x,1/2-y,1/2+z
loop_
_atom_site_type_symbol
_atom_site_label
_atom_site_fract_x
_atom_site_fract_y
_atom_site_fract_z
Si Si1 0.199297 0.052809 0.964060
Si Si2 0.678253 0.598382 0.638610
Si Si3 0.378964 0.175946 0.148773
Si Si4 0.779569 0.753043 0.685934
Si Si5 0.447241 0.321763 0.967591
O O1 0.152341 0.047740 0.773188
O O2 0.314218 0.104287 0.031452
O O3 0.103938 0.091106 0.019040
O O4 0.214281 0.960233 0.023815
O O5 0.781362 0.658113 0.731900
O O6 0.580203 0.662439 0.539546
O O7 0.500000 0.139178 0.250000
O O8 0.313013 0.198349 0.264896
O O9 0.397418 0.257261 0.061028
O O10 0.750000 0.750000 0.500000
O O11 0.902471 0.791766 0.784399
#
# Coordination Sequence:
#
# PCOD8151505 Si02
#       5
#     8   8   8   8   8
#     4  11  24  40  65 104 146 177 223 297 358 415
#     4  12  24  43  68 103 144 179 232 289 365 413
#     4  11  20  45  74  93 130 200 244 270 347 433
#     4  11  24  41  68 100 137 176 243 298 331 409
#     4  11  21  44  69  97 132 192 236 277 340 431
#
# _framework density 22.497475999999999
#
# number of rings (size 3 to 8) (size 9 to 14) (size 15 to 20)
#    0.000    0.800    6.000    2.400    5.600    0.800 
#    0.000    1.000    4.400    0.000    0.000    0.000 
#    0.000    0.000    0.000    0.000    0.000    0.000 
#
# Total GULP energy -247839.049192 kJ/mol
# GULP energy per Si atom -12391.952460 kJ/mol
# Density = 2.244627 g / cm^3
# Si number density = 22.497476 Si / 1000 Ang^3
#
#
#
# Elastic Constant Matrix: (Units=GPa)
#
#
# Indices 1 2 3 4 5 6 
#
# 1 67.0739 48.3290 37.9458 0.0000 12.4739 0.0000
# 2 48.3290 103.8622 46.8708 0.0000 8.7713 0.0000
# 3 37.9458 46.8708 176.0594 0.0000 3.7169 0.0000
# 4 0.0000 0.0000 0.0000 41.2027 0.0000 -3.0840
# 5 12.4739 8.7713 3.7169 0.0000 28.1263 0.0000
# 6 0.0000 0.0000 0.0000 -3.0840 0.0000 28.7779
#
#
#
# Elastic Compliance Matrix: (Units=1/GPa)
#
#
# Indices 1 2 3 4 5 6 
#
# 1 0.024803 -0.009726 -0.002596 0.000000 -0.007624 0.000000
# 2 -0.009726 0.015022 -0.001900 0.000000 -0.000120 0.000000
# 3 -0.002596 -0.001900 0.006727 0.000000 0.000855 0.000000
# 4 0.000000 0.000000 0.000000 0.024467 0.000000 0.002622
# 5 -0.007624 -0.000120 0.000855 0.000000 0.038860 0.000000
# 6 0.000000 0.000000 0.000000 0.002622 0.000000 0.035030
#
#
# Mechanical properties :
#
#
# Convention : Reuss Voigt Hill
#
# Bulk Modulus (GPa) = 55.22433 68.14296 61.68364
# Shear Modulus (GPa) = 27.87254 33.87804 30.87529
#
# Velocity S-wave (km/s) = 3.52365 3.88475 3.70860
# Velocity P-wave (km/s) = 6.41521 7.10469 6.76874
#
# Compressibility (1/GPa) = 0.01810796
#
# Stress axis : x y z
#
# Youngs Moduli (GPa) = 40.31733 66.57075 148.65135
#
# Poissons Ratio (x) = 0.64748 0.38582
# Poissons Ratio (y) = 0.39214 0.28248
# Poissons Ratio (z) = 0.10464 0.12650
#
# Static dielectric constant tensor:
#      x y z
#    x 4.011800 0.000000 0.261510 
#    y 0.000000 4.116990 0.000000 
#    z 0.261510 0.000000 4.300580 
# 
# 
# High freq. dielectric constant tensor:
#      x y z
#    x 1.864480 0.000000 0.005820 
#    y 0.000000 1.879150 0.000000 
#    z 0.005820 0.000000 1.905420 
# 
# From -- ./inp_files/38062.got.cif
#   From: 2010.06.25/outbox.cif.g09.slc.cpg/sg15_20_cif.got.tgz:38062.got - 2010.06.28 07:06:18.
