data_PCOD8151741
_publ_section_title
;
Structure prediction by ZEFSAII (Michael W. Deem and Ramdas Pophale) SiO2 
 PCOD8151741
Probable space group: C 2/C
;
_chemical_formula_sum "Si O2"
_cell_formula_units_Z 32
_cell_length_a 10.880156
_cell_length_b 12.915312
_cell_length_c 8.974713
_cell_angle_alpha 90.000000
_cell_angle_beta 82.106606
_cell_angle_gamma 90.000000
_cell_volume 1249.183295
_symmetry_space_group_name_H-M "C 2/C"
_symmetry_group_IT_number 15
_symmetry_cell_setting 'monoclinic'
loop_
_space_group_symop_operation_xyz
x,y,z
-x,y,1/2-z
-x,-y,-z
x,-y,1/2+z
1/2+x,1/2+y,z
1/2-x,1/2+y,1/2-z
1/2-x,1/2-y,-z
1/2+x,1/2-y,1/2+z
loop_
_atom_site_type_symbol
_atom_site_label
_atom_site_fract_x
_atom_site_fract_y
_atom_site_fract_z
Si Si1 0.884549 0.739904 0.167132
Si Si2 0.630430 0.361013 0.759503
Si Si3 0.571071 0.080212 0.590656
Si Si4 0.338690 0.457152 0.054156
O O1 0.748790 0.714659 0.263708
O O2 0.896129 0.861250 0.135810
O O3 0.000000 0.702793 0.250000
O O4 0.893894 0.684242 0.005685
O O5 0.500000 0.299953 0.750000
O O6 0.658331 0.442171 0.623233
O O7 0.598687 0.433318 0.909952
O O8 0.500000 0.113122 0.750000
O O9 0.696200 0.026458 0.626556
O O10 0.500000 0.000000 0.500000
#
# Coordination Sequence:
#
# PCOD8151741 Si02
#       4
#     8   8   8   8
#     4  11  25  44  65  96 133 170 216 268 320 383
#     4  11  23  43  66  93 128 171 213 263 324 386
#     4  11  21  39  67  98 130 169 212 264 321 381
#     4  11  24  42  65  95 131 170 215 269 323 384
#
# _framework density 25.616736
#
# number of rings (size 3 to 8) (size 9 to 14) (size 15 to 20)
#    0.000    1.000    0.000    9.750    0.000    4.000 
#    0.000    3.750    0.000    0.000    0.000    0.000 
#    0.000    0.000    0.000    0.000    0.000    0.000 
#
# Total GULP energy -198387.753691 kJ/mol
# GULP energy per Si atom -12399.234606 kJ/mol
# Density = 2.555843 g / cm^3
# Si number density = 25.616736 Si / 1000 Ang^3
#
#
#
# Elastic Constant Matrix: (Units=GPa)
#
#
# Indices 1 2 3 4 5 6 
#
# 1 182.2652 21.6473 7.4071 0.0000 17.7582 0.0000
# 2 21.6473 89.4662 6.3246 0.0000 7.3692 0.0000
# 3 7.4071 6.3246 77.4124 0.0000 0.6534 0.0000
# 4 0.0000 0.0000 0.0000 31.7726 0.0000 4.3185
# 5 17.7582 7.3692 0.6534 0.0000 34.0050 0.0000
# 6 0.0000 0.0000 0.0000 4.3185 0.0000 32.6378
#
#
#
# Elastic Compliance Matrix: (Units=1/GPa)
#
#
# Indices 1 2 3 4 5 6 
#
# 1 0.005919 -0.001168 -0.000447 0.000000 -0.002829 0.000000
# 2 -0.001168 0.011675 -0.000826 0.000000 -0.001905 0.000000
# 3 -0.000447 -0.000826 0.013027 0.000000 0.000162 0.000000
# 4 0.000000 0.000000 0.000000 0.032050 0.000000 -0.004241
# 5 -0.002829 -0.001905 0.000162 0.000000 0.031295 0.000000
# 6 0.000000 0.000000 0.000000 -0.004241 0.000000 0.031200
#
#
# Mechanical properties :
#
#
# Convention : Reuss Voigt Hill
#
# Bulk Modulus (GPa) = 38.85068 46.65576 42.75322
# Shear Modulus (GPa) = 36.06796 40.60074 38.33435
#
# Velocity S-wave (km/s) = 3.75638 3.98544 3.87260
# Velocity P-wave (km/s) = 5.83206 6.27940 6.05986
#
# Compressibility (1/GPa) = 0.02573957
#
# Stress axis : x y z
#
# Youngs Moduli (GPa) = 168.94697 85.65185 76.76520
#
# Poissons Ratio (x) = 0.10000 0.03432
# Poissons Ratio (y) = 0.19725 0.06341
# Poissons Ratio (z) = 0.07553 0.07076
#
# Static dielectric constant tensor:
#      x y z
#    x 5.163680 0.000000 -0.128480 
#    y 0.000000 4.274760 0.000000 
#    z -0.128480 0.000000 4.835270 
# 
# 
# High freq. dielectric constant tensor:
#      x y z
#    x 2.053840 0.000000 -0.005020 
#    y 0.000000 2.012400 0.000000 
#    z -0.005020 0.000000 2.014930 
# 
# From -- ./inp_files/27596.got.cif
#   From: 2010.06.25/outbox.cif.g09.slc.cpg/sg15_14_cif.got.tgz:27596.got - 2010.06.28 07:06:18.
