data_PCOD8151265
_publ_section_title
;
Structure prediction by ZEFSAII (Michael W. Deem and Ramdas Pophale) SiO2 
 PCOD8151265
Probable space group: C 2/C
;
_chemical_formula_sum "Si O2"
_cell_formula_units_Z 48
_cell_length_a 15.734320
_cell_length_b 18.915010
_cell_length_c 13.019190
_cell_angle_alpha 90.000000
_cell_angle_beta 35.353464
_cell_angle_gamma 90.000000
_cell_volume 2241.977016
_symmetry_space_group_name_H-M "C 2/C"
_symmetry_group_IT_number 15
_symmetry_cell_setting 'monoclinic'
loop_
_space_group_symop_operation_xyz
x,y,z
-x,y,1/2-z
-x,-y,-z
x,-y,1/2+z
1/2+x,1/2+y,z
1/2-x,1/2+y,1/2-z
1/2-x,1/2-y,-z
1/2+x,1/2-y,1/2+z
loop_
_atom_site_type_symbol
_atom_site_label
_atom_site_fract_x
_atom_site_fract_y
_atom_site_fract_z
Si Si1 0.538252 0.778101 0.944917
Si Si2 0.653793 0.693226 0.652759
Si Si3 0.500000 0.014230 0.750000
Si Si4 0.636025 0.092585 0.958444
Si Si5 0.761209 0.398034 0.369984
Si Si6 0.500000 0.361980 0.750000
Si Si7 0.198642 0.766441 0.688503
O O1 0.635380 0.726065 0.782343
O O2 0.639785 0.797056 0.943926
O O3 0.489595 0.848249 0.933749
O O4 0.402600 0.728771 0.110886
O O5 0.500000 0.677353 0.750000
O O6 0.750000 0.750000 0.500000
O O7 0.741245 0.620289 0.582270
O O8 0.636605 0.060474 0.651794
O O9 0.555239 0.971342 0.595215
O O10 0.711260 0.073392 0.774122
O O11 0.588971 0.408280 0.576381
O O12 0.801497 0.315940 0.340393
O O13 0.629413 0.312961 0.667105
#
# Coordination Sequence:
#
# PCOD8151265 Si02
#       7
#     8   8   4   8   8   4   8
#     4  11  20  37  64  98 136 163 210 276 346 394
#     4  12  20  35  64  99 136 169 211 275 344 398
#     4  12  27  48  68  90 131 192 242 260 322 400
#     4  11  24  44  68  97 135 179 226 276 325 400
#     4  11  25  43  68  95 135 177 222 276 326 400
#     4  12  23  40  66 104 135 168 220 278 348 402
#     4  11  21  38  66 102 134 164 206 279 350 398
#
# _framework density 21.409676000000001
#
# number of rings (size 3 to 8) (size 9 to 14) (size 15 to 20)
#    0.000    0.667    6.667    2.500    4.667    0.000 
#    1.500    0.833    0.000    0.000    0.000    0.000 
#    0.000    0.000    0.000    0.000    0.000    0.000 
#
# Total GULP energy -297452.608645 kJ/mol
# GULP energy per Si atom -12393.858694 kJ/mol
# Density = 2.136095 g / cm^3
# Si number density = 21.409676 Si / 1000 Ang^3
#
#
#
# Elastic Constant Matrix: (Units=GPa)
#
#
# Indices 1 2 3 4 5 6 
#
# 1 127.7675 35.1240 28.9180 0.0016 -24.8313 -0.0017
# 2 35.1240 55.0193 26.9449 0.0031 -3.2442 -0.0028
# 3 28.9180 26.9449 135.0552 -0.0016 14.4638 -0.0002
# 4 0.0016 0.0031 -0.0016 4.9487 0.0001 6.2344
# 5 -24.8313 -3.2442 14.4638 0.0001 48.1820 0.0005
# 6 -0.0017 -0.0028 -0.0002 6.2344 0.0005 33.5963
#
#
#
# Elastic Compliance Matrix: (Units=1/GPa)
#
#
# Indices 1 2 3 4 5 6 
#
# 1 0.010948 -0.005757 -0.001817 -0.000001 0.005800 0.000000
# 2 -0.005757 0.023504 -0.003418 -0.000021 -0.000358 0.000005
# 3 -0.001817 -0.003418 0.008886 0.000008 -0.003834 -0.000002
# 4 -0.000001 -0.000021 0.000008 0.263729 -0.000004 -0.048940
# 5 0.005800 -0.000358 -0.003834 -0.000004 0.024870 0.000001
# 6 0.000000 0.000005 -0.000002 -0.048940 0.000001 0.038847
#
#
# Mechanical properties :
#
#
# Convention : Reuss Voigt Hill
#
# Bulk Modulus (GPa) = 46.83118 55.53507 51.18312
# Shear Modulus (GPa) = 12.50357 32.46907 22.48632
#
# Velocity S-wave (km/s) = 2.41926 3.89853 3.24433
# Velocity P-wave (km/s) = 5.45207 6.80149 6.16382
#
# Compressibility (1/GPa) = 0.02135330
#
# Stress axis : x y z
#
# Youngs Moduli (GPa) = 91.34282 42.54649 112.53813
#
# Poissons Ratio (x) = 0.24495 0.20444
# Poissons Ratio (y) = 0.52589 0.38466
# Poissons Ratio (z) = 0.16593 0.14543
#
# Static dielectric constant tensor:
#      x y z
#    x 4.291970 0.000100 -1.025860 
#    y 0.000100 3.538150 -0.000280 
#    z -1.025860 -0.000280 7.467780 
# 
# 
# High freq. dielectric constant tensor:
#      x y z
#    x 1.851460 0.000000 0.003750 
#    y 0.000000 1.795780 0.000000 
#    z 0.003750 0.000000 1.871140 
# 
# From -- ./inp_files/48748.got.cif
#   From: 2010.06.25/outbox.cif.g09.slc.cpg/sg15_25_cif.got.tgz:48748.got - 2010.06.28 07:06:18.
