data_PCOD8151689
_publ_section_title
;
Structure prediction by ZEFSAII (Michael W. Deem and Ramdas Pophale) SiO2 
 PCOD8151689
Probable space group: C 2/C
;
_chemical_formula_sum "Si O2"
_cell_formula_units_Z 52
_cell_length_a 8.447706
_cell_length_b 13.387526
_cell_length_c 25.162092
_cell_angle_alpha 90.000000
_cell_angle_beta 59.764208
_cell_angle_gamma 90.000000
_cell_volume 2458.553721
_symmetry_space_group_name_H-M "C 2/C"
_symmetry_group_IT_number 15
_symmetry_cell_setting 'monoclinic'
loop_
_space_group_symop_operation_xyz
x,y,z
-x,y,1/2-z
-x,-y,-z
x,-y,1/2+z
1/2+x,1/2+y,z
1/2-x,1/2+y,1/2-z
1/2-x,1/2-y,-z
1/2+x,1/2-y,1/2+z
loop_
_atom_site_type_symbol
_atom_site_label
_atom_site_fract_x
_atom_site_fract_y
_atom_site_fract_z
Si Si1 0.535229 0.345287 0.438597
Si Si2 0.000000 0.124994 0.750000
Si Si3 0.204595 0.471893 0.838510
Si Si4 0.147477 0.042266 0.072049
Si Si5 0.386401 0.707716 0.072061
Si Si6 0.529810 0.778120 0.838513
Si Si7 0.398944 0.095306 0.938584
O O1 0.437857 0.434432 0.423984
O O2 0.396339 0.304292 0.506741
O O3 0.581322 0.261331 0.388124
O O4 0.723411 0.374976 0.434378
O O5 0.937330 0.195075 0.711904
O O6 0.823049 0.054912 0.788087
O O7 0.313963 0.442466 0.872800
O O8 0.162570 0.375002 0.808269
O O9 0.004253 0.511377 0.888091
O O10 0.003183 0.124995 0.081232
O O11 0.333445 0.054263 0.006717
O O12 0.459849 0.815556 0.076010
O O13 0.182421 0.692454 0.127230
#
# Coordination Sequence:
#
# PCOD8151689 Si02
#       7
#     8   4   8   8   8   8   8
#     4  11  21  39  65 108 139 175 218 277 349 420
#     4  12  28  52  66  98 136 184 246 292 332 422
#     4  12  25  47  70  94 134 180 231 284 348 401
#     4  11  21  38  68 104 144 172 221 278 347 422
#     4  11  21  38  68 104 144 172 221 278 347 422
#     4  12  25  47  70  94 134 180 231 284 348 401
#     4  11  21  39  65 108 139 175 218 277 349 420
#
# _framework density 21.150646999999999
#
# number of rings (size 3 to 8) (size 9 to 14) (size 15 to 20)
#    0.000    0.615    3.077    8.308    0.000    1.231 
#    5.538    0.000    0.000    0.000    0.000    0.000 
#    0.000    0.000    0.000    0.000    0.000    0.000 
#
# Total GULP energy -322447.826358 kJ/mol
# GULP energy per Si atom -12401.839475 kJ/mol
# Density = 2.110251 g / cm^3
# Si number density = 21.150647 Si / 1000 Ang^3
#
#
#
# Elastic Constant Matrix: (Units=GPa)
#
#
# Indices 1 2 3 4 5 6 
#
# 1 98.4969 43.6746 44.0843 0.0000 -0.8131 0.0000
# 2 43.6746 130.9714 46.7536 0.0000 -0.4931 0.0000
# 3 44.0843 46.7536 108.7479 0.0000 -0.8188 0.0000
# 4 0.0000 0.0000 0.0000 46.0550 -0.0002 0.0013
# 5 -0.8131 -0.4931 -0.8188 -0.0002 -378.6024 0.0001
# 6 0.0000 0.0000 0.0000 0.0013 0.0001 51.6968
#
#
#
# Elastic Compliance Matrix: (Units=1/GPa)
#
#
# Indices 1 2 3 4 5 6 
#
# 1 0.013313 -0.002969 -0.004121 0.000000 -0.000016 0.000000
# 2 -0.002969 0.009681 -0.002959 0.000000 0.000000 0.000000
# 3 -0.004121 -0.002959 0.012138 0.000000 -0.000014 0.000000
# 4 0.000000 0.000000 0.000000 0.021713 0.000000 -0.000001
# 5 -0.000016 0.000000 -0.000014 0.000000 -0.002641 0.000000
# 6 0.000000 0.000000 0.000000 -0.000001 0.000000 0.019344
#
#
# Mechanical properties :
#
#
# Convention : Reuss Voigt Hill
#
# Bulk Modulus (GPa) = 66.50616 67.47125 66.98871
# Shear Modulus (GPa) = 50.68091 -42.58988 4.04552
#
# Velocity S-wave (km/s) = 4.90040 -4.49223 1.38451
# Velocity P-wave (km/s) = 7.97062 2.25004 5.85634
#
# Compressibility (1/GPa) = 0.01503620
#
# Stress axis : x y z
#
# Youngs Moduli (GPa) = 75.11415 103.29060 82.38555
#
# Poissons Ratio (x) = 0.30662 0.33949
# Poissons Ratio (y) = 0.22298 0.24377
# Poissons Ratio (z) = 0.30953 0.30563
#
# Static dielectric constant tensor:
#      x y z
#    x 3.766180 0.000000 -0.000160 
#    y 0.000000 4.002000 0.000000 
#    z -0.000160 0.000000 3.828980 
# 
# 
# High freq. dielectric constant tensor:
#      x y z
#    x 1.842100 0.000000 -0.000010 
#    y 0.000000 1.848990 0.000000 
#    z -0.000010 0.000000 1.813580 
# 
# From -- ./inp_files/287887.got.cif
#   From: 2010.06.25/outbox.cif.g09.slc.cpg/sg15_144_cif.got.tgz:287887.got - 2010.06.28 07:06:18.
