data_PCOD8151733
_publ_section_title
;
Structure prediction by ZEFSAII (Michael W. Deem and Ramdas Pophale) SiO2 
 PCOD8151733
Probable space group: C 2/C
;
_chemical_formula_sum "Si O2"
_cell_formula_units_Z 40
_cell_length_a 18.570961
_cell_length_b 8.774302
_cell_length_c 11.582927
_cell_angle_alpha 90.000000
_cell_angle_beta 107.750580
_cell_angle_gamma 90.000000
_cell_volume 1797.551490
_symmetry_space_group_name_H-M "C 2/C"
_symmetry_group_IT_number 15
_symmetry_cell_setting 'monoclinic'
loop_
_space_group_symop_operation_xyz
x,y,z
-x,y,1/2-z
-x,-y,-z
x,-y,1/2+z
1/2+x,1/2+y,z
1/2-x,1/2+y,1/2-z
1/2-x,1/2-y,-z
1/2+x,1/2-y,1/2+z
loop_
_atom_site_type_symbol
_atom_site_label
_atom_site_fract_x
_atom_site_fract_y
_atom_site_fract_z
Si Si1 0.672861 0.642235 0.279479
Si Si2 0.920564 0.324151 0.649754
Si Si3 0.459989 0.652208 0.453892
Si Si4 0.068707 0.665207 0.872777
Si Si5 0.274943 0.694070 0.640847
O O1 0.594277 0.607608 0.177758
O O2 0.644569 0.740146 0.376532
O O3 0.716977 0.490551 0.343718
O O4 0.721726 0.747301 0.217506
O O5 0.911141 0.212591 0.536410
O O6 0.904413 0.493055 0.595175
O O7 0.855801 0.272052 0.706870
O O8 0.000000 0.305773 0.750000
O O9 0.500000 0.500000 0.500000
O O10 0.528623 0.771999 0.467739
O O11 0.000000 0.671730 0.750000
O O12 0.250000 0.750000 0.500000
#
# Coordination Sequence:
#
# PCOD8151733 Si02
#       5
#     8   8   8   8   8
#     4  11  24  45  66  96 141 180 224 287 343 409
#     4  11  22  42  68  99 136 180 227 281 338 409
#     4  11  21  39  67 100 135 175 232 282 341 405
#     4   9  21  39  65  96 132 175 224 278 336 404
#     4  12  25  46  70 100 141 177 232 284 345 412
#
# _framework density 22.252490000000002
#
# number of rings (size 3 to 8) (size 9 to 14) (size 15 to 20)
#    0.000    1.200    2.000    4.200    0.000    1.600 
#    7.200    2.000    0.000    0.000    0.000    0.000 
#    0.000    0.000    0.000    0.000    0.000    0.000 
#
# Total GULP energy -247852.279470 kJ/mol
# GULP energy per Si atom -12392.613973 kJ/mol
# Density = 2.220184 g / cm^3
# Si number density = 22.252490 Si / 1000 Ang^3
#
#
#
# Elastic Constant Matrix: (Units=GPa)
#
#
# Indices 1 2 3 4 5 6 
#
# 1 123.4502 36.4815 14.2335 0.0000 -14.0814 0.0000
# 2 36.4815 148.6418 18.0866 0.0000 3.2582 0.0000
# 3 14.2335 18.0866 51.2291 0.0000 1.5267 0.0000
# 4 0.0000 0.0000 0.0000 34.2835 0.0000 -5.2483
# 5 -14.0814 3.2582 1.5267 0.0000 27.4418 0.0000
# 6 0.0000 0.0000 0.0000 -5.2483 0.0000 44.7913
#
#
#
# Elastic Compliance Matrix: (Units=1/GPa)
#
#
# Indices 1 2 3 4 5 6 
#
# 1 0.009598 -0.002224 -0.002040 0.000000 0.005302 0.000000
# 2 -0.002224 0.007558 -0.001993 0.000000 -0.001927 0.000000
# 3 -0.002040 -0.001993 0.020849 0.000000 -0.001970 0.000000
# 4 0.000000 0.000000 0.000000 0.029701 0.000000 0.003480
# 5 0.005302 -0.001927 -0.001970 0.000000 0.039500 0.000000
# 6 0.000000 0.000000 0.000000 0.003480 0.000000 0.022734
#
#
# Mechanical properties :
#
#
# Convention : Reuss Voigt Hill
#
# Bulk Modulus (GPa) = 39.22767 51.21383 45.22075
# Shear Modulus (GPa) = 33.12363 38.27129 35.69746
#
# Velocity S-wave (km/s) = 3.86234 4.15163 4.00959
# Velocity P-wave (km/s) = 6.12837 6.78573 6.46541
#
# Compressibility (1/GPa) = 0.02549221
#
# Stress axis : x y z
#
# Youngs Moduli (GPa) = 104.19374 132.30843 47.96346
#
# Poissons Ratio (x) = 0.29420 0.09782
# Poissons Ratio (y) = 0.23168 0.09560
# Poissons Ratio (z) = 0.21251 0.26371
#
# Static dielectric constant tensor:
#      x y z
#    x 4.015550 0.000000 -0.242270 
#    y 0.000000 4.164610 0.000000 
#    z -0.242270 0.000000 3.649810 
# 
# 
# High freq. dielectric constant tensor:
#      x y z
#    x 1.898490 0.000000 -0.010840 
#    y 0.000000 1.886630 0.000000 
#    z -0.010840 0.000000 1.853580 
# 
# From -- ./inp_files/102861.got.cif
#   From: 2010.06.25/outbox.cif.g09.slc.cpg/sg15_52_cif.got.tgz:102861.got - 2010.06.28 07:06:18.
