data_PCOD8151512
_publ_section_title
;
Structure prediction by ZEFSAII (Michael W. Deem and Ramdas Pophale) SiO2 
 PCOD8151512
Probable space group: C 2/C
;
_chemical_formula_sum "Si O2"
_cell_formula_units_Z 64
_cell_length_a 21.475118
_cell_length_b 24.373107
_cell_length_c 8.659214
_cell_angle_alpha 90.000000
_cell_angle_beta 133.195217
_cell_angle_gamma 90.000000
_cell_volume 3304.211262
_symmetry_space_group_name_H-M "C 2/C"
_symmetry_group_IT_number 15
_symmetry_cell_setting 'monoclinic'
loop_
_space_group_symop_operation_xyz
x,y,z
-x,y,1/2-z
-x,-y,-z
x,-y,1/2+z
1/2+x,1/2+y,z
1/2-x,1/2+y,1/2-z
1/2-x,1/2-y,-z
1/2+x,1/2-y,1/2+z
loop_
_atom_site_type_symbol
_atom_site_label
_atom_site_fract_x
_atom_site_fract_y
_atom_site_fract_z
Si Si1 0.518974 0.058199 0.105602
Si Si2 0.660319 0.558184 0.598226
Si Si3 0.926709 0.659007 0.999728
Si Si4 0.869311 0.947050 0.799096
Si Si5 0.692656 0.891144 0.971145
Si Si6 0.938844 0.777993 0.001760
Si Si7 0.533397 0.376162 0.051878
Si Si8 0.827255 0.138322 0.460984
O O1 0.500000 0.048252 0.250000
O O2 0.454372 0.107348 0.935887
O O3 0.617578 0.076628 0.252844
O O4 0.500000 0.000000 0.000000
O O5 0.616080 0.505815 0.599754
O O6 0.677196 0.549407 0.446107
O O7 0.596566 0.610681 0.515217
O O8 0.748254 0.565195 0.840554
O O9 0.839910 0.649170 0.948649
O O10 0.919056 0.717374 0.896432
O O11 0.000000 0.662584 0.250000
O O12 0.809182 0.909688 0.806378
O O13 0.963034 0.922810 0.940925
O O14 0.745614 0.855563 0.934663
O O15 0.849336 0.805414 0.906723
O O16 0.000000 0.769054 0.250000
O O17 0.987150 0.816556 0.957884
O O18 0.587838 0.378724 0.301541
#
# Coordination Sequence:
#
# PCOD8151512 Si02
#       8
#     8   8   8   8   8   8   8   8
#     4   9  19  35  56  76  99 128 164 209 255 304
#     4  11  21  31  48  72 102 138 172 210 251 291
#     4   8  16  31  53  76  98 124 161 210 256 299
#     4  11  21  32  46  70 104 141 173 203 245 297
#     4   9  19  34  49  77 103 125 167 209 255 307
#     4   8  14  28  50  75 100 129 164 203 248 294
#     4   9  18  32  49  71 100 135 173 205 239 297
#     4   9  18  31  50  74 103 133 165 208 249 292
#
# _framework density 19.369221
#
# number of rings (size 3 to 8) (size 9 to 14) (size 15 to 20)
#    0.000    3.000    0.000    3.375    0.000    5.500 
#    0.000    1.250    0.000    6.000    0.000    7.000 
#    0.000    0.000    0.000    0.000    0.000    0.000 
#
# Total GULP energy -396444.015754 kJ/mol
# GULP energy per Si atom -12388.875492 kJ/mol
# Density = 1.932514 g / cm^3
# Si number density = 19.369221 Si / 1000 Ang^3
#
#
#
# Elastic Constant Matrix: (Units=GPa)
#
#
# Indices 1 2 3 4 5 6 
#
# 1 103.0871 57.4225 30.9139 0.0000 12.7077 0.0000
# 2 57.4225 165.0879 31.2862 0.0000 0.8259 0.0000
# 3 30.9139 31.2862 34.7524 0.0000 1.1908 0.0000
# 4 0.0000 0.0000 0.0000 -3.3571 0.0000 -7.9962
# 5 12.7077 0.8259 1.1908 0.0000 27.8938 0.0000
# 6 0.0000 0.0000 0.0000 -7.9962 0.0000 15.2318
#
#
#
# Elastic Compliance Matrix: (Units=1/GPa)
#
#
# Indices 1 2 3 4 5 6 
#
# 1 0.015558 -0.003374 -0.010578 0.000000 -0.006536 0.000000
# 2 -0.003374 0.008035 -0.004283 0.000000 0.001482 0.000000
# 3 -0.010578 -0.004283 0.041932 0.000000 0.003156 0.000000
# 4 0.000000 0.000000 0.000000 -0.132365 0.000000 -0.069487
# 5 -0.006536 0.001482 0.003156 0.000000 0.038649 0.000000
# 6 0.000000 0.000000 0.000000 -0.069487 0.000000 0.029174
#
#
# Mechanical properties :
#
#
# Convention : Reuss Voigt Hill
#
# Bulk Modulus (GPa) = 34.41733 60.24142 47.32937
# Shear Modulus (GPa) = 106.06981 20.17401 63.12191
#
# Velocity S-wave (km/s) = 7.40817 3.23081 5.71485
# Velocity P-wave (km/s) = 9.53846 6.71466 8.24830
#
# Compressibility (1/GPa) = 0.02905513
#
# Stress axis : x y z
#
# Youngs Moduli (GPa) = 64.27610 124.45058 23.84789
#
# Poissons Ratio (x) = 0.41992 0.25226
# Poissons Ratio (y) = 0.21688 0.10215
# Poissons Ratio (z) = 0.67991 0.53305
#
# Static dielectric constant tensor:
#      x y z
#    x 4.316640 0.000000 0.190040 
#    y 0.000000 4.862870 0.000000 
#    z 0.190040 0.000000 3.261460 
# 
# 
# High freq. dielectric constant tensor:
#      x y z
#    x 1.749850 0.000000 0.011550 
#    y 0.000000 1.754890 0.000000 
#    z 0.011550 0.000000 1.711120 
# 
# From -- ./inp_files/58637.got.cif
#   From: 2010.06.25/outbox.cif.g09.slc.cpg/sg15_30_cif.got.tgz:58637.got - 2010.06.28 07:06:18.
