data_PCOD8151144
_publ_section_title
;
Structure prediction by ZEFSAII (Michael W. Deem and Ramdas Pophale) SiO2 
 PCOD8151144
Probable space group: C 2/C
;
_chemical_formula_sum "Si O2"
_cell_formula_units_Z 56
_cell_length_a 11.317774
_cell_length_b 15.091231
_cell_length_c 14.022964
_cell_angle_alpha 90.000000
_cell_angle_beta 95.516241
_cell_angle_gamma 90.000000
_cell_volume 2384.018438
_symmetry_space_group_name_H-M "C 2/C"
_symmetry_group_IT_number 15
_symmetry_cell_setting 'monoclinic'
loop_
_space_group_symop_operation_xyz
x,y,z
-x,y,1/2-z
-x,-y,-z
x,-y,1/2+z
1/2+x,1/2+y,z
1/2-x,1/2+y,1/2-z
1/2-x,1/2-y,-z
1/2+x,1/2-y,1/2+z
loop_
_atom_site_type_symbol
_atom_site_label
_atom_site_fract_x
_atom_site_fract_y
_atom_site_fract_z
Si Si1 0.711361 0.491496 0.051147
Si Si2 0.957436 0.478614 0.639180
Si Si3 0.705114 0.027929 0.638488
Si Si4 0.946419 0.279743 0.640936
Si Si5 0.729668 0.214963 0.716966
Si Si6 0.128955 0.093888 0.219062
Si Si7 0.836812 0.202005 0.933105
O O1 0.842629 0.463805 0.101934
O O2 0.635588 0.554335 0.113860
O O3 0.643542 0.398601 0.032664
O O4 0.714555 0.539672 0.948850
O O5 0.910452 0.379985 0.616446
O O6 0.000000 0.497095 0.750000
O O7 0.077828 0.493690 0.588031
O O8 0.672567 0.119894 0.689195
O O9 0.766217 0.954319 0.712202
O O10 0.824370 0.225464 0.638147
O O11 0.000000 0.273542 0.750000
O O12 0.032104 0.245697 0.562781
O O13 0.641915 0.299523 0.714142
O O14 0.786276 0.208075 0.824169
O O15 0.000000 0.070019 0.250000
O O16 0.750000 0.250000 0.000000
#
# Coordination Sequence:
#
# PCOD8151144 Si02
#       7
#     8   8   8   8   8   8   8
#     4  12  25  44  71 106 144 183 237 293 361 428
#     4  11  19  43  72  98 136 181 235 298 347 419
#     4  12  26  45  73 104 141 190 236 291 363 425
#     4   9  19  37  69  93 135 187 232 276 344 426
#     4  11  23  46  67  98 139 192 233 292 360 414
#     4  12  27  49  70 102 148 188 238 301 362 421
#     4  11  22  39  69 107 139 181 244 290 345 422
#
# _framework density 23.489751999999999
#
# number of rings (size 3 to 8) (size 9 to 14) (size 15 to 20)
#    0.000    0.857    4.286    3.857    2.000    2.857 
#    2.571    0.000    0.000    0.000    0.000    0.000 
#    0.000    0.000    0.000    0.000    0.000    0.000 
#
# Total GULP energy -347063.330402 kJ/mol
# GULP energy per Si atom -12395.118943 kJ/mol
# Density = 2.343629 g / cm^3
# Si number density = 23.489752 Si / 1000 Ang^3
#
#
#
# Elastic Constant Matrix: (Units=GPa)
#
#
# Indices 1 2 3 4 5 6 
#
# 1 89.7333 16.2986 12.2892 0.0000 -27.6045 0.0000
# 2 16.2986 124.2073 32.0766 0.0000 -8.6067 0.0000
# 3 12.2892 32.0766 87.0397 0.0000 -34.5016 0.0000
# 4 0.0000 0.0000 0.0000 22.9239 0.0000 -1.8461
# 5 -27.6045 -8.6067 -34.5016 0.0000 39.8291 0.0000
# 6 0.0000 0.0000 0.0000 -1.8461 0.0000 29.2489
#
#
#
# Elastic Compliance Matrix: (Units=1/GPa)
#
#
# Indices 1 2 3 4 5 6 
#
# 1 0.015121 -0.002076 0.003970 0.000000 0.013470 0.000000
# 2 -0.002076 0.009234 -0.004400 0.000000 -0.003255 0.000000
# 3 0.003970 -0.004400 0.020200 0.000000 0.019298 0.000000
# 4 0.000000 0.000000 0.000000 0.043846 0.000000 0.002767
# 5 0.013470 -0.003255 0.019298 0.000000 0.050457 0.000000
# 6 0.000000 0.000000 0.000000 0.002767 0.000000 0.034364
#
#
# Mechanical properties :
#
#
# Convention : Reuss Voigt Hill
#
# Bulk Modulus (GPa) = 25.28957 46.92325 36.10641
# Shear Modulus (GPa) = 26.12113 34.42142 30.27127
#
# Velocity S-wave (km/s) = 3.33832 3.83218 3.59374
# Velocity P-wave (km/s) = 5.06446 6.29287 5.71179
#
# Compressibility (1/GPa) = 0.03954199
#
# Stress axis : x y z
#
# Youngs Moduli (GPa) = 66.13145 108.29208 49.50544
#
# Poissons Ratio (x) = 0.22481 -0.19651
# Poissons Ratio (y) = 0.13729 0.21784
# Poissons Ratio (z) = -0.26251 0.47651
#
# Static dielectric constant tensor:
#      x y z
#    x 4.386530 0.000000 -0.382740 
#    y 0.000000 4.322330 0.000000 
#    z -0.382740 0.000000 3.921720 
# 
# 
# High freq. dielectric constant tensor:
#      x y z
#    x 1.926330 0.000000 -0.026670 
#    y 0.000000 1.930890 0.000000 
#    z -0.026670 0.000000 1.928220 
# 
# From -- ./inp_files/144248.got.cif
#   From: 2010.06.25/outbox.cif.g09.slc.cpg/sg15_73_cif.got.tgz:144248.got - 2010.06.28 07:06:18.
