data_PCOD8151500
_publ_section_title
;
Structure prediction by ZEFSAII (Michael W. Deem and Ramdas Pophale) SiO2 
 PCOD8151500
Probable space group: C 2/C
;
_chemical_formula_sum "Si O2"
_cell_formula_units_Z 44
_cell_length_a 17.100553
_cell_length_b 8.520798
_cell_length_c 14.588616
_cell_angle_alpha 90.000000
_cell_angle_beta 61.844094
_cell_angle_gamma 90.000000
_cell_volume 1874.170226
_symmetry_space_group_name_H-M "C 2/C"
_symmetry_group_IT_number 15
_symmetry_cell_setting 'monoclinic'
loop_
_space_group_symop_operation_xyz
x,y,z
-x,y,1/2-z
-x,-y,-z
x,-y,1/2+z
1/2+x,1/2+y,z
1/2-x,1/2+y,1/2-z
1/2-x,1/2-y,-z
1/2+x,1/2-y,1/2+z
loop_
_atom_site_type_symbol
_atom_site_label
_atom_site_fract_x
_atom_site_fract_y
_atom_site_fract_z
Si Si1 0.873287 0.644830 0.175508
Si Si2 0.598507 0.361694 0.661491
Si Si3 0.000000 0.589456 0.250000
Si Si4 0.272345 0.125640 0.812394
Si Si5 0.083964 0.402783 0.038518
Si Si6 0.758619 0.935345 0.488958
O O1 0.812656 0.792674 0.185146
O O2 0.815593 0.487263 0.213445
O O3 0.919610 0.687544 0.249188
O O4 0.946102 0.612916 0.052385
O O5 0.500000 0.402269 0.750000
O O6 0.651747 0.250087 0.702327
O O7 0.596878 0.275318 0.564296
O O8 0.651045 0.523711 0.615534
O O9 0.022968 0.482776 0.149243
O O10 0.240601 0.014912 0.912130
O O11 0.177253 0.492026 0.977760
O O12 0.750000 0.750000 0.500000
#
# Coordination Sequence:
#
# PCOD8151500 Si02
#       6
#     8   8   4   8   8   8
#     4  12  24  42  74 108 152 199 255 309 382 444
#     4  11  20  44  75 108 147 188 250 320 377 448
#     4  12  24  42  72 116 146 194 262 312 368 460
#     4  11  24  43  72 107 149 203 252 306 383 454
#     4  11  21  43  72 104 147 198 249 310 382 444
#     4  11  23  44  72 106 148 198 252 316 382 453
#
# _framework density 23.477056999999999
#
# number of rings (size 3 to 8) (size 9 to 14) (size 15 to 20)
#    0.000    0.727    8.182    1.636    2.545    0.000 
#    1.636    0.000    0.000    2.182    0.000    0.000 
#    0.000    0.000    0.000    0.000    0.000    0.000 
#
# Total GULP energy -272601.651500 kJ/mol
# GULP energy per Si atom -12390.984159 kJ/mol
# Density = 2.342362 g / cm^3
# Si number density = 23.477057 Si / 1000 Ang^3
#
#
#
# Elastic Constant Matrix: (Units=GPa)
#
#
# Indices 1 2 3 4 5 6 
#
# 1 118.5414 53.3699 64.4337 0.0000 9.0260 0.0000
# 2 53.3699 135.6981 55.0784 0.0000 -9.6140 0.0000
# 3 64.4337 55.0784 114.4069 0.0000 3.2367 0.0000
# 4 0.0000 0.0000 0.0000 19.2351 0.0000 0.5142
# 5 9.0260 -9.6140 3.2367 0.0000 55.1933 0.0000
# 6 0.0000 0.0000 0.0000 0.5142 0.0000 15.4367
#
#
#
# Elastic Compliance Matrix: (Units=1/GPa)
#
#
# Indices 1 2 3 4 5 6 
#
# 1 0.013156 -0.002930 -0.005934 0.000000 -0.002314 0.000000
# 2 -0.002930 0.010006 -0.003235 0.000000 0.002412 0.000000
# 3 -0.005934 -0.003235 0.013651 0.000000 -0.000394 0.000000
# 4 0.000000 0.000000 0.000000 0.052035 0.000000 -0.001733
# 5 -0.002314 0.002412 -0.000394 0.000000 0.018940 0.000000
# 6 0.000000 0.000000 0.000000 -0.001733 0.000000 0.064839
#
#
# Mechanical properties :
#
#
# Convention : Reuss Voigt Hill
#
# Bulk Modulus (GPa) = 79.26531 79.37896 79.32213
# Shear Modulus (GPa) = 24.87205 31.02395 27.94800
#
# Velocity S-wave (km/s) = 3.25840 3.63913 3.45402
# Velocity P-wave (km/s) = 6.92766 7.17930 7.05460
#
# Compressibility (1/GPa) = 0.01261586
#
# Stress axis : x y z
#
# Youngs Moduli (GPa) = 76.00826 99.94429 73.25400
#
# Poissons Ratio (x) = 0.29283 0.43467
# Poissons Ratio (y) = 0.22270 0.23698
# Poissons Ratio (z) = 0.45101 0.32332
#
# Static dielectric constant tensor:
#      x y z
#    x 4.361290 0.000000 0.094060 
#    y 0.000000 4.095510 0.000000 
#    z 0.094060 0.000000 4.460260 
# 
# 
# High freq. dielectric constant tensor:
#      x y z
#    x 1.924770 0.000000 0.002560 
#    y 0.000000 1.913250 0.000000 
#    z 0.002560 0.000000 1.950270 
# 
# From -- ./inp_files/159669.got.cif
#   From: 2010.06.25/outbox.cif.g09.slc.cpg/sg15_80_cif.got.tgz:159669.got - 2010.06.28 07:06:18.
