data_PCOD8151659
_publ_section_title
;
Structure prediction by ZEFSAII (Michael W. Deem and Ramdas Pophale) SiO2 
 PCOD8151659
Probable space group: C 2/C
;
_chemical_formula_sum "Si O2"
_cell_formula_units_Z 60
_cell_length_a 13.030814
_cell_length_b 13.389345
_cell_length_c 19.515043
_cell_angle_alpha 90.000000
_cell_angle_beta 68.211618
_cell_angle_gamma 90.000000
_cell_volume 3161.628817
_symmetry_space_group_name_H-M "C 2/C"
_symmetry_group_IT_number 15
_symmetry_cell_setting 'monoclinic'
loop_
_space_group_symop_operation_xyz
x,y,z
-x,y,1/2-z
-x,-y,-z
x,-y,1/2+z
1/2+x,1/2+y,z
1/2-x,1/2+y,1/2-z
1/2-x,1/2-y,-z
1/2+x,1/2-y,1/2+z
loop_
_atom_site_type_symbol
_atom_site_label
_atom_site_fract_x
_atom_site_fract_y
_atom_site_fract_z
Si Si1 0.900171 0.302197 0.584957
Si Si2 0.804059 0.770702 0.698952
Si Si3 0.147188 0.130829 0.802771
Si Si4 0.681953 0.974748 0.702748
Si Si5 0.352761 0.679535 0.335128
Si Si6 0.017944 0.300400 0.083845
Si Si7 0.500000 0.508650 0.250000
Si Si8 0.500753 0.019475 0.137289
O O1 0.913515 0.206709 0.630929
O O2 0.774691 0.342088 0.615638
O O3 0.935435 0.268161 0.500938
O O4 0.981480 0.389157 0.590584
O O5 0.703492 0.691947 0.726145
O O6 0.864197 0.767845 0.758231
O O7 0.893170 0.740954 0.619950
O O8 0.758557 0.879749 0.695443
O O9 0.239030 0.070654 0.823488
O O10 0.059057 0.057534 0.792108
O O11 0.603109 0.992512 0.786956
O O12 0.612685 0.958885 0.651144
O O13 0.404325 0.753183 0.377779
O O14 0.415215 0.574036 0.315931
O O15 0.017296 0.419619 0.089673
#
# Coordination Sequence:
#
# PCOD8151659 Si02
#       8
#     8   8   8   8   8   8   4   8
#     4  11  25  41  58  93 133 160 202 246 320 373
#     4  11  21  38  62  87 123 150 214 253 302 360
#     4  11  22  39  63  92 119 163 201 261 308 365
#     4  11  21  38  63  93 115 157 213 261 299 357
#     4  11  21  41  63  93 118 159 207 261 293 366
#     4  12  23  40  64  90 125 167 200 255 309 372
#     4  12  22  38  70  92 118 152 220 256 308 362
#     4  11  22  37  63  90 122 160 207 256 305 359
#
# _framework density 18.97756
#
# number of rings (size 3 to 8) (size 9 to 14) (size 15 to 20)
#    0.000    0.800    6.667    2.400    3.733    0.000 
#    0.000    4.667    0.000    0.000    0.000    0.000 
#    0.000    0.000    0.000    0.000    0.000    0.000 
#
# Total GULP energy -372139.290162 kJ/mol
# GULP energy per Si atom -12404.643005 kJ/mol
# Density = 1.893437 g / cm^3
# Si number density = 18.977560 Si / 1000 Ang^3
#
#
#
# Elastic Constant Matrix: (Units=GPa)
#
#
# Indices 1 2 3 4 5 6 
#
# 1 76.2147 50.2619 46.4507 0.0000 3.9116 0.0000
# 2 50.2619 129.0688 41.4057 0.0000 2.7766 0.0000
# 3 46.4507 41.4057 102.6477 0.0000 -13.3483 0.0000
# 4 0.0000 0.0000 0.0000 18.6222 0.0000 1.5441
# 5 3.9116 2.7766 -13.3483 0.0000 19.2256 0.0000
# 6 0.0000 0.0000 0.0000 1.5441 0.0000 39.6757
#
#
#
# Elastic Compliance Matrix: (Units=1/GPa)
#
#
# Indices 1 2 3 4 5 6 
#
# 1 0.023323 -0.005775 -0.009600 0.000000 -0.010577 0.000000
# 2 -0.005775 0.010642 -0.001898 0.000000 -0.001679 0.000000
# 3 -0.009600 -0.001898 0.016644 0.000000 0.013783 0.000000
# 4 0.000000 0.000000 0.000000 0.053873 0.000000 -0.002097
# 5 -0.010577 -0.001679 0.013783 0.000000 0.063978 0.000000
# 6 0.000000 0.000000 0.000000 -0.002097 0.000000 0.025286
#
#
# Mechanical properties :
#
#
# Convention : Reuss Voigt Hill
#
# Bulk Modulus (GPa) = 62.25391 64.90755 63.58073
# Shear Modulus (GPa) = 21.39983 26.82556 24.11269
#
# Velocity S-wave (km/s) = 3.36168 3.76379 3.56840
# Velocity P-wave (km/s) = 6.92409 7.29141 7.11012
#
# Compressibility (1/GPa) = 0.01606325
#
# Stress axis : x y z
#
# Youngs Moduli (GPa) = 42.87547 93.97029 60.08111
#
# Poissons Ratio (x) = 0.54270 0.57679
# Poissons Ratio (y) = 0.24762 0.11401
# Poissons Ratio (z) = 0.41161 0.17831
#
# Static dielectric constant tensor:
#      x y z
#    x 3.647480 0.000000 -0.070630 
#    y 0.000000 3.619500 0.000000 
#    z -0.070630 0.000000 3.296450 
# 
# 
# High freq. dielectric constant tensor:
#      x y z
#    x 1.747020 0.000000 -0.001920 
#    y 0.000000 1.752580 0.000000 
#    z -0.001920 0.000000 1.712720 
# 
# From -- ./inp_files/204420.got.cif
#   From: 2010.06.25/outbox.cif.g09.slc.cpg/sg15_103_cif.got.tgz:204420.got - 2010.06.28 07:06:18.
