data_PCOD8151145
_publ_section_title
;
Structure prediction by ZEFSAII (Michael W. Deem and Ramdas Pophale) SiO2 
 PCOD8151145
Probable space group: C 2/C
;
_chemical_formula_sum "Si O2"
_cell_formula_units_Z 60
_cell_length_a 23.089581
_cell_length_b 16.139440
_cell_length_c 11.131762
_cell_angle_alpha 90.000000
_cell_angle_beta 43.333063
_cell_angle_gamma 90.000000
_cell_volume 2846.710607
_symmetry_space_group_name_H-M "C 2/C"
_symmetry_group_IT_number 15
_symmetry_cell_setting 'monoclinic'
loop_
_space_group_symop_operation_xyz
x,y,z
-x,y,1/2-z
-x,-y,-z
x,-y,1/2+z
1/2+x,1/2+y,z
1/2-x,1/2+y,1/2-z
1/2-x,1/2-y,-z
1/2+x,1/2-y,1/2+z
loop_
_atom_site_type_symbol
_atom_site_label
_atom_site_fract_x
_atom_site_fract_y
_atom_site_fract_z
Si Si1 0.133274 0.043428 0.128268
Si Si2 0.174325 0.302413 0.176381
Si Si3 0.900277 0.432904 0.393690
Si Si4 0.298799 0.838024 0.731152
Si Si5 0.617613 0.651719 0.379898
Si Si6 0.500000 0.413456 0.250000
Si Si7 0.199313 0.150092 0.829304
Si Si8 0.223332 0.563388 0.007992
O O1 0.110486 0.081408 0.290657
O O2 0.128614 0.108574 0.023644
O O3 0.070327 0.968878 0.204582
O O4 0.228187 0.007446 0.989742
O O5 0.126466 0.362983 0.160488
O O6 0.105243 0.239065 0.331934
O O7 0.212980 0.351292 0.230276
O O8 0.250000 0.250000 0.000000
O O9 0.865678 0.401928 0.573645
O O10 0.861136 0.522197 0.418647
O O11 0.000000 0.443853 0.250000
O O12 0.207469 0.854338 0.810734
O O13 0.328187 0.743260 0.665743
O O14 0.298571 0.858675 0.873383
O O15 0.541256 0.644965 0.587885
O O16 0.213141 0.095176 0.690776
#
# Coordination Sequence:
#
# PCOD8151145 Si02
#       8
#     8   8   8   8   8   4   8   8
#     4  12  21  41  66  94 136 176 222 270 334 419
#     4  11  19  45  73  90 129 179 226 276 332 405
#     4  12  25  43  70 102 129 175 242 286 331 410
#     4  11  22  45  69  94 134 179 228 281 346 409
#     4  11  21  41  67  95 137 178 218 266 344 410
#     4  12  26  38  60 110 140 164 212 284 344 406
#     4  11  22  41  73  98 125 183 235 265 337 421
#     4  12  23  41  69  96 137 178 218 284 349 402
#
# _framework density 21.076957
#
# number of rings (size 3 to 8) (size 9 to 14) (size 15 to 20)
#    0.000    0.533    8.000    2.400    0.000    0.533 
#    7.200    0.000    1.467    0.000    0.000    0.000 
#    0.000    0.000    0.000    0.000    0.000    0.000 
#
# Total GULP energy -372028.115362 kJ/mol
# GULP energy per Si atom -12400.937179 kJ/mol
# Density = 2.102899 g / cm^3
# Si number density = 21.076957 Si / 1000 Ang^3
#
#
#
# Elastic Constant Matrix: (Units=GPa)
#
#
# Indices 1 2 3 4 5 6 
#
# 1 60.1345 23.9294 31.6139 0.0000 4.9288 0.0000
# 2 23.9294 80.4617 52.6932 0.0000 20.0978 0.0000
# 3 31.6139 52.6932 140.6687 0.0000 12.3535 0.0000
# 4 0.0000 0.0000 0.0000 32.3628 0.0000 12.3312
# 5 4.9288 20.0978 12.3535 0.0000 29.2416 0.0000
# 6 0.0000 0.0000 0.0000 12.3312 0.0000 29.3616
#
#
#
# Elastic Compliance Matrix: (Units=1/GPa)
#
#
# Indices 1 2 3 4 5 6 
#
# 1 0.019767 -0.004128 -0.002963 0.000000 0.000757 0.000000
# 2 -0.004128 0.020010 -0.005630 0.000000 -0.010679 0.000000
# 3 -0.002963 -0.005630 0.009866 0.000000 0.000201 0.000000
# 4 0.000000 0.000000 0.000000 0.036786 0.000000 -0.015449
# 5 0.000757 -0.010679 0.000201 0.000000 0.041325 0.000000
# 6 0.000000 0.000000 0.000000 -0.015449 0.000000 0.040547
#
#
# Mechanical properties :
#
#
# Convention : Reuss Voigt Hill
#
# Bulk Modulus (GPa) = 41.31770 55.30421 48.31096
# Shear Modulus (GPa) = 24.77565 29.72841 27.25203
#
# Velocity S-wave (km/s) = 3.43225 3.75970 3.59970
# Velocity P-wave (km/s) = 5.94584 6.71887 6.34414
#
# Compressibility (1/GPa) = 0.02420270
#
# Stress axis : x y z
#
# Youngs Moduli (GPa) = 50.58810 49.97403 101.35650
#
# Poissons Ratio (x) = 0.20627 0.30030
# Poissons Ratio (y) = 0.20881 0.57066
# Poissons Ratio (z) = 0.14989 0.28137
#
# Static dielectric constant tensor:
#      x y z
#    x 3.386100 0.000000 0.931950 
#    y 0.000000 4.016570 0.000000 
#    z 0.931950 0.000000 2.763520 
# 
# 
# High freq. dielectric constant tensor:
#      x y z
#    x 1.816520 0.000000 0.025130 
#    y 0.000000 1.834400 0.000000 
#    z 0.025130 0.000000 1.818280 
# 
# From -- ./inp_files/119435.got.cif
#   From: 2010.06.25/outbox.cif.g09.slc.cpg/sg15_60_cif.got.tgz:119435.got - 2010.06.28 07:06:18.
