data_PCOD8151453
_publ_section_title
;
Structure prediction by ZEFSAII (Michael W. Deem and Ramdas Pophale) SiO2 
 PCOD8151453
Probable space group: C 2/C
;
_chemical_formula_sum "Si O2"
_cell_formula_units_Z 60
_cell_length_a 19.453824
_cell_length_b 12.600975
_cell_length_c 22.565919
_cell_angle_alpha 90.000000
_cell_angle_beta 147.038774
_cell_angle_gamma 90.000000
_cell_volume 3009.664026
_symmetry_space_group_name_H-M "C 2/C"
_symmetry_group_IT_number 15
_symmetry_cell_setting 'monoclinic'
loop_
_space_group_symop_operation_xyz
x,y,z
-x,y,1/2-z
-x,-y,-z
x,-y,1/2+z
1/2+x,1/2+y,z
1/2-x,1/2+y,1/2-z
1/2-x,1/2-y,-z
1/2+x,1/2-y,1/2+z
loop_
_atom_site_type_symbol
_atom_site_label
_atom_site_fract_x
_atom_site_fract_y
_atom_site_fract_z
Si Si1 0.294724 0.880500 0.203620
Si Si2 0.000000 0.307941 0.750000
Si Si3 0.053792 0.835408 0.398639
Si Si4 0.309639 0.851019 0.886632
Si Si5 0.291370 0.031077 0.095135
Si Si6 0.209471 0.938131 0.269128
Si Si7 0.427006 0.950301 0.079523
Si Si8 0.061106 0.650952 0.492626
O O1 0.260460 0.759603 0.166423
O O2 0.220762 0.920716 0.207510
O O3 0.444571 0.885360 0.319736
O O4 0.247413 0.952366 0.115031
O O5 0.057264 0.237866 0.843591
O O6 0.114487 0.381017 0.808647
O O7 0.169333 0.916324 0.477264
O O8 0.069583 0.766123 0.469302
O O9 0.925924 0.901469 0.306458
O O10 0.444773 0.851871 0.952927
O O11 0.221225 0.937331 0.790829
O O12 0.330713 0.882274 0.970203
O O13 0.364819 0.965846 0.098185
O O14 0.313242 0.869033 0.378866
O O15 0.457744 0.063152 0.071650
#
# Coordination Sequence:
#
# PCOD8151453 Si02
#       8
#     8   4   8   8   8   8   8   8
#     4  12  23  43  68  97 130 177 223 271 334 392
#     4  12  24  44  72  98 132 178 218 274 340 398
#     4  12  26  40  67 107 134 168 218 285 341 380
#     4  11  24  40  70  96 127 182 223 272 329 391
#     4  12  26  43  67  97 133 177 221 273 329 409
#     4  11  24  42  67 100 137 167 225 281 328 396
#     4  11  22  45  66  91 134 174 229 265 325 412
#     4  11  20  42  69  99 128 178 221 269 335 397
#
# _framework density 19.935780999999999
#
# number of rings (size 3 to 8) (size 9 to 14) (size 15 to 20)
#    0.000    0.533    6.667    2.000    3.733    3.200 
#    0.000    1.333    0.000    0.000    0.000    0.000 
#    0.000    0.000    0.000    0.000    0.000    0.000 
#
# Total GULP energy -372226.854152 kJ/mol
# GULP energy per Si atom -12407.561805 kJ/mol
# Density = 1.989041 g / cm^3
# Si number density = 19.935781 Si / 1000 Ang^3
#
#
#
# Elastic Constant Matrix: (Units=GPa)
#
#
# Indices 1 2 3 4 5 6 
#
# 1 18.0313 -12.5568 -64.9078 0.0034 19.6154 -0.0012
# 2 -12.5568 87.7596 -31.6977 0.0026 25.5791 -0.0009
# 3 -64.9078 -31.6977 -121.0917 0.0051 64.6382 -0.0025
# 4 0.0034 0.0026 0.0051 -64.8096 -0.0009 8.9660
# 5 19.6154 25.5791 64.6382 -0.0009 27.6475 0.0008
# 6 -0.0012 -0.0009 -0.0025 8.9660 0.0008 24.5628
#
#
#
# Elastic Compliance Matrix: (Units=1/GPa)
#
#
# Indices 1 2 3 4 5 6 
#
# 1 0.020518 -0.001412 -0.007874 0.000000 0.005159 0.000000
# 2 -0.001412 0.010640 -0.003002 0.000000 -0.001824 0.000000
# 3 -0.007874 -0.003002 0.000540 -0.000001 0.007102 0.000000
# 4 0.000000 0.000000 -0.000001 -0.014688 0.000001 0.005361
# 5 0.005159 -0.001824 0.007102 0.000001 0.017592 0.000000
# 6 0.000000 0.000000 0.000000 0.005361 0.000000 0.038755
#
#
# Mechanical properties :
#
#
# Convention : Reuss Voigt Hill
#
# Bulk Modulus (GPa) = 140.43446 -25.95838 57.23804
# Shear Modulus (GPa) = 49.84725 3.73756 26.79241
#
# Velocity S-wave (km/s) = 5.00582 1.37072 3.66995
# Velocity P-wave (km/s) = 10.19840 3.24717 6.83605
#
# Compressibility (1/GPa) = 0.00712076
#
# Stress axis : x y z
#
# Youngs Moduli (GPa) = 48.73825 93.98414 1853.13802
#
# Poissons Ratio (x) = 0.13272 14.59222
# Poissons Ratio (y) = 0.06883 5.56293
# Poissons Ratio (z) = 0.38378 0.28213
#
# Static dielectric constant tensor:
#      x y z
#    x 3.683870 0.000000 -0.085530 
#    y 0.000000 3.698300 0.000000 
#    z -0.085530 0.000000 3.703970 
# 
# 
# High freq. dielectric constant tensor:
#      x y z
#    x 1.783310 0.000000 -0.006370 
#    y 0.000000 1.777050 0.000000 
#    z -0.006370 0.000000 1.787220 
# 
# From -- ./inp_files/248802.got.cif
#   From: 2010.06.25/outbox.cif.g09.slc.cpg/sg15_125_cif.got.tgz:248802.got - 2010.06.28 07:06:18.
