data_PCOD8151554
_publ_section_title
;
Structure prediction by ZEFSAII (Michael W. Deem and Ramdas Pophale) SiO2 
 PCOD8151554
Probable space group: C 2/C
;
_chemical_formula_sum "Si O2"
_cell_formula_units_Z 48
_cell_length_a 18.693224
_cell_length_b 12.412102
_cell_length_c 20.646429
_cell_angle_alpha 90.000000
_cell_angle_beta 150.963817
_cell_angle_gamma 90.000000
_cell_volume 2325.091971
_symmetry_space_group_name_H-M "C 2/C"
_symmetry_group_IT_number 15
_symmetry_cell_setting 'monoclinic'
loop_
_space_group_symop_operation_xyz
x,y,z
-x,y,1/2-z
-x,-y,-z
x,-y,1/2+z
1/2+x,1/2+y,z
1/2-x,1/2+y,1/2-z
1/2-x,1/2-y,-z
1/2+x,1/2-y,1/2+z
loop_
_atom_site_type_symbol
_atom_site_label
_atom_site_fract_x
_atom_site_fract_y
_atom_site_fract_z
Si Si1 0.237888 0.636439 0.814506
Si Si2 0.372113 0.317555 0.960955
Si Si3 0.036059 0.180619 0.101163
Si Si4 0.595378 0.055686 0.261698
Si Si5 0.120470 0.042128 0.701528
Si Si6 0.418444 0.930008 0.491419
O O1 0.105442 0.714835 0.689243
O O2 0.190240 0.553630 0.833184
O O3 0.293563 0.567768 0.797373
O O4 0.367734 0.708601 0.948680
O O5 0.378026 0.367070 0.893702
O O6 0.203800 0.339196 0.850391
O O7 0.487567 0.371250 0.102779
O O8 0.427839 0.197671 0.988973
O O9 0.047026 0.074654 0.154026
O O10 0.500000 0.060046 0.250000
O O11 0.487420 0.047169 0.115254
O O12 0.243136 0.046861 0.854970
O O13 0.500000 0.000000 0.500000
#
# Coordination Sequence:
#
# PCOD8151554 Si02
#       6
#     8   8   8   8   8   8
#     4  11  22  39  63  99 129 167 212 276 338 381
#     4  11  21  41  62  96 133 169 214 270 335 379
#     4  11  21  35  67  98 129 159 218 282 332 372
#     4  12  26  45  63  91 139 179 213 262 335 407
#     4  11  21  36  64  99 128 159 216 283 320 381
#     4  12  23  38  69 101 123 163 228 274 313 381
#
# _framework density 20.644344
#
# number of rings (size 3 to 8) (size 9 to 14) (size 15 to 20)
#    0.000    0.667    6.667    2.000    9.333    0.667 
#    0.000    1.667    0.000    0.000    0.000    0.000 
#    0.000    0.000    0.000    0.000    0.000    0.000 
#
# Total GULP energy -297333.967895 kJ/mol
# GULP energy per Si atom -12388.915329 kJ/mol
# Density = 2.059736 g / cm^3
# Si number density = 20.644344 Si / 1000 Ang^3
#
#
#
# Elastic Constant Matrix: (Units=GPa)
#
#
# Indices 1 2 3 4 5 6 
#
# 1 97.4522 27.2084 48.0524 -0.0002 6.0464 -0.0002
# 2 27.2084 113.0145 44.6310 0.0010 4.2232 0.0003
# 3 48.0524 44.6310 140.6995 0.0016 7.0608 0.0007
# 4 -0.0002 0.0010 0.0016 43.7815 0.0002 8.3290
# 5 6.0464 4.2232 7.0608 0.0002 19.4166 -0.0001
# 6 -0.0002 0.0003 0.0007 8.3290 -0.0001 15.3635
#
#
#
# Elastic Compliance Matrix: (Units=1/GPa)
#
#
# Indices 1 2 3 4 5 6 
#
# 1 0.012660 -0.001487 -0.003739 0.000000 -0.002259 0.000000
# 2 -0.001487 0.010311 -0.002723 0.000000 -0.000789 0.000000
# 3 -0.003739 -0.002723 0.009330 0.000000 -0.001636 0.000000
# 4 0.000000 0.000000 0.000000 0.025467 0.000000 -0.013806
# 5 -0.002259 -0.000789 -0.001636 0.000000 0.052973 0.000001
# 6 0.000000 0.000000 0.000000 -0.013806 0.000001 0.072574
#
#
# Mechanical properties :
#
#
# Convention : Reuss Voigt Hill
#
# Bulk Modulus (GPa) = 60.96221 65.66108 63.31165
# Shear Modulus (GPa) = 24.42812 31.13061 27.77937
#
# Velocity S-wave (km/s) = 3.44362 3.88744 3.67224
# Velocity P-wave (km/s) = 6.73834 7.21280 6.97960
#
# Compressibility (1/GPa) = 0.01640361
#
# Stress axis : x y z
#
# Youngs Moduli (GPa) = 78.98688 96.97968 107.17886
#
# Poissons Ratio (x) = 0.14422 0.40071
# Poissons Ratio (y) = 0.11746 0.29189
# Poissons Ratio (z) = 0.29531 0.26411
#
# Static dielectric constant tensor:
#      x y z
#    x 3.355600 0.000000 0.080290 
#    y 0.000000 3.806530 0.000000 
#    z 0.080290 0.000000 4.328030 
# 
# 
# High freq. dielectric constant tensor:
#      x y z
#    x 1.732620 0.000000 0.022660 
#    y 0.000000 1.820350 0.000000 
#    z 0.022660 0.000000 1.835300 
# 
# From -- ./inp_files/252625.got.cif
#   From: 2010.06.25/outbox.cif.g09.slc.cpg/sg15_127_cif.got.tgz:252625.got - 2010.06.28 07:06:18.
