data_PCOD8151685
_publ_section_title
;
Structure prediction by ZEFSAII (Michael W. Deem and Ramdas Pophale) SiO2 
 PCOD8151685
Probable space group: C 2/C
;
_chemical_formula_sum "Si O2"
_cell_formula_units_Z 44
_cell_length_a 11.190248
_cell_length_b 20.899201
_cell_length_c 12.946292
_cell_angle_alpha 90.000000
_cell_angle_beta 44.122507
_cell_angle_gamma 90.000000
_cell_volume 2107.878584
_symmetry_space_group_name_H-M "C 2/C"
_symmetry_group_IT_number 15
_symmetry_cell_setting 'monoclinic'
loop_
_space_group_symop_operation_xyz
x,y,z
-x,y,1/2-z
-x,-y,-z
x,-y,1/2+z
1/2+x,1/2+y,z
1/2-x,1/2+y,1/2-z
1/2-x,1/2-y,-z
1/2+x,1/2-y,1/2+z
loop_
_atom_site_type_symbol
_atom_site_label
_atom_site_fract_x
_atom_site_fract_y
_atom_site_fract_z
Si Si1 0.006827 0.626472 0.359542
Si Si2 0.406832 0.619473 0.704885
Si Si3 0.884148 0.863051 0.624788
Si Si4 0.000000 0.071899 0.250000
Si Si5 0.315951 0.977466 0.077288
Si Si6 0.196412 0.729962 0.917176
O O1 0.201016 0.602538 0.259419
O O2 0.000000 0.658272 0.250000
O O3 0.865879 0.569379 0.449723
O O4 0.961868 0.680922 0.471467
O O5 0.500000 0.593859 0.750000
O O6 0.529372 0.610736 0.532016
O O7 0.253837 0.568033 0.786556
O O8 0.347760 0.692734 0.761300
O O9 0.001104 0.881245 0.649934
O O10 0.857728 0.787195 0.624885
O O11 0.175843 0.030700 0.132706
O O12 0.500000 0.000000 0.000000
O O13 0.250000 0.750000 0.000000
#
# Coordination Sequence:
#
# PCOD8151685 Si02
#       6
#     8   8   8   4   8   8
#     4  11  22  38  69 105 131 172 233 303 351 400
#     4  11  22  40  69 107 130 173 237 301 346 398
#     4  12  24  41  67 103 144 184 228 285 362 417
#     4  12  28  46  68 100 152 196 226 286 352 440
#     4  11  24  46  67  95 141 182 243 281 349 428
#     4  11  21  38  67 102 140 170 232 301 347 407
#
# _framework density 20.874067
#
# number of rings (size 3 to 8) (size 9 to 14) (size 15 to 20)
#    0.000    0.727    6.364    2.182    0.000    2.182 
#    0.000    3.636    0.000    0.000    0.000    0.000 
#    0.000    0.000    0.000    0.000    0.000    0.000 
#
# Total GULP energy -272577.201673 kJ/mol
# GULP energy per Si atom -12389.872803 kJ/mol
# Density = 2.082656 g / cm^3
# Si number density = 20.874067 Si / 1000 Ang^3
#
#
#
# Elastic Constant Matrix: (Units=GPa)
#
#
# Indices 1 2 3 4 5 6 
#
# 1 109.8654 59.4714 61.6152 0.0000 -4.2187 0.0000
# 2 59.4714 115.8760 52.0054 0.0001 -5.4235 0.0000
# 3 61.6152 52.0054 152.3593 0.0003 -8.0136 0.0000
# 4 0.0000 0.0001 0.0003 26.2702 -0.0001 -7.6600
# 5 -4.2187 -5.4235 -8.0136 -0.0001 36.4348 -0.0001
# 6 0.0000 0.0000 0.0000 -7.6600 -0.0001 32.8923
#
#
#
# Elastic Compliance Matrix: (Units=1/GPa)
#
#
# Indices 1 2 3 4 5 6 
#
# 1 0.014308 -0.005606 -0.003874 0.000000 -0.000030 0.000000
# 2 -0.005606 0.012408 -0.001928 0.000000 0.000774 0.000000
# 3 -0.003874 -0.001928 0.008852 0.000000 0.001211 0.000000
# 4 0.000000 0.000000 0.000000 0.040839 0.000000 0.009511
# 5 -0.000030 0.000774 0.001211 0.000000 0.027824 0.000000
# 6 0.000000 0.000000 0.000000 0.009511 0.000000 0.032617
#
#
# Mechanical properties :
#
#
# Convention : Reuss Voigt Hill
#
# Bulk Modulus (GPa) = 78.41537 80.47606 79.44572
# Shear Modulus (GPa) = 30.50329 32.78671 31.64500
#
# Velocity S-wave (km/s) = 3.82684 3.96749 3.89780
# Velocity P-wave (km/s) = 7.56134 7.72171 7.64194
#
# Compressibility (1/GPa) = 0.01275260
#
# Stress axis : x y z
#
# Youngs Moduli (GPa) = 69.88890 80.59013 112.96938
#
# Poissons Ratio (x) = 0.45180 0.43770
# Poissons Ratio (y) = 0.39180 0.21776
# Poissons Ratio (z) = 0.27078 0.15534
#
# Static dielectric constant tensor:
#      x y z
#    x 3.530220 0.000000 -0.275390 
#    y 0.000000 4.009990 0.000000 
#    z -0.275390 0.000000 4.321780 
# 
# 
# High freq. dielectric constant tensor:
#      x y z
#    x 1.770090 0.000000 -0.020570 
#    y 0.000000 1.825730 0.000000 
#    z -0.020570 0.000000 1.846470 
# 
# From -- ./inp_files/147014.got.cif
#   From: 2010.06.25/outbox.cif.g09.slc.cpg/sg15_74_cif.got.tgz:147014.got - 2010.06.28 07:06:18.
