data_PCOD8151707
_publ_section_title
;
Structure prediction by ZEFSAII (Michael W. Deem and Ramdas Pophale) SiO2 
 PCOD8151707
Probable space group: C 2/C
;
_chemical_formula_sum "Si O2"
_cell_formula_units_Z 60
_cell_length_a 22.326911
_cell_length_b 13.764946
_cell_length_c 11.326914
_cell_angle_alpha 90.000000
_cell_angle_beta 122.775209
_cell_angle_gamma 90.000000
_cell_volume 2926.900314
_symmetry_space_group_name_H-M "C 2/C"
_symmetry_group_IT_number 15
_symmetry_cell_setting 'monoclinic'
loop_
_space_group_symop_operation_xyz
x,y,z
-x,y,1/2-z
-x,-y,-z
x,-y,1/2+z
1/2+x,1/2+y,z
1/2-x,1/2+y,1/2-z
1/2-x,1/2-y,-z
1/2+x,1/2-y,1/2+z
loop_
_atom_site_type_symbol
_atom_site_label
_atom_site_fract_x
_atom_site_fract_y
_atom_site_fract_z
Si Si1 0.637881 0.624147 0.765052
Si Si2 0.900132 0.182547 0.455765
Si Si3 0.302093 0.178664 0.486686
Si Si4 0.884065 0.035688 0.994259
Si Si5 0.264195 0.194896 0.177252
Si Si6 0.747038 0.487704 0.523706
Si Si7 0.423771 0.302536 0.703414
Si Si8 0.500000 0.315065 0.250000
O O1 0.603456 0.608444 0.600786
O O2 0.690120 0.716703 0.823946
O O3 0.688105 0.535246 0.859561
O O4 0.570551 0.627201 0.780970
O O5 0.821766 0.212048 0.420904
O O6 0.906794 0.203054 0.324307
O O7 0.963120 0.240705 0.597685
O O8 0.917983 0.068725 0.500041
O O9 0.250000 0.250000 0.500000
O O10 0.282681 0.169855 0.330164
O O11 0.378719 0.223908 0.583973
O O12 0.301391 0.069572 0.538144
O O13 0.915399 0.087284 0.145300
O O14 0.798440 0.028491 0.914401
O O15 0.287751 0.107068 0.115432
O O16 0.500000 0.263684 0.750000
#
# Coordination Sequence:
#
# PCOD8151707 Si02
#       8
#     8   8   8   8   8   8   8   4
#     4  12  23  40  64  95 131 170 209 260 324 381
#     4  11  25  40  60  95 133 168 215 257 318 393
#     4  12  22  42  66  93 128 167 223 264 307 380
#     4  11  21  39  62  93 127 169 209 259 315 381
#     4  11  22  42  67  94 124 169 220 260 314 378
#     4  11  22  39  64  96 126 165 216 267 312 368
#     4  12  25  41  64  94 132 175 208 266 327 379
#     4  12  26  40  56  96 142 164 202 260 324 400
#
# _framework density 20.499502
#
# number of rings (size 3 to 8) (size 9 to 14) (size 15 to 20)
#    0.000    0.533    6.667    3.600    0.933    1.067 
#    0.000    0.000    1.467    0.800    0.000    0.000 
#    0.000    0.000    0.000    0.000    0.000    0.000 
#
# Total GULP energy -371666.780323 kJ/mol
# GULP energy per Si atom -12388.892677 kJ/mol
# Density = 2.045284 g / cm^3
# Si number density = 20.499502 Si / 1000 Ang^3
#
#
#
# Elastic Constant Matrix: (Units=GPa)
#
#
# Indices 1 2 3 4 5 6 
#
# 1 92.0694 46.6596 28.4905 0.0000 8.7611 0.0000
# 2 46.6596 70.7370 30.7182 0.0000 5.7370 0.0000
# 3 28.4905 30.7182 125.1576 0.0000 -1.8649 0.0000
# 4 0.0000 0.0000 0.0000 24.9837 0.0000 -3.7995
# 5 8.7611 5.7370 -1.8649 0.0000 38.3741 0.0000
# 6 0.0000 0.0000 0.0000 -3.7995 0.0000 21.5217
#
#
#
# Elastic Compliance Matrix: (Units=1/GPa)
#
#
# Indices 1 2 3 4 5 6 
#
# 1 0.016683 -0.010242 -0.001319 0.000000 -0.002342 0.000000
# 2 -0.010242 0.022365 -0.003175 0.000000 -0.001160 0.000000
# 3 -0.001319 -0.003175 0.009088 0.000000 0.001217 0.000000
# 4 0.000000 0.000000 0.000000 0.041130 0.000000 0.007261
# 5 -0.002342 -0.001160 0.001217 0.000000 0.026826 0.000000
# 6 0.000000 0.000000 0.000000 0.007261 0.000000 0.047747
#
#
# Mechanical properties :
#
#
# Convention : Reuss Voigt Hill
#
# Bulk Modulus (GPa) = 53.57798 55.52229 54.55014
# Shear Modulus (GPa) = 25.05870 29.11561 27.08715
#
# Velocity S-wave (km/s) = 3.50008 3.77279 3.63899
# Velocity P-wave (km/s) = 6.52128 6.79132 6.65767
#
# Compressibility (1/GPa) = 0.01866438
#
# Stress axis : x y z
#
# Youngs Moduli (GPa) = 59.94272 44.71211 110.04026
#
# Poissons Ratio (x) = 0.45792 0.14512
# Poissons Ratio (y) = 0.61391 0.34940
# Poissons Ratio (z) = 0.07905 0.14197
#
# Static dielectric constant tensor:
#      x y z
#    x 3.869450 0.000000 -0.002180 
#    y 0.000000 3.656510 0.000000 
#    z -0.002180 0.000000 4.648260 
# 
# 
# High freq. dielectric constant tensor:
#      x y z
#    x 1.798280 0.000000 -0.021150 
#    y 0.000000 1.763470 0.000000 
#    z -0.021150 0.000000 1.826130 
# 
# From -- ./inp_files/112764.got.cif
#   From: 2010.06.25/outbox.cif.g09.slc.cpg/sg15_57_cif.got.tgz:112764.got - 2010.06.28 07:06:18.
