data_PCOD8151366
_publ_section_title
;
Structure prediction by ZEFSAII (Michael W. Deem and Ramdas Pophale) SiO2 
 PCOD8151366
Probable space group: C 2/C
;
_chemical_formula_sum "Si O2"
_cell_formula_units_Z 56
_cell_length_a 11.194859
_cell_length_b 31.687943
_cell_length_c 13.040010
_cell_angle_alpha 90.000000
_cell_angle_beta 32.923959
_cell_angle_gamma 90.000000
_cell_volume 2514.261965
_symmetry_space_group_name_H-M "C 2/C"
_symmetry_group_IT_number 15
_symmetry_cell_setting 'monoclinic'
loop_
_space_group_symop_operation_xyz
x,y,z
-x,y,1/2-z
-x,-y,-z
x,-y,1/2+z
1/2+x,1/2+y,z
1/2-x,1/2+y,1/2-z
1/2-x,1/2-y,-z
1/2+x,1/2-y,1/2+z
loop_
_atom_site_type_symbol
_atom_site_label
_atom_site_fract_x
_atom_site_fract_y
_atom_site_fract_z
Si Si1 0.430318 0.360714 0.018650
Si Si2 0.510506 0.527631 0.622968
Si Si3 0.649061 0.711670 0.233837
Si Si4 0.925359 0.302388 0.185584
Si Si5 0.030762 0.452705 0.443927
Si Si6 0.331112 0.087094 0.288345
Si Si7 0.833278 0.063805 0.453036
O O1 0.245876 0.339478 0.224066
O O2 0.501050 0.322183 0.896620
O O3 0.647108 0.376806 0.918676
O O4 0.303950 0.399333 0.055537
O O5 0.500000 0.539416 0.750000
O O6 0.292493 0.549936 0.731730
O O7 0.724919 0.544685 0.411229
O O8 0.536797 0.476844 0.591864
O O9 0.500000 0.728732 0.250000
O O10 0.684656 0.756868 0.264204
O O11 0.872366 0.689990 0.036703
O O12 0.000000 0.308929 0.250000
O O13 0.000000 0.500000 0.500000
O O14 0.942976 0.421599 0.596937
O O15 0.901544 0.446569 0.429874
O O16 0.500000 0.104664 0.250000
O O17 0.000000 0.083143 0.250000
#
# Coordination Sequence:
#
# PCOD8151366 Si02
#       7
#     8   8   8   8   8   8   8
#     4  12  25  39  63  98 135 160 214 272 323 384
#     4  11  23  45  63  86 127 180 230 258 317 388
#     4  11  20  40  63  92 134 166 202 249 321 408
#     4  11  21  37  65  94 127 172 201 246 328 407
#     4  12  22  41  66  89 126 171 219 274 317 374
#     4  12  26  43  66  90 125 177 221 271 322 375
#     4  11  22  41  62  96 133 167 215 283 320 362
#
# _framework density 22.272938
#
# number of rings (size 3 to 8) (size 9 to 14) (size 15 to 20)
#    0.000    0.571    8.571    1.286    0.000    4.571 
#    0.000    3.571    0.000    0.857    0.000    0.000 
#    0.000    0.000    0.000    0.000    0.000    0.000 
#
# Total GULP energy -347029.542829 kJ/mol
# GULP energy per Si atom -12393.912244 kJ/mol
# Density = 2.222224 g / cm^3
# Si number density = 22.272938 Si / 1000 Ang^3
#
#
#
# Elastic Constant Matrix: (Units=GPa)
#
#
# Indices 1 2 3 4 5 6 
#
# 1 91.2348 49.8937 26.8182 0.0000 -35.9663 0.0000
# 2 49.8937 109.2420 35.4210 0.0000 -18.3632 0.0000
# 3 26.8182 35.4210 112.7317 0.0000 -24.8259 0.0000
# 4 0.0000 0.0000 0.0000 -199.1916 0.0000 -209.0889
# 5 -35.9663 -18.3632 -24.8259 0.0000 37.7771 0.0000
# 6 0.0000 0.0000 0.0000 -209.0889 0.0000 -139.0079
#
#
#
# Elastic Compliance Matrix: (Units=1/GPa)
#
#
# Indices 1 2 3 4 5 6 
#
# 1 0.021593 -0.007217 0.001035 0.000000 0.017730 0.000000
# 2 -0.007217 0.012977 -0.002905 0.000000 -0.002473 0.000000
# 3 0.001035 -0.002905 0.011041 0.000000 0.006830 0.000000
# 4 0.000000 0.000000 0.000000 0.008672 0.000000 -0.013044
# 5 0.017730 -0.002473 0.006830 0.000000 0.046637 0.000000
# 6 0.000000 0.000000 0.000000 -0.013044 0.000000 0.012427
#
#
# Mechanical properties :
#
#
# Convention : Reuss Voigt Hill
#
# Bulk Modulus (GPa) = 36.44738 59.71936 48.08337
# Shear Modulus (GPa) = 35.54512 -46.67944 -5.56716
#
# Velocity S-wave (km/s) = 3.99919 -4.58295 -1.58270
# Velocity P-wave (km/s) = 6.14200 1.06481 4.27729
#
# Compressibility (1/GPa) = 0.02743681
#
# Stress axis : x y z
#
# Youngs Moduli (GPa) = 46.31180 77.06179 90.57117
#
# Poissons Ratio (x) = 0.55618 -0.09378
# Poissons Ratio (y) = 0.33425 0.26310
# Poissons Ratio (z) = -0.04795 0.22385
#
# Static dielectric constant tensor:
#      x y z
#    x 3.248080 0.000000 0.412640 
#    y 0.000000 3.995730 0.000000 
#    z 0.412640 0.000000 3.810370 
# 
# 
# High freq. dielectric constant tensor:
#      x y z
#    x 1.833810 0.000000 -0.011380 
#    y 0.000000 1.874550 0.000000 
#    z -0.011380 0.000000 1.903490 
# 
# From -- ./inp_files/149257.got.cif
#   From: 2010.06.25/outbox.cif.g09.slc.cpg/sg15_75_cif.got.tgz:149257.got - 2010.06.28 07:06:18.
