data_PCOD8151746
_publ_section_title
;
Structure prediction by ZEFSAII (Michael W. Deem and Ramdas Pophale) SiO2 
 PCOD8151746
Probable space group: C 2/C
;
_chemical_formula_sum "Si O2"
_cell_formula_units_Z 60
_cell_length_a 17.174598
_cell_length_b 12.459016
_cell_length_c 13.419735
_cell_angle_alpha 90.000000
_cell_angle_beta 76.724032
_cell_angle_gamma 90.000000
_cell_volume 2794.794991
_symmetry_space_group_name_H-M "C 2/C"
_symmetry_group_IT_number 15
_symmetry_cell_setting 'monoclinic'
loop_
_space_group_symop_operation_xyz
x,y,z
-x,y,1/2-z
-x,-y,-z
x,-y,1/2+z
1/2+x,1/2+y,z
1/2-x,1/2+y,1/2-z
1/2-x,1/2-y,-z
1/2+x,1/2-y,1/2+z
loop_
_atom_site_type_symbol
_atom_site_label
_atom_site_fract_x
_atom_site_fract_y
_atom_site_fract_z
Si Si1 0.500000 0.008196 0.750000
Si Si2 0.872060 0.028545 0.506992
Si Si3 0.874757 0.404374 0.658809
Si Si4 0.796784 0.823808 0.189657
Si Si5 0.138452 0.780330 0.695880
Si Si6 0.218838 0.006078 0.648360
Si Si7 0.044792 0.663145 0.559837
Si Si8 0.532766 0.363314 0.898283
O O1 0.423816 0.935439 0.744038
O O2 0.511028 0.079662 0.649125
O O3 0.829236 0.126511 0.576734
O O4 0.805601 0.967640 0.458530
O O5 0.949065 0.068316 0.418547
O O6 0.898469 0.936871 0.576616
O O7 0.838948 0.289088 0.695823
O O8 0.811684 0.498233 0.650565
O O9 0.927157 0.401491 0.543762
O O10 0.700321 0.808435 0.221383
O O11 0.822451 0.905321 0.269698
O O12 0.188358 0.886250 0.667295
O O13 0.111707 0.734463 0.596825
O O14 0.061658 0.813461 0.784295
O O15 0.981699 0.752469 0.536220
#
# Coordination Sequence:
#
# PCOD8151746 Si02
#       8
#     4   8   8   8   8   8   8   8
#     4  12  26  44  68  94 136 174 220 286 326 400
#     4  11  23  41  67 101 137 169 220 280 335 401
#     4  11  26  45  64  99 130 176 231 270 336 407
#     4  11  23  43  65  93 135 178 215 279 340 391
#     4  11  21  39  68  93 131 171 227 266 322 399
#     4  11  23  41  66  94 129 176 219 272 334 396
#     4  12  22  42  71  96 127 179 223 273 331 391
#     4  11  22  39  65 104 129 168 221 276 328 394
#
# _framework density 21.468478000000001
#
# number of rings (size 3 to 8) (size 9 to 14) (size 15 to 20)
#    0.000    0.800    5.333    2.000    0.000    3.200 
#    0.000    0.667    0.000    0.000    0.000    0.000 
#    0.000    0.000    0.000    0.000    0.000    0.000 
#
# Total GULP energy -371645.931985 kJ/mol
# GULP energy per Si atom -12388.197733 kJ/mol
# Density = 2.141962 g / cm^3
# Si number density = 21.468478 Si / 1000 Ang^3
#
#
#
# Elastic Constant Matrix: (Units=GPa)
#
#
# Indices 1 2 3 4 5 6 
#
# 1 115.2344 40.0316 27.1487 0.0000 14.9510 0.0000
# 2 40.0316 84.9660 26.9073 0.0000 7.7631 0.0000
# 3 27.1487 26.9073 58.3293 0.0000 -4.1839 0.0000
# 4 0.0000 0.0000 0.0000 30.6200 0.0000 -3.0204
# 5 14.9510 7.7631 -4.1839 0.0000 33.4440 0.0000
# 6 0.0000 0.0000 0.0000 -3.0204 0.0000 29.8055
#
#
#
# Elastic Compliance Matrix: (Units=1/GPa)
#
#
# Indices 1 2 3 4 5 6 
#
# 1 0.011537 -0.003734 -0.003991 0.000000 -0.004790 0.000000
# 2 -0.003734 0.015552 -0.005626 0.000000 -0.002644 0.000000
# 3 -0.003991 -0.005626 0.022016 0.000000 0.005844 0.000000
# 4 0.000000 0.000000 0.000000 0.032988 0.000000 0.003343
# 5 -0.004790 -0.002644 0.005844 0.000000 0.033387 0.000000
# 6 0.000000 0.000000 0.000000 0.003343 0.000000 0.033890
#
#
# Mechanical properties :
#
#
# Convention : Reuss Voigt Hill
#
# Bulk Modulus (GPa) = 44.63613 49.63387 47.13500
# Shear Modulus (GPa) = 27.24225 29.73670 28.48948
#
# Velocity S-wave (km/s) = 3.56609 3.72578 3.64680
# Velocity P-wave (km/s) = 6.14757 6.45586 6.30360
#
# Compressibility (1/GPa) = 0.02240338
#
# Stress axis : x y z
#
# Youngs Moduli (GPa) = 86.67882 64.30069 45.42184
#
# Poissons Ratio (x) = 0.24011 0.18127
# Poissons Ratio (y) = 0.32367 0.25553
# Poissons Ratio (z) = 0.34591 0.36174
#
# Static dielectric constant tensor:
#      x y z
#    x 4.522750 0.000000 0.126050 
#    y 0.000000 4.110660 0.000000 
#    z 0.126050 0.000000 3.925480 
# 
# 
# High freq. dielectric constant tensor:
#      x y z
#    x 1.842250 0.000000 -0.004510 
#    y 0.000000 1.856060 0.000000 
#    z -0.004510 0.000000 1.830270 
# 
# From -- ./inp_files/161299.got.cif
#   From: 2010.06.25/outbox.cif.g09.slc.cpg/sg15_81_cif.got.tgz:161299.got - 2010.06.28 07:06:18.
