data_PCOD8151951
_publ_section_title
;
Structure prediction by ZEFSAII (Michael W. Deem and Ramdas Pophale) SiO2 
 PCOD8151951
Probable space group: C 2/C
;
_chemical_formula_sum "Si O2"
_cell_formula_units_Z 48
_cell_length_a 14.335224
_cell_length_b 9.500128
_cell_length_c 17.773688
_cell_angle_alpha 90.000000
_cell_angle_beta 77.877556
_cell_angle_gamma 90.000000
_cell_volume 2366.560296
_symmetry_space_group_name_H-M "C 2/C"
_symmetry_group_IT_number 15
_symmetry_cell_setting 'monoclinic'
loop_
_space_group_symop_operation_xyz
x,y,z
-x,y,1/2-z
-x,-y,-z
x,-y,1/2+z
1/2+x,1/2+y,z
1/2-x,1/2+y,1/2-z
1/2-x,1/2-y,-z
1/2+x,1/2-y,1/2+z
loop_
_atom_site_type_symbol
_atom_site_label
_atom_site_fract_x
_atom_site_fract_y
_atom_site_fract_z
Si Si1 0.283963 0.445369 0.338020
Si Si2 0.005593 0.352596 0.958173
Si Si3 0.919016 0.697475 0.320353
Si Si4 0.825964 0.235151 0.056683
Si Si5 0.724909 0.774931 0.919254
Si Si6 0.750742 0.000948 0.173041
O O1 0.369820 0.344959 0.351225
O O2 0.188628 0.361490 0.379973
O O3 0.284940 0.590936 0.382168
O O4 0.295520 0.473665 0.247263
O O5 0.111140 0.290643 0.932072
O O6 0.963823 0.381039 0.883288
O O7 0.000000 0.500000 0.000000
O O8 0.935265 0.241542 0.011011
O O9 0.846266 0.586719 0.295381
O O10 0.000000 0.740357 0.250000
O O11 0.815721 0.088693 0.103445
O O12 0.750000 0.250000 0.000000
O O13 0.765364 0.649660 0.861639
O O14 0.750000 0.750000 0.000000
#
# Coordination Sequence:
#
# PCOD8151951 Si02
#       6
#     8   8   8   8   8   8
#     4  11  22  43  65  92 136 171 214 273 335 396
#     4  12  23  41  71  96 126 179 229 273 326 405
#     4  11  24  44  69  95 129 180 228 265 336 413
#     4  11  21  43  69  94 131 177 225 270 334 404
#     4  12  25  42  65  99 134 165 223 286 335 388
#     4  11  23  41  67  97 133 173 215 278 336 389
#
# _framework density 20.282602000000001
#
# number of rings (size 3 to 8) (size 9 to 14) (size 15 to 20)
#    0.000    0.667    5.000    6.000    0.000    0.667 
#    3.000    0.833    0.000    0.000    0.000    0.000 
#    0.000    0.000    0.000    0.000    0.000    0.000 
#
# Total GULP energy -297526.749818 kJ/mol
# GULP energy per Si atom -12396.947909 kJ/mol
# Density = 2.023644 g / cm^3
# Si number density = 20.282602 Si / 1000 Ang^3
#
#
#
# Elastic Constant Matrix: (Units=GPa)
#
#
# Indices 1 2 3 4 5 6 
#
# 1 95.0546 35.0165 23.0159 0.0000 -10.8816 0.0000
# 2 35.0165 149.3833 48.2522 0.0000 -2.8807 0.0000
# 3 23.0159 48.2522 129.8573 0.0000 10.4496 0.0000
# 4 0.0000 0.0000 0.0000 47.2839 0.0000 -2.7937
# 5 -10.8816 -2.8807 10.4496 0.0000 41.7995 0.0000
# 6 0.0000 0.0000 0.0000 -2.7937 0.0000 12.4277
#
#
#
# Elastic Compliance Matrix: (Units=1/GPa)
#
#
# Indices 1 2 3 4 5 6 
#
# 1 0.012127 -0.002267 -0.001580 0.000000 0.003396 0.000000
# 2 -0.002267 0.008096 -0.002657 0.000000 0.000632 0.000000
# 3 -0.001580 -0.002657 0.009201 0.000000 -0.002895 0.000000
# 4 0.000000 0.000000 0.000000 0.021434 0.000000 0.004818
# 5 0.003396 0.000632 -0.002895 0.000000 0.025575 0.000000
# 6 0.000000 0.000000 0.000000 0.004818 0.000000 0.081549
#
#
# Mechanical properties :
#
#
# Convention : Reuss Voigt Hill
#
# Bulk Modulus (GPa) = 60.91949 65.20714 63.06331
# Shear Modulus (GPa) = 28.33474 38.16957 33.25215
#
# Velocity S-wave (km/s) = 3.74170 4.34278 4.05340
# Velocity P-wave (km/s) = 6.98338 7.57399 7.28468
#
# Compressibility (1/GPa) = 0.01641511
#
# Stress axis : x y z
#
# Youngs Moduli (GPa) = 82.46300 123.51650 108.68062
#
# Poissons Ratio (x) = 0.27996 0.17175
# Poissons Ratio (y) = 0.18691 0.28882
# Poissons Ratio (z) = 0.13032 0.32824
#
# Static dielectric constant tensor:
#      x y z
#    x 3.719380 0.000000 -0.161250 
#    y 0.000000 3.783540 0.000000 
#    z -0.161250 0.000000 3.942890 
# 
# 
# High freq. dielectric constant tensor:
#      x y z
#    x 1.776200 0.000000 -0.012300 
#    y 0.000000 1.800100 0.000000 
#    z -0.012300 0.000000 1.816320 
# 
# From -- ./inp_files/202988.got.cif
#   From: 2010.06.25/outbox.cif.g09.slc.cpg/sg15_102_cif.got.tgz:202988.got - 2010.06.28 07:06:18.
