data_PCOD8151018
_publ_section_title
;
Structure prediction by ZEFSAII (Michael W. Deem and Ramdas Pophale) SiO2 
 PCOD8151018
Probable space group: C 2/C
;
_chemical_formula_sum "Si O2"
_cell_formula_units_Z 48
_cell_length_a 27.769123
_cell_length_b 13.198752
_cell_length_c 8.766291
_cell_angle_alpha 90.000000
_cell_angle_beta 132.645363
_cell_angle_gamma 90.000000
_cell_volume 2363.358372
_symmetry_space_group_name_H-M "C 2/C"
_symmetry_group_IT_number 15
_symmetry_cell_setting 'monoclinic'
loop_
_space_group_symop_operation_xyz
x,y,z
-x,y,1/2-z
-x,-y,-z
x,-y,1/2+z
1/2+x,1/2+y,z
1/2-x,1/2+y,1/2-z
1/2-x,1/2-y,-z
1/2+x,1/2-y,1/2+z
loop_
_atom_site_type_symbol
_atom_site_label
_atom_site_fract_x
_atom_site_fract_y
_atom_site_fract_z
Si Si1 0.734967 0.401817 0.537207
Si Si2 0.478878 0.720171 0.873681
Si Si3 0.684080 0.590922 0.260416
Si Si4 0.854982 0.730162 0.280339
Si Si5 0.609906 0.300773 0.817887
Si Si6 0.433810 0.490217 0.171355
O O1 0.725071 0.515441 0.457097
O O2 0.726454 0.390081 0.700478
O O3 0.808008 0.365745 0.651285
O O4 0.681015 0.333969 0.338278
O O5 0.500000 0.754745 0.750000
O O6 0.418814 0.786079 0.811478
O O7 0.456445 0.602254 0.830000
O O8 0.541023 0.741864 0.112915
O O9 0.668994 0.697978 0.318297
O O10 0.611233 0.552632 0.060226
O O11 0.873174 0.736572 0.497335
O O12 0.607010 0.422698 0.835328
O O13 0.500000 0.541614 0.250000
#
# Coordination Sequence:
#
# PCOD8151018 Si02
#       6
#     8   8   8   8   8   8
#     4  11  23  37  55  75 118 157 196 229 266 342
#     4  11  20  34  54  85 116 146 181 232 291 341
#     4  12  20  36  55  81 111 158 194 224 274 333
#     4  11  22  37  52  82 117 155 186 229 287 335
#     4  12  21  32  56  83 117 149 185 234 280 341
#     4  11  19  28  49  82 117 147 180 216 272 340
#
# _framework density 20.310082000000001
#
# number of rings (size 3 to 8) (size 9 to 14) (size 15 to 20)
#    0.000    0.667    8.333    2.000    0.000    0.667 
#    0.000    1.667    0.000    0.000    0.000    8.167 
#    0.000    0.000    0.000    0.000    0.000    0.000 
#
# Total GULP energy -297487.255512 kJ/mol
# GULP energy per Si atom -12395.302313 kJ/mol
# Density = 2.026386 g / cm^3
# Si number density = 20.310082 Si / 1000 Ang^3
#
#
#
# Elastic Constant Matrix: (Units=GPa)
#
#
# Indices 1 2 3 4 5 6 
#
# 1 114.5900 17.3159 50.3037 0.0000 10.3431 0.0000
# 2 17.3159 19.7158 20.0792 0.0000 12.9748 0.0000
# 3 50.3037 20.0792 102.5672 0.0000 -2.7800 0.0000
# 4 0.0000 0.0000 0.0000 19.5234 0.0000 8.2527
# 5 10.3431 12.9748 -2.7800 0.0000 30.0411 0.0000
# 6 0.0000 0.0000 0.0000 8.2527 0.0000 20.5190
#
#
#
# Elastic Compliance Matrix: (Units=1/GPa)
#
#
# Indices 1 2 3 4 5 6 
#
# 1 0.011785 -0.002661 -0.005351 0.000000 -0.003404 0.000000
# 2 -0.002661 0.103844 -0.020266 0.000000 -0.045810 0.000000
# 3 -0.005351 -0.020266 0.016671 0.000000 0.012138 0.000000
# 4 0.000000 0.000000 0.000000 0.061713 0.000000 -0.024821
# 5 -0.003404 -0.045810 0.012138 0.000000 0.055368 0.000000
# 6 0.000000 0.000000 0.000000 -0.024821 0.000000 0.058718
#
#
# Mechanical properties :
#
#
# Convention : Reuss Voigt Hill
#
# Bulk Modulus (GPa) = 13.20236 45.80786 29.50511
# Shear Modulus (GPa) = 12.82369 23.96165 18.39267
#
# Velocity S-wave (km/s) = 2.51548 3.43853 3.01257
# Velocity P-wave (km/s) = 3.86670 6.19418 5.16330
#
# Compressibility (1/GPa) = 0.07574406
#
# Stress axis : x y z
#
# Youngs Moduli (GPa) = 84.85170 9.62980 59.98550
#
# Poissons Ratio (x) = 0.02562 0.32101
# Poissons Ratio (y) = 0.22576 1.21567
# Poissons Ratio (z) = 0.45408 0.19516
#
# Static dielectric constant tensor:
#      x y z
#    x 3.972100 0.000000 -0.055840 
#    y 0.000000 2.988120 0.000000 
#    z -0.055840 0.000000 3.780740 
# 
# 
# High freq. dielectric constant tensor:
#      x y z
#    x 1.813680 0.000000 -0.009100 
#    y 0.000000 1.710890 0.000000 
#    z -0.009100 0.000000 1.806410 
# 
# From -- ./inp_files/48093.got.cif
#   From: 2010.06.25/outbox.cif.g09.slc.cpg/sg15_25_cif.got.tgz:48093.got - 2010.06.28 07:06:18.
