data_PCOD8151975
_publ_section_title
;
Structure prediction by ZEFSAII (Michael W. Deem and Ramdas Pophale) SiO2 
 PCOD8151975
Probable space group: C 2/C
;
_chemical_formula_sum "Si O2"
_cell_formula_units_Z 64
_cell_length_a 11.452424
_cell_length_b 18.424093
_cell_length_c 27.662180
_cell_angle_alpha 90.000000
_cell_angle_beta 149.429501
_cell_angle_gamma 90.000000
_cell_volume 2968.552433
_symmetry_space_group_name_H-M "C 2/C"
_symmetry_group_IT_number 15
_symmetry_cell_setting 'monoclinic'
loop_
_space_group_symop_operation_xyz
x,y,z
-x,y,1/2-z
-x,-y,-z
x,-y,1/2+z
1/2+x,1/2+y,z
1/2-x,1/2+y,1/2-z
1/2-x,1/2-y,-z
1/2+x,1/2-y,1/2+z
loop_
_atom_site_type_symbol
_atom_site_label
_atom_site_fract_x
_atom_site_fract_y
_atom_site_fract_z
Si Si1 0.991026 0.449351 0.876462
Si Si2 0.674480 0.316352 0.855749
Si Si3 0.790244 0.480481 0.391312
Si Si4 0.366510 0.282251 0.494483
Si Si5 0.791284 0.821943 0.140951
Si Si6 0.549618 0.555784 0.167790
Si Si7 0.893092 0.046656 0.005741
Si Si8 0.817053 0.325587 0.501011
O O1 0.805588 0.463005 0.852894
O O2 0.823039 0.428880 0.772124
O O3 0.187265 0.388711 0.959374
O O4 0.127440 0.523339 0.914476
O O5 0.500000 0.310259 0.750000
O O6 0.596604 0.373119 0.869449
O O7 0.923479 0.334811 0.924363
O O8 0.698159 0.238630 0.890247
O O9 0.809669 0.398944 0.377010
O O10 0.549022 0.490782 0.333524
O O11 0.000000 0.500000 0.500000
O O12 0.250000 0.250000 0.500000
O O13 0.613296 0.243787 0.578726
O O14 0.405585 0.367395 0.502994
O O15 0.000000 0.798779 0.250000
O O16 0.852763 0.836296 0.105661
O O17 0.519764 0.531813 0.101709
O O18 0.000000 0.000000 0.000000
O O19 0.750000 0.250000 0.500000
#
# Coordination Sequence:
#
# PCOD8151975 Si02
#       8
#     8   8   8   8   8   8   8   8
#     4  12  24  42  74 102 138 180 233 295 362 431
#     4  11  21  43  73 106 134 179 240 300 364 438
#     4  12  19  40  72 110 138 164 218 309 380 413
#     4  11  24  46  69  94 139 192 234 285 356 433
#     4  11  24  40  67 101 135 173 230 291 347 427
#     4  12  22  44  77 104 134 181 236 299 367 439
#     4  12  29  48  66  98 148 197 244 290 358 443
#     4  11  24  40  66 103 143 175 222 296 372 418
#
# _framework density 21.559329999999999
#
# number of rings (size 3 to 8) (size 9 to 14) (size 15 to 20)
#    0.000    0.500    6.250    2.625    3.500    2.500 
#    2.250    0.000    0.000    0.000    0.000    0.000 
#    0.000    0.000    0.000    0.000    0.000    0.000 
#
# Total GULP energy -396503.551642 kJ/mol
# GULP energy per Si atom -12390.735989 kJ/mol
# Density = 2.151026 g / cm^3
# Si number density = 21.559330 Si / 1000 Ang^3
#
#
#
# Elastic Constant Matrix: (Units=GPa)
#
#
# Indices 1 2 3 4 5 6 
#
# 1 90.3297 45.4165 45.3898 -0.0006 -16.9127 -0.0003
# 2 45.4165 165.4536 44.5333 -0.0007 2.7023 -0.0004
# 3 45.3898 44.5333 153.1384 -0.0032 -15.2086 -0.0019
# 4 -0.0006 -0.0007 -0.0032 23.3293 -0.0020 -1.2288
# 5 -16.9127 2.7023 -15.2086 -0.0020 19.6347 -0.0008
# 6 -0.0003 -0.0004 -0.0019 -1.2288 -0.0008 42.0490
#
#
#
# Elastic Compliance Matrix: (Units=1/GPa)
#
#
# Indices 1 2 3 4 5 6 
#
# 1 0.016893 -0.004186 -0.002478 0.000001 0.013208 0.000000
# 2 -0.004186 0.007717 -0.001589 -0.000001 -0.005899 0.000000
# 3 -0.002478 -0.001589 0.008165 0.000001 0.004408 0.000000
# 4 0.000001 -0.000001 0.000001 0.042931 0.000007 0.001255
# 5 0.013208 -0.005899 0.004408 0.000007 0.066534 0.000002
# 6 0.000000 0.000000 0.000000 0.001255 0.000002 0.023818
#
#
# Mechanical properties :
#
#
# Convention : Reuss Voigt Hill
#
# Bulk Modulus (GPa) = 61.46910 75.51120 68.49015
# Shear Modulus (GPa) = 26.59755 35.24141 30.91948
#
# Velocity S-wave (km/s) = 3.51620 4.04744 3.79114
# Velocity P-wave (km/s) = 6.71256 7.54607 7.14148
#
# Compressibility (1/GPa) = 0.01626834
#
# Stress axis : x y z
#
# Youngs Moduli (GPa) = 59.19480 129.58199 122.48104
#
# Poissons Ratio (x) = 0.54242 0.30353
# Poissons Ratio (y) = 0.24778 0.19466
# Poissons Ratio (z) = 0.14669 0.20595
#
# Static dielectric constant tensor:
#      x y z
#    x 3.958360 -0.000010 -0.120850 
#    y -0.000010 4.068740 0.000000 
#    z -0.120850 0.000000 4.001870 
# 
# 
# High freq. dielectric constant tensor:
#      x y z
#    x 1.829310 0.000000 -0.018190 
#    y 0.000000 1.853590 0.000000 
#    z -0.018190 0.000000 1.850360 
# 
# From -- ./inp_files/311658.got.cif
#   From: 2010.06.25/outbox.cif.g09.slc.cpg/sg15_156_cif.got.tgz:311658.got - 2010.06.28 07:06:18.
