data_PCOD8151016
_publ_section_title
;
Structure prediction by ZEFSAII (Michael W. Deem and Ramdas Pophale) SiO2 
 PCOD8151016
Probable space group: C 2/C
;
_chemical_formula_sum "Si O2"
_cell_formula_units_Z 48
_cell_length_a 13.812404
_cell_length_b 13.487511
_cell_length_c 28.939333
_cell_angle_alpha 90.000000
_cell_angle_beta 26.770854
_cell_angle_gamma 90.000000
_cell_volume 2428.346045
_symmetry_space_group_name_H-M "C 2/C"
_symmetry_group_IT_number 15
_symmetry_cell_setting 'monoclinic'
loop_
_space_group_symop_operation_xyz
x,y,z
-x,y,1/2-z
-x,-y,-z
x,-y,1/2+z
1/2+x,1/2+y,z
1/2-x,1/2+y,1/2-z
1/2-x,1/2-y,-z
1/2+x,1/2-y,1/2+z
loop_
_atom_site_type_symbol
_atom_site_label
_atom_site_fract_x
_atom_site_fract_y
_atom_site_fract_z
Si Si1 0.150024 0.321281 0.004197
Si Si2 0.804389 0.719117 0.796657
Si Si3 0.362527 0.938507 0.192385
Si Si4 0.538646 0.576436 0.285846
Si Si5 0.014333 0.843487 0.495168
Si Si6 0.352544 0.986814 0.856777
O O1 0.988071 0.401721 0.093886
O O2 0.250000 0.250000 0.000000
O O3 0.324234 0.383474 0.901414
O O4 0.016568 0.251632 0.026811
O O5 0.835761 0.653699 0.738073
O O6 0.790583 0.833405 0.787406
O O7 0.579747 0.688521 0.915590
O O8 0.000000 0.706248 0.750000
O O9 0.135924 0.985524 0.273724
O O10 0.497639 0.022929 0.161973
O O11 0.500000 0.539344 0.250000
O O12 0.771432 0.884159 0.599035
O O13 0.181037 0.927011 0.441402
O O14 0.500000 0.014500 0.750000
#
# Coordination Sequence:
#
# PCOD8151016 Si02
#       6
#     8   8   8   8   8   8
#     4  12  22  40  68  93 119 174 218 246 317 390
#     4  11  18  43  65  92 125 164 211 257 315 375
#     4  12  24  38  65 101 124 161 218 262 311 380
#     4  11  25  44  66  88 130 173 211 261 312 381
#     4  11  21  38  67  90 129 168 204 256 324 375
#     4  11  22  35  62 103 133 151 205 277 319 358
#
# _framework density 19.766541
#
# number of rings (size 3 to 8) (size 9 to 14) (size 15 to 20)
#    0.000    0.667   10.000    0.000    4.667    0.667 
#    0.000    3.333    0.000    0.000    0.000    0.000 
#    0.000    0.000    0.000    0.000    0.000    0.000 
#
# Total GULP energy -297583.577182 kJ/mol
# GULP energy per Si atom -12399.315716 kJ/mol
# Density = 1.972155 g / cm^3
# Si number density = 19.766541 Si / 1000 Ang^3
#
#
#
# Elastic Constant Matrix: (Units=GPa)
#
#
# Indices 1 2 3 4 5 6 
#
# 1 101.6268 42.3406 41.5578 0.0033 6.0454 -0.0003
# 2 42.3406 70.6340 29.2737 0.0131 -5.2723 -0.0007
# 3 41.5578 29.2737 72.5550 0.0132 12.9551 0.0186
# 4 0.0033 0.0131 0.0132 32.5934 0.0019 -7.2538
# 5 6.0454 -5.2723 12.9551 0.0019 28.1777 0.0001
# 6 -0.0003 -0.0007 0.0186 -7.2538 0.0001 27.3394
#
#
#
# Elastic Compliance Matrix: (Units=1/GPa)
#
#
# Indices 1 2 3 4 5 6 
#
# 1 0.015087 -0.006917 -0.005493 0.000005 -0.002006 0.000005
# 2 -0.006917 0.021500 -0.006205 -0.000005 0.008360 0.000003
# 3 -0.005493 -0.006205 0.021167 -0.000009 -0.009714 -0.000017
# 4 0.000005 -0.000005 -0.000009 0.032606 0.000000 0.008651
# 5 -0.002006 0.008360 -0.009714 0.000000 0.041950 0.000007
# 6 0.000005 0.000003 -0.000017 0.008651 0.000007 0.038873
#
#
# Mechanical properties :
#
#
# Convention : Reuss Voigt Hill
#
# Bulk Modulus (GPa) = 48.72375 52.35111 50.53743
# Shear Modulus (GPa) = 23.22843 26.39833 24.81338
#
# Velocity S-wave (km/s) = 3.43175 3.65842 3.54690
# Velocity P-wave (km/s) = 6.35654 6.66240 6.51127
#
# Compressibility (1/GPa) = 0.02052387
#
# Stress axis : x y z
#
# Youngs Moduli (GPa) = 66.28137 46.51263 47.24396
#
# Poissons Ratio (x) = 0.32174 0.25949
# Poissons Ratio (y) = 0.45848 0.29315
# Poissons Ratio (z) = 0.36405 0.28861
#
# Static dielectric constant tensor:
#      x y z
#    x 3.582060 0.000000 0.236670 
#    y 0.000000 3.677480 0.000020 
#    z 0.236670 0.000020 3.737930 
# 
# 
# High freq. dielectric constant tensor:
#      x y z
#    x 1.759340 0.000000 0.024950 
#    y 0.000000 1.763800 0.000000 
#    z 0.024950 0.000000 1.766510 
# 
# From -- ./inp_files/292979.got.cif
#   From: 2010.06.25/outbox.cif.g09.slc.cpg/sg15_147_cif.got.tgz:292979.got - 2010.06.28 07:06:18.
