data_PCOD8151568
_publ_section_title
;
Structure prediction by ZEFSAII (Michael W. Deem and Ramdas Pophale) SiO2 
 PCOD8151568
Probable space group: C 2/C
;
_chemical_formula_sum "Si O2"
_cell_formula_units_Z 40
_cell_length_a 4.931207
_cell_length_b 22.645883
_cell_length_c 22.143219
_cell_angle_alpha 90.000000
_cell_angle_beta 129.831339
_cell_angle_gamma 90.000000
_cell_volume 1898.920321
_symmetry_space_group_name_H-M "C 2/C"
_symmetry_group_IT_number 15
_symmetry_cell_setting 'monoclinic'
loop_
_space_group_symop_operation_xyz
x,y,z
-x,y,1/2-z
-x,-y,-z
x,-y,1/2+z
1/2+x,1/2+y,z
1/2-x,1/2+y,1/2-z
1/2-x,1/2-y,-z
1/2+x,1/2-y,1/2+z
loop_
_atom_site_type_symbol
_atom_site_label
_atom_site_fract_x
_atom_site_fract_y
_atom_site_fract_z
Si Si1 0.588036 0.654879 0.198821
Si Si2 0.847332 0.462051 0.876782
Si Si3 0.614945 0.384992 0.481531
Si Si4 0.240744 0.537138 0.839401
Si Si5 0.258020 0.187090 0.470306
O O1 0.500000 0.687371 0.250000
O O2 0.408153 0.591132 0.176524
O O3 0.430656 0.693050 0.121552
O O4 0.000000 0.646497 0.250000
O O5 0.623831 0.515956 0.871785
O O6 0.041043 0.483614 0.843928
O O7 0.136880 0.440639 0.966565
O O8 0.304909 0.407558 0.393284
O O9 0.447819 0.360842 0.519306
O O10 0.837960 0.333509 0.480623
O O11 0.000000 0.559943 0.750000
O O12 0.250000 0.250000 0.500000
#
# Coordination Sequence:
#
# PCOD8151568 Si02
#       5
#     8   8   8   8   8
#     4  11  21  37  61  92 119 146 193 252 295 335
#     4  11  21  36  59  86 121 157 192 235 290 349
#     4  11  23  40  61  86 118 156 199 242 287 352
#     4  12  23  36  57  88 125 161 192 229 283 352
#     4  11  24  43  64  84 114 156 199 246 299 346
#
# _framework density 21.064601
#
# number of rings (size 3 to 8) (size 9 to 14) (size 15 to 20)
#    0.000    0.800    0.000   11.400    0.000    0.000 
#    0.000    3.000    0.000    0.000    0.000    0.000 
#    0.000    0.000    0.000    0.000    0.000    0.000 
#
# Total GULP energy -248118.574473 kJ/mol
# GULP energy per Si atom -12405.928724 kJ/mol
# Density = 2.101666 g / cm^3
# Si number density = 21.064601 Si / 1000 Ang^3
#
#
#
# Elastic Constant Matrix: (Units=GPa)
#
#
# Indices 1 2 3 4 5 6 
#
# 1 120.6582 22.5565 59.4643 0.0000 -9.8411 0.0000
# 2 22.5565 62.8090 66.9547 0.0000 -12.2842 0.0000
# 3 59.4643 66.9547 179.8319 0.0000 -18.8839 0.0000
# 4 0.0000 0.0000 0.0000 6.0030 0.0000 -5.6269
# 5 -9.8411 -12.2842 -18.8839 0.0000 35.2873 0.0000
# 6 0.0000 0.0000 0.0000 -5.6269 0.0000 22.9500
#
#
#
# Elastic Compliance Matrix: (Units=1/GPa)
#
#
# Indices 1 2 3 4 5 6 
#
# 1 0.009940 0.000040 -0.003188 0.000000 0.001080 0.000000
# 2 0.000040 0.026989 -0.009614 0.000000 0.004262 0.000000
# 3 -0.003188 -0.009614 0.010330 0.000000 0.001292 0.000000
# 4 0.000000 0.000000 0.000000 0.216292 0.000000 0.053031
# 5 0.001080 0.004262 0.001292 0.000000 0.030815 0.000000
# 6 0.000000 0.000000 0.000000 0.053031 0.000000 0.056575
#
#
# Mechanical properties :
#
#
# Convention : Reuss Voigt Hill
#
# Bulk Modulus (GPa) = 46.00979 73.47223 59.74101
# Shear Modulus (GPa) = 13.03061 27.13630 20.08345
#
# Velocity S-wave (km/s) = 2.48987 3.59310 3.09110
# Velocity P-wave (km/s) = 5.49141 7.22281 6.41579
#
# Compressibility (1/GPa) = 0.02173450
#
# Stress axis : x y z
#
# Youngs Moduli (GPa) = 100.60634 37.05166 96.80215
#
# Poissons Ratio (x) = -0.00150 0.30864
# Poissons Ratio (y) = -0.00406 0.93070
# Poissons Ratio (z) = 0.32077 0.35623
#
# Static dielectric constant tensor:
#      x y z
#    x 4.186860 0.000000 -0.059310 
#    y 0.000000 3.353490 0.000000 
#    z -0.059310 0.000000 4.116680 
# 
# 
# High freq. dielectric constant tensor:
#      x y z
#    x 1.852800 0.000000 -0.004790 
#    y 0.000000 1.783810 0.000000 
#    z -0.004790 0.000000 1.835300 
# 
# From -- ./inp_files/261787.got.cif
#   From: 2010.06.25/outbox.cif.g09.slc.cpg/sg15_131_cif.got.tgz:261787.got - 2010.06.28 07:06:18.
