data_PCOD8151108
_publ_section_title
;
Structure prediction by ZEFSAII (Michael W. Deem and Ramdas Pophale) SiO2 
 PCOD8151108
Probable space group: C 2/C
;
_chemical_formula_sum "Si O2"
_cell_formula_units_Z 60
_cell_length_a 22.729761
_cell_length_b 8.491307
_cell_length_c 15.501961
_cell_angle_alpha 90.000000
_cell_angle_beta 113.228321
_cell_angle_gamma 90.000000
_cell_volume 2749.434932
_symmetry_space_group_name_H-M "C 2/C"
_symmetry_group_IT_number 15
_symmetry_cell_setting 'monoclinic'
loop_
_space_group_symop_operation_xyz
x,y,z
-x,y,1/2-z
-x,-y,-z
x,-y,1/2+z
1/2+x,1/2+y,z
1/2-x,1/2+y,1/2-z
1/2-x,1/2-y,-z
1/2+x,1/2-y,1/2+z
loop_
_atom_site_type_symbol
_atom_site_label
_atom_site_fract_x
_atom_site_fract_y
_atom_site_fract_z
Si Si1 0.367881 0.238912 0.230737
Si Si2 0.672724 0.408534 0.793588
Si Si3 0.666414 0.661114 0.477843
Si Si4 0.180048 0.602331 0.129808
Si Si5 0.450976 0.548915 0.545541
Si Si6 0.251631 0.877368 0.575327
Si Si7 0.861073 0.745419 0.890335
Si Si8 0.500000 0.684599 0.750000
O O1 0.353037 0.418933 0.196600
O O2 0.355291 0.221905 0.325356
O O3 0.323836 0.113894 0.153723
O O4 0.440624 0.204508 0.243408
O O5 0.666157 0.304023 0.876025
O O6 0.745809 0.423095 0.802745
O O7 0.627135 0.323180 0.696992
O O8 0.676351 0.826458 0.531808
O O9 0.600480 0.588587 0.473383
O O10 0.727356 0.547876 0.531828
O O11 0.139991 0.442231 0.112880
O O12 0.500000 0.500000 0.500000
O O13 0.414832 0.705702 0.490838
O O14 0.484251 0.578130 0.656979
O O15 0.250000 0.750000 0.500000
O O16 0.208261 0.810434 0.626034
#
# Coordination Sequence:
#
# PCOD8151108 Si02
#       8
#     8   8   8   8   8   8   8   4
#     4  12  23  41  71  98 140 179 240 283 356 422
#     4  12  21  42  65 105 141 179 227 290 356 426
#     4  11  24  40  68 106 140 180 231 297 360 429
#     4  12  24  41  66 104 144 182 225 293 361 424
#     4  11  24  46  76  98 137 186 246 290 348 437
#     4  11  19  39  66  99 134 173 228 291 357 412
#     4  11  24  41  66 103 140 181 231 290 355 417
#     4  12  24  46  70 102 132 188 240 282 346 434
#
# _framework density 21.822666999999999
#
# number of rings (size 3 to 8) (size 9 to 14) (size 15 to 20)
#    0.000    0.533    5.333    4.400    1.867    0.000 
#    2.400    2.667    0.000    0.800    0.000    0.000 
#    0.000    0.000    0.000    0.000    0.000    0.000 
#
# Total GULP energy -372050.020739 kJ/mol
# GULP energy per Si atom -12401.667358 kJ/mol
# Density = 2.177300 g / cm^3
# Si number density = 21.822667 Si / 1000 Ang^3
#
#
#
# Elastic Constant Matrix: (Units=GPa)
#
#
# Indices 1 2 3 4 5 6 
#
# 1 139.9960 16.1115 38.1757 0.0000 2.1146 0.0000
# 2 16.1115 66.2227 34.8327 0.0000 4.9818 0.0000
# 3 38.1757 34.8327 145.8445 0.0000 -2.5141 0.0000
# 4 0.0000 0.0000 0.0000 28.2125 0.0000 1.7732
# 5 2.1146 4.9818 -2.5141 0.0000 37.0433 0.0000
# 6 0.0000 0.0000 0.0000 1.7732 0.0000 16.6065
#
#
#
# Elastic Compliance Matrix: (Units=1/GPa)
#
#
# Indices 1 2 3 4 5 6 
#
# 1 0.007750 -0.000893 -0.001823 0.000000 -0.000446 0.000000
# 2 -0.000893 0.017628 -0.004021 0.000000 -0.002593 0.000000
# 3 -0.001823 -0.004021 0.008315 0.000000 0.001209 0.000000
# 4 0.000000 0.000000 0.000000 0.035685 0.000000 -0.003810
# 5 -0.000446 -0.002593 0.001209 0.000000 0.027452 0.000000
# 6 0.000000 0.000000 0.000000 -0.003810 0.000000 0.060624
#
#
# Mechanical properties :
#
#
# Convention : Reuss Voigt Hill
#
# Bulk Modulus (GPa) = 49.45970 58.92257 54.19114
# Shear Modulus (GPa) = 28.14257 33.90201 31.02229
#
# Velocity S-wave (km/s) = 3.59500 3.94575 3.77445
# Velocity P-wave (km/s) = 6.32025 6.91505 6.62433
#
# Compressibility (1/GPa) = 0.02021848
#
# Stress axis : x y z
#
# Youngs Moduli (GPa) = 129.03779 56.72816 120.26460
#
# Poissons Ratio (x) = 0.05066 0.21923
# Poissons Ratio (y) = 0.11524 0.48360
# Poissons Ratio (z) = 0.23523 0.22811
#
# Static dielectric constant tensor:
#      x y z
#    x 4.051710 0.000000 -0.059560 
#    y 0.000000 3.621860 0.000000 
#    z -0.059560 0.000000 4.197360 
# 
# 
# High freq. dielectric constant tensor:
#      x y z
#    x 1.855810 0.000000 -0.015300 
#    y 0.000000 1.831890 0.000000 
#    z -0.015300 0.000000 1.876540 
# 
# From -- ./inp_files/172437.got.cif
#   From: 2010.06.25/outbox.cif.g09.slc.cpg/sg15_87_cif.got.tgz:172437.got - 2010.06.28 07:06:18.
