data_PCOD8151467
_publ_section_title
;
Structure prediction by ZEFSAII (Michael W. Deem and Ramdas Pophale) SiO2 
 PCOD8151467
Probable space group: C 2/C
;
_chemical_formula_sum "Si O2"
_cell_formula_units_Z 64
_cell_length_a 30.627878
_cell_length_b 21.590063
_cell_length_c 15.284028
_cell_angle_alpha 90.000000
_cell_angle_beta 161.334256
_cell_angle_gamma 90.000000
_cell_volume 3234.609675
_symmetry_space_group_name_H-M "C 2/C"
_symmetry_group_IT_number 15
_symmetry_cell_setting 'monoclinic'
loop_
_space_group_symop_operation_xyz
x,y,z
-x,y,1/2-z
-x,-y,-z
x,-y,1/2+z
1/2+x,1/2+y,z
1/2-x,1/2+y,1/2-z
1/2-x,1/2-y,-z
1/2+x,1/2-y,1/2+z
loop_
_atom_site_type_symbol
_atom_site_label
_atom_site_fract_x
_atom_site_fract_y
_atom_site_fract_z
Si Si1 0.150335 0.481609 0.257793
Si Si2 0.022808 0.314372 0.011850
Si Si3 0.755875 0.869568 0.559387
Si Si4 0.160384 0.328763 0.563615
Si Si5 0.638325 0.312947 0.061451
Si Si6 0.048549 0.822195 0.088021
Si Si7 0.387115 0.889749 0.468837
Si Si8 0.721863 0.116458 0.363806
O O1 0.214605 0.440081 0.457560
O O2 0.237797 0.543018 0.407261
O O3 0.153418 0.444374 0.173217
O O4 0.000000 0.500000 0.000000
O O5 0.042002 0.333491 0.948113
O O6 0.974268 0.245002 0.915867
O O7 0.917280 0.360195 0.857462
O O8 0.164342 0.320017 0.333130
O O9 0.740762 0.855962 0.633298
O O10 0.909946 0.860801 0.819635
O O11 0.186258 0.255203 0.621634
O O12 0.221704 0.365498 0.761896
O O13 0.000000 0.342339 0.250000
O O14 0.615712 0.313489 0.121616
O O15 0.751741 0.364548 0.258320
O O16 0.500000 0.332397 0.750000
O O17 0.148349 0.854939 0.343933
O O18 0.500000 0.915883 0.750000
#
# Coordination Sequence:
#
# PCOD8151467 Si02
#       8
#     8   8   8   8   8   8   8   8
#     4  11  23  45  67  91 130 173 231 265 314 400
#     4  11  20  43  66  97 131 172 218 261 331 395
#     4  11  23  42  69  95 128 181 220 264 326 395
#     4  11  21  41  66  99 129 172 224 269 319 389
#     4  11  22  40  64  98 136 167 212 268 333 396
#     4  12  25  40  68  98 140 170 208 277 344 386
#     4  11  24  38  67 101 125 169 221 274 321 379
#     4  12  24  41  68  95 133 176 217 270 331 381
#
# _framework density 19.786003999999998
#
# number of rings (size 3 to 8) (size 9 to 14) (size 15 to 20)
#    0.000    0.750    5.000    4.500    1.750    2.500 
#    0.000    0.000    2.750    0.000    0.000    0.000 
#    0.000    0.000    0.000    0.000    0.000    0.000 
#
# Total GULP energy -396941.926770 kJ/mol
# GULP energy per Si atom -12404.435212 kJ/mol
# Density = 1.974097 g / cm^3
# Si number density = 19.786004 Si / 1000 Ang^3
#
#
#
# Elastic Constant Matrix: (Units=GPa)
#
#
# Indices 1 2 3 4 5 6 
#
# 1 88.3600 48.6427 56.0671 0.0000 6.2752 0.0000
# 2 48.6427 157.8287 68.0669 0.0000 10.9741 0.0000
# 3 56.0671 68.0669 116.1729 0.0000 -6.4319 0.0000
# 4 0.0000 0.0000 0.0000 22.2591 0.0000 24.3152
# 5 6.2752 10.9741 -6.4319 0.0000 45.3065 0.0000
# 6 0.0000 0.0000 0.0000 24.3152 0.0000 -18.2986
#
#
#
# Elastic Compliance Matrix: (Units=1/GPa)
#
#
# Indices 1 2 3 4 5 6 
#
# 1 0.017267 -0.001941 -0.007360 0.000000 -0.002966 0.000000
# 2 -0.001941 0.009059 -0.004513 0.000000 -0.002566 0.000000
# 3 -0.007360 -0.004513 0.015039 0.000000 0.004248 0.000000
# 4 0.000000 0.000000 0.000000 0.018325 0.000000 0.024351
# 5 -0.002966 -0.002566 0.004248 0.000000 0.023707 0.000000
# 6 0.000000 0.000000 0.000000 0.024351 0.000000 -0.022292
#
#
# Mechanical properties :
#
#
# Convention : Reuss Voigt Hill
#
# Bulk Modulus (GPa) = 72.79824 78.65721 75.72773
# Shear Modulus (GPa) = 53.58266 22.49239 38.03753
#
# Velocity S-wave (km/s) = 5.20960 3.37528 4.38933
# Velocity P-wave (km/s) = 8.54747 7.41824 8.00280
#
# Compressibility (1/GPa) = 0.01373659
#
# Stress axis : x y z
#
# Youngs Moduli (GPa) = 57.91441 110.38755 66.49207
#
# Poissons Ratio (x) = 0.21428 0.48939
# Poissons Ratio (y) = 0.11242 0.30008
# Poissons Ratio (z) = 0.42626 0.49818
#
# Static dielectric constant tensor:
#      x y z
#    x 3.752890 0.000000 -0.064260 
#    y 0.000000 3.690060 0.000000 
#    z -0.064260 0.000000 3.683810 
# 
# 
# High freq. dielectric constant tensor:
#      x y z
#    x 1.783130 0.000000 -0.003990 
#    y 0.000000 1.769230 0.000000 
#    z -0.003990 0.000000 1.772620 
# 
# From -- ./inp_files/183170.got.cif
#   From: 2010.06.25/outbox.cif.g09.slc.cpg/sg15_92_cif.got.tgz:183170.got - 2010.06.28 07:06:18.
