data_PCOD8151202
_publ_section_title
;
Structure prediction by ZEFSAII (Michael W. Deem and Ramdas Pophale) SiO2 
 PCOD8151202
Probable space group: C 2/C
;
_chemical_formula_sum "Si O2"
_cell_formula_units_Z 56
_cell_length_a 23.991875
_cell_length_b 12.347313
_cell_length_c 10.260897
_cell_angle_alpha 90.000000
_cell_angle_beta 105.316429
_cell_angle_gamma 90.000000
_cell_volume 2931.676019
_symmetry_space_group_name_H-M "C 2/C"
_symmetry_group_IT_number 15
_symmetry_cell_setting 'monoclinic'
loop_
_space_group_symop_operation_xyz
x,y,z
-x,y,1/2-z
-x,-y,-z
x,-y,1/2+z
1/2+x,1/2+y,z
1/2-x,1/2+y,1/2-z
1/2-x,1/2-y,-z
1/2+x,1/2-y,1/2+z
loop_
_atom_site_type_symbol
_atom_site_label
_atom_site_fract_x
_atom_site_fract_y
_atom_site_fract_z
Si Si1 0.726873 0.790051 0.120049
Si Si2 0.934664 0.207224 0.729854
Si Si3 0.665490 0.764179 0.653777
Si Si4 0.233387 0.520151 0.169844
Si Si5 0.536132 0.524875 0.152243
Si Si6 0.625230 0.641754 0.057891
Si Si7 0.306404 0.556805 0.964358
O O1 0.785117 0.797203 0.236672
O O2 0.680263 0.706457 0.149538
O O3 0.701030 0.911366 0.099078
O O4 0.750000 0.750000 0.000000
O O5 0.896215 0.273700 0.810448
O O6 0.904284 0.215617 0.570693
O O7 0.000000 0.252819 0.750000
O O8 0.934530 0.085035 0.781046
O O9 0.684556 0.886965 0.638895
O O10 0.665771 0.678107 0.534234
O O11 0.261126 0.492526 0.328513
O O12 0.280590 0.556196 0.093150
O O13 0.500000 0.573466 0.250000
O O14 0.582604 0.618271 0.151265
O O15 0.500000 0.500000 0.000000
O O16 0.640435 0.526445 0.002801
#
# Coordination Sequence:
#
# PCOD8151202 Si02
#       7
#     8   8   8   8   8   8   8
#     4  11  20  35  60  88 114 160 190 236 298 354
#     4  11  22  36  59  88 112 161 200 238 293 352
#     4  11  21  36  56  86 123 150 193 250 292 346
#     4  11  22  38  55  86 125 151 199 229 294 358
#     4  11  22  38  56  89 123 155 196 243 297 346
#     4  12  20  36  62  86 123 153 200 236 295 364
#     4  11  22  34  57  88 121 154 187 240 298 352
#
# _framework density 19.101700999999998
#
# number of rings (size 3 to 8) (size 9 to 14) (size 15 to 20)
#    0.000    0.857    8.571    1.286    0.000    0.000 
#    0.000    0.000    0.000    1.714    0.000    0.000 
#    0.000    0.000    0.000    0.000    0.000    0.000 
#
# Total GULP energy -346899.336025 kJ/mol
# GULP energy per Si atom -12389.262001 kJ/mol
# Density = 1.905822 g / cm^3
# Si number density = 19.101701 Si / 1000 Ang^3
#
#
#
# Elastic Constant Matrix: (Units=GPa)
#
#
# Indices 1 2 3 4 5 6 
#
# 1 118.9779 37.8163 14.1044 0.0000 -24.4929 0.0000
# 2 37.8163 112.9992 -1.6568 0.0000 -14.8939 0.0000
# 3 14.1044 -1.6568 50.6913 0.0000 -14.7259 0.0000
# 4 0.0000 0.0000 0.0000 17.5986 0.0000 0.2170
# 5 -24.4929 -14.8939 -14.7259 0.0000 35.1084 0.0000
# 6 0.0000 0.0000 0.0000 0.2170 0.0000 29.6005
#
#
#
# Elastic Compliance Matrix: (Units=1/GPa)
#
#
# Indices 1 2 3 4 5 6 
#
# 1 0.010632 -0.002838 -0.001419 0.000000 0.005618 0.000000
# 2 -0.002838 0.010256 0.002065 0.000000 0.003237 0.000000
# 3 -0.001419 0.002065 0.022953 0.000000 0.009514 0.000000
# 4 0.000000 0.000000 0.000000 0.056828 0.000000 -0.000417
# 5 0.005618 0.003237 0.009514 0.000000 0.037766 0.000000
# 6 0.000000 0.000000 0.000000 -0.000417 0.000000 0.033786
#
#
# Mechanical properties :
#
#
# Convention : Reuss Voigt Hill
#
# Bulk Modulus (GPa) = 25.34358 42.57737 33.96047
# Shear Modulus (GPa) = 26.34929 31.95513 29.15221
#
# Velocity S-wave (km/s) = 3.71808 4.09454 3.91085
# Velocity P-wave (km/s) = 5.63283 6.68520 6.18145
#
# Compressibility (1/GPa) = 0.03945773
#
# Stress axis : x y z
#
# Youngs Moduli (GPa) = 94.05747 97.49933 43.56660
#
# Poissons Ratio (x) = 0.27674 0.06182
# Poissons Ratio (y) = 0.26697 -0.08998
# Poissons Ratio (z) = 0.13346 -0.20137
#
# Static dielectric constant tensor:
#      x y z
#    x 4.581800 0.000000 -0.387310 
#    y 0.000000 7.298120 0.000000 
#    z -0.387310 0.000000 3.509080 
# 
# 
# High freq. dielectric constant tensor:
#      x y z
#    x 1.735950 0.000000 -0.013110 
#    y 0.000000 1.722390 0.000000 
#    z -0.013110 0.000000 1.742500 
# 
# From -- ./inp_files/117215.got.cif
#   From: 2010.06.25/outbox.cif.g09.slc.cpg/sg15_59_cif.got.tgz:117215.got - 2010.06.28 07:06:18.
