data_PCOD8151789
_publ_section_title
;
Structure prediction by ZEFSAII (Michael W. Deem and Ramdas Pophale) SiO2 
 PCOD8151789
Probable space group: C 2/C
;
_chemical_formula_sum "Si O2"
_cell_formula_units_Z 40
_cell_length_a 13.384136
_cell_length_b 7.960087
_cell_length_c 19.921063
_cell_angle_alpha 90.000000
_cell_angle_beta 64.125916
_cell_angle_gamma 90.000000
_cell_volume 1909.611665
_symmetry_space_group_name_H-M "C 2/C"
_symmetry_group_IT_number 15
_symmetry_cell_setting 'monoclinic'
loop_
_space_group_symop_operation_xyz
x,y,z
-x,y,1/2-z
-x,-y,-z
x,-y,1/2+z
1/2+x,1/2+y,z
1/2-x,1/2+y,1/2-z
1/2-x,1/2-y,-z
1/2+x,1/2-y,1/2+z
loop_
_atom_site_type_symbol
_atom_site_label
_atom_site_fract_x
_atom_site_fract_y
_atom_site_fract_z
Si Si1 0.289650 0.369663 0.929906
Si Si2 0.307788 0.589201 0.172428
Si Si3 0.011661 0.080731 0.567988
Si Si4 0.332051 0.810297 0.032736
Si Si5 0.130600 0.676522 0.722138
O O1 0.396830 0.479805 0.916094
O O2 0.185872 0.494368 0.944890
O O3 0.314745 0.255348 0.859373
O O4 0.250000 0.250000 0.000000
O O5 0.395297 0.432897 0.141407
O O6 0.310700 0.702391 0.105563
O O7 0.186923 0.505919 0.218340
O O8 0.344429 0.701990 0.223639
O O9 0.048298 0.272382 0.538313
O O10 0.000000 0.000000 0.500000
O O11 0.250000 0.750000 0.000000
O O12 0.000000 0.647593 0.750000
#
# Coordination Sequence:
#
# PCOD8151789 Si02
#       5
#     8   8   8   8   8
#     4  11  21  40  67  96 135 175 225 285 337 403
#     4  11  23  45  64  96 138 180 227 281 352 408
#     4   9  18  37  62  89 130 167 215 278 329 398
#     4   9  19  38  67  98 130 175 223 277 345 407
#     4  12  25  45  67  98 140 180 229 286 344 415
#
# _framework density 20.946667000000001
#
# number of rings (size 3 to 8) (size 9 to 14) (size 15 to 20)
#    0.000    1.600    2.000    4.800    0.000    0.000 
#   10.800    5.000    0.000    0.000    0.000    0.000 
#    0.000    0.000    0.000    0.000    0.000    0.000 
#
# Total GULP energy -247791.307008 kJ/mol
# GULP energy per Si atom -12389.565350 kJ/mol
# Density = 2.089899 g / cm^3
# Si number density = 20.946667 Si / 1000 Ang^3
#
#
#
# Elastic Constant Matrix: (Units=GPa)
#
#
# Indices 1 2 3 4 5 6 
#
# 1 112.9879 53.5212 55.7774 0.0000 -1.9337 0.0000
# 2 53.5212 99.3210 50.4695 0.0000 -24.7760 0.0001
# 3 55.7774 50.4695 126.1999 0.0000 1.8498 0.0000
# 4 0.0000 0.0000 0.0000 26.2746 0.0000 -9.8903
# 5 -1.9337 -24.7760 1.8498 0.0000 34.4183 0.0000
# 6 0.0000 0.0001 0.0000 -9.8903 0.0000 36.7049
#
#
#
# Elastic Compliance Matrix: (Units=1/GPa)
#
#
# Indices 1 2 3 4 5 6 
#
# 1 0.013517 -0.006550 -0.003300 0.000000 -0.003778 0.000000
# 2 -0.006550 0.019783 -0.005224 0.000000 0.014154 0.000000
# 3 -0.003300 -0.005224 0.011538 0.000000 -0.004566 0.000000
# 4 0.000000 0.000000 0.000000 0.042356 0.000000 0.011413
# 5 -0.003778 0.014154 -0.004566 0.000000 0.039276 0.000000
# 6 0.000000 0.000000 0.000000 0.011413 0.000000 0.030320
#
#
# Mechanical properties :
#
#
# Convention : Reuss Voigt Hill
#
# Bulk Modulus (GPa) = 68.06572 73.11612 70.59092
# Shear Modulus (GPa) = 26.06405 31.39559 28.72982
#
# Velocity S-wave (km/s) = 3.53130 3.87568 3.70749
# Velocity P-wave (km/s) = 7.01371 7.41684 7.21809
#
# Compressibility (1/GPa) = 0.01469168
#
# Stress axis : x y z
#
# Youngs Moduli (GPa) = 73.97913 50.54761 86.66678
#
# Poissons Ratio (x) = 0.33108 0.28596
# Poissons Ratio (y) = 0.48456 0.45277
# Poissons Ratio (z) = 0.24410 0.26407
#
# Static dielectric constant tensor:
#      x y z
#    x 4.457740 0.000000 -0.420610 
#    y 0.000000 4.156260 0.000000 
#    z -0.420610 0.000000 4.020740 
# 
# 
# High freq. dielectric constant tensor:
#      x y z
#    x 1.833930 0.000000 0.005620 
#    y 0.000000 1.812080 0.000000 
#    z 0.005620 0.000000 1.825790 
# 
# From -- ./inp_files/242234.got.cif
#   From: 2010.06.25/outbox.cif.g09.slc.cpg/sg15_122_cif.got.tgz:242234.got - 2010.06.28 07:06:18.
