data_PCOD8151093
_publ_section_title
;
Structure prediction by ZEFSAII (Michael W. Deem and Ramdas Pophale) SiO2 
 PCOD8151093
Probable space group: C 2/C
;
_chemical_formula_sum "Si O2"
_cell_formula_units_Z 40
_cell_length_a 12.536989
_cell_length_b 18.281908
_cell_length_c 9.793521
_cell_angle_alpha 90.000000
_cell_angle_beta 69.347876
_cell_angle_gamma 90.000000
_cell_volume 2100.430828
_symmetry_space_group_name_H-M "C 2/C"
_symmetry_group_IT_number 15
_symmetry_cell_setting 'monoclinic'
loop_
_space_group_symop_operation_xyz
x,y,z
-x,y,1/2-z
-x,-y,-z
x,-y,1/2+z
1/2+x,1/2+y,z
1/2-x,1/2+y,1/2-z
1/2-x,1/2-y,-z
1/2+x,1/2-y,1/2+z
loop_
_atom_site_type_symbol
_atom_site_label
_atom_site_fract_x
_atom_site_fract_y
_atom_site_fract_z
Si Si1 0.052851 0.203987 0.875408
Si Si2 0.810838 0.347782 0.605967
Si Si3 0.597503 0.726224 0.311823
Si Si4 0.582952 0.009455 0.337774
Si Si5 0.283239 0.867897 0.300150
O O1 0.108197 0.281487 0.887878
O O2 0.146102 0.138993 0.847499
O O3 0.000000 0.204816 0.750000
O O4 0.949709 0.190542 0.027757
O O5 0.680816 0.331294 0.702102
O O6 0.843346 0.418105 0.678435
O O7 0.822169 0.361240 0.439629
O O8 0.500000 0.745238 0.250000
O O9 0.661911 0.802467 0.313862
O O10 0.500000 0.017526 0.250000
O O11 0.672863 0.943567 0.281910
O O12 0.500000 0.000000 0.500000
#
# Coordination Sequence:
#
# PCOD8151093 Si02
#       5
#     8   8   8   8   8
#     4  11  23  39  63  94 123 150 202 259 297 345
#     4  11  22  39  63  93 119 159 207 241 298 368
#     4  11  19  38  69  86 114 164 202 241 301 359
#     4  12  24  39  62  89 123 157 197 248 302 354
#     4  11  22  40  63  90 122 160 202 246 301 362
#
# _framework density 19.043711999999999
#
# number of rings (size 3 to 8) (size 9 to 14) (size 15 to 20)
#    0.000    0.800    6.000    3.600    0.000    4.800 
#    0.000    2.000    0.000    0.000    0.000    0.000 
#    0.000    0.000    0.000    0.000    0.000    0.000 
#
# Total GULP energy -248048.337192 kJ/mol
# GULP energy per Si atom -12402.416860 kJ/mol
# Density = 1.900037 g / cm^3
# Si number density = 19.043712 Si / 1000 Ang^3
#
#
#
# Elastic Constant Matrix: (Units=GPa)
#
#
# Indices 1 2 3 4 5 6 
#
# 1 76.4437 35.0841 38.2600 0.0000 -9.6896 0.0000
# 2 35.0841 111.8949 28.0871 0.0000 -16.7730 0.0000
# 3 38.2600 28.0871 122.3065 0.0000 -5.5104 0.0000
# 4 0.0000 0.0000 0.0000 27.4250 0.0000 4.1975
# 5 -9.6896 -16.7730 -5.5104 0.0000 40.9435 0.0000
# 6 0.0000 0.0000 0.0000 4.1975 0.0000 18.5532
#
#
#
# Elastic Compliance Matrix: (Units=1/GPa)
#
#
# Indices 1 2 3 4 5 6 
#
# 1 0.017398 -0.004066 -0.004425 0.000000 0.001856 0.000000
# 2 -0.004066 0.010997 -0.001101 0.000000 0.003395 0.000000
# 3 -0.004425 -0.001101 0.009805 0.000000 -0.000178 0.000000
# 4 0.000000 0.000000 0.000000 0.037771 0.000000 -0.008545
# 5 0.001856 0.003395 -0.000178 0.000000 0.026230 0.000000
# 6 0.000000 0.000000 0.000000 -0.008545 0.000000 0.055833
#
#
# Mechanical properties :
#
#
# Convention : Reuss Voigt Hill
#
# Bulk Modulus (GPa) = 52.58549 57.05640 54.82094
# Shear Modulus (GPa) = 27.23984 31.33193 29.28588
#
# Velocity S-wave (km/s) = 3.78615 4.06059 3.92576
# Velocity P-wave (km/s) = 6.84004 7.21181 7.02839
#
# Compressibility (1/GPa) = 0.01901665
#
# Stress axis : x y z
#
# Youngs Moduli (GPa) = 57.47929 90.93440 101.98784
#
# Poissons Ratio (x) = 0.36974 0.45129
# Poissons Ratio (y) = 0.23371 0.11224
# Poissons Ratio (z) = 0.25434 0.10008
#
# Static dielectric constant tensor:
#      x y z
#    x 3.871640 0.000000 -0.194560 
#    y 0.000000 3.653470 0.000000 
#    z -0.194560 0.000000 3.727480 
# 
# 
# High freq. dielectric constant tensor:
#      x y z
#    x 1.750110 0.000000 -0.008870 
#    y 0.000000 1.725040 0.000000 
#    z -0.008870 0.000000 1.752510 
# 
# From -- ./inp_files/29062.got.cif
#   From: 2010.06.25/outbox.cif.g09.slc.cpg/sg15_15_cif.got.tgz:29062.got - 2010.06.28 07:06:18.
