data_PCOD8151748
_publ_section_title
;
Structure prediction by ZEFSAII (Michael W. Deem and Ramdas Pophale) SiO2 
 PCOD8151748
Probable space group: C 2/C
;
_chemical_formula_sum "Si O2"
_cell_formula_units_Z 52
_cell_length_a 24.932657
_cell_length_b 19.709243
_cell_length_c 10.624713
_cell_angle_alpha 90.000000
_cell_angle_beta 150.440956
_cell_angle_gamma 90.000000
_cell_volume 2575.636804
_symmetry_space_group_name_H-M "C 2/C"
_symmetry_group_IT_number 15
_symmetry_cell_setting 'monoclinic'
loop_
_space_group_symop_operation_xyz
x,y,z
-x,y,1/2-z
-x,-y,-z
x,-y,1/2+z
1/2+x,1/2+y,z
1/2-x,1/2+y,1/2-z
1/2-x,1/2-y,-z
1/2+x,1/2-y,1/2+z
loop_
_atom_site_type_symbol
_atom_site_label
_atom_site_fract_x
_atom_site_fract_y
_atom_site_fract_z
Si Si1 0.483224 0.170895 0.535038
Si Si2 0.894990 0.263773 0.611630
Si Si3 0.286479 0.636596 0.765292
Si Si4 0.273908 0.995885 0.240982
Si Si5 0.000000 0.216682 0.250000
Si Si6 0.746596 0.635591 0.094121
Si Si7 0.104563 0.463898 0.263806
O O1 0.447244 0.189574 0.323481
O O2 0.536501 0.236480 0.708133
O O3 0.373777 0.148718 0.388235
O O4 0.577262 0.114892 0.727380
O O5 0.807716 0.314375 0.366305
O O6 0.829827 0.198452 0.527260
O O7 0.000000 0.238206 0.750000
O O8 0.301497 0.566391 0.871061
O O9 0.259712 0.621178 0.566306
O O10 0.401557 0.671423 0.005180
O O11 0.311177 0.975365 0.176968
O O12 0.210493 0.067950 0.097644
O O13 0.362647 0.003808 0.534356
O O14 0.000000 0.500000 0.000000
#
# Coordination Sequence:
#
# PCOD8151748 Si02
#       7
#     8   8   8   8   4   8   8
#     4  11  21  39  68  97 126 170 220 276 334 389
#     4  11  22  43  67  95 132 171 224 274 332 389
#     4  11  23  44  68  95 131 177 223 279 331 396
#     4  12  24  43  63  99 139 175 222 271 334 401
#     4  12  22  42  70  92 128 174 230 272 328 392
#     4  11  21  44  66  91 134 177 220 272 338 396
#     4  12  23  37  67 102 138 170 215 282 339 390
#
# _framework density 20.189181999999999
#
# number of rings (size 3 to 8) (size 9 to 14) (size 15 to 20)
#    0.000    0.615    6.154    4.154    0.000    0.000 
#    4.154    2.308    0.000    0.000    0.000    0.000 
#    0.000    0.000    0.000    0.000    0.000    0.000 
#
# Total GULP energy -322166.501633 kJ/mol
# GULP energy per Si atom -12391.019294 kJ/mol
# Density = 2.014323 g / cm^3
# Si number density = 20.189182 Si / 1000 Ang^3
#
#
#
# Elastic Constant Matrix: (Units=GPa)
#
#
# Indices 1 2 3 4 5 6 
#
# 1 78.6607 35.0962 15.5937 0.0000 1.1412 0.0000
# 2 35.0962 118.6537 10.3174 0.0000 6.7779 0.0000
# 3 15.5937 10.3174 43.2542 0.0000 -10.4991 0.0000
# 4 0.0000 0.0000 0.0000 23.5469 0.0000 -26.1555
# 5 1.1412 6.7779 -10.4991 0.0000 13.3695 0.0000
# 6 0.0000 0.0000 0.0000 -26.1555 0.0000 -166.4939
#
#
#
# Elastic Compliance Matrix: (Units=1/GPa)
#
#
# Indices 1 2 3 4 5 6 
#
# 1 0.015629 -0.003921 -0.005610 0.000000 -0.003752 0.000000
# 2 -0.003921 0.010223 -0.002720 0.000000 -0.006984 0.000000
# 3 -0.005610 -0.002720 0.032421 0.000000 0.027318 0.000000
# 4 0.000000 0.000000 0.000000 0.036159 0.000000 -0.005680
# 5 -0.003752 -0.006984 0.027318 0.000000 0.100111 0.000000
# 6 0.000000 0.000000 0.000000 -0.005680 0.000000 -0.005114
#
#
# Mechanical properties :
#
#
# Convention : Reuss Voigt Hill
#
# Bulk Modulus (GPa) = 29.61077 40.28703 34.94890
# Shear Modulus (GPa) = 22.20371 -13.94473 4.12949
#
# Velocity S-wave (km/s) = 3.31989 -2.63097 1.43173
# Velocity P-wave (km/s) = 5.42163 3.28157 4.48123
#
# Compressibility (1/GPa) = 0.03377150
#
# Stress axis : x y z
#
# Youngs Moduli (GPa) = 63.98523 97.81790 30.84384
#
# Poissons Ratio (x) = 0.38351 0.17303
# Poissons Ratio (y) = 0.25086 0.08391
# Poissons Ratio (z) = 0.35894 0.26610
#
# Static dielectric constant tensor:
#      x y z
#    x 3.581610 0.000000 -0.091580 
#    y 0.000000 5.048160 0.000000 
#    z -0.091580 0.000000 3.813300 
# 
# 
# High freq. dielectric constant tensor:
#      x y z
#    x 1.771930 0.000000 -0.021160 
#    y 0.000000 1.809400 0.000000 
#    z -0.021160 0.000000 1.774250 
# 
# From -- ./inp_files/123899.got.cif
#   From: 2010.06.25/outbox.cif.g09.slc.cpg/sg15_62_cif.got.tgz:123899.got - 2010.06.28 07:06:18.
