data_PCOD8151680
_publ_section_title
;
Structure prediction by ZEFSAII (Michael W. Deem and Ramdas Pophale) SiO2 
 PCOD8151680
Probable space group: C 2/C
;
_chemical_formula_sum "Si O2"
_cell_formula_units_Z 60
_cell_length_a 13.977999
_cell_length_b 22.231452
_cell_length_c 9.713602
_cell_angle_alpha 90.000000
_cell_angle_beta 66.596970
_cell_angle_gamma 90.000000
_cell_volume 2770.191430
_symmetry_space_group_name_H-M "C 2/C"
_symmetry_group_IT_number 15
_symmetry_cell_setting 'monoclinic'
loop_
_space_group_symop_operation_xyz
x,y,z
-x,y,1/2-z
-x,-y,-z
x,-y,1/2+z
1/2+x,1/2+y,z
1/2-x,1/2+y,1/2-z
1/2-x,1/2-y,-z
1/2+x,1/2-y,1/2+z
loop_
_atom_site_type_symbol
_atom_site_label
_atom_site_fract_x
_atom_site_fract_y
_atom_site_fract_z
Si Si1 0.878084 0.610076 0.171671
Si Si2 0.226195 0.274913 0.666473
Si Si3 0.749323 0.427049 0.237383
Si Si4 0.548572 0.286835 0.862580
Si Si5 0.000000 0.485878 0.750000
Si Si6 0.918684 0.830423 0.176410
Si Si7 0.809714 0.470176 0.494717
Si Si8 0.455486 0.853538 0.129466
O O1 0.840936 0.663597 0.293432
O O2 0.902020 0.551527 0.248888
O O3 0.795570 0.589194 0.100387
O O4 0.987305 0.624680 0.039180
O O5 0.250000 0.250000 0.500000
O O6 0.327748 0.294799 0.693167
O O7 0.164886 0.223543 0.782865
O O8 0.638614 0.394520 0.278773
O O9 0.749643 0.461033 0.384736
O O10 0.836817 0.375151 0.186616
O O11 0.764618 0.472139 0.101005
O O12 0.500000 0.310846 0.750000
O O13 0.527654 0.217004 0.892374
O O14 0.488227 0.329122 0.002090
O O15 0.937096 0.525332 0.899234
O O16 0.000000 0.819610 0.250000
O O17 0.500000 0.877090 0.250000
#
# Coordination Sequence:
#
# PCOD8151680 Si02
#       8
#     8   8   8   8   4   8   8   8
#     4  12  25  38  69 105 149 182 231 293 359 415
#     4  12  27  44  72 107 145 187 237 287 362 435
#     4  12  26  45  72 101 144 184 238 291 355 421
#     4  11  26  44  70 109 144 181 231 288 352 426
#     4  12  24  38  68 108 148 182 232 294 360 422
#     4  12  27  48  73 100 140 186 236 292 353 425
#     4  12  25  44  67 106 141 187 237 292 353 422
#     4  11  21  38  66 106 146 179 216 282 360 425
#
# _framework density 21.659151999999999
#
# number of rings (size 3 to 8) (size 9 to 14) (size 15 to 20)
#    0.000    0.267    8.000    1.200    6.533    0.533 
#    0.000    0.667    0.000    0.000    0.000    0.000 
#    0.000    0.000    0.000    0.000    0.000    0.000 
#
# Total GULP energy -371868.176840 kJ/mol
# GULP energy per Si atom -12395.605895 kJ/mol
# Density = 2.160986 g / cm^3
# Si number density = 21.659152 Si / 1000 Ang^3
#
#
#
# Elastic Constant Matrix: (Units=GPa)
#
#
# Indices 1 2 3 4 5 6 
#
# 1 101.8333 22.8492 45.4676 0.0000 -9.1375 0.0000
# 2 22.8492 89.6675 47.6642 0.0000 -12.6643 0.0000
# 3 45.4676 47.6642 113.5783 0.0000 2.6558 0.0000
# 4 0.0000 0.0000 0.0000 41.0794 0.0000 -1.9265
# 5 -9.1375 -12.6643 2.6558 0.0000 22.3870 0.0000
# 6 0.0000 0.0000 0.0000 -1.9265 0.0000 35.3528
#
#
#
# Elastic Compliance Matrix: (Units=1/GPa)
#
#
# Indices 1 2 3 4 5 6 
#
# 1 0.012680 0.000524 -0.005439 0.000000 0.006117 0.000000
# 2 0.000524 0.016372 -0.007322 0.000000 0.010344 0.000000
# 3 -0.005439 -0.007322 0.014243 0.000000 -0.008052 0.000000
# 4 0.000000 0.000000 0.000000 0.024405 0.000000 0.001330
# 5 0.006117 0.010344 -0.008052 0.000000 0.053972 0.000000
# 6 0.000000 0.000000 0.000000 0.001330 0.000000 0.028359
#
#
# Mechanical properties :
#
#
# Convention : Reuss Voigt Hill
#
# Bulk Modulus (GPa) = 53.13417 59.67123 56.40270
# Shear Modulus (GPa) = 27.65808 32.37039 30.01423
#
# Velocity S-wave (km/s) = 3.57735 3.87012 3.72661
# Velocity P-wave (km/s) = 6.45356 6.89785 6.67940
#
# Compressibility (1/GPa) = 0.01882028
#
# Stress axis : x y z
#
# Youngs Moduli (GPa) = 78.86648 61.07970 70.21031
#
# Poissons Ratio (x) = -0.03200 0.38186
# Poissons Ratio (y) = -0.04132 0.51410
# Poissons Ratio (z) = 0.42894 0.44725
#
# Static dielectric constant tensor:
#      x y z
#    x 3.794800 0.000000 0.012240 
#    y 0.000000 3.997140 0.000000 
#    z 0.012240 0.000000 4.004690 
# 
# 
# High freq. dielectric constant tensor:
#      x y z
#    x 1.828450 0.000000 0.008560 
#    y 0.000000 1.855240 0.000000 
#    z 0.008560 0.000000 1.863810 
# 
# From -- ./inp_files/42591.got.cif
#   From: 2010.06.25/outbox.cif.g09.slc.cpg/sg15_22_cif.got.tgz:42591.got - 2010.06.28 07:06:18.
