data_PCOD8151702
_publ_section_title
;
Structure prediction by ZEFSAII (Michael W. Deem and Ramdas Pophale) SiO2 
 PCOD8151702
Probable space group: C 2/C
;
_chemical_formula_sum "Si O2"
_cell_formula_units_Z 64
_cell_length_a 13.865223
_cell_length_b 24.229402
_cell_length_c 9.176044
_cell_angle_alpha 90.000000
_cell_angle_beta 108.074917
_cell_angle_gamma 90.000000
_cell_volume 2930.531862
_symmetry_space_group_name_H-M "C 2/C"
_symmetry_group_IT_number 15
_symmetry_cell_setting 'monoclinic'
loop_
_space_group_symop_operation_xyz
x,y,z
-x,y,1/2-z
-x,-y,-z
x,-y,1/2+z
1/2+x,1/2+y,z
1/2-x,1/2+y,1/2-z
1/2-x,1/2-y,-z
1/2+x,1/2-y,1/2+z
loop_
_atom_site_type_symbol
_atom_site_label
_atom_site_fract_x
_atom_site_fract_y
_atom_site_fract_z
Si Si1 0.610370 0.578589 0.237651
Si Si2 0.908128 0.773411 0.122557
Si Si3 0.201584 0.876630 0.513659
Si Si4 0.885577 0.047532 0.754248
Si Si5 0.403493 0.160839 0.612674
Si Si6 0.604852 0.844113 0.736187
Si Si7 0.040433 0.779447 0.915387
Si Si8 0.686086 0.372502 0.045377
O O1 0.500000 0.580133 0.250000
O O2 0.610266 0.611220 0.084349
O O3 0.645202 0.515453 0.232532
O O4 0.689350 0.610158 0.377999
O O5 0.878082 0.719718 0.204125
O O6 0.000000 0.804212 0.250000
O O7 0.814726 0.816298 0.067850
O O8 0.949597 0.758677 0.979640
O O9 0.196659 0.924449 0.391373
O O10 0.306920 0.880417 0.649483
O O11 0.871386 0.077896 0.900789
O O12 0.000000 0.054104 0.750000
O O13 0.500000 0.137053 0.750000
O O14 0.401782 0.146740 0.439908
O O15 0.401344 0.226820 0.623159
O O16 0.302781 0.137692 0.645973
O O17 0.500000 0.866864 0.750000
O O18 0.000000 0.811375 0.750000
O O19 0.120908 0.816938 0.039130
#
# Coordination Sequence:
#
# PCOD8151702 Si02
#       8
#     8   8   8   8   8   8   8   8
#     4  11  23  43  66  97 132 165 207 266 327 386
#     4  11  21  39  60  94 136 168 209 261 307 385
#     4  12  23  39  68  96 125 176 217 254 322 382
#     4  11  25  41  66 100 133 164 206 265 328 386
#     4  11  25  44  63  92 130 174 217 264 318 369
#     4  11  24  44  63  91 132 173 217 267 311 373
#     4  11  22  37  61  93 132 169 207 253 317 381
#     4  12  23  41  67  94 129 170 216 260 314 392
#
# _framework density 21.839039
#
# number of rings (size 3 to 8) (size 9 to 14) (size 15 to 20)
#    0.000    0.750    3.750    6.000    1.750    2.000 
#    0.000    0.000    0.000    4.500    0.000    0.000 
#    0.000    0.000    0.000    0.000    0.000    0.000 
#
# Total GULP energy -396732.254810 kJ/mol
# GULP energy per Si atom -12397.882963 kJ/mol
# Density = 2.178933 g / cm^3
# Si number density = 21.839039 Si / 1000 Ang^3
#
#
#
# Elastic Constant Matrix: (Units=GPa)
#
#
# Indices 1 2 3 4 5 6 
#
# 1 80.9079 14.8636 15.4322 0.0000 16.2001 0.0000
# 2 14.8636 58.5138 4.0709 0.0000 4.9841 0.0000
# 3 15.4322 4.0709 104.1106 0.0000 13.2948 0.0000
# 4 0.0000 0.0000 0.0000 24.3059 0.0000 -7.2541
# 5 16.2001 4.9841 13.2948 0.0000 41.0821 0.0000
# 6 0.0000 0.0000 0.0000 -7.2541 0.0000 18.0429
#
#
#
# Elastic Compliance Matrix: (Units=1/GPa)
#
#
# Indices 1 2 3 4 5 6 
#
# 1 0.014141 -0.003092 -0.001368 0.000000 -0.004759 0.000000
# 2 -0.003092 0.017962 -0.000127 0.000000 -0.000919 0.000000
# 3 -0.001368 -0.000127 0.010162 0.000000 -0.002734 0.000000
# 4 0.000000 0.000000 0.000000 0.046752 0.000000 0.018796
# 5 -0.004759 -0.000919 -0.002734 0.000000 0.027214 0.000000
# 6 0.000000 0.000000 0.000000 0.018796 0.000000 0.062980
#
#
# Mechanical properties :
#
#
# Convention : Reuss Voigt Hill
#
# Bulk Modulus (GPa) = 30.21713 34.69619 32.45666
# Shear Modulus (GPa) = 25.07323 30.63055 27.85189
#
# Velocity S-wave (km/s) = 3.39203 3.74914 3.57504
# Velocity P-wave (km/s) = 5.40439 5.88754 5.65113
#
# Compressibility (1/GPa) = 0.03309381
#
# Stress axis : x y z
#
# Youngs Moduli (GPa) = 70.71435 55.67172 98.40623
#
# Poissons Ratio (x) = 0.17212 0.13458
# Poissons Ratio (y) = 0.21863 0.01247
# Poissons Ratio (z) = 0.09671 0.00705
#
# Static dielectric constant tensor:
#      x y z
#    x 3.762430 0.000000 0.093560 
#    y 0.000000 3.856920 0.000000 
#    z 0.093560 0.000000 4.383700 
# 
# 
# High freq. dielectric constant tensor:
#      x y z
#    x 1.840810 0.000000 -0.002810 
#    y 0.000000 1.833830 0.000000 
#    z -0.002810 0.000000 1.883090 
# 
# From -- ./inp_files/43562.got.cif
#   From: 2010.06.25/outbox.cif.g09.slc.cpg/sg15_22_cif.got.tgz:43562.got - 2010.06.28 07:06:18.
