data_PCOD8151868
_publ_section_title
;
Structure prediction by ZEFSAII (Michael W. Deem and Ramdas Pophale) SiO2 
 PCOD8151868
Probable space group: C 2/C
;
_chemical_formula_sum "Si O2"
_cell_formula_units_Z 40
_cell_length_a 15.093048
_cell_length_b 14.583628
_cell_length_c 10.018286
_cell_angle_alpha 90.000000
_cell_angle_beta 120.579837
_cell_angle_gamma 90.000000
_cell_volume 1898.450658
_symmetry_space_group_name_H-M "C 2/C"
_symmetry_group_IT_number 15
_symmetry_cell_setting 'monoclinic'
loop_
_space_group_symop_operation_xyz
x,y,z
-x,y,1/2-z
-x,-y,-z
x,-y,1/2+z
1/2+x,1/2+y,z
1/2-x,1/2+y,1/2-z
1/2-x,1/2-y,-z
1/2+x,1/2-y,1/2+z
loop_
_atom_site_type_symbol
_atom_site_label
_atom_site_fract_x
_atom_site_fract_y
_atom_site_fract_z
Si Si1 0.650571 0.693335 0.905734
Si Si2 0.755926 0.490707 0.556145
Si Si3 0.048218 0.932872 0.927621
Si Si4 0.393961 0.946007 0.915716
Si Si5 0.462823 0.741400 0.932309
O O1 0.568750 0.748826 0.932367
O O2 0.619577 0.692890 0.727467
O O3 0.750000 0.750000 0.000000
O O4 0.673854 0.590329 0.966768
O O5 0.673657 0.569246 0.528862
O O6 0.835120 0.465379 0.733062
O O7 0.821916 0.520654 0.479821
O O8 0.000000 0.963325 0.750000
O O9 0.017734 0.826858 0.929430
O O10 0.000000 0.000000 0.000000
O O11 0.421547 0.839041 0.951504
O O12 0.500000 0.000000 0.000000
#
# Coordination Sequence:
#
# PCOD8151868 Si02
#       5
#     8   8   8   8   8
#     4  11  21  41  73  97 133 183 239 278 343 427
#     4  12  25  45  72 101 139 187 231 286 357 421
#     4  12  25  45  71 106 146 182 236 299 351 418
#     4  12  27  46  70 102 145 182 234 290 351 421
#     4  11  25  42  71 104 137 183 237 292 346 414
#
# _framework density 21.069814000000001
#
# number of rings (size 3 to 8) (size 9 to 14) (size 15 to 20)
#    0.000    0.400    4.000    5.400    2.800    2.400 
#    0.000    0.000    0.000    0.000    0.000    0.000 
#    0.000    0.000    0.000    0.000    0.000    0.000 
#
# Total GULP energy -247972.860119 kJ/mol
# GULP energy per Si atom -12398.643006 kJ/mol
# Density = 2.102186 g / cm^3
# Si number density = 21.069814 Si / 1000 Ang^3
#
#
#
# Elastic Constant Matrix: (Units=GPa)
#
#
# Indices 1 2 3 4 5 6 
#
# 1 140.9729 36.3752 52.4149 0.0000 1.6189 0.0000
# 2 36.3752 100.9142 49.3654 0.0000 -1.6864 0.0000
# 3 52.4149 49.3654 129.2861 0.0000 1.2694 0.0000
# 4 0.0000 0.0000 0.0000 31.3463 0.0000 5.5691
# 5 1.6189 -1.6864 1.2694 0.0000 42.7927 0.0000
# 6 0.0000 0.0000 0.0000 5.5691 0.0000 41.6825
#
#
#
# Elastic Compliance Matrix: (Units=1/GPa)
#
#
# Indices 1 2 3 4 5 6 
#
# 1 0.008591 -0.001721 -0.002823 0.000000 -0.000309 0.000000
# 2 -0.001721 0.012547 -0.004100 0.000000 0.000681 0.000000
# 3 -0.002823 -0.004100 0.010448 0.000000 -0.000365 0.000000
# 4 0.000000 0.000000 0.000000 0.032677 0.000000 -0.004366
# 5 -0.000309 0.000681 -0.000365 0.000000 0.023418 0.000000
# 6 0.000000 0.000000 0.000000 -0.004366 0.000000 0.024574
#
#
# Mechanical properties :
#
#
# Convention : Reuss Voigt Hill
#
# Bulk Modulus (GPa) = 69.93581 71.94270 70.93926
# Shear Modulus (GPa) = 37.22799 38.69881 37.96340
#
# Velocity S-wave (km/s) = 4.20800 4.29032 4.24936
# Velocity P-wave (km/s) = 7.54149 7.66560 7.60380
#
# Compressibility (1/GPa) = 0.01429883
#
# Stress axis : x y z
#
# Youngs Moduli (GPa) = 116.40563 79.70287 95.71117
#
# Poissons Ratio (x) = 0.13716 0.27016
# Poissons Ratio (y) = 0.20033 0.39238
# Poissons Ratio (z) = 0.32857 0.32676
#
# Static dielectric constant tensor:
#      x y z
#    x 4.394400 0.000000 0.233310 
#    y 0.000000 3.308940 0.000000 
#    z 0.233310 0.000000 3.959560 
# 
# 
# High freq. dielectric constant tensor:
#      x y z
#    x 1.845320 0.000000 0.009050 
#    y 0.000000 1.830430 0.000000 
#    z 0.009050 0.000000 1.831910 
# 
# From -- ./inp_files/38031.got.cif
#   From: 2010.06.25/outbox.cif.g09.slc.cpg/sg15_20_cif.got.tgz:38031.got - 2010.06.28 07:06:18.
