data_PCOD8151173
_publ_section_title
;
Structure prediction by ZEFSAII (Michael W. Deem and Ramdas Pophale) SiO2 
 PCOD8151173
Probable space group: C 2/C
;
_chemical_formula_sum "Si O2"
_cell_formula_units_Z 60
_cell_length_a 11.875686
_cell_length_b 19.835859
_cell_length_c 13.492351
_cell_angle_alpha 90.000000
_cell_angle_beta 91.215373
_cell_angle_gamma 90.000000
_cell_volume 3177.602982
_symmetry_space_group_name_H-M "C 2/C"
_symmetry_group_IT_number 15
_symmetry_cell_setting 'monoclinic'
loop_
_space_group_symop_operation_xyz
x,y,z
-x,y,1/2-z
-x,-y,-z
x,-y,1/2+z
1/2+x,1/2+y,z
1/2-x,1/2+y,1/2-z
1/2-x,1/2-y,-z
1/2+x,1/2-y,1/2+z
loop_
_atom_site_type_symbol
_atom_site_label
_atom_site_fract_x
_atom_site_fract_y
_atom_site_fract_z
Si Si1 0.569855 0.726976 0.550916
Si Si2 0.500000 0.222911 0.250000
Si Si3 0.206955 0.667669 0.951144
Si Si4 0.359699 0.221019 0.952505
Si Si5 0.623857 0.078700 0.449034
Si Si6 0.368922 0.746681 0.239363
Si Si7 0.208413 0.374549 0.752849
Si Si8 0.130082 0.549138 0.063864
O O1 0.514401 0.727422 0.657729
O O2 0.655587 0.663972 0.539308
O O3 0.654987 0.791105 0.543525
O O4 0.468268 0.728959 0.469162
O O5 0.394499 0.175634 0.232539
O O6 0.165357 0.704090 0.850567
O O7 0.159011 0.592879 0.965367
O O8 0.329274 0.214123 0.836953
O O9 0.250000 0.250000 0.000000
O O10 0.393809 0.150093 0.998896
O O11 0.710427 0.083712 0.357227
O O12 0.501654 0.052957 0.410139
O O13 0.668173 0.026171 0.533148
O O14 0.500000 0.735361 0.250000
O O15 0.317064 0.671565 0.234311
O O16 0.198903 0.426625 0.661495
#
# Coordination Sequence:
#
# PCOD8151173 Si02
#       8
#     8   4   8   8   8   8   8   8
#     4  11  20  33  59  84 117 150 199 243 291 347
#     4  12  16  32  60  88 106 158 196 238 286 358
#     4  11  20  36  54  87 121 151 191 244 295 350
#     4  12  22  38  57  89 123 151 195 257 297 344
#     4  11  22  37  58  89 119 156 196 238 303 358
#     4  12  23  34  60  90 122 156 199 257 300 342
#     4  12  19  37  59  84 116 156 200 238 299 359
#     4  11  22  36  60  86 124 157 192 240 291 378
#
# _framework density 18.882156999999999
#
# number of rings (size 3 to 8) (size 9 to 14) (size 15 to 20)
#    0.000    0.533    9.333    0.800    0.000    1.067 
#    0.000    1.333    0.000    3.200    0.000    0.000 
#    0.000    0.000    0.000    0.000    0.000    0.000 
#
# Total GULP energy -371846.811588 kJ/mol
# GULP energy per Si atom -12394.893720 kJ/mol
# Density = 1.883918 g / cm^3
# Si number density = 18.882157 Si / 1000 Ang^3
#
#
#
# Elastic Constant Matrix: (Units=GPa)
#
#
# Indices 1 2 3 4 5 6 
#
# 1 95.7890 25.4220 20.6897 0.0000 -2.3315 0.0000
# 2 25.4220 55.9966 35.6526 0.0000 -1.7665 0.0000
# 3 20.6897 35.6526 130.3614 0.0000 -7.9826 0.0000
# 4 0.0000 0.0000 0.0000 28.3178 0.0000 -3.1666
# 5 -2.3315 -1.7665 -7.9826 0.0000 25.2258 0.0000
# 6 0.0000 0.0000 0.0000 -3.1666 0.0000 20.6169
#
#
#
# Elastic Compliance Matrix: (Units=1/GPa)
#
#
# Indices 1 2 3 4 5 6 
#
# 1 0.011905 -0.005093 -0.000460 0.000000 0.000598 0.000000
# 2 -0.005093 0.023806 -0.005740 0.000000 -0.000620 0.000000
# 3 -0.000460 -0.005740 0.009470 0.000000 0.002552 0.000000
# 4 0.000000 0.000000 0.000000 0.035931 0.000000 0.005519
# 5 0.000598 -0.000620 0.002552 0.000000 0.040461 0.000000
# 6 0.000000 0.000000 0.000000 0.005519 0.000000 0.049352
#
#
# Mechanical properties :
#
#
# Convention : Reuss Voigt Hill
#
# Bulk Modulus (GPa) = 44.25885 49.51954 46.88919
# Shear Modulus (GPa) = 24.87030 28.19093 26.53062
#
# Velocity S-wave (km/s) = 3.63317 3.86812 3.75248
# Velocity P-wave (km/s) = 6.41017 6.79943 6.60767
#
# Compressibility (1/GPa) = 0.02259435
#
# Stress axis : x y z
#
# Youngs Moduli (GPa) = 83.99672 42.00671 105.59464
#
# Poissons Ratio (x) = 0.21395 0.04856
# Poissons Ratio (y) = 0.42781 0.60614
# Poissons Ratio (z) = 0.03863 0.24113
#
# Static dielectric constant tensor:
#      x y z
#    x 3.777420 0.000000 -0.234240 
#    y 0.000000 3.403380 0.000000 
#    z -0.234240 0.000000 3.584600 
# 
# 
# High freq. dielectric constant tensor:
#      x y z
#    x 1.727730 0.000000 -0.011500 
#    y 0.000000 1.689370 0.000000 
#    z -0.011500 0.000000 1.753140 
# 
# From -- ./inp_files/145664.got.cif
#   From: 2010.06.25/outbox.cif.g09.slc.cpg/sg15_73_cif.got.tgz:145664.got - 2010.06.28 07:06:18.
