data_PCOD8151205
_publ_section_title
;
Structure prediction by ZEFSAII (Michael W. Deem and Ramdas Pophale) SiO2 
 PCOD8151205
Probable space group: C 2/C
;
_chemical_formula_sum "Si O2"
_cell_formula_units_Z 64
_cell_length_a 9.218091
_cell_length_b 19.084976
_cell_length_c 21.470730
_cell_angle_alpha 90.000000
_cell_angle_beta 52.208244
_cell_angle_gamma 90.000000
_cell_volume 2984.971460
_symmetry_space_group_name_H-M "C 2/C"
_symmetry_group_IT_number 15
_symmetry_cell_setting 'monoclinic'
loop_
_space_group_symop_operation_xyz
x,y,z
-x,y,1/2-z
-x,-y,-z
x,-y,1/2+z
1/2+x,1/2+y,z
1/2-x,1/2+y,1/2-z
1/2-x,1/2-y,-z
1/2+x,1/2-y,1/2+z
loop_
_atom_site_type_symbol
_atom_site_label
_atom_site_fract_x
_atom_site_fract_y
_atom_site_fract_z
Si Si1 0.034579 0.786878 0.411251
Si Si2 0.670856 0.358183 0.812630
Si Si3 0.097693 0.035377 0.158603
Si Si4 0.567519 0.931246 0.858763
Si Si5 0.282259 0.826442 0.920276
Si Si6 0.942512 0.106570 0.700467
Si Si7 0.540837 0.925164 0.311102
Si Si8 0.434970 0.775517 0.335062
O O1 0.219692 0.751319 0.391046
O O2 0.921910 0.817526 0.499044
O O3 0.903616 0.742020 0.401332
O O4 0.102714 0.846451 0.346619
O O5 0.508888 0.415870 0.863268
O O6 0.821086 0.385113 0.722914
O O7 0.775028 0.345026 0.849594
O O8 0.570163 0.284596 0.823609
O O9 0.308990 0.058052 0.111903
O O10 0.000000 0.049075 0.250000
O O11 0.087792 0.953570 0.142454
O O12 0.390520 0.887728 0.927510
O O13 0.472343 0.003823 0.861861
O O14 0.000000 0.146260 0.750000
O O15 0.756588 0.067151 0.767011
O O16 0.500000 0.933319 0.250000
O O17 0.460402 0.852036 0.362410
O O18 0.500000 0.794596 0.250000
#
# Coordination Sequence:
#
# PCOD8151205 Si02
#       8
#     8   8   8   8   8   8   8   8
#     4  11  25  45  57  88 132 160 206 253 312 364
#     4  11  21  37  63  94 116 160 217 250 303 363
#     4   9  18  35  60  90 123 152 187 264 308 343
#     4  11  21  39  62  94 128 158 206 253 306 363
#     4  11  26  40  61  85 126 175 198 256 305 364
#     4  11  20  38  65  91 120 158 200 259 309 358
#     4  11  20  35  61  96 123 152 197 261 313 345
#     4  11  22  37  63  91 118 158 206 263 308 356
#
# _framework density 21.440740999999999
#
# number of rings (size 3 to 8) (size 9 to 14) (size 15 to 20)
#    0.000    1.250    6.250    3.750    1.750    0.500 
#    0.000    3.125    0.000    0.000    0.000    0.000 
#    0.000    0.000    0.000    0.000    0.000    0.000 
#
# Total GULP energy -396435.257807 kJ/mol
# GULP energy per Si atom -12388.601806 kJ/mol
# Density = 2.139194 g / cm^3
# Si number density = 21.440741 Si / 1000 Ang^3
#
#
#
# Elastic Constant Matrix: (Units=GPa)
#
#
# Indices 1 2 3 4 5 6 
#
# 1 93.5814 12.3574 8.0581 -0.0004 -13.4906 0.0003
# 2 12.3574 89.1622 7.8832 -0.0002 -2.2920 0.0001
# 3 8.0581 7.8832 34.0753 -0.0003 -14.1398 0.0003
# 4 -0.0004 -0.0002 -0.0003 19.9246 0.0002 -9.0965
# 5 -13.4906 -2.2920 -14.1398 0.0002 26.3017 -0.0002
# 6 0.0003 0.0001 0.0003 -9.0965 -0.0002 40.4288
#
#
#
# Elastic Compliance Matrix: (Units=1/GPa)
#
#
# Indices 1 2 3 4 5 6 
#
# 1 0.011729 -0.001475 0.000014 0.000000 0.005895 0.000000
# 2 -0.001475 0.011641 -0.002880 0.000000 -0.001290 0.000000
# 3 0.000014 -0.002880 0.038496 0.000000 0.020452 0.000000
# 4 0.000000 0.000000 0.000000 0.055935 0.000000 0.012585
# 5 0.005895 -0.001290 0.020452 0.000000 0.051926 0.000000
# 6 0.000000 0.000000 0.000000 0.012585 0.000000 0.027567
#
#
# Mechanical properties :
#
#
# Convention : Reuss Voigt Hill
#
# Bulk Modulus (GPa) = 18.80250 30.37958 24.59104
# Shear Modulus (GPa) = 22.35074 29.89901 26.12488
#
# Velocity S-wave (km/s) = 3.23219 3.73835 3.49444
# Velocity P-wave (km/s) = 4.76634 5.73005 5.27027
#
# Compressibility (1/GPa) = 0.05318440
#
# Stress axis : x y z
#
# Youngs Moduli (GPa) = 85.25637 85.90012 25.97649
#
# Poissons Ratio (x) = 0.12673 -0.00036
# Poissons Ratio (y) = 0.12578 0.07481
# Poissons Ratio (z) = -0.00117 0.24738
#
# Static dielectric constant tensor:
#      x y z
#    x 4.132110 0.000000 -0.321810 
#    y 0.000000 4.135710 0.000000 
#    z -0.321810 0.000000 3.369850 
# 
# 
# High freq. dielectric constant tensor:
#      x y z
#    x 1.862420 0.000000 -0.022990 
#    y 0.000000 1.855850 0.000000 
#    z -0.022990 0.000000 1.777720 
# 
# From -- ./inp_files/266096.got.cif
#   From: 2010.06.25/outbox.cif.g09.slc.cpg/sg15_134_cif.got.tgz:266096.got - 2010.06.28 07:06:18.
