data_PCOD8151168
_publ_section_title
;
Structure prediction by ZEFSAII (Michael W. Deem and Ramdas Pophale) SiO2 
 PCOD8151168
Probable space group: C 2/C
;
_chemical_formula_sum "Si O2"
_cell_formula_units_Z 56
_cell_length_a 12.517179
_cell_length_b 28.751961
_cell_length_c 9.004181
_cell_angle_alpha 90.000000
_cell_angle_beta 63.632834
_cell_angle_gamma 90.000000
_cell_volume 2903.420115
_symmetry_space_group_name_H-M "C 2/C"
_symmetry_group_IT_number 15
_symmetry_cell_setting 'monoclinic'
loop_
_space_group_symop_operation_xyz
x,y,z
-x,y,1/2-z
-x,-y,-z
x,-y,1/2+z
1/2+x,1/2+y,z
1/2-x,1/2+y,1/2-z
1/2-x,1/2-y,-z
1/2+x,1/2-y,1/2+z
loop_
_atom_site_type_symbol
_atom_site_label
_atom_site_fract_x
_atom_site_fract_y
_atom_site_fract_z
Si Si1 0.860780 0.312102 0.870587
Si Si2 0.141025 0.164228 0.919581
Si Si3 0.795108 0.260205 0.207765
Si Si4 0.196646 0.102175 0.418348
Si Si5 0.590680 0.513653 0.573596
Si Si6 0.000000 0.789136 0.750000
Si Si7 0.862583 0.913768 0.867596
Si Si8 0.000000 0.864843 0.250000
O O1 0.796549 0.280564 0.784850
O O2 0.797084 0.363109 0.921279
O O3 0.000000 0.319580 0.750000
O O4 0.852804 0.285598 0.031153
O O5 0.240941 0.203192 0.857067
O O6 0.101918 0.164477 0.770052
O O7 0.033597 0.178409 0.092157
O O8 0.185642 0.114504 0.957522
O O9 0.894026 0.241089 0.254589
O O10 0.202060 0.047350 0.459966
O O11 0.205938 0.105801 0.234808
O O12 0.064319 0.110687 0.569866
O O13 0.500000 0.536810 0.750000
O O14 0.500000 0.500000 0.500000
O O15 0.659179 0.468354 0.593381
O O16 0.000000 0.905613 0.750000
#
# Coordination Sequence:
#
# PCOD8151168 Si02
#       8
#     8   8   8   8   8   4   8   4
#     4  11  25  44  64  92 129 174 222 259 315 388
#     4  12  22  36  57  88 125 166 202 258 322 375
#     4  11  25  40  64  92 121 173 221 271 309 378
#     4  12  22  38  61  90 126 169 203 265 328 376
#     4  11  20  33  57  94 129 156 198 263 330 384
#     4  12  24  40  59  90 132 164 211 272 334 362
#     4  11  21  35  55  91 129 159 196 259 330 380
#     4  12  20  32  59  90 118 158 215 252 314 382
#
# _framework density 19.287597000000002
#
# number of rings (size 3 to 8) (size 9 to 14) (size 15 to 20)
#    0.000    0.571    7.143    3.000    3.000    1.143 
#    0.000    0.000    0.000    0.857    1.857    0.000 
#    0.000    0.000    0.000    0.000    0.000    0.000 
#
# Total GULP energy -346887.500798 kJ/mol
# GULP energy per Si atom -12388.839314 kJ/mol
# Density = 1.924370 g / cm^3
# Si number density = 19.287597 Si / 1000 Ang^3
#
#
#
# Elastic Constant Matrix: (Units=GPa)
#
#
# Indices 1 2 3 4 5 6 
#
# 1 83.0004 41.6940 31.8999 0.0000 6.9623 0.0000
# 2 41.6940 119.0116 40.4502 0.0000 -4.5482 0.0000
# 3 31.8999 40.4502 85.5667 0.0000 9.2985 0.0000
# 4 0.0000 0.0000 0.0000 53.5611 0.0000 -39.8530
# 5 6.9623 -4.5482 9.2985 0.0000 35.9304 0.0000
# 6 0.0000 0.0000 0.0000 -39.8530 0.0000 129.6297
#
#
#
# Elastic Compliance Matrix: (Units=1/GPa)
#
#
# Indices 1 2 3 4 5 6 
#
# 1 0.015872 -0.004474 -0.003505 0.000000 -0.002735 0.000000
# 2 -0.004474 0.011507 -0.004141 0.000000 0.003395 0.000000
# 3 -0.003505 -0.004141 0.015366 0.000000 -0.003822 0.000000
# 4 0.000000 0.000000 0.000000 0.024208 0.000000 0.007442
# 5 -0.002735 0.003395 -0.003822 0.000000 0.029780 0.000000
# 6 0.000000 0.000000 0.000000 0.007442 0.000000 0.010002
#
#
# Mechanical properties :
#
#
# Convention : Reuss Voigt Hill
#
# Bulk Modulus (GPa) = 54.03667 57.29630 55.66648
# Shear Modulus (GPa) = 36.45804 55.39320 45.92562
#
# Velocity S-wave (km/s) = 4.35240 5.36488 4.88494
# Velocity P-wave (km/s) = 7.30308 8.25510 7.79364
#
# Compressibility (1/GPa) = 0.01850595
#
# Stress axis : x y z
#
# Youngs Moduli (GPa) = 63.00415 86.90366 65.07723
#
# Poissons Ratio (x) = 0.38878 0.22810
# Poissons Ratio (y) = 0.28186 0.26948
# Poissons Ratio (z) = 0.22084 0.35986
#
# Static dielectric constant tensor:
#      x y z
#    x 3.076700 0.000000 0.227330 
#    y 0.000000 3.931500 0.000000 
#    z 0.227330 0.000000 3.726910 
# 
# 
# High freq. dielectric constant tensor:
#      x y z
#    x 1.708490 0.000000 0.032780 
#    y 0.000000 1.767410 0.000000 
#    z 0.032780 0.000000 1.758180 
# 
# From -- ./inp_files/35340.got.cif
#   From: 2010.06.25/outbox.cif.g09.slc.cpg/sg15_18_cif.got.tgz:35340.got - 2010.06.28 07:06:18.
