data_PCOD8151809
_publ_section_title
;
Structure prediction by ZEFSAII (Michael W. Deem and Ramdas Pophale) SiO2 
 PCOD8151809
Probable space group: C 2/C
;
_chemical_formula_sum "Si O2"
_cell_formula_units_Z 56
_cell_length_a 21.558406
_cell_length_b 7.956750
_cell_length_c 30.992836
_cell_angle_alpha 90.000000
_cell_angle_beta 152.277557
_cell_angle_gamma 90.000000
_cell_volume 2473.107238
_symmetry_space_group_name_H-M "C 2/C"
_symmetry_group_IT_number 15
_symmetry_cell_setting 'monoclinic'
loop_
_space_group_symop_operation_xyz
x,y,z
-x,y,1/2-z
-x,-y,-z
x,-y,1/2+z
1/2+x,1/2+y,z
1/2-x,1/2+y,1/2-z
1/2-x,1/2-y,-z
1/2+x,1/2-y,1/2+z
loop_
_atom_site_type_symbol
_atom_site_label
_atom_site_fract_x
_atom_site_fract_y
_atom_site_fract_z
Si Si1 0.099690 0.916354 0.901288
Si Si2 0.285686 0.303047 0.143075
Si Si3 0.103267 0.549540 0.902728
Si Si4 0.642516 0.809071 0.143956
Si Si5 0.970672 0.612478 0.060816
Si Si6 0.000000 0.040312 0.250000
Si Si7 0.500000 0.044814 0.250000
Si Si8 0.400937 0.447928 0.343089
O O1 0.092652 0.732435 0.918713
O O2 0.085707 0.873088 0.840897
O O3 0.240485 0.002410 0.000999
O O4 0.985349 0.035300 0.850836
O O5 0.206305 0.267039 0.137489
O O6 0.400969 0.438823 0.220214
O O7 0.361536 0.141058 0.171832
O O8 0.184610 0.371274 0.045095
O O9 0.019104 0.423284 0.881371
O O10 0.031291 0.561632 0.811939
O O11 0.590363 0.627336 0.127574
O O12 0.749178 0.895859 0.241214
O O13 0.528882 0.952803 0.069766
O O14 0.041193 0.791166 0.093257
#
# Coordination Sequence:
#
# PCOD8151809 Si02
#       8
#     8   8   8   8   8   4   4   8
#     4  11  23  43  71 107 141 185 235 293 357 415
#     4  11  25  43  67 100 138 182 237 292 344 425
#     4  11  24  43  71 107 145 179 237 296 350 427
#     4  12  25  46  67 102 138 183 237 283 347 423
#     4  12  25  45  71 102 142 185 233 292 354 414
#     4  11  21  40  70 102 136 182 242 282 354 416
#     4  11  25  44  68 106 138 186 240 286 362 414
#     4  12  25  42  72  99 135 188 232 284 354 419
#
# _framework density 22.643578000000002
#
# number of rings (size 3 to 8) (size 9 to 14) (size 15 to 20)
#    0.000    0.571    5.714    2.571    2.000    1.714 
#    0.000    0.000    0.000    0.000    0.000    0.000 
#    0.000    0.000    0.000    0.000    0.000    0.000 
#
# Total GULP energy -346900.378577 kJ/mol
# GULP energy per Si atom -12389.299235 kJ/mol
# Density = 2.259204 g / cm^3
# Si number density = 22.643578 Si / 1000 Ang^3
#
#
#
# Elastic Constant Matrix: (Units=GPa)
#
#
# Indices 1 2 3 4 5 6 
#
# 1 95.5589 30.2055 14.3662 -0.0015 0.6479 0.0001
# 2 30.2055 134.4123 14.2531 -0.0005 16.2403 0.0002
# 3 14.3662 14.2531 98.5589 0.0044 3.4146 -0.0005
# 4 -0.0015 -0.0005 0.0044 25.4224 0.0000 3.7221
# 5 0.6479 16.2403 3.4146 0.0000 34.1349 -0.0005
# 6 0.0001 0.0002 -0.0005 3.7221 -0.0005 40.3547
#
#
#
# Elastic Compliance Matrix: (Units=1/GPa)
#
#
# Indices 1 2 3 4 5 6 
#
# 1 0.011472 -0.002574 -0.001339 0.000001 0.001141 0.000000
# 2 -0.002574 0.008573 -0.000728 0.000000 -0.003957 0.000000
# 3 -0.001339 -0.000728 0.010470 -0.000002 -0.000676 0.000000
# 4 0.000001 0.000000 -0.000002 0.039874 0.000000 -0.003678
# 5 0.001141 -0.003957 -0.000676 0.000000 0.031224 0.000000
# 6 0.000000 0.000000 0.000000 -0.003678 0.000000 0.025119
#
#
# Mechanical properties :
#
#
# Convention : Reuss Voigt Hill
#
# Bulk Modulus (GPa) = 47.09479 49.57553 48.33516
# Shear Modulus (GPa) = 34.94236 37.96274 36.45255
#
# Velocity S-wave (km/s) = 3.93255 4.09899 4.01663
# Velocity P-wave (km/s) = 6.43921 6.65911 6.55008
#
# Compressibility (1/GPa) = 0.02123377
#
# Stress axis : x y z
#
# Youngs Moduli (GPa) = 87.16908 116.63867 95.51008
#
# Poissons Ratio (x) = 0.30021 0.12794
# Poissons Ratio (y) = 0.22436 0.06949
# Poissons Ratio (z) = 0.11676 0.08486
#
# Static dielectric constant tensor:
#      x y z
#    x 3.903960 0.000000 0.000010 
#    y 0.000000 3.985840 -0.000030 
#    z 0.000010 -0.000030 5.144170 
# 
# 
# High freq. dielectric constant tensor:
#      x y z
#    x 1.887970 0.000000 0.008760 
#    y 0.000000 1.894650 0.000000 
#    z 0.008760 0.000000 1.896000 
# 
# From -- ./inp_files/317600.got.cif
#   From: 2010.06.25/outbox.cif.g09.slc.cpg/sg15_159_cif.got.tgz:317600.got - 2010.06.28 07:06:18.
