data_PCOD8151083
_publ_section_title
;
Structure prediction by ZEFSAII (Michael W. Deem and Ramdas Pophale) SiO2 
 PCOD8151083
Probable space group: C 2/C
;
_chemical_formula_sum "Si O2"
_cell_formula_units_Z 56
_cell_length_a 26.846799
_cell_length_b 11.365543
_cell_length_c 14.460321
_cell_angle_alpha 90.000000
_cell_angle_beta 142.789601
_cell_angle_gamma 90.000000
_cell_volume 2668.283481
_symmetry_space_group_name_H-M "C 2/C"
_symmetry_group_IT_number 15
_symmetry_cell_setting 'monoclinic'
loop_
_space_group_symop_operation_xyz
x,y,z
-x,y,1/2-z
-x,-y,-z
x,-y,1/2+z
1/2+x,1/2+y,z
1/2-x,1/2+y,1/2-z
1/2-x,1/2-y,-z
1/2+x,1/2-y,1/2+z
loop_
_atom_site_type_symbol
_atom_site_label
_atom_site_fract_x
_atom_site_fract_y
_atom_site_fract_z
Si Si1 0.144945 0.436511 0.054791
Si Si2 0.171349 0.092760 0.629482
Si Si3 0.080903 0.273898 0.809252
Si Si4 0.023848 0.681815 0.509454
Si Si5 0.408114 0.485095 0.154646
Si Si6 0.916359 0.933141 0.862213
Si Si7 0.561002 0.822554 0.427980
O O1 0.231555 0.389744 0.220721
O O2 0.081453 0.411347 0.043647
O O3 0.136039 0.368637 0.944060
O O4 0.127756 0.574257 0.006517
O O5 0.114468 0.209278 0.538396
O O6 0.158772 0.021288 0.517985
O O7 0.152363 0.009006 0.688148
O O8 0.120882 0.145363 0.859402
O O9 0.000000 0.258567 0.750000
O O10 0.060522 0.312826 0.674762
O O11 0.074741 0.803938 0.582075
O O12 0.000049 0.643922 0.577798
O O13 0.500000 0.492960 0.250000
O O14 0.398368 0.573664 0.226469
O O15 0.000000 0.000000 0.000000
O O16 0.500000 0.799210 0.250000
#
# Coordination Sequence:
#
# PCOD8151083 Si02
#       7
#     8   8   8   8   8   8   8
#     4  11  27  42  63  97 135 173 216 281 337 387
#     4  12  25  41  64 100 136 165 219 289 336 374
#     4   9  18  37  66  90 119 168 215 255 316 398
#     4  11  21  43  72  91 127 177 225 262 326 408
#     4  11  19  37  67  96 125 168 214 263 330 392
#     4  12  20  39  68 102 124 165 223 277 322 400
#     4  12  25  45  68  94 134 183 229 262 323 418
#
# _framework density 20.987275
#
# number of rings (size 3 to 8) (size 9 to 14) (size 15 to 20)
#    0.000    0.857    4.286    4.714    4.000    0.000 
#    5.143    2.857    0.000    0.000    0.000    0.000 
#    0.000    0.000    0.000    0.000    0.000    0.000 
#
# Total GULP energy -347027.124507 kJ/mol
# GULP energy per Si atom -12393.825875 kJ/mol
# Density = 2.093951 g / cm^3
# Si number density = 20.987275 Si / 1000 Ang^3
#
#
#
# Elastic Constant Matrix: (Units=GPa)
#
#
# Indices 1 2 3 4 5 6 
#
# 1 66.9906 13.2269 56.1467 0.0000 -23.3467 0.0000
# 2 13.2269 92.8900 44.6459 0.0000 5.4881 0.0000
# 3 56.1467 44.6459 145.9784 0.0000 -15.7416 0.0000
# 4 0.0000 0.0000 0.0000 21.7862 0.0000 -0.7851
# 5 -23.3467 5.4881 -15.7416 0.0000 35.8623 0.0000
# 6 0.0000 0.0000 0.0000 -0.7851 0.0000 22.5988
#
#
#
# Elastic Compliance Matrix: (Units=1/GPa)
#
#
# Indices 1 2 3 4 5 6 
#
# 1 0.027306 -0.000455 -0.008858 0.000000 0.013958 0.000000
# 2 -0.000455 0.013143 -0.004297 0.000000 -0.004194 0.000000
# 3 -0.008858 -0.004297 0.011568 0.000000 -0.000031 0.000000
# 4 0.000000 0.000000 0.000000 0.045958 0.000000 0.001597
# 5 0.013958 -0.004194 -0.000031 0.000000 0.037599 0.000000
# 6 0.000000 0.000000 0.000000 0.001597 0.000000 0.044306
#
#
# Mechanical properties :
#
#
# Convention : Reuss Voigt Hill
#
# Bulk Modulus (GPa) = 40.32776 59.32200 49.82488
# Shear Modulus (GPa) = 23.21624 28.83877 26.02750
#
# Velocity S-wave (km/s) = 3.32958 3.71092 3.52541
# Velocity P-wave (km/s) = 5.83425 6.83288 6.35322
#
# Compressibility (1/GPa) = 0.02479681
#
# Stress axis : x y z
#
# Youngs Moduli (GPa) = 36.62195 76.08483 86.44451
#
# Poissons Ratio (x) = 0.03464 0.76574
# Poissons Ratio (y) = 0.01668 0.37144
# Poissons Ratio (z) = 0.32440 0.32692
#
# Static dielectric constant tensor:
#      x y z
#    x 3.012640 0.000000 -0.020550 
#    y 0.000000 4.283600 0.000000 
#    z -0.020550 0.000000 3.902350 
# 
# 
# High freq. dielectric constant tensor:
#      x y z
#    x 1.802330 0.000000 -0.027980 
#    y 0.000000 1.833480 0.000000 
#    z -0.027980 0.000000 1.821540 
# 
# From -- ./inp_files/181586.got.cif
#   From: 2010.06.25/outbox.cif.g09.slc.cpg/sg15_91_cif.got.tgz:181586.got - 2010.06.28 07:06:18.
