data_PCOD8151824
_publ_section_title
;
Structure prediction by ZEFSAII (Michael W. Deem and Ramdas Pophale) SiO2 
 PCOD8151824
Probable space group: C 2/C
;
_chemical_formula_sum "Si O2"
_cell_formula_units_Z 56
_cell_length_a 19.779998
_cell_length_b 17.796672
_cell_length_c 8.683918
_cell_angle_alpha 90.000000
_cell_angle_beta 64.527400
_cell_angle_gamma 90.000000
_cell_volume 2759.738952
_symmetry_space_group_name_H-M "C 2/C"
_symmetry_group_IT_number 15
_symmetry_cell_setting 'monoclinic'
loop_
_space_group_symop_operation_xyz
x,y,z
-x,y,1/2-z
-x,-y,-z
x,-y,1/2+z
1/2+x,1/2+y,z
1/2-x,1/2+y,1/2-z
1/2-x,1/2-y,-z
1/2+x,1/2-y,1/2+z
loop_
_atom_site_type_symbol
_atom_site_label
_atom_site_fract_x
_atom_site_fract_y
_atom_site_fract_z
Si Si1 0.886550 0.295496 0.202751
Si Si2 0.230112 0.205264 0.365591
Si Si3 0.211674 0.949068 0.760227
Si Si4 0.651788 0.274815 0.445907
Si Si5 0.234690 0.408396 0.109517
Si Si6 0.458793 0.433536 0.627275
Si Si7 0.503734 0.284443 0.427166
O O1 0.843509 0.244205 0.123560
O O2 0.889508 0.255872 0.364277
O O3 0.847479 0.377501 0.255537
O O4 0.970425 0.290680 0.047449
O O5 0.250000 0.250000 0.500000
O O6 0.216013 0.115420 0.389929
O O7 0.296902 0.210528 0.176811
O O8 0.268737 0.933662 0.564014
O O9 0.128352 0.956247 0.768803
O O10 0.239477 0.025783 0.805257
O O11 0.703960 0.343636 0.439300
O O12 0.590112 0.298443 0.382819
O O13 0.500000 0.419407 0.750000
O O14 0.500000 0.500000 0.500000
O O15 0.459519 0.358476 0.524535
O O16 0.500000 0.272398 0.250000
#
# Coordination Sequence:
#
# PCOD8151824 Si02
#       7
#     8   8   8   8   8   8   8
#     4  11  21  44  62  88 127 169 220 260 317 388
#     4  11  22  38  63  93 125 165 218 270 305 377
#     4  12  23  41  62  93 131 170 214 256 328 373
#     4  11  21  41  65  88 126 170 210 259 320 383
#     4  11  24  39  63  94 125 171 214 266 312 388
#     4  12  24  40  60  91 138 176 206 250 317 402
#     4  12  24  38  64  97 125 163 212 266 330 382
#
# _framework density 20.291774
#
# number of rings (size 3 to 8) (size 9 to 14) (size 15 to 20)
#    0.000    0.571    4.286    6.000    4.000    0.000 
#    0.000    0.000    0.000    0.857    0.000    0.000 
#    0.000    0.000    0.000    0.000    0.000    0.000 
#
# Total GULP energy -347092.425901 kJ/mol
# GULP energy per Si atom -12396.158068 kJ/mol
# Density = 2.024559 g / cm^3
# Si number density = 20.291774 Si / 1000 Ang^3
#
#
#
# Elastic Constant Matrix: (Units=GPa)
#
#
# Indices 1 2 3 4 5 6 
#
# 1 53.6177 23.1108 24.5319 0.0000 14.1353 0.0000
# 2 23.1108 88.1220 45.7860 0.0000 -0.3217 0.0000
# 3 24.5319 45.7860 101.9547 0.0000 15.2133 0.0000
# 4 0.0000 0.0000 0.0000 25.2628 0.0000 6.7067
# 5 14.1353 -0.3217 15.2133 0.0000 35.1469 0.0000
# 6 0.0000 0.0000 0.0000 6.7067 0.0000 27.3223
#
#
#
# Elastic Compliance Matrix: (Units=1/GPa)
#
#
# Indices 1 2 3 4 5 6 
#
# 1 0.024244 -0.005279 -0.002139 0.000000 -0.008873 0.000000
# 2 -0.005279 0.016300 -0.006830 0.000000 0.005229 0.000000
# 3 -0.002139 -0.006830 0.014187 0.000000 -0.005343 0.000000
# 4 0.000000 0.000000 0.000000 0.042343 0.000000 -0.010394
# 5 -0.008873 0.005229 -0.005343 0.000000 0.034381 0.000000
# 6 0.000000 0.000000 0.000000 -0.010394 0.000000 0.039151
#
#
# Mechanical properties :
#
#
# Convention : Reuss Voigt Hill
#
# Bulk Modulus (GPa) = 38.11637 47.83907 42.97772
# Shear Modulus (GPa) = 24.05597 27.56413 25.81005
#
# Velocity S-wave (km/s) = 3.44685 3.68963 3.57030
# Velocity P-wave (km/s) = 5.88778 6.46359 6.18239
#
# Compressibility (1/GPa) = 0.02623545
#
# Stress axis : x y z
#
# Youngs Moduli (GPa) = 41.24770 61.34853 70.48484
#
# Poissons Ratio (x) = 0.32388 0.15074
# Poissons Ratio (y) = 0.21776 0.48142
# Poissons Ratio (z) = 0.08821 0.41902
#
# Static dielectric constant tensor:
#      x y z
#    x 3.697760 0.000000 -0.073150 
#    y 0.000000 3.707580 0.000000 
#    z -0.073150 0.000000 3.892970 
# 
# 
# High freq. dielectric constant tensor:
#      x y z
#    x 1.792860 0.000000 0.007200 
#    y 0.000000 1.775810 0.000000 
#    z 0.007200 0.000000 1.801650 
# 
# From -- ./inp_files/56500.got.cif
#   From: 2010.06.25/outbox.cif.g09.slc.cpg/sg15_29_cif.got.tgz:56500.got - 2010.06.28 07:06:18.
