data_PCOD8151405
_publ_section_title
;
Structure prediction by ZEFSAII (Michael W. Deem and Ramdas Pophale) SiO2 
 PCOD8151405
Probable space group: C 2/C
;
_chemical_formula_sum "Si O2"
_cell_formula_units_Z 64
_cell_length_a 19.976019
_cell_length_b 17.022472
_cell_length_c 16.832014
_cell_angle_alpha 90.000000
_cell_angle_beta 147.904983
_cell_angle_gamma 90.000000
_cell_volume 3041.079871
_symmetry_space_group_name_H-M "C 2/C"
_symmetry_group_IT_number 15
_symmetry_cell_setting 'monoclinic'
loop_
_space_group_symop_operation_xyz
x,y,z
-x,y,1/2-z
-x,-y,-z
x,-y,1/2+z
1/2+x,1/2+y,z
1/2-x,1/2+y,1/2-z
1/2-x,1/2-y,-z
1/2+x,1/2-y,1/2+z
loop_
_atom_site_type_symbol
_atom_site_label
_atom_site_fract_x
_atom_site_fract_y
_atom_site_fract_z
Si Si1 0.950310 0.673098 0.788755
Si Si2 0.520992 0.348983 0.677450
Si Si3 0.223212 0.067080 0.559376
Si Si4 0.018609 0.121821 0.674335
Si Si5 0.197459 0.018495 0.355374
Si Si6 0.374163 0.225158 0.174395
Si Si7 0.093227 0.555143 0.044070
Si Si8 0.758106 0.594248 0.162199
O O1 0.806859 0.645021 0.637264
O O2 0.000000 0.665900 0.750000
O O3 0.963149 0.760540 0.837782
O O4 0.018083 0.618486 0.919034
O O5 0.500000 0.345944 0.750000
O O6 0.403558 0.399802 0.527149
O O7 0.645640 0.395928 0.777462
O O8 0.207489 0.020178 0.460587
O O9 0.280123 0.998932 0.671207
O O10 0.091580 0.203677 0.730298
O O11 0.000000 0.116901 0.750000
O O12 0.887705 0.119199 0.494330
O O13 0.103322 0.049405 0.731986
O O14 0.328869 0.003569 0.442183
O O15 0.500000 0.207934 0.250000
O O16 0.344876 0.145691 0.191546
O O17 0.250000 0.250000 0.000000
O O18 0.190451 0.604264 0.196983
O O19 0.000000 0.500000 0.000000
#
# Coordination Sequence:
#
# PCOD8151405 Si02
#       8
#     8   8   8   8   8   8   8   8
#     4  11  23  42  66  96 133 176 222 272 333 400
#     4   9  21  37  68 102 123 159 223 280 321 393
#     4  11  20  40  73  95 128 172 221 276 328 400
#     4  11  20  42  72 101 129 171 233 286 330 411
#     4  11  21  41  70  96 124 177 223 265 341 408
#     4  11  22  41  71 104 136 181 235 288 338 403
#     4  12  28  44  59  98 140 176 222 278 340 405
#     4  12  24  44  64  98 144 171 226 291 334 398
#
# _framework density 21.045155999999999
#
# number of rings (size 3 to 8) (size 9 to 14) (size 15 to 20)
#    0.000    1.000    7.500    0.375    1.750    4.500 
#    2.250    0.000    0.000    0.000    0.000    0.000 
#    0.000    0.000    0.000    0.000    0.000    0.000 
#
# Total GULP energy -396599.503371 kJ/mol
# GULP energy per Si atom -12393.734480 kJ/mol
# Density = 2.099726 g / cm^3
# Si number density = 21.045156 Si / 1000 Ang^3
#
#
#
# Elastic Constant Matrix: (Units=GPa)
#
#
# Indices 1 2 3 4 5 6 
#
# 1 44.9205 27.3683 19.1848 0.0001 12.4747 0.0001
# 2 27.3683 149.4495 32.3467 0.0000 9.9411 0.0001
# 3 19.1848 32.3467 103.2398 0.0000 3.1628 0.0001
# 4 0.0001 0.0000 0.0000 49.2426 0.0000 3.6987
# 5 12.4747 9.9411 3.1628 0.0000 33.2381 0.0001
# 6 0.0001 0.0001 0.0001 3.6987 0.0001 21.1224
#
#
#
# Elastic Compliance Matrix: (Units=1/GPa)
#
#
# Indices 1 2 3 4 5 6 
#
# 1 0.028830 -0.003822 -0.003875 0.000000 -0.009309 0.000000
# 2 -0.003822 0.007811 -0.001715 0.000000 -0.000739 0.000000
# 3 -0.003875 -0.001715 0.010915 0.000000 0.000928 0.000000
# 4 0.000000 0.000000 0.000000 0.020578 0.000000 -0.003603
# 5 -0.009309 -0.000739 0.000928 0.000000 0.033712 0.000000
# 6 0.000000 0.000000 0.000000 -0.003603 0.000000 0.047974
#
#
# Mechanical properties :
#
#
# Convention : Reuss Voigt Hill
#
# Bulk Modulus (GPa) = 34.80199 50.60104 42.70152
# Shear Modulus (GPa) = 28.05507 35.30129 31.67818
#
# Velocity S-wave (km/s) = 3.65511 4.10006 3.88396
# Velocity P-wave (km/s) = 5.86394 6.81984 6.35988
#
# Compressibility (1/GPa) = 0.02873399
#
# Stress axis : x y z
#
# Youngs Moduli (GPa) = 34.68625 128.01922 91.61703
#
# Poissons Ratio (x) = 0.48925 0.35500
# Poissons Ratio (y) = 0.13256 0.15709
# Poissons Ratio (z) = 0.13440 0.21950
#
# Static dielectric constant tensor:
#      x y z
#    x 3.504680 0.000000 0.162220 
#    y 0.000000 4.158770 0.000000 
#    z 0.162220 0.000000 4.007010 
# 
# 
# High freq. dielectric constant tensor:
#      x y z
#    x 1.795920 0.000000 0.016220 
#    y 0.000000 1.834410 0.000000 
#    z 0.016220 0.000000 1.836320 
# 
# From -- ./inp_files/216180.got.cif
#   From: 2010.06.25/outbox.cif.g09.slc.cpg/sg15_109_cif.got.tgz:216180.got - 2010.06.28 07:06:18.
