data_PCOD8151753
_publ_section_title
;
Structure prediction by ZEFSAII (Michael W. Deem and Ramdas Pophale) SiO2 
 PCOD8151753
Probable space group: C 2/C
;
_chemical_formula_sum "Si O2"
_cell_formula_units_Z 32
_cell_length_a 25.143553
_cell_length_b 6.155809
_cell_length_c 13.664671
_cell_angle_alpha 90.000000
_cell_angle_beta 43.219646
_cell_angle_gamma 90.000000
_cell_volume 1448.347670
_symmetry_space_group_name_H-M "C 2/C"
_symmetry_group_IT_number 15
_symmetry_cell_setting 'monoclinic'
loop_
_space_group_symop_operation_xyz
x,y,z
-x,y,1/2-z
-x,-y,-z
x,-y,1/2+z
1/2+x,1/2+y,z
1/2-x,1/2+y,1/2-z
1/2-x,1/2-y,-z
1/2+x,1/2-y,1/2+z
loop_
_atom_site_type_symbol
_atom_site_label
_atom_site_fract_x
_atom_site_fract_y
_atom_site_fract_z
Si Si1 0.915301 0.098527 0.108431
Si Si2 0.697675 0.209431 0.217931
Si Si3 0.151788 0.418479 0.448119
Si Si4 0.663536 0.857339 0.119714
O O1 0.912982 0.268874 0.019257
O O2 0.895035 0.209543 0.239353
O O3 0.855022 0.905908 0.173257
O O4 0.000000 0.000000 0.000000
O O5 0.785759 0.275414 0.076519
O O6 0.701687 0.032419 0.297574
O O7 0.665060 0.096354 0.165051
O O8 0.123745 0.598533 0.565861
O O9 0.750000 0.750000 0.000000
#
# Coordination Sequence:
#
# PCOD8151753 Si02
#       4
#     8   8   8   8
#     4  11  26  44  65  98 146 176 220 297 351 392
#     4  11  21  40  69  97 132 172 235 285 334 406
#     4  11  21  39  69  99 127 179 234 279 340 415
#     4  11  23  39  71 102 129 176 242 280 330 424
#
# _framework density 22.094144
#
# number of rings (size 3 to 8) (size 9 to 14) (size 15 to 20)
#    0.000    1.000    5.000    2.250    0.000    4.000 
#    0.000    7.500    0.000    0.000    0.000    0.000 
#    0.000    0.000    0.000    0.000    0.000    0.000 
#
# Total GULP energy -198259.607536 kJ/mol
# GULP energy per Si atom -12391.225471 kJ/mol
# Density = 2.204386 g / cm^3
# Si number density = 22.094144 Si / 1000 Ang^3
#
#
#
# Elastic Constant Matrix: (Units=GPa)
#
#
# Indices 1 2 3 4 5 6 
#
# 1 104.9984 44.9652 65.0159 0.0141 -1.8796 -0.0030
# 2 44.9652 96.1324 42.1765 0.0476 -0.6412 -0.0230
# 3 65.0159 42.1765 110.3382 0.0092 2.6928 -0.0097
# 4 0.0141 0.0476 0.0092 32.5042 0.0071 -6.8069
# 5 -1.8796 -0.6412 2.6928 0.0071 35.2649 -0.0054
# 6 -0.0030 -0.0230 -0.0097 -6.8069 -0.0054 33.7414
#
#
#
# Elastic Compliance Matrix: (Units=1/GPa)
#
#
# Indices 1 2 3 4 5 6 
#
# 1 0.016295 -0.004067 -0.008082 0.000000 0.001412 -0.000003
# 2 -0.004067 0.013526 -0.002780 -0.000016 0.000241 0.000005
# 3 -0.008082 -0.002780 0.014927 0.000004 -0.001621 0.000002
# 4 0.000000 -0.000016 0.000004 0.032122 -0.000006 0.006480
# 5 0.001412 0.000241 -0.001621 -0.000006 0.028560 0.000003
# 6 -0.000003 0.000005 0.000002 0.006480 0.000003 0.030944
#
#
# Mechanical properties :
#
#
# Convention : Reuss Voigt Hill
#
# Bulk Modulus (GPa) = 67.15192 68.42046 67.78619
# Shear Modulus (GPa) = 29.20641 30.92286 30.06463
#
# Velocity S-wave (km/s) = 3.63975 3.74518 3.69284
# Velocity P-wave (km/s) = 6.93709 7.05243 6.99500
#
# Compressibility (1/GPa) = 0.01489161
#
# Stress axis : x y z
#
# Youngs Moduli (GPa) = 61.36832 73.93326 66.99169
#
# Poissons Ratio (x) = 0.30067 0.54141
# Poissons Ratio (y) = 0.24957 0.18622
# Poissons Ratio (z) = 0.49596 0.20551
#
# Static dielectric constant tensor:
#      x y z
#    x 3.965600 0.000000 0.360530 
#    y 0.000000 4.400410 0.000000 
#    z 0.360530 0.000000 3.842010 
# 
# 
# High freq. dielectric constant tensor:
#      x y z
#    x 1.853490 0.000000 0.031920 
#    y 0.000000 1.888220 0.000000 
#    z 0.031920 0.000000 1.855230 
# 
# From -- ./inp_files/158169.got.cif
#   From: 2010.06.25/outbox.cif.g09.slc.cpg/sg15_80_cif.got.tgz:158169.got - 2010.06.28 07:06:18.
