data_PCOD8151390
_publ_section_title
;
Structure prediction by ZEFSAII (Michael W. Deem and Ramdas Pophale) SiO2 
 PCOD8151390
Probable space group: C 2/C
;
_chemical_formula_sum "Si O2"
_cell_formula_units_Z 64
_cell_length_a 11.700590
_cell_length_b 14.969276
_cell_length_c 29.460938
_cell_angle_alpha 90.000000
_cell_angle_beta 37.586506
_cell_angle_gamma 90.000000
_cell_volume 3147.425446
_symmetry_space_group_name_H-M "C 2/C"
_symmetry_group_IT_number 15
_symmetry_cell_setting 'monoclinic'
loop_
_space_group_symop_operation_xyz
x,y,z
-x,y,1/2-z
-x,-y,-z
x,-y,1/2+z
1/2+x,1/2+y,z
1/2-x,1/2+y,1/2-z
1/2-x,1/2-y,-z
1/2+x,1/2-y,1/2+z
loop_
_atom_site_type_symbol
_atom_site_label
_atom_site_fract_x
_atom_site_fract_y
_atom_site_fract_z
Si Si1 0.914238 0.514387 0.166089
Si Si2 0.016555 0.827501 0.927883
Si Si3 0.392242 0.170650 0.908686
Si Si4 0.173854 0.721396 0.668154
Si Si5 0.176328 0.921911 0.668524
Si Si6 0.950323 0.154375 0.914659
Si Si7 0.955060 0.030760 0.156656
Si Si8 0.196943 0.329816 0.579541
O O1 0.859026 0.526723 0.130026
O O2 0.734533 0.521319 0.255073
O O3 0.004325 0.417588 0.141033
O O4 0.057669 0.590719 0.137251
O O5 0.015828 0.729745 0.904464
O O6 0.091098 0.904836 0.871073
O O7 0.147926 0.820201 0.930285
O O8 0.806482 0.855673 0.007363
O O9 0.364376 0.230376 0.873023
O O10 0.208777 0.820910 0.675271
O O11 0.355531 0.662928 0.619741
O O12 0.000000 0.677559 0.750000
O O13 0.000000 0.964626 0.750000
O O14 0.132043 0.928798 0.629156
O O15 0.912340 0.235801 0.891690
O O16 0.786750 0.145633 0.002951
O O17 0.963964 0.064584 0.882228
#
# Coordination Sequence:
#
# PCOD8151390 Si02
#       8
#     8   8   8   8   8   8   8   8
#     4  11  24  42  65  94 126 167 213 262 317 375
#     4  11  25  44  63  93 133 166 204 264 322 376
#     4  11  24  42  66  94 124 168 214 259 315 382
#     4  11  20  40  68  91 124 170 217 260 307 374
#     4   9  20  40  62  88 126 163 209 266 312 364
#     4  11  24  42  66  94 124 168 214 259 315 382
#     4  11  24  42  65  94 126 167 213 262 317 375
#     4  11  25  44  63  93 133 166 204 264 322 376
#
# _framework density 20.33408
#
# number of rings (size 3 to 8) (size 9 to 14) (size 15 to 20)
#    0.000    1.250    3.750    1.500    3.500    2.500 
#    0.000    1.250    0.000    0.000    0.000    0.000 
#    0.000    0.000    0.000    0.000    0.000    0.000 
#
# Total GULP energy -396789.379957 kJ/mol
# GULP energy per Si atom -12399.668124 kJ/mol
# Density = 2.028780 g / cm^3
# Si number density = 20.334080 Si / 1000 Ang^3
#
#
#
# Elastic Constant Matrix: (Units=GPa)
#
#
# Indices 1 2 3 4 5 6 
#
# 1 97.4060 37.9248 21.6713 0.0001 -0.9607 -0.0003
# 2 37.9248 120.3516 43.1954 -0.0012 -3.7056 0.0005
# 3 21.6713 43.1954 88.8943 -0.0023 3.4441 0.0015
# 4 0.0001 -0.0012 -0.0023 26.3574 -0.0001 7.9913
# 5 -0.9607 -3.7056 3.4441 -0.0001 24.8434 -0.0004
# 6 -0.0003 0.0005 0.0015 7.9913 -0.0004 19.9659
#
#
#
# Elastic Compliance Matrix: (Units=1/GPa)
#
#
# Indices 1 2 3 4 5 6 
#
# 1 0.011825 -0.003252 -0.001309 0.000000 0.000154 0.000001
# 2 -0.003252 0.011078 -0.004675 0.000000 0.002175 0.000000
# 3 -0.001309 -0.004675 0.013944 0.000001 -0.002681 -0.000002
# 4 0.000000 0.000000 0.000001 0.043180 0.000000 -0.017283
# 5 0.000154 0.002175 -0.002681 0.000000 0.040954 0.000001
# 6 0.000001 0.000000 -0.000002 -0.017283 0.000001 0.057003
#
#
# Mechanical properties :
#
#
# Convention : Reuss Voigt Hill
#
# Bulk Modulus (GPa) = 54.41624 56.91499 55.66562
# Shear Modulus (GPa) = 24.68157 27.82403 26.25280
#
# Velocity S-wave (km/s) = 3.48775 3.70313 3.59705
# Velocity P-wave (km/s) = 6.56036 6.80698 6.68481
#
# Compressibility (1/GPa) = 0.01837687
#
# Stress axis : x y z
#
# Youngs Moduli (GPa) = 84.56601 90.26506 71.71675
#
# Poissons Ratio (x) = 0.29353 0.09385
# Poissons Ratio (y) = 0.27500 0.33526
# Poissons Ratio (z) = 0.11066 0.42197
#
# Static dielectric constant tensor:
#      x y z
#    x 3.810330 0.000000 -0.017000 
#    y 0.000000 3.566050 0.000000 
#    z -0.017000 0.000000 3.667750 
# 
# 
# High freq. dielectric constant tensor:
#      x y z
#    x 1.803460 0.000000 -0.000370 
#    y 0.000000 1.796600 0.000000 
#    z -0.000370 0.000000 1.790910 
# 
# From -- ./inp_files/311176.got.cif
#   From: 2010.06.25/outbox.cif.g09.slc.cpg/sg15_156_cif.got.tgz:311176.got - 2010.06.28 07:06:18.
