data_PCOD8151442
_publ_section_title
;
Structure prediction by ZEFSAII (Michael W. Deem and Ramdas Pophale) SiO2 
 PCOD8151442
Probable space group: C 2/C
;
_chemical_formula_sum "Si O2"
_cell_formula_units_Z 64
_cell_length_a 26.779448
_cell_length_b 15.059630
_cell_length_c 9.052547
_cell_angle_alpha 90.000000
_cell_angle_beta 51.258934
_cell_angle_gamma 90.000000
_cell_volume 2847.549823
_symmetry_space_group_name_H-M "C 2/C"
_symmetry_group_IT_number 15
_symmetry_cell_setting 'monoclinic'
loop_
_space_group_symop_operation_xyz
x,y,z
-x,y,1/2-z
-x,-y,-z
x,-y,1/2+z
1/2+x,1/2+y,z
1/2-x,1/2+y,1/2-z
1/2-x,1/2-y,-z
1/2+x,1/2-y,1/2+z
loop_
_atom_site_type_symbol
_atom_site_label
_atom_site_fract_x
_atom_site_fract_y
_atom_site_fract_z
Si Si1 0.157330 0.320835 0.080596
Si Si2 0.076224 0.071277 0.617558
Si Si3 0.121129 0.435979 0.901998
Si Si4 0.129110 0.742382 0.946787
Si Si5 0.567094 0.083817 0.195481
Si Si6 0.645489 0.562606 0.783278
Si Si7 0.766527 0.179372 0.716711
Si Si8 0.734879 0.971600 0.070053
O O1 0.119615 0.301870 0.301647
O O2 0.201572 0.407400 0.013535
O O3 0.114414 0.346689 0.015955
O O4 0.199099 0.233645 0.976233
O O5 0.105002 0.156977 0.480460
O O6 0.091929 0.081604 0.760679
O O7 0.000000 0.065266 0.750000
O O8 0.109282 0.983119 0.488669
O O9 0.067880 0.433846 0.870648
O O10 0.190366 0.443021 0.691093
O O11 0.116500 0.522020 0.015149
O O12 0.201955 0.734118 0.876825
O O13 0.083468 0.687171 0.140347
O O14 0.500000 0.057686 0.250000
O O15 0.681043 0.657107 0.753667
O O16 0.697558 0.497007 0.620533
O O17 0.746597 0.081890 0.699352
#
# Coordination Sequence:
#
# PCOD8151442 Si02
#       8
#     8   8   8   8   8   8   8   8
#     4  11  23  40  68  98 139 173 212 277 357 413
#     4  12  28  49  72  97 142 192 234 281 335 420
#     4  12  23  41  66  99 138 176 226 284 339 412
#     4  11  24  46  67 101 136 177 221 286 350 404
#     4  12  24  43  66  92 135 184 232 268 330 401
#     4  12  25  44  73 103 133 178 234 286 345 413
#     4  11  22  39  69 104 132 169 219 286 352 406
#     4  11  20  42  67 102 135 176 215 289 361 409
#
# _framework density 22.475463000000001
#
# number of rings (size 3 to 8) (size 9 to 14) (size 15 to 20)
#    0.000    0.500    5.000    5.625    3.500    0.500 
#    0.000    0.000    0.000    0.000    0.000    0.000 
#    0.000    0.000    0.000    0.000    0.000    0.000 
#
# Total GULP energy -396695.684232 kJ/mol
# GULP energy per Si atom -12396.740132 kJ/mol
# Density = 2.242431 g / cm^3
# Si number density = 22.475463 Si / 1000 Ang^3
#
#
#
# Elastic Constant Matrix: (Units=GPa)
#
#
# Indices 1 2 3 4 5 6 
#
# 1 143.9759 21.8386 49.2975 0.0000 14.4440 0.0000
# 2 21.8386 68.2098 28.7093 0.0000 1.1370 0.0000
# 3 49.2975 28.7093 70.1590 0.0000 1.6231 0.0000
# 4 0.0000 0.0000 0.0000 31.3229 0.0000 4.3611
# 5 14.4440 1.1370 1.6231 0.0000 43.9612 0.0000
# 6 0.0000 0.0000 0.0000 4.3611 0.0000 18.4967
#
#
#
# Elastic Compliance Matrix: (Units=1/GPa)
#
#
# Indices 1 2 3 4 5 6 
#
# 1 0.009500 -0.000256 -0.006504 0.000000 -0.002874 0.000000
# 2 -0.000256 0.017720 -0.007068 0.000000 -0.000113 0.000000
# 3 -0.006504 -0.007068 0.021680 0.000000 0.001519 0.000000
# 4 0.000000 0.000000 0.000000 0.033009 0.000000 -0.007783
# 5 -0.002874 -0.000113 0.001519 0.000000 0.023639 0.000000
# 6 0.000000 0.000000 0.000000 -0.007783 0.000000 0.055899
#
#
# Mechanical properties :
#
#
# Convention : Reuss Voigt Hill
#
# Bulk Modulus (GPa) = 47.07349 53.55949 50.31649
# Shear Modulus (GPa) = 25.48634 30.92277 28.20455
#
# Velocity S-wave (km/s) = 3.37109 3.71326 3.54631
# Velocity P-wave (km/s) = 6.01184 6.50126 6.26133
#
# Compressibility (1/GPa) = 0.02124338
#
# Stress axis : x y z
#
# Youngs Moduli (GPa) = 105.26651 56.43470 46.12465
#
# Poissons Ratio (x) = 0.01446 0.29998
# Poissons Ratio (y) = 0.02697 0.32602
# Poissons Ratio (z) = 0.68462 0.39890
#
# Static dielectric constant tensor:
#      x y z
#    x 4.210590 0.000000 0.191560 
#    y 0.000000 3.937930 0.000000 
#    z 0.191560 0.000000 3.892310 
# 
# 
# High freq. dielectric constant tensor:
#      x y z
#    x 1.886610 0.000000 0.013890 
#    y 0.000000 1.878090 0.000000 
#    z 0.013890 0.000000 1.875820 
# 
# From -- ./inp_files/70121.got.cif
#   From: 2010.06.25/outbox.cif.g09.slc.cpg/sg15_36_cif.got.tgz:70121.got - 2010.06.28 07:06:18.
