data_PCOD8151926
_publ_section_title
;
Structure prediction by ZEFSAII (Michael W. Deem and Ramdas Pophale) SiO2 
 PCOD8151926
Probable space group: C 2/C
;
_chemical_formula_sum "Si O2"
_cell_formula_units_Z 64
_cell_length_a 32.079051
_cell_length_b 17.437480
_cell_length_c 9.403550
_cell_angle_alpha 90.000000
_cell_angle_beta 34.971012
_cell_angle_gamma 90.000000
_cell_volume 3014.910364
_symmetry_space_group_name_H-M "C 2/C"
_symmetry_group_IT_number 15
_symmetry_cell_setting 'monoclinic'
loop_
_space_group_symop_operation_xyz
x,y,z
-x,y,1/2-z
-x,-y,-z
x,-y,1/2+z
1/2+x,1/2+y,z
1/2-x,1/2+y,1/2-z
1/2-x,1/2-y,-z
1/2+x,1/2-y,1/2+z
loop_
_atom_site_type_symbol
_atom_site_label
_atom_site_fract_x
_atom_site_fract_y
_atom_site_fract_z
Si Si1 0.324107 0.326889 0.915628
Si Si2 0.695364 0.967643 0.925983
Si Si3 0.077051 0.072532 0.963108
Si Si4 0.142933 0.224465 0.691706
Si Si5 0.828282 0.595832 0.710171
Si Si6 0.082985 0.738253 0.059896
Si Si7 0.856539 0.984508 0.956703
Si Si8 0.694598 0.807401 0.812126
O O1 0.366126 0.302245 0.655749
O O2 0.363874 0.400106 0.869913
O O3 0.240532 0.346974 0.114196
O O4 0.330345 0.258234 0.010260
O O5 0.663902 0.889345 0.947478
O O6 0.656209 0.043326 0.972041
O O7 0.779368 0.976218 0.648091
O O8 0.683306 0.963794 0.128531
O O9 0.096488 0.161799 0.906497
O O10 0.082452 0.037894 0.788896
O O11 0.132140 0.022752 0.906112
O O12 0.000000 0.061769 0.250000
O O13 0.095147 0.256114 0.695199
O O14 0.218234 0.187463 0.429731
O O15 0.162042 0.293402 0.746326
O O16 0.896479 0.651780 0.545528
O O17 0.000000 0.754384 0.250000
#
# Coordination Sequence:
#
# PCOD8151926 Si02
#       8
#     8   8   8   8   8   8   8   8
#     4  11  22  43  70  97 131 174 223 280 326 390
#     4  11  23  39  71  96 132 167 218 289 336 381
#     4  12  26  42  61  89 141 183 213 259 324 411
#     4  11  25  40  67 101 128 169 232 275 332 389
#     4  11  24  42  69 102 133 170 230 273 339 398
#     4  12  27  44  68  97 137 179 222 272 332 404
#     4  11  24  41  61 101 129 169 226 266 327 390
#     4  11  21  42  72  97 129 167 222 293 332 377
#
# _framework density 21.227830000000001
#
# number of rings (size 3 to 8) (size 9 to 14) (size 15 to 20)
#    0.000    0.750    5.000    3.000    5.250    0.500 
#    0.000    0.625    0.000    0.000    0.000    0.000 
#    0.000    0.000    0.000    0.000    0.000    0.000 
#
# Total GULP energy -396895.975604 kJ/mol
# GULP energy per Si atom -12402.999238 kJ/mol
# Density = 2.117951 g / cm^3
# Si number density = 21.227830 Si / 1000 Ang^3
#
#
#
# Elastic Constant Matrix: (Units=GPa)
#
#
# Indices 1 2 3 4 5 6 
#
# 1 113.6054 31.7680 23.5288 0.0000 14.0731 0.0000
# 2 31.7680 105.5917 24.1325 0.0000 3.8566 0.0000
# 3 23.5288 24.1325 51.1870 0.0000 13.8227 0.0000
# 4 0.0000 0.0000 0.0000 27.9632 0.0000 17.1426
# 5 14.0731 3.8566 13.8227 0.0000 28.0888 0.0000
# 6 0.0000 0.0000 0.0000 17.1426 0.0000 26.6145
#
#
#
# Elastic Compliance Matrix: (Units=1/GPa)
#
#
# Indices 1 2 3 4 5 6 
#
# 1 0.010481 -0.002401 -0.002718 0.000000 -0.003584 0.000000
# 2 -0.002401 0.011197 -0.004711 0.000000 0.001984 0.000000
# 3 -0.002718 -0.004711 0.025907 0.000000 -0.010740 0.000000
# 4 0.000000 0.000000 0.000000 0.059096 0.000000 -0.038064
# 5 -0.003584 0.001984 -0.010740 0.000000 0.042410 0.000000
# 6 0.000000 0.000000 0.000000 -0.038064 0.000000 0.062091
#
#
# Mechanical properties :
#
#
# Convention : Reuss Voigt Hill
#
# Bulk Modulus (GPa) = 35.81034 47.69363 41.75198
# Shear Modulus (GPa) = 20.82033 29.26362 25.04198
#
# Velocity S-wave (km/s) = 3.13518 3.71691 3.43837
# Velocity P-wave (km/s) = 5.47831 6.39819 5.95604
#
# Compressibility (1/GPa) = 0.02792490
#
# Stress axis : x y z
#
# Youngs Moduli (GPa) = 95.41360 89.30916 38.59981
#
# Poissons Ratio (x) = 0.21445 0.10490
# Poissons Ratio (y) = 0.22910 0.18184
# Poissons Ratio (z) = 0.25931 0.42073
#
# Static dielectric constant tensor:
#      x y z
#    x 3.845170 0.000000 0.246940 
#    y 0.000000 3.892840 0.000000 
#    z 0.246940 0.000000 3.604490 
# 
# 
# High freq. dielectric constant tensor:
#      x y z
#    x 1.827620 0.000000 0.028180 
#    y 0.000000 1.842490 0.000000 
#    z 0.028180 0.000000 1.810470 
# 
# From -- ./inp_files/70596.got.cif
#   From: 2010.06.25/outbox.cif.g09.slc.cpg/sg15_36_cif.got.tgz:70596.got - 2010.06.28 07:06:18.
