data_PCOD8151597
_publ_section_title
;
Structure prediction by ZEFSAII (Michael W. Deem and Ramdas Pophale) SiO2 
 PCOD8151597
Probable space group: C 2/C
;
_chemical_formula_sum "Si O2"
_cell_formula_units_Z 64
_cell_length_a 26.260412
_cell_length_b 14.106287
_cell_length_c 9.213837
_cell_angle_alpha 90.000000
_cell_angle_beta 79.101455
_cell_angle_gamma 90.000000
_cell_volume 3351.584147
_symmetry_space_group_name_H-M "C 2/C"
_symmetry_group_IT_number 15
_symmetry_cell_setting 'monoclinic'
loop_
_space_group_symop_operation_xyz
x,y,z
-x,y,1/2-z
-x,-y,-z
x,-y,1/2+z
1/2+x,1/2+y,z
1/2-x,1/2+y,1/2-z
1/2-x,1/2-y,-z
1/2+x,1/2-y,1/2+z
loop_
_atom_site_type_symbol
_atom_site_label
_atom_site_fract_x
_atom_site_fract_y
_atom_site_fract_z
Si Si1 0.700376 0.197707 0.083160
Si Si2 0.554840 0.381260 0.779676
Si Si3 0.555166 0.595907 0.771304
Si Si4 0.119009 0.158224 0.975191
Si Si5 0.732211 0.994329 0.430854
Si Si6 0.694545 0.500163 0.866200
Si Si7 0.295803 0.199335 0.070839
Si Si8 0.123386 0.160182 0.485635
O O1 0.708662 0.202869 0.251723
O O2 0.750000 0.250000 0.000000
O O3 0.698963 0.092713 0.013149
O O4 0.648476 0.248607 0.050959
O O5 0.500000 0.340663 0.750000
O O6 0.548268 0.489467 0.839691
O O7 0.597843 0.386191 0.632380
O O8 0.577008 0.313981 0.896975
O O9 0.500000 0.635346 0.750000
O O10 0.571436 0.670208 0.888823
O O11 0.597544 0.593894 0.620762
O O12 0.156783 0.088364 0.863253
O O13 0.149197 0.254199 0.998754
O O14 0.751924 0.987663 0.253783
O O15 0.787836 0.003185 0.476840
O O16 0.699357 0.089606 0.475634
O O17 0.665244 0.399268 0.866446
O O18 0.250000 0.250000 0.000000
#
# Coordination Sequence:
#
# PCOD8151597 Si02
#       8
#     8   8   8   8   8   8   8   8
#     4  12  25  40  59  89 121 162 207 244 296 359
#     4  11  23  37  57  91 124 157 199 245 301 364
#     4  11  21  37  60  87 123 160 199 251 301 363
#     4  12  22  36  58  87 120 161 202 237 298 359
#     4  12  24  39  56  84 127 160 209 244 285 346
#     4  12  21  34  58  85 121 166 200 242 290 350
#     4  12  26  39  61  89 120 161 206 246 294 355
#     4  12  22  38  60  86 123 166 199 243 302 357
#
# _framework density 19.095447
#
# number of rings (size 3 to 8) (size 9 to 14) (size 15 to 20)
#    0.000    0.250    7.500    3.000    1.750    2.000 
#    0.000    0.000    0.000    0.000    0.000    5.250 
#    0.000    0.000    0.000    0.000    0.000    0.000 
#
# Total GULP energy -396517.798839 kJ/mol
# GULP energy per Si atom -12391.181214 kJ/mol
# Density = 1.905198 g / cm^3
# Si number density = 19.095447 Si / 1000 Ang^3
#
#
#
# Elastic Constant Matrix: (Units=GPa)
#
#
# Indices 1 2 3 4 5 6 
#
# 1 120.9427 55.2281 32.5059 0.0000 27.6542 0.0000
# 2 55.2281 114.1283 28.2192 0.0000 5.8822 0.0000
# 3 32.5059 28.2192 75.8838 0.0000 11.5112 0.0000
# 4 0.0000 0.0000 0.0000 20.3880 0.0000 2.6699
# 5 27.6542 5.8822 11.5112 0.0000 35.4807 0.0000
# 6 0.0000 0.0000 0.0000 2.6699 0.0000 24.0929
#
#
#
# Elastic Compliance Matrix: (Units=1/GPa)
#
#
# Indices 1 2 3 4 5 6 
#
# 1 0.013400 -0.005442 -0.002386 0.000000 -0.008768 0.000000
# 2 -0.005442 0.011867 -0.002552 0.000000 0.003103 0.000000
# 3 -0.002386 -0.002552 0.015569 0.000000 -0.002768 0.000000
# 4 0.000000 0.000000 0.000000 0.049771 0.000000 -0.005515
# 5 -0.008768 0.003103 -0.002768 0.000000 0.035402 0.000000
# 6 0.000000 0.000000 0.000000 -0.005515 0.000000 0.042117
#
#
# Mechanical properties :
#
#
# Convention : Reuss Voigt Hill
#
# Bulk Modulus (GPa) = 49.81508 60.31791 55.06649
# Shear Modulus (GPa) = 25.56521 28.99243 27.27882
#
# Velocity S-wave (km/s) = 3.66295 3.90075 3.78372
# Velocity P-wave (km/s) = 6.63578 7.20722 6.92739
#
# Compressibility (1/GPa) = 0.02007424
#
# Stress axis : x y z
#
# Youngs Moduli (GPa) = 74.62853 84.26806 64.22931
#
# Poissons Ratio (x) = 0.45862 0.15326
# Poissons Ratio (y) = 0.40616 0.16393
# Poissons Ratio (z) = 0.17807 0.21508
#
# Static dielectric constant tensor:
#      x y z
#    x 3.754030 0.000000 0.266380 
#    y 0.000000 3.526190 0.000000 
#    z 0.266380 0.000000 3.719420 
# 
# 
# High freq. dielectric constant tensor:
#      x y z
#    x 1.739120 0.000000 0.022090 
#    y 0.000000 1.698940 0.000000 
#    z 0.022090 0.000000 1.759990 
# 
# From -- ./inp_files/66195.got.cif
#   From: 2010.06.25/outbox.cif.g09.slc.cpg/sg15_34_cif.got.tgz:66195.got - 2010.06.28 07:06:18.
