data_PCOD8151598
_publ_section_title
;
Structure prediction by ZEFSAII (Michael W. Deem and Ramdas Pophale) SiO2 
 PCOD8151598
Probable space group: C 2/C
;
_chemical_formula_sum "Si O2"
_cell_formula_units_Z 44
_cell_length_a 17.974724
_cell_length_b 18.814319
_cell_length_c 14.609145
_cell_angle_alpha 90.000000
_cell_angle_beta 152.012260
_cell_angle_gamma 90.000000
_cell_volume 2318.515507
_symmetry_space_group_name_H-M "C 2/C"
_symmetry_group_IT_number 15
_symmetry_cell_setting 'monoclinic'
loop_
_space_group_symop_operation_xyz
x,y,z
-x,y,1/2-z
-x,-y,-z
x,-y,1/2+z
1/2+x,1/2+y,z
1/2-x,1/2+y,1/2-z
1/2-x,1/2-y,-z
1/2+x,1/2-y,1/2+z
loop_
_atom_site_type_symbol
_atom_site_label
_atom_site_fract_x
_atom_site_fract_y
_atom_site_fract_z
Si Si1 0.865171 0.826863 0.242974
Si Si2 0.500000 0.976670 0.250000
Si Si3 0.903019 0.938222 0.941470
Si Si4 0.008632 0.673221 0.417839
Si Si5 0.440029 0.069782 0.490264
Si Si6 0.756133 0.419606 0.544179
O O1 0.929970 0.747772 0.308075
O O2 0.985393 0.868996 0.439134
O O3 0.691729 0.824576 0.095250
O O4 0.853806 0.864524 0.131154
O O5 0.494127 0.929826 0.335278
O O6 0.667090 0.020195 0.437133
O O7 0.749873 0.926631 0.712951
O O8 0.849582 0.953211 0.988843
O O9 0.000000 0.000000 0.000000
O O10 0.998247 0.644618 0.510431
O O11 0.914360 0.616593 0.255308
O O12 0.500000 0.000000 0.500000
#
# Coordination Sequence:
#
# PCOD8151598 Si02
#       6
#     8   4   8   8   8   8
#     4  12  23  38  60  93 124 171 208 256 319 378
#     4  12  20  38  70  92 124 162 220 258 310 376
#     4  11  23  37  58  88 131 165 205 256 313 376
#     4  11  22  38  60  87 133 167 204 257 322 373
#     4  11  21  40  61  89 125 169 210 257 315 369
#     4  11  21  37  60  94 126 166 208 259 314 373
#
# _framework density 18.97766
#
# number of rings (size 3 to 8) (size 9 to 14) (size 15 to 20)
#    0.000    0.727    5.455    5.455    0.000    1.455 
#    0.000    0.000    0.000    4.364    0.000    0.000 
#    0.000    0.000    0.000    0.000    0.000    0.000 
#
# Total GULP energy -272689.556891 kJ/mol
# GULP energy per Si atom -12394.979859 kJ/mol
# Density = 1.893447 g / cm^3
# Si number density = 18.977660 Si / 1000 Ang^3
#
#
#
# Elastic Constant Matrix: (Units=GPa)
#
#
# Indices 1 2 3 4 5 6 
#
# 1 114.5387 44.1159 53.7437 0.0000 0.3327 0.0000
# 2 44.1159 56.0988 33.8348 0.0000 -2.3352 0.0000
# 3 53.7437 33.8348 111.1676 0.0000 9.4451 0.0000
# 4 0.0000 0.0000 0.0000 73.4588 0.0000 -7.9349
# 5 0.3327 -2.3352 9.4451 0.0000 49.1951 0.0000
# 6 0.0000 0.0000 0.0000 -7.9349 0.0000 33.0413
#
#
#
# Elastic Compliance Matrix: (Units=1/GPa)
#
#
# Indices 1 2 3 4 5 6 
#
# 1 0.013945 -0.008416 -0.004207 0.000000 0.000314 0.000000
# 2 -0.008416 0.027184 -0.004391 0.000000 0.002190 0.000000
# 3 -0.004207 -0.004391 0.012586 0.000000 -0.002596 0.000000
# 4 0.000000 0.000000 0.000000 0.013976 0.000000 0.003356
# 5 0.000314 0.002190 -0.002596 0.000000 0.020928 0.000000
# 6 0.000000 0.000000 0.000000 0.003356 0.000000 0.031071
#
#
# Mechanical properties :
#
#
# Convention : Reuss Voigt Hill
#
# Bulk Modulus (GPa) = 50.79450 60.57711 55.68580
# Shear Modulus (GPa) = 31.19543 41.14641 36.17092
#
# Velocity S-wave (km/s) = 4.05878 4.66139 4.37048
# Velocity P-wave (km/s) = 6.98487 7.80775 7.40774
#
# Compressibility (1/GPa) = 0.01968717
#
# Stress axis : x y z
#
# Youngs Moduli (GPa) = 71.70860 36.78697 79.45159
#
# Poissons Ratio (x) = 0.30960 0.33425
# Poissons Ratio (y) = 0.60351 0.34886
# Poissons Ratio (z) = 0.30168 0.16153
#
# Static dielectric constant tensor:
#      x y z
#    x 3.669150 0.000000 0.126480 
#    y 0.000000 3.622950 0.000000 
#    z 0.126480 0.000000 4.255390 
# 
# 
# High freq. dielectric constant tensor:
#      x y z
#    x 1.740130 0.000000 0.022100 
#    y 0.000000 1.714750 0.000000 
#    z 0.022100 0.000000 1.750750 
# 
# From -- ./inp_files/39078.got.cif
#   From: 2010.06.25/outbox.cif.g09.slc.cpg/sg15_20_cif.got.tgz:39078.got - 2010.06.28 07:06:18.
