data_PCOD8151755
_publ_section_title
;
Structure prediction by ZEFSAII (Michael W. Deem and Ramdas Pophale) SiO2 
 PCOD8151755
Probable space group: C 2/C
;
_chemical_formula_sum "Si O2"
_cell_formula_units_Z 52
_cell_length_a 21.887331
_cell_length_b 8.623257
_cell_length_c 18.112933
_cell_angle_alpha 90.000000
_cell_angle_beta 136.339332
_cell_angle_gamma 90.000000
_cell_volume 2360.178561
_symmetry_space_group_name_H-M "C 2/C"
_symmetry_group_IT_number 15
_symmetry_cell_setting 'monoclinic'
loop_
_space_group_symop_operation_xyz
x,y,z
-x,y,1/2-z
-x,-y,-z
x,-y,1/2+z
1/2+x,1/2+y,z
1/2-x,1/2+y,1/2-z
1/2-x,1/2-y,-z
1/2+x,1/2-y,1/2+z
loop_
_atom_site_type_symbol
_atom_site_label
_atom_site_fract_x
_atom_site_fract_y
_atom_site_fract_z
Si Si1 0.526709 0.345945 0.188769
Si Si2 0.221548 0.422422 0.987629
Si Si3 0.206263 0.001443 0.801314
Si Si4 0.879254 0.069622 0.043317
Si Si5 0.901128 0.520778 0.243543
Si Si6 0.500000 0.224284 0.750000
Si Si7 0.751682 0.154624 0.812260
O O1 0.500000 0.339168 0.250000
O O2 0.610731 0.458882 0.252576
O O3 0.441850 0.423901 0.073608
O O4 0.549332 0.172307 0.179097
O O5 0.218145 0.467442 0.070880
O O6 0.289155 0.531447 0.005139
O O7 0.250000 0.250000 0.000000
O O8 0.126555 0.440928 0.865792
O O9 0.225620 0.118435 0.752061
O O10 0.206907 0.823263 0.776918
O O11 0.926562 0.174679 0.145423
O O12 0.844993 0.152892 0.938625
O O13 0.817618 0.477005 0.221441
O O14 0.964260 0.374266 0.288458
#
# Coordination Sequence:
#
# PCOD8151755 Si02
#       7
#     8   8   8   8   8   4   8
#     4  12  21  42  68 102 132 174 221 287 328 395
#     4  11  21  39  72 100 124 176 227 282 318 403
#     4  12  24  45  71  95 144 175 231 270 345 398
#     4  11  23  42  66  98 135 175 224 274 348 381
#     4  11  23  40  68 104 131 170 229 276 341 389
#     4  12  22  38  68  96 140 168 220 290 316 404
#     4  11  27  45  66 101 138 187 216 280 338 419
#
# _framework density 22.032230999999999
#
# number of rings (size 3 to 8) (size 9 to 14) (size 15 to 20)
#    0.000    0.615    4.615    3.692    2.154    3.077 
#    0.000    0.000    0.000    4.615    0.000    0.000 
#    0.000    0.000    0.000    0.000    0.000    0.000 
#
# Total GULP energy -322326.747531 kJ/mol
# GULP energy per Si atom -12397.182597 kJ/mol
# Density = 2.198208 g / cm^3
# Si number density = 22.032231 Si / 1000 Ang^3
#
#
#
# Elastic Constant Matrix: (Units=GPa)
#
#
# Indices 1 2 3 4 5 6 
#
# 1 81.4437 27.7178 19.6759 0.0000 -4.6169 0.0000
# 2 27.7178 135.2678 21.0942 0.0000 4.3243 0.0000
# 3 19.6759 21.0942 53.5760 0.0000 -6.3922 0.0000
# 4 0.0000 0.0000 0.0000 23.6334 0.0000 1.2821
# 5 -4.6169 4.3243 -6.3922 0.0000 33.5103 0.0000
# 6 0.0000 0.0000 0.0000 1.2821 0.0000 39.9868
#
#
#
# Elastic Compliance Matrix: (Units=1/GPa)
#
#
# Indices 1 2 3 4 5 6 
#
# 1 0.014138 -0.002303 -0.004111 0.000000 0.001461 0.000000
# 2 -0.002303 0.008341 -0.002665 0.000000 -0.001902 0.000000
# 3 -0.004111 -0.002665 0.021692 0.000000 0.003915 0.000000
# 4 0.000000 0.000000 0.000000 0.042387 0.000000 -0.001359
# 5 0.001461 -0.001902 0.003915 0.000000 0.031035 0.000000
# 6 0.000000 0.000000 0.000000 -0.001359 0.000000 0.025052
#
#
# Mechanical properties :
#
#
# Convention : Reuss Voigt Hill
#
# Bulk Modulus (GPa) = 38.44382 45.25148 41.84765
# Shear Modulus (GPa) = 29.50310 32.87941 31.19125
#
# Velocity S-wave (km/s) = 3.66333 3.86726 3.76667
# Velocity P-wave (km/s) = 5.94811 6.36587 6.16053
#
# Compressibility (1/GPa) = 0.02601198
#
# Stress axis : x y z
#
# Youngs Moduli (GPa) = 70.73065 119.88948 46.10098
#
# Poissons Ratio (x) = 0.27606 0.18954
# Poissons Ratio (y) = 0.16286 0.12288
# Poissons Ratio (z) = 0.29080 0.31955
#
# Static dielectric constant tensor:
#      x y z
#    x 3.783000 0.000000 0.090660 
#    y 0.000000 4.236150 0.000000 
#    z 0.090660 0.000000 4.177150 
# 
# 
# High freq. dielectric constant tensor:
#      x y z
#    x 1.859330 0.000000 0.014490 
#    y 0.000000 1.885010 0.000000 
#    z 0.014490 0.000000 1.852090 
# 
# From -- ./inp_files/214360.got.cif
#   From: 2010.06.25/outbox.cif.g09.slc.cpg/sg15_108_cif.got.tgz:214360.got - 2010.06.28 07:06:18.
