data_PCOD8151330
_publ_section_title
;
Structure prediction by ZEFSAII (Michael W. Deem and Ramdas Pophale) SiO2 
 PCOD8151330
Probable space group: C 2/C
;
_chemical_formula_sum "Si O2"
_cell_formula_units_Z 52
_cell_length_a 10.604345
_cell_length_b 23.116533
_cell_length_c 11.778241
_cell_angle_alpha 90.000000
_cell_angle_beta 121.968567
_cell_angle_gamma 90.000000
_cell_volume 2449.380507
_symmetry_space_group_name_H-M "C 2/C"
_symmetry_group_IT_number 15
_symmetry_cell_setting 'monoclinic'
loop_
_space_group_symop_operation_xyz
x,y,z
-x,y,1/2-z
-x,-y,-z
x,-y,1/2+z
1/2+x,1/2+y,z
1/2-x,1/2+y,1/2-z
1/2-x,1/2-y,-z
1/2+x,1/2-y,1/2+z
loop_
_atom_site_type_symbol
_atom_site_label
_atom_site_fract_x
_atom_site_fract_y
_atom_site_fract_z
Si Si1 0.675494 0.450327 0.819385
Si Si2 0.676315 0.580199 0.856145
Si Si3 0.669806 0.231132 0.342774
Si Si4 0.500000 0.255235 0.750000
Si Si5 0.290091 0.824159 0.256982
Si Si6 0.661980 0.381180 0.601634
Si Si7 0.844447 0.850358 0.535425
O O1 0.500000 0.447500 0.750000
O O2 0.733320 0.514449 0.872046
O O3 0.721070 0.431493 0.713711
O O4 0.737442 0.402860 0.937376
O O5 0.500000 0.586481 0.750000
O O6 0.784321 0.614701 0.820171
O O7 0.708950 0.601601 0.997762
O O8 0.500000 0.209629 0.250000
O O9 0.750000 0.250000 0.500000
O O10 0.664255 0.286912 0.259344
O O11 0.764393 0.179802 0.332610
O O12 0.559391 0.214720 0.673098
O O13 0.376782 0.298159 0.637731
O O14 0.269312 0.829543 0.112873
O O15 0.486426 0.374055 0.533790
#
# Coordination Sequence:
#
# PCOD8151330 Si02
#       7
#     8   8   8   4   8   8   8
#     4   9  21  36  61  90 126 165 217 276 326 384
#     4  11  22  35  62  97 124 167 215 278 329 381
#     4  12  24  41  66  98 134 173 214 273 333 397
#     4  12  24  40  58  90 130 170 212 262 332 408
#     4  12  24  37  62  92 129 162 214 268 330 393
#     4  11  20  39  62  90 130 161 214 266 332 392
#     4  11  20  40  61  92 123 169 213 270 329 384
#
# _framework density 21.229858
#
# number of rings (size 3 to 8) (size 9 to 14) (size 15 to 20)
#    0.000    0.923    6.923    1.846    2.154    1.846 
#    0.000    0.000    1.692    1.846    0.000    0.000 
#    0.000    0.000    0.000    0.000    0.000    0.000 
#
# Total GULP energy -322163.910061 kJ/mol
# GULP energy per Si atom -12390.919618 kJ/mol
# Density = 2.118154 g / cm^3
# Si number density = 21.229858 Si / 1000 Ang^3
#
#
#
# Elastic Constant Matrix: (Units=GPa)
#
#
# Indices 1 2 3 4 5 6 
#
# 1 50.4626 36.8744 19.3483 0.0000 -17.5061 0.0000
# 2 36.8744 161.1556 45.9749 0.0000 -18.1928 0.0000
# 3 19.3483 45.9749 106.5957 0.0000 -24.3353 0.0000
# 4 0.0000 0.0000 0.0000 27.2376 0.0000 -10.1056
# 5 -17.5061 -18.1928 -24.3353 0.0000 28.3539 0.0000
# 6 0.0000 0.0000 0.0000 -10.1056 0.0000 35.3062
#
#
#
# Elastic Compliance Matrix: (Units=1/GPa)
#
#
# Indices 1 2 3 4 5 6 
#
# 1 0.028372 -0.004931 0.000316 0.000000 0.014624 0.000000
# 2 -0.004931 0.008065 -0.002608 0.000000 -0.000108 0.000000
# 3 0.000316 -0.002608 0.012575 0.000000 0.009314 0.000000
# 4 0.000000 0.000000 0.000000 0.041076 0.000000 0.011757
# 5 0.014624 -0.000108 0.009314 0.000000 0.052223 0.000000
# 6 0.000000 0.000000 0.000000 0.011757 0.000000 0.031689
#
#
# Mechanical properties :
#
#
# Convention : Reuss Voigt Hill
#
# Bulk Modulus (GPa) = 28.93060 58.06769 43.49915
# Shear Modulus (GPa) = 25.00380 32.58062 28.79221
#
# Velocity S-wave (km/s) = 3.43558 3.92172 3.68667
# Velocity P-wave (km/s) = 5.42167 6.92227 6.21741
#
# Compressibility (1/GPa) = 0.03456547
#
# Stress axis : x y z
#
# Youngs Moduli (GPa) = 35.24576 123.98734 79.52090
#
# Poissons Ratio (x) = 0.61138 -0.02509
# Poissons Ratio (y) = 0.17380 0.20741
# Poissons Ratio (z) = -0.01112 0.32339
#
# Static dielectric constant tensor:
#      x y z
#    x 3.493000 0.000000 -0.297990 
#    y 0.000000 4.329450 0.000000 
#    z -0.297990 0.000000 3.749150 
# 
# 
# High freq. dielectric constant tensor:
#      x y z
#    x 1.803960 0.000000 -0.033590 
#    y 0.000000 1.849340 0.000000 
#    z -0.033590 0.000000 1.820140 
# 
# From -- ./inp_files/89105.got.cif
#   From: 2010.06.25/outbox.cif.g09.slc.cpg/sg15_45_cif.got.tgz:89105.got - 2010.06.28 07:06:18.
