data_PCOD8151452
_publ_section_title
;
Structure prediction by ZEFSAII (Michael W. Deem and Ramdas Pophale) SiO2 
 PCOD8151452
Probable space group: C 2/C
;
_chemical_formula_sum "Si O2"
_cell_formula_units_Z 52
_cell_length_a 6.470374
_cell_length_b 14.098248
_cell_length_c 26.619354
_cell_angle_alpha 90.000000
_cell_angle_beta 107.931828
_cell_angle_gamma 90.000000
_cell_volume 2310.286951
_symmetry_space_group_name_H-M "C 2/C"
_symmetry_group_IT_number 15
_symmetry_cell_setting 'monoclinic'
loop_
_space_group_symop_operation_xyz
x,y,z
-x,y,1/2-z
-x,-y,-z
x,-y,1/2+z
1/2+x,1/2+y,z
1/2-x,1/2+y,1/2-z
1/2-x,1/2-y,-z
1/2+x,1/2-y,1/2+z
loop_
_atom_site_type_symbol
_atom_site_label
_atom_site_fract_x
_atom_site_fract_y
_atom_site_fract_z
Si Si1 0.932070 0.321330 0.096202
Si Si2 0.000000 0.726553 0.250000
Si Si3 0.717054 0.712502 0.052712
Si Si4 0.368714 0.126996 0.789183
Si Si5 0.163204 0.079454 0.493828
Si Si6 0.271619 0.417216 0.710002
Si Si7 0.829996 0.369062 0.906228
O O1 0.766462 0.235553 0.093689
O O2 0.169798 0.293132 0.091046
O O3 0.970100 0.375163 0.151375
O O4 0.824447 0.397286 0.051002
O O5 0.185253 0.794449 0.286429
O O6 0.088377 0.658111 0.212681
O O7 0.481058 0.666848 0.033829
O O8 0.910969 0.642733 0.083136
O O9 0.750000 0.750000 0.000000
O O10 0.500000 0.158945 0.750000
O O11 0.273267 0.022446 0.772813
O O12 0.297187 0.060508 0.451955
O O13 0.000000 0.000000 0.500000
O O14 0.500000 0.382932 0.750000
O O15 0.280110 0.418634 0.650079
#
# Coordination Sequence:
#
# PCOD8151452 Si02
#       7
#     8   4   8   8   8   8   8
#     4  11  23  43  67  98 135 183 230 290 353 424
#     4  12  24  52  76 102 142 186 242 304 368 422
#     4  11  20  42  69  94 130 181 228 276 355 422
#     4  12  27  48  73 105 142 188 243 298 367 429
#     4  11  25  40  62 100 140 177 228 286 349 429
#     4  12  27  48  75 105 143 189 245 301 362 437
#     4  11  23  44  68  98 136 181 233 291 354 421
#
# _framework density 22.508026999999998
#
# number of rings (size 3 to 8) (size 9 to 14) (size 15 to 20)
#    0.000    0.615    4.615    4.154    2.154    4.308 
#    2.769    0.000    0.000    0.000    0.000    0.000 
#    0.000    0.000    0.000    0.000    0.000    0.000 
#
# Total GULP energy -322385.805801 kJ/mol
# GULP energy per Si atom -12399.454069 kJ/mol
# Density = 2.245680 g / cm^3
# Si number density = 22.508027 Si / 1000 Ang^3
#
#
#
# Elastic Constant Matrix: (Units=GPa)
#
#
# Indices 1 2 3 4 5 6 
#
# 1 125.7629 38.4629 61.3877 0.0000 -3.3550 0.0000
# 2 38.4629 95.5031 27.5233 0.0000 -5.9962 0.0000
# 3 61.3877 27.5233 181.6312 0.0000 -7.4254 0.0000
# 4 0.0000 0.0000 0.0000 19.6502 0.0000 -0.4444
# 5 -3.3550 -5.9962 -7.4254 0.0000 34.3285 0.0000
# 6 0.0000 0.0000 0.0000 -0.4444 0.0000 44.1827
#
#
#
# Elastic Compliance Matrix: (Units=1/GPa)
#
#
# Indices 1 2 3 4 5 6 
#
# 1 0.010450 -0.003348 -0.003034 0.000000 -0.000220 0.000000
# 2 -0.003348 0.012106 -0.000635 0.000000 0.001650 0.000000
# 3 -0.003034 -0.000635 0.006670 0.000000 0.001035 0.000000
# 4 0.000000 0.000000 0.000000 0.050902 0.000000 0.000512
# 5 -0.000220 0.001650 0.001035 0.000000 0.029621 0.000000
# 6 0.000000 0.000000 0.000000 0.000512 0.000000 0.022638
#
#
# Mechanical properties :
#
#
# Convention : Reuss Voigt Hill
#
# Bulk Modulus (GPa) = 65.82662 73.07166 69.44914
# Shear Modulus (GPa) = 33.00645 38.00051 35.50348
#
# Velocity S-wave (km/s) = 3.83355 4.11336 3.97592
# Velocity P-wave (km/s) = 6.99315 7.42259 7.21107
#
# Compressibility (1/GPa) = 0.01519142
#
# Stress axis : x y z
#
# Youngs Moduli (GPa) = 95.68984 82.60328 149.93475
#
# Poissons Ratio (x) = 0.27658 0.45485
# Poissons Ratio (y) = 0.32040 0.09526
# Poissons Ratio (z) = 0.29029 0.05248
#
# Static dielectric constant tensor:
#      x y z
#    x 4.271750 0.000000 -0.033190 
#    y 0.000000 3.898020 0.000000 
#    z -0.033190 0.000000 4.154670 
# 
# 
# High freq. dielectric constant tensor:
#      x y z
#    x 1.898880 0.000000 -0.005970 
#    y 0.000000 1.878000 0.000000 
#    z -0.005970 0.000000 1.895170 
# 
# From -- ./inp_files/305451.got.cif
#   From: 2010.06.25/outbox.cif.g09.slc.cpg/sg15_153_cif.got.tgz:305451.got - 2010.06.28 07:06:18.
