data_PCOD8151277
_publ_section_title
;
Structure prediction by ZEFSAII (Michael W. Deem and Ramdas Pophale) SiO2 
 PCOD8151277
Probable space group: C 2/C
;
_chemical_formula_sum "Si O2"
_cell_formula_units_Z 64
_cell_length_a 25.158620
_cell_length_b 9.665096
_cell_length_c 21.878815
_cell_angle_alpha 90.000000
_cell_angle_beta 35.205776
_cell_angle_gamma 90.000000
_cell_volume 3067.094530
_symmetry_space_group_name_H-M "C 2/C"
_symmetry_group_IT_number 15
_symmetry_cell_setting 'monoclinic'
loop_
_space_group_symop_operation_xyz
x,y,z
-x,y,1/2-z
-x,-y,-z
x,-y,1/2+z
1/2+x,1/2+y,z
1/2-x,1/2+y,1/2-z
1/2-x,1/2-y,-z
1/2+x,1/2-y,1/2+z
loop_
_atom_site_type_symbol
_atom_site_label
_atom_site_fract_x
_atom_site_fract_y
_atom_site_fract_z
Si Si1 0.935293 0.643425 0.629549
Si Si2 0.124935 0.386048 0.888462
Si Si3 0.965383 0.785008 0.347758
Si Si4 0.229935 0.393111 0.989778
Si Si5 0.193525 0.898822 0.709041
Si Si6 0.264463 0.646502 0.040399
Si Si7 0.642853 0.704255 0.756731
Si Si8 0.533442 0.962431 0.153636
O O1 0.881494 0.542297 0.633041
O O2 0.878189 0.783789 0.697498
O O3 0.032247 0.673509 0.506084
O O4 0.957272 0.566953 0.673234
O O5 0.204443 0.368123 0.863324
O O6 0.150503 0.287936 0.810265
O O7 0.872434 0.863061 0.456325
O O8 0.944661 0.623749 0.361953
O O9 0.000000 0.843823 0.250000
O O10 0.039700 0.812431 0.329592
O O11 0.231051 0.499346 0.045968
O O12 0.131326 0.391537 0.048122
O O13 0.250000 0.250000 0.000000
O O14 0.306969 0.411660 0.864611
O O15 0.171540 0.052547 0.751262
O O16 0.205760 0.708415 0.150858
O O17 0.250000 0.750000 0.000000
O O18 0.500000 0.903836 0.250000
#
# Coordination Sequence:
#
# PCOD8151277 Si02
#       8
#     8   8   8   8   8   8   8   8
#     4  11  25  45  71  97 134 181 233 279 344 417
#     4  11  26  47  70  95 132 188 239 273 338 420
#     4  11  20  37  68  98 133 171 222 273 329 410
#     4  12  25  41  67 104 142 173 220 286 347 409
#     4  12  25  46  69 100 140 174 226 297 341 399
#     4  12  22  42  69 102 134 177 221 273 349 406
#     4  12  25  43  71 102 136 180 231 282 337 410
#     4  11  20  39  69  95 132 180 220 273 340 409
#
# _framework density 20.866652999999999
#
# number of rings (size 3 to 8) (size 9 to 14) (size 15 to 20)
#    0.000    0.500    6.250    2.250    1.750    2.500 
#    0.000    2.500    0.000    0.000    0.000    0.000 
#    0.000    0.000    0.000    0.000    0.000    0.000 
#
# Total GULP energy -396643.502356 kJ/mol
# GULP energy per Si atom -12395.109449 kJ/mol
# Density = 2.081916 g / cm^3
# Si number density = 20.866653 Si / 1000 Ang^3
#
#
#
# Elastic Constant Matrix: (Units=GPa)
#
#
# Indices 1 2 3 4 5 6 
#
# 1 82.5617 27.1964 40.0927 -0.0008 -10.9691 0.0000
# 2 27.1964 115.2025 55.6500 -0.0014 -0.9502 -0.0003
# 3 40.0927 55.6500 125.2655 0.0002 0.9739 0.0003
# 4 -0.0008 -0.0014 0.0002 37.9384 0.0004 -0.9700
# 5 -10.9691 -0.9502 0.9739 0.0004 43.2497 0.0003
# 6 0.0000 -0.0003 0.0003 -0.9700 0.0003 31.0938
#
#
#
# Elastic Compliance Matrix: (Units=1/GPa)
#
#
# Indices 1 2 3 4 5 6 
#
# 1 0.015178 -0.001515 -0.004215 0.000000 0.003911 0.000000
# 2 -0.001515 0.011209 -0.004495 0.000000 -0.000037 0.000000
# 3 -0.004215 -0.004495 0.011340 0.000000 -0.001423 0.000000
# 4 0.000000 0.000000 0.000000 0.026380 0.000000 0.000823
# 5 0.003911 -0.000037 -0.001423 0.000000 0.024145 0.000000
# 6 0.000000 0.000000 0.000000 0.000823 0.000000 0.032186
#
#
# Mechanical properties :
#
#
# Convention : Reuss Voigt Hill
#
# Bulk Modulus (GPa) = 57.87842 63.21200 60.54521
# Shear Modulus (GPa) = 34.09590 35.79575 34.94583
#
# Velocity S-wave (km/s) = 4.04665 4.14630 4.09678
# Velocity P-wave (km/s) = 7.04495 7.29941 7.17331
#
# Compressibility (1/GPa) = 0.01727760
#
# Stress axis : x y z
#
# Youngs Moduli (GPa) = 65.88617 89.21609 88.18335
#
# Poissons Ratio (x) = 0.13512 0.37173
# Poissons Ratio (y) = 0.09979 0.39634
# Poissons Ratio (z) = 0.27773 0.40098
#
# Static dielectric constant tensor:
#      x y z
#    x 3.856090 -0.000010 0.040030 
#    y -0.000010 3.630220 0.000030 
#    z 0.040030 0.000030 3.207500 
# 
# 
# High freq. dielectric constant tensor:
#      x y z
#    x 1.825920 0.000000 -0.000780 
#    y 0.000000 1.806060 0.000000 
#    z -0.000780 0.000000 1.827780 
# 
# From -- ./inp_files/284418.got.cif
#   From: 2010.06.25/outbox.cif.g09.slc.cpg/sg15_143_cif.got.tgz:284418.got - 2010.06.28 07:06:18.
