data_PCOD8151391
_publ_section_title
;
Structure prediction by ZEFSAII (Michael W. Deem and Ramdas Pophale) SiO2 
 PCOD8151391
Probable space group: C 2/C
;
_chemical_formula_sum "Si O2"
_cell_formula_units_Z 40
_cell_length_a 28.122671
_cell_length_b 7.851058
_cell_length_c 13.678552
_cell_angle_alpha 90.000000
_cell_angle_beta 36.575962
_cell_angle_gamma 90.000000
_cell_volume 1799.656098
_symmetry_space_group_name_H-M "C 2/C"
_symmetry_group_IT_number 15
_symmetry_cell_setting 'monoclinic'
loop_
_space_group_symop_operation_xyz
x,y,z
-x,y,1/2-z
-x,-y,-z
x,-y,1/2+z
1/2+x,1/2+y,z
1/2-x,1/2+y,1/2-z
1/2-x,1/2-y,-z
1/2+x,1/2-y,1/2+z
loop_
_atom_site_type_symbol
_atom_site_label
_atom_site_fract_x
_atom_site_fract_y
_atom_site_fract_z
Si Si1 0.314084 0.107224 0.240140
Si Si2 0.583872 0.925260 0.748900
Si Si3 0.834380 0.692899 0.574683
Si Si4 0.021143 0.883748 0.101955
Si Si5 0.477629 0.240616 0.899082
O O1 0.292984 0.933189 0.219350
O O2 0.338249 0.067784 0.311761
O O3 0.233785 0.216528 0.375687
O O4 0.384654 0.200367 0.065296
O O5 0.608781 0.912823 0.594061
O O6 0.533188 0.756820 0.863833
O O7 0.531262 0.092627 0.858877
O O8 0.886160 0.825867 0.553629
O O9 0.000000 0.889809 0.250000
O O10 0.006402 0.071703 0.079610
O O11 0.500000 0.250274 0.750000
#
# Coordination Sequence:
#
# PCOD8151391 Si02
#       5
#     8   8   8   8   8
#     4  12  24  40  67  93 133 174 218 265 335 381
#     4  11  22  44  66  95 127 175 219 270 317 390
#     4  11  23  44  62  97 141 170 211 277 328 383
#     4   9  20  38  67  91 127 169 215 260 323 381
#     4  11  20  40  68  95 126 171 217 270 316 387
#
# _framework density 22.226468000000001
#
# number of rings (size 3 to 8) (size 9 to 14) (size 15 to 20)
#    0.000    1.200    4.000    3.000    0.000    0.800 
#    3.600    1.000    0.000    0.000    0.000    0.000 
#    0.000    0.000    0.000    0.000    0.000    0.000 
#
# Total GULP energy -248010.284158 kJ/mol
# GULP energy per Si atom -12400.514208 kJ/mol
# Density = 2.217588 g / cm^3
# Si number density = 22.226468 Si / 1000 Ang^3
#
#
#
# Elastic Constant Matrix: (Units=GPa)
#
#
# Indices 1 2 3 4 5 6 
#
# 1 78.7623 53.2126 -1.2452 -0.0017 -26.1667 -0.0001
# 2 53.2126 175.6481 23.3908 -0.0101 -12.2017 -0.0014
# 3 -1.2452 23.3908 57.2843 -0.0073 -15.5642 -0.0007
# 4 -0.0017 -0.0101 -0.0073 27.2750 -0.0010 -1.8841
# 5 -26.1667 -12.2017 -15.5642 -0.0010 36.8024 0.0005
# 6 -0.0001 -0.0014 -0.0007 -1.8841 0.0005 31.7561
#
#
#
# Elastic Compliance Matrix: (Units=1/GPa)
#
#
# Indices 1 2 3 4 5 6 
#
# 1 0.023451 -0.006957 0.008196 0.000002 0.017833 0.000000
# 2 -0.006957 0.008123 -0.004610 0.000001 -0.004203 0.000000
# 3 0.008196 -0.004610 0.023371 0.000006 0.014183 0.000000
# 4 0.000002 0.000001 0.000006 0.036815 0.000005 0.002184
# 5 0.017833 -0.004203 0.014183 0.000005 0.044456 0.000000
# 6 0.000000 0.000000 0.000000 0.002184 0.000000 0.031620
#
#
# Mechanical properties :
#
#
# Convention : Reuss Voigt Hill
#
# Bulk Modulus (GPa) = 20.74604 51.37902 36.06253
# Shear Modulus (GPa) = 26.22687 34.92247 30.57467
#
# Velocity S-wave (km/s) = 3.43882 3.96815 3.71293
# Velocity P-wave (km/s) = 5.01213 6.64540 5.88569
#
# Compressibility (1/GPa) = 0.04820197
#
# Stress axis : x y z
#
# Youngs Moduli (GPa) = 42.64238 123.11072 42.78853
#
# Poissons Ratio (x) = 0.85649 -0.35069
# Poissons Ratio (y) = 0.29667 0.19725
# Poissons Ratio (z) = -0.34949 0.56753
#
# Static dielectric constant tensor:
#      x y z
#    x 3.766210 0.000000 -0.016200 
#    y 0.000000 4.514820 0.000010 
#    z -0.016200 0.000010 3.763840 
# 
# 
# High freq. dielectric constant tensor:
#      x y z
#    x 1.873210 0.000000 0.006080 
#    y 0.000000 1.887080 0.000000 
#    z 0.006080 0.000000 1.862370 
# 
# From -- ./inp_files/159107.got.cif
#   From: 2010.06.25/outbox.cif.g09.slc.cpg/sg15_80_cif.got.tgz:159107.got - 2010.06.28 07:06:18.
