data_PCOD8151629
_publ_section_title
;
Structure prediction by ZEFSAII (Michael W. Deem and Ramdas Pophale) SiO2 
 PCOD8151629
Probable space group: C 2/C
;
_chemical_formula_sum "Si O2"
_cell_formula_units_Z 36
_cell_length_a 10.366105
_cell_length_b 19.095515
_cell_length_c 8.923761
_cell_angle_alpha 90.000000
_cell_angle_beta 63.101474
_cell_angle_gamma 90.000000
_cell_volume 1575.312948
_symmetry_space_group_name_H-M "C 2/C"
_symmetry_group_IT_number 15
_symmetry_cell_setting 'monoclinic'
loop_
_space_group_symop_operation_xyz
x,y,z
-x,y,1/2-z
-x,-y,-z
x,-y,1/2+z
1/2+x,1/2+y,z
1/2-x,1/2+y,1/2-z
1/2-x,1/2-y,-z
1/2+x,1/2-y,1/2+z
loop_
_atom_site_type_symbol
_atom_site_label
_atom_site_fract_x
_atom_site_fract_y
_atom_site_fract_z
Si Si1 0.774311 0.448739 0.545234
Si Si2 0.336022 0.805442 0.357994
Si Si3 0.000000 0.986847 0.250000
Si Si4 0.346117 0.645721 0.812481
Si Si5 0.342193 0.917485 0.846882
O O1 0.836721 0.379894 0.437473
O O2 0.604016 0.464258 0.593102
O O3 0.777212 0.439725 0.722488
O O4 0.868567 0.514208 0.438378
O O5 0.500000 0.779393 0.250000
O O6 0.250000 0.750000 0.500000
O O7 0.259423 0.811122 0.237980
O O8 0.111922 0.932460 0.276495
O O9 0.500000 0.687036 0.750000
O O10 0.267206 0.636620 0.015063
O O11 0.500000 0.881660 0.750000
#
# Coordination Sequence:
#
# PCOD8151629 Si02
#       5
#     8   8   4   8   8
#     4  11  22  37  68  99 141 171 232 276 355 400
#     4  12  28  48  67  97 138 190 237 282 333 411
#     4   8  20  36  70 104 132 166 214 288 348 392
#     4   9  22  44  70 100 136 171 231 283 349 402
#     4  11  21  37  66 105 138 176 212 291 359 406
#
# _framework density 22.852602000000001
#
# number of rings (size 3 to 8) (size 9 to 14) (size 15 to 20)
#    0.667    0.889    0.000    5.333    4.667    2.667 
#    0.000    5.556    0.000    0.000    0.000    0.000 
#    0.000    0.000    0.000    0.000    0.000    0.000 
#
# Total GULP energy -223010.316219 kJ/mol
# GULP energy per Si atom -12389.462012 kJ/mol
# Density = 2.280059 g / cm^3
# Si number density = 22.852602 Si / 1000 Ang^3
#
#
#
# Elastic Constant Matrix: (Units=GPa)
#
#
# Indices 1 2 3 4 5 6 
#
# 1 135.8469 17.8030 62.7669 0.0000 -30.0474 0.0000
# 2 17.8030 36.0453 12.9003 0.0000 -10.8987 0.0000
# 3 62.7669 12.9003 126.0182 0.0000 -15.3404 0.0000
# 4 0.0000 0.0000 0.0000 28.9164 0.0000 -1.5872
# 5 -30.0474 -10.8987 -15.3404 0.0000 57.8141 0.0000
# 6 0.0000 0.0000 0.0000 -1.5872 0.0000 14.3709
#
#
#
# Elastic Compliance Matrix: (Units=1/GPa)
#
#
# Indices 1 2 3 4 5 6 
#
# 1 0.010655 -0.002455 -0.004586 0.000000 0.003858 0.000000
# 2 -0.002455 0.030714 -0.001418 0.000000 0.004138 0.000000
# 3 -0.004586 -0.001418 0.010377 0.000000 0.000103 0.000000
# 4 0.000000 0.000000 0.000000 0.034793 0.000000 0.003843
# 5 0.003858 0.004138 0.000103 0.000000 0.020109 0.000000
# 6 0.000000 0.000000 0.000000 0.003843 0.000000 0.070009
#
#
# Mechanical properties :
#
#
# Convention : Reuss Voigt Hill
#
# Bulk Modulus (GPa) = 28.71173 53.87232 41.29203
# Shear Modulus (GPa) = 24.36814 33.84963 29.10889
#
# Velocity S-wave (km/s) = 3.26900 3.85283 3.57286
# Velocity P-wave (km/s) = 5.18069 6.58919 5.92693
#
# Compressibility (1/GPa) = 0.03482897
#
# Stress axis : x y z
#
# Youngs Moduli (GPa) = 93.84972 32.55856 96.36418
#
# Poissons Ratio (x) = 0.07992 0.44195
# Poissons Ratio (y) = 0.23038 0.13662
# Poissons Ratio (z) = 0.43042 0.04616
#
# Static dielectric constant tensor:
#      x y z
#    x 4.197910 0.000000 -0.306040 
#    y 0.000000 3.745620 0.000000 
#    z -0.306040 0.000000 4.192480 
# 
# 
# High freq. dielectric constant tensor:
#      x y z
#    x 1.903590 0.000000 -0.023850 
#    y 0.000000 1.864960 0.000000 
#    z -0.023850 0.000000 1.911940 
# 
# From -- ./inp_files/30089.got.cif
#   From: 2010.06.25/outbox.cif.g09.slc.cpg/sg15_16_cif.got.tgz:30089.got - 2010.06.28 07:06:18.
