data_PCOD8151069
_publ_section_title
;
Structure prediction by ZEFSAII (Michael W. Deem and Ramdas Pophale) SiO2 
 PCOD8151069
Probable space group: C 2/C
;
_chemical_formula_sum "Si O2"
_cell_formula_units_Z 48
_cell_length_a 26.525231
_cell_length_b 12.181974
_cell_length_c 14.635797
_cell_angle_alpha 90.000000
_cell_angle_beta 31.044305
_cell_angle_gamma 90.000000
_cell_volume 2438.883051
_symmetry_space_group_name_H-M "C 2/C"
_symmetry_group_IT_number 15
_symmetry_cell_setting 'monoclinic'
loop_
_space_group_symop_operation_xyz
x,y,z
-x,y,1/2-z
-x,-y,-z
x,-y,1/2+z
1/2+x,1/2+y,z
1/2-x,1/2+y,1/2-z
1/2-x,1/2-y,-z
1/2+x,1/2-y,1/2+z
loop_
_atom_site_type_symbol
_atom_site_label
_atom_site_fract_x
_atom_site_fract_y
_atom_site_fract_z
Si Si1 0.748500 0.148278 0.436720
Si Si2 0.896495 0.762172 0.961106
Si Si3 0.744108 0.083557 0.018693
Si Si4 0.941993 0.899568 0.546907
Si Si5 0.880192 0.762829 0.202697
Si Si6 0.112525 0.991043 0.052058
O O1 0.750000 0.250000 0.500000
O O2 0.681773 0.173262 0.452352
O O3 0.863542 0.136940 0.242211
O O4 0.707356 0.035809 0.544519
O O5 0.000000 0.741639 0.750000
O O6 0.854522 0.882486 0.002277
O O7 0.903025 0.749791 0.060008
O O8 0.793229 0.149079 0.857378
O O9 0.824515 0.075851 0.973421
O O10 0.650004 0.147475 0.204593
O O11 0.876329 0.933369 0.562733
O O12 0.018821 0.802278 0.406673
O O13 0.000000 0.000000 0.500000
O O14 0.000000 0.983636 0.250000
#
# Coordination Sequence:
#
# PCOD8151069 Si02
#       6
#     8   8   8   8   8   8
#     4  12  23  40  66  95 126 171 222 267 325 394
#     4  11  23  40  65  95 129 172 221 271 324 388
#     4  11  23  41  64  96 134 172 215 274 336 386
#     4  12  21  39  67  98 127 170 225 268 317 390
#     4  11  23  40  65  96 133 168 213 280 328 383
#     4  11  19  36  65  96 123 166 223 266 312 385
#
# _framework density 19.681139999999999
#
# number of rings (size 3 to 8) (size 9 to 14) (size 15 to 20)
#    0.000    0.667    6.667    2.000    0.000    0.000 
#    0.000    3.333    7.333    0.000    0.000    0.000 
#    0.000    0.000    0.000    0.000    0.000    0.000 
#
# Total GULP energy -297602.131608 kJ/mol
# GULP energy per Si atom -12400.088817 kJ/mol
# Density = 1.963635 g / cm^3
# Si number density = 19.681140 Si / 1000 Ang^3
#
#
#
# Elastic Constant Matrix: (Units=GPa)
#
#
# Indices 1 2 3 4 5 6 
#
# 1 103.3682 45.3773 34.7503 0.0000 2.7802 0.0000
# 2 45.3773 141.9336 64.4599 0.0000 -1.8763 0.0000
# 3 34.7503 64.4599 126.4482 0.0000 8.4546 0.0000
# 4 0.0000 0.0000 0.0000 36.9777 0.0000 -1.6960
# 5 2.7802 -1.8763 8.4546 0.0000 34.7074 0.0000
# 6 0.0000 0.0000 0.0000 -1.6960 0.0000 38.1165
#
#
#
# Elastic Compliance Matrix: (Units=1/GPa)
#
#
# Indices 1 2 3 4 5 6 
#
# 1 0.011537 -0.002965 -0.001613 0.000000 -0.000692 0.000000
# 2 -0.002965 0.010025 -0.004420 0.000000 0.001856 0.000000
# 3 -0.001613 -0.004420 0.010788 0.000000 -0.002738 0.000000
# 4 0.000000 0.000000 0.000000 0.027099 0.000000 0.001206
# 5 -0.000692 0.001856 -0.002738 0.000000 0.029635 0.000000
# 6 0.000000 0.000000 0.000000 0.001206 0.000000 0.026289
#
#
# Mechanical properties :
#
#
# Convention : Reuss Voigt Hill
#
# Bulk Modulus (GPa) = 69.66540 73.43611 71.55076
# Shear Modulus (GPa) = 36.19192 37.10448 36.64820
#
# Velocity S-wave (km/s) = 4.29291 4.34669 4.31988
# Velocity P-wave (km/s) = 7.74893 7.91111 7.83044
#
# Compressibility (1/GPa) = 0.01435433
#
# Stress axis : x y z
#
# Youngs Moduli (GPa) = 86.68114 99.74701 92.69747
#
# Poissons Ratio (x) = 0.29575 0.14949
# Poissons Ratio (y) = 0.25701 0.40972
# Poissons Ratio (z) = 0.13979 0.44087
#
# Static dielectric constant tensor:
#      x y z
#    x 3.917010 0.000000 0.110520 
#    y 0.000000 3.778110 0.000000 
#    z 0.110520 0.000000 3.596000 
# 
# 
# High freq. dielectric constant tensor:
#      x y z
#    x 1.765140 0.000000 0.013950 
#    y 0.000000 1.764470 0.000000 
#    z 0.013950 0.000000 1.770810 
# 
# From -- ./inp_files/152172.got.cif
#   From: 2010.06.25/outbox.cif.g09.slc.cpg/sg15_77_cif.got.tgz:152172.got - 2010.06.28 07:06:18.
