data_PCOD8151252
_publ_section_title
;
Structure prediction by ZEFSAII (Michael W. Deem and Ramdas Pophale) SiO2 
 PCOD8151252
Probable space group: C 2/C
;
_chemical_formula_sum "Si O2"
_cell_formula_units_Z 32
_cell_length_a 7.643790
_cell_length_b 12.943023
_cell_length_c 17.749198
_cell_angle_alpha 90.000000
_cell_angle_beta 72.742516
_cell_angle_gamma 90.000000
_cell_volume 1676.941942
_symmetry_space_group_name_H-M "C 2/C"
_symmetry_group_IT_number 15
_symmetry_cell_setting 'monoclinic'
loop_
_space_group_symop_operation_xyz
x,y,z
-x,y,1/2-z
-x,-y,-z
x,-y,1/2+z
1/2+x,1/2+y,z
1/2-x,1/2+y,1/2-z
1/2-x,1/2-y,-z
1/2+x,1/2-y,1/2+z
loop_
_atom_site_type_symbol
_atom_site_label
_atom_site_fract_x
_atom_site_fract_y
_atom_site_fract_z
Si Si1 0.756332 0.892400 0.669796
Si Si2 0.115559 0.095538 0.897048
Si Si3 0.111103 0.324259 0.846270
Si Si4 0.636088 0.584149 0.064634
O O1 0.725989 0.858469 0.759074
O O2 0.602520 0.848853 0.633830
O O3 0.956013 0.852296 0.616643
O O4 0.747588 0.017570 0.664369
O O5 0.120650 0.201343 0.851566
O O6 0.913471 0.039377 0.925128
O O7 0.183677 0.115972 0.973437
O O8 0.810520 0.386290 0.592445
#
# Coordination Sequence:
#
# PCOD8151252 Si02
#       4
#     8   8   8   8
#     4   9  22  38  53  91 109 142 201 216 276 352
#     4   9  21  41  56  84 116 143 191 233 270 339
#     4  11  20  37  60  80 117 147 182 236 278 328
#     4   9  20  42  56  82 117 145 189 232 274 334
#
# _framework density 19.082353999999999
#
# number of rings (size 3 to 8) (size 9 to 14) (size 15 to 20)
#    1.500    1.000    0.000    1.500    0.000    6.000 
#   13.500    0.000    0.000    0.000    0.000    0.000 
#    0.000    0.000    0.000    0.000    0.000    0.000 
#
# Total GULP energy -198255.816494 kJ/mol
# GULP energy per Si atom -12390.988531 kJ/mol
# Density = 1.903892 g / cm^3
# Si number density = 19.082354 Si / 1000 Ang^3
#
#
#
# Elastic Constant Matrix: (Units=GPa)
#
#
# Indices 1 2 3 4 5 6 
#
# 1 74.6800 32.0179 23.1331 0.0000 29.1401 0.0000
# 2 32.0179 124.5785 49.0892 0.0000 22.9535 0.0000
# 3 23.1331 49.0892 59.9476 0.0000 12.4685 0.0000
# 4 0.0000 0.0000 0.0000 22.1830 0.0000 2.0747
# 5 29.1401 22.9535 12.4685 0.0000 24.2432 0.0000
# 6 0.0000 0.0000 0.0000 2.0747 0.0000 15.9661
#
#
#
# Elastic Compliance Matrix: (Units=1/GPa)
#
#
# Indices 1 2 3 4 5 6 
#
# 1 0.026046 0.000422 -0.004257 0.000000 -0.029517 0.000000
# 2 0.000422 0.013014 -0.009128 0.000000 -0.008134 0.000000
# 3 -0.004257 -0.009128 0.025684 0.000000 0.000549 0.000000
# 4 0.000000 0.000000 0.000000 0.045634 0.000000 -0.005930
# 5 -0.029517 -0.008134 0.000549 0.000000 0.084146 0.000000
# 6 0.000000 0.000000 0.000000 -0.005930 0.000000 0.063403
#
#
# Mechanical properties :
#
#
# Convention : Reuss Voigt Hill
#
# Bulk Modulus (GPa) = 25.76119 51.96515 38.86317
# Shear Modulus (GPa) = 16.84677 22.80954 19.82815
#
# Velocity S-wave (km/s) = 2.97449 3.46109 3.22698
# Velocity P-wave (km/s) = 5.03251 6.57749 5.85617
#
# Compressibility (1/GPa) = 0.03881809
#
# Stress axis : x y z
#
# Youngs Moduli (GPa) = 38.39414 76.83967 38.93454
#
# Poissons Ratio (x) = -0.03242 0.16574
# Poissons Ratio (y) = -0.01620 0.35539
# Poissons Ratio (z) = 0.16344 0.70138
#
# Static dielectric constant tensor:
#      x y z
#    x 3.354030 0.000000 0.053260 
#    y 0.000000 3.305160 0.000000 
#    z 0.053260 0.000000 3.388110 
# 
# 
# High freq. dielectric constant tensor:
#      x y z
#    x 1.731110 0.000000 0.012360 
#    y 0.000000 1.728680 0.000000 
#    z 0.012360 0.000000 1.744300 
# 
# From -- ./inp_files/150869.got.cif
#   From: 2010.06.25/outbox.cif.g09.slc.cpg/sg15_76_cif.got.tgz:150869.got - 2010.06.28 07:06:18.
