data_PCOD8151022
_publ_section_title
;
Structure prediction by ZEFSAII (Michael W. Deem and Ramdas Pophale) SiO2 
 PCOD8151022
Probable space group: C 2/C
;
_chemical_formula_sum "Si O2"
_cell_formula_units_Z 64
_cell_length_a 16.807312
_cell_length_b 22.622302
_cell_length_c 17.996821
_cell_angle_alpha 90.000000
_cell_angle_beta 146.808509
_cell_angle_gamma 90.000000
_cell_volume 3745.989439
_symmetry_space_group_name_H-M "C 2/C"
_symmetry_group_IT_number 15
_symmetry_cell_setting 'monoclinic'
loop_
_space_group_symop_operation_xyz
x,y,z
-x,y,1/2-z
-x,-y,-z
x,-y,1/2+z
1/2+x,1/2+y,z
1/2-x,1/2+y,1/2-z
1/2-x,1/2-y,-z
1/2+x,1/2-y,1/2+z
loop_
_atom_site_type_symbol
_atom_site_label
_atom_site_fract_x
_atom_site_fract_y
_atom_site_fract_z
Si Si1 0.365318 0.319149 0.530869
Si Si2 0.163503 0.385365 0.273076
Si Si3 0.660409 0.489625 0.845983
Si Si4 0.162425 0.502612 0.367272
Si Si5 0.647706 0.446761 0.191060
Si Si6 0.649829 0.434052 0.602068
Si Si7 0.176069 0.125571 0.266950
Si Si8 0.365494 0.183585 0.522444
O O1 0.278753 0.335516 0.388151
O O2 0.508939 0.357991 0.652575
O O3 0.415210 0.251081 0.569276
O O4 0.257840 0.333325 0.514625
O O5 0.169744 0.437351 0.338520
O O6 0.213463 0.411239 0.232366
O O7 0.003483 0.358527 0.142328
O O8 0.500000 0.479098 0.750000
O O9 0.665872 0.545627 0.793787
O O10 0.716573 0.432376 0.846113
O O11 0.764883 0.502935 0.995742
O O12 0.234159 0.551541 0.370469
O O13 0.000000 0.524571 0.250000
O O14 0.625842 0.510636 0.137378
O O15 0.498559 0.412817 0.054002
O O16 0.701584 0.382077 0.698328
O O17 0.291382 0.174888 0.383868
#
# Coordination Sequence:
#
# PCOD8151022 Si02
#       8
#     8   8   8   8   8   8   8   8
#     4  11  21  35  50  70 102 137 174 211 243 281
#     4  11  20  35  51  69 105 140 166 203 256 291
#     4  11  19  30  52  75  98 129 175 204 234 306
#     4  11  21  32  50  76 106 134 163 207 255 298
#     4   9  18  32  50  72  96 131 169 208 242 296
#     4   9  18  33  49  71  99 130 168 205 247 301
#     4  11  20  33  52  71  98 140 171 200 250 300
#     4  11  23  33  48  75 102 132 176 216 239 284
#
# _framework density 17.084938000000001
#
# number of rings (size 3 to 8) (size 9 to 14) (size 15 to 20)
#    0.000    1.500    2.500    5.250    0.000    3.000 
#    0.000    3.750    0.000    0.000    0.000    0.000 
#    0.000   20.000    0.000    0.000    0.000    0.000 
#
# Total GULP energy -396772.549087 kJ/mol
# GULP energy per Si atom -12399.142159 kJ/mol
# Density = 1.704605 g / cm^3
# Si number density = 17.084938 Si / 1000 Ang^3
#
#
#
# Elastic Constant Matrix: (Units=GPa)
#
#
# Indices 1 2 3 4 5 6 
#
# 1 90.8803 35.4569 51.0808 0.0002 -10.2566 0.0001
# 2 35.4569 48.6660 30.5385 0.0001 -3.8815 0.0000
# 3 51.0808 30.5385 129.7334 -0.0008 -4.4614 -0.0004
# 4 0.0002 0.0001 -0.0008 24.6537 0.0001 0.1452
# 5 -10.2566 -3.8815 -4.4614 0.0001 24.8263 0.0001
# 6 0.0001 0.0000 -0.0004 0.1452 0.0001 24.3013
#
#
#
# Elastic Compliance Matrix: (Units=1/GPa)
#
#
# Indices 1 2 3 4 5 6 
#
# 1 0.017991 -0.009818 -0.004598 0.000000 0.005071 0.000000
# 2 -0.009818 0.029657 -0.003115 0.000000 0.000021 0.000000
# 3 -0.004598 -0.003115 0.010233 0.000000 -0.000548 0.000000
# 4 0.000000 0.000000 0.000000 0.040563 0.000000 -0.000242
# 5 0.005071 0.000021 -0.000548 0.000000 0.042280 0.000000
# 6 0.000000 0.000000 0.000000 -0.000242 0.000000 0.041152
#
#
# Mechanical properties :
#
#
# Convention : Reuss Voigt Hill
#
# Bulk Modulus (GPa) = 43.82196 55.93690 49.87943
# Shear Modulus (GPa) = 22.26736 24.90315 23.58526
#
# Velocity S-wave (km/s) = 3.61409 3.82201 3.71950
# Velocity P-wave (km/s) = 6.56663 7.23108 6.90685
#
# Compressibility (1/GPa) = 0.02281961
#
# Stress axis : x y z
#
# Youngs Moduli (GPa) = 55.58438 33.71832 97.72335
#
# Poissons Ratio (x) = 0.33104 0.44935
# Poissons Ratio (y) = 0.54571 0.30440
# Poissons Ratio (z) = 0.25559 0.10503
#
# Static dielectric constant tensor:
#      x y z
#    x 3.190580 0.000000 -0.097160 
#    y 0.000000 2.982150 0.000000 
#    z -0.097160 0.000000 3.287830 
# 
# 
# High freq. dielectric constant tensor:
#      x y z
#    x 1.645280 0.000000 0.000190 
#    y 0.000000 1.621520 0.000000 
#    z 0.000190 0.000000 1.675250 
# 
# From -- ./inp_files/51284.got.cif
#   From: 2010.06.25/outbox.cif.g09.slc.cpg/sg15_26_cif.got.tgz:51284.got - 2010.06.28 07:06:18.
