data_PCOD8151299
_publ_section_title
;
Structure prediction by ZEFSAII (Michael W. Deem and Ramdas Pophale) SiO2 
 PCOD8151299
Probable space group: C 2/C
;
_chemical_formula_sum "Si O2"
_cell_formula_units_Z 48
_cell_length_a 25.345889
_cell_length_b 13.846334
_cell_length_c 14.406262
_cell_angle_alpha 90.000000
_cell_angle_beta 28.927961
_cell_angle_gamma 90.000000
_cell_volume 2445.559952
_symmetry_space_group_name_H-M "C 2/C"
_symmetry_group_IT_number 15
_symmetry_cell_setting 'monoclinic'
loop_
_space_group_symop_operation_xyz
x,y,z
-x,y,1/2-z
-x,-y,-z
x,-y,1/2+z
1/2+x,1/2+y,z
1/2-x,1/2+y,1/2-z
1/2-x,1/2-y,-z
1/2+x,1/2-y,1/2+z
loop_
_atom_site_type_symbol
_atom_site_label
_atom_site_fract_x
_atom_site_fract_y
_atom_site_fract_z
Si Si1 0.750873 0.024990 0.800136
Si Si2 0.523125 0.400569 0.611775
Si Si3 0.230123 0.637521 0.191445
Si Si4 0.098838 0.699341 0.026922
Si Si5 0.349984 0.440753 0.336502
Si Si6 0.961608 0.236610 0.573129
O O1 0.849200 0.077559 0.594708
O O2 0.782751 0.006847 0.858308
O O3 0.723810 0.922120 0.796502
O O4 0.643841 0.090947 0.958419
O O5 0.500000 0.360512 0.750000
O O6 0.458224 0.499341 0.693330
O O7 0.487208 0.318710 0.594043
O O8 0.109724 0.672685 0.350272
O O9 0.306856 0.729333 0.085660
O O10 0.274265 0.566925 0.043101
O O11 0.000000 0.709041 0.250000
O O12 0.061106 0.724765 0.981245
O O13 0.385462 0.334305 0.250424
#
# Coordination Sequence:
#
# PCOD8151299 Si02
#       6
#     8   8   8   8   8   8
#     4  11  24  39  61  94 130 158 205 265 308 370
#     4  11  21  40  62  94 124 161 208 262 309 360
#     4  12  22  41  66  96 124 162 212 261 307 363
#     4  12  23  41  66  95 125 167 209 255 312 366
#     4  11  20  38  64  95 117 159 215 261 303 351
#     4  11  23  38  63  92 128 163 206 259 308 370
#
# _framework density 19.627406000000001
#
# number of rings (size 3 to 8) (size 9 to 14) (size 15 to 20)
#    0.000    0.667    6.667    5.500    0.000    0.667 
#    0.000    3.333    0.000    0.000    0.000    0.000 
#    0.000    0.000    0.000    0.000    0.000    0.000 
#
# Total GULP energy -297755.254547 kJ/mol
# GULP energy per Si atom -12406.468939 kJ/mol
# Density = 1.958273 g / cm^3
# Si number density = 19.627406 Si / 1000 Ang^3
#
#
#
# Elastic Constant Matrix: (Units=GPa)
#
#
# Indices 1 2 3 4 5 6 
#
# 1 110.9385 20.9727 28.2046 0.0000 3.3003 0.0000
# 2 20.9727 58.6623 22.9005 0.0000 6.9904 0.0000
# 3 28.2046 22.9005 30.4534 0.0000 0.9577 0.0000
# 4 0.0000 0.0000 0.0000 32.2061 0.0000 -5.5016
# 5 3.3003 6.9904 0.9577 0.0000 18.0297 0.0000
# 6 0.0000 0.0000 0.0000 -5.5016 0.0000 20.1271
#
#
#
# Elastic Compliance Matrix: (Units=1/GPa)
#
#
# Indices 1 2 3 4 5 6 
#
# 1 0.011839 0.000325 -0.011156 0.000000 -0.001701 0.000000
# 2 0.000325 0.025482 -0.019182 0.000000 -0.008920 0.000000
# 3 -0.011156 -0.019182 0.057392 0.000000 0.006431 0.000000
# 4 0.000000 0.000000 0.000000 0.032571 0.000000 0.008903
# 5 -0.001701 -0.008920 0.006431 0.000000 0.058892 0.000000
# 6 0.000000 0.000000 0.000000 0.008903 0.000000 0.052118
#
#
# Mechanical properties :
#
#
# Convention : Reuss Voigt Hill
#
# Bulk Modulus (GPa) = 28.82983 38.24553 33.53768
# Shear Modulus (GPa) = 16.13510 22.60434 19.36972
#
# Velocity S-wave (km/s) = 2.87029 3.39731 3.14486
# Velocity P-wave (km/s) = 5.07003 5.90906 5.50555
#
# Compressibility (1/GPa) = 0.03468629
#
# Stress axis : x y z
#
# Youngs Moduli (GPa) = 84.46344 39.24354 17.42404
#
# Poissons Ratio (x) = -0.01275 0.19438
# Poissons Ratio (y) = -0.02744 0.33423
# Poissons Ratio (z) = 0.94228 0.75279
#
# Static dielectric constant tensor:
#      x y z
#    x 3.957310 0.000000 0.098040 
#    y 0.000000 3.453120 0.000000 
#    z 0.098040 0.000000 3.453850 
# 
# 
# High freq. dielectric constant tensor:
#      x y z
#    x 1.786670 0.000000 0.004330 
#    y 0.000000 1.750660 0.000000 
#    z 0.004330 0.000000 1.745570 
# 
# From -- ./inp_files/96167.got.cif
#   From: 2010.06.25/outbox.cif.g09.slc.cpg/sg15_49_cif.got.tgz:96167.got - 2010.06.28 07:06:18.
