data_PCOD8151479
_publ_section_title
;
Structure prediction by ZEFSAII (Michael W. Deem and Ramdas Pophale) SiO2 
 PCOD8151479
Probable space group: C 2/C
;
_chemical_formula_sum "Si O2"
_cell_formula_units_Z 44
_cell_length_a 9.847411
_cell_length_b 21.669432
_cell_length_c 11.224274
_cell_angle_alpha 90.000000
_cell_angle_beta 117.152630
_cell_angle_gamma 90.000000
_cell_volume 2131.166179
_symmetry_space_group_name_H-M "C 2/C"
_symmetry_group_IT_number 15
_symmetry_cell_setting 'monoclinic'
loop_
_space_group_symop_operation_xyz
x,y,z
-x,y,1/2-z
-x,-y,-z
x,-y,1/2+z
1/2+x,1/2+y,z
1/2-x,1/2+y,1/2-z
1/2-x,1/2-y,-z
1/2+x,1/2-y,1/2+z
loop_
_atom_site_type_symbol
_atom_site_label
_atom_site_fract_x
_atom_site_fract_y
_atom_site_fract_z
Si Si1 0.631172 0.166654 0.709244
Si Si2 0.000000 0.359584 0.750000
Si Si3 0.104397 0.441901 0.007598
Si Si4 0.054268 0.979255 0.392256
Si Si5 0.961913 0.153322 0.862659
Si Si6 0.705034 0.716518 0.101067
O O1 0.500000 0.155325 0.750000
O O2 0.630547 0.108072 0.621580
O O3 0.794199 0.171727 0.840391
O O4 0.613374 0.233656 0.642392
O O5 0.975660 0.403821 0.628758
O O6 0.852124 0.316518 0.718847
O O7 0.264322 0.470328 0.029967
O O8 0.000000 0.500000 0.000000
O O9 0.000000 0.018444 0.250000
O O10 0.957418 0.918110 0.334026
O O11 0.000000 0.000000 0.500000
O O12 0.000000 0.187681 0.750000
O O13 0.082007 0.164924 0.015870
O O14 0.750000 0.750000 0.000000
#
# Coordination Sequence:
#
# PCOD8151479 Si02
#       6
#     8   4   8   8   8   8
#     4  12  27  45  68 105 142 183 232 300 371 428
#     4  12  24  44  74 106 140 190 252 290 360 440
#     4  12  28  44  70 104 146 191 237 300 361 439
#     4  11  24  45  71 103 137 192 243 291 357 434
#     4  11  20  43  70  92 132 186 232 281 358 431
#     4  12  21  42  72 101 133 181 240 296 355 437
#
# _framework density 20.645973999999999
#
# number of rings (size 3 to 8) (size 9 to 14) (size 15 to 20)
#    0.000    0.364    9.091    1.091    6.364    0.727 
#    0.000    0.909    0.000    0.000    0.000    0.000 
#    0.000    0.000    0.000    0.000    0.000    0.000 
#
# Total GULP energy -272551.808368 kJ/mol
# GULP energy per Si atom -12388.718562 kJ/mol
# Density = 2.059898 g / cm^3
# Si number density = 20.645974 Si / 1000 Ang^3
#
#
#
# Elastic Constant Matrix: (Units=GPa)
#
#
# Indices 1 2 3 4 5 6 
#
# 1 170.5385 42.7402 71.0570 0.0000 3.3813 0.0000
# 2 42.7402 91.1264 42.1127 0.0000 -2.4437 0.0000
# 3 71.0570 42.1127 129.4447 0.0000 8.5553 0.0000
# 4 0.0000 0.0000 0.0000 28.4123 0.0000 -0.0104
# 5 3.3813 -2.4437 8.5553 0.0000 38.2316 0.0000
# 6 0.0000 0.0000 0.0000 -0.0104 0.0000 40.2523
#
#
#
# Elastic Compliance Matrix: (Units=1/GPa)
#
#
# Indices 1 2 3 4 5 6 
#
# 1 0.007901 -0.002003 -0.003686 0.000000 -0.000002 0.000000
# 2 -0.002003 0.013545 -0.003427 0.000000 0.001810 0.000000
# 3 -0.003686 -0.003427 0.011019 0.000000 -0.002359 0.000000
# 4 0.000000 0.000000 0.000000 0.035196 0.000000 0.000009
# 5 -0.000002 0.001810 -0.002359 0.000000 0.026800 0.000000
# 6 0.000000 0.000000 0.000000 0.000009 0.000000 0.024843
#
#
# Mechanical properties :
#
#
# Convention : Reuss Voigt Hill
#
# Bulk Modulus (GPa) = 70.24791 78.10327 74.17559
# Shear Modulus (GPa) = 35.14158 37.05922 36.10040
#
# Velocity S-wave (km/s) = 4.13013 4.24132 4.18610
# Velocity P-wave (km/s) = 7.53942 7.86746 7.70519
#
# Compressibility (1/GPa) = 0.01423530
#
# Stress axis : x y z
#
# Youngs Moduli (GPa) = 126.55946 73.82602 90.74941
#
# Poissons Ratio (x) = 0.14785 0.33448
# Poissons Ratio (y) = 0.25346 0.31100
# Poissons Ratio (z) = 0.46646 0.25300
#
# Static dielectric constant tensor:
#      x y z
#    x 3.420760 0.000000 -0.612530 
#    y 0.000000 2.908350 0.000000 
#    z -0.612530 0.000000 4.897980 
# 
# 
# High freq. dielectric constant tensor:
#      x y z
#    x 1.806140 0.000000 0.020990 
#    y 0.000000 1.807230 0.000000 
#    z 0.020990 0.000000 1.813740 
# 
# From -- ./inp_files/78364.got.cif
#   From: 2010.06.25/outbox.cif.g09.slc.cpg/sg15_40_cif.got.tgz:78364.got - 2010.06.28 07:06:18.
