data_PCOD8151133
_publ_section_title
;
Structure prediction by ZEFSAII (Michael W. Deem and Ramdas Pophale) SiO2 
 PCOD8151133
Probable space group: C 2/C
;
_chemical_formula_sum "Si O2"
_cell_formula_units_Z 64
_cell_length_a 18.020217
_cell_length_b 11.188028
_cell_length_c 14.396102
_cell_angle_alpha 90.000000
_cell_angle_beta 90.492802
_cell_angle_gamma 90.000000
_cell_volume 2902.300736
_symmetry_space_group_name_H-M "C 2/C"
_symmetry_group_IT_number 15
_symmetry_cell_setting 'monoclinic'
loop_
_space_group_symop_operation_xyz
x,y,z
-x,y,1/2-z
-x,-y,-z
x,-y,1/2+z
1/2+x,1/2+y,z
1/2-x,1/2+y,1/2-z
1/2-x,1/2-y,-z
1/2+x,1/2-y,1/2+z
loop_
_atom_site_type_symbol
_atom_site_label
_atom_site_fract_x
_atom_site_fract_y
_atom_site_fract_z
Si Si1 0.597123 0.824855 0.397970
Si Si2 0.938427 0.775915 0.910013
Si Si3 0.822846 0.810936 0.273297
Si Si4 0.568109 0.453363 0.118994
Si Si5 0.680184 0.898619 0.581075
Si Si6 0.660110 0.117946 0.712524
Si Si7 0.414599 0.663171 0.614832
Si Si8 0.347368 0.576484 0.067558
O O1 0.508804 0.810652 0.402792
O O2 0.624604 0.884038 0.494185
O O3 0.617467 0.906872 0.309412
O O4 0.636905 0.698221 0.376394
O O5 0.874322 0.730089 0.841985
O O6 0.959605 0.910062 0.878426
O O7 0.906886 0.775640 0.014465
O O8 0.866485 0.930024 0.307447
O O9 0.815201 0.722435 0.359691
O O10 0.744856 0.851659 0.232852
O O11 0.874401 0.752937 0.191594
O O12 0.499900 0.364734 0.140055
O O13 0.597018 0.420056 0.018120
O O14 0.760788 0.927452 0.538779
O O15 0.651254 0.002224 0.647958
O O16 0.366494 0.541569 0.624768
#
# Coordination Sequence:
#
# PCOD8151133 Si02
#       8
#     8   8   8   8   8   8   8   8
#     4  12  23  47  74  98 136 184 236 287 337 415
#     4  11  25  45  71 104 137 177 239 290 347 406
#     4  12  25  41  66 103 144 183 225 283 352 411
#     4  11  22  41  73 110 132 175 230 300 353 391
#     4  12  26  47  67 101 147 187 232 275 347 426
#     4  12  29  43  67 105 137 191 231 279 344 419
#     4  11  22  41  70 108 143 168 227 301 357 392
#     4  11  19  41  70 101 134 174 224 285 347 405
#
# _framework density 22.051470999999999
#
# number of rings (size 3 to 8) (size 9 to 14) (size 15 to 20)
#    0.000    0.500    6.250    2.625    3.500    3.000 
#    0.000    3.750    0.000    0.000    0.000    0.000 
#    0.000    0.000    0.000    0.000    0.000    0.000 
#
# Total GULP energy -396838.309164 kJ/mol
# GULP energy per Si atom -12401.197161 kJ/mol
# Density = 2.200128 g / cm^3
# Si number density = 22.051471 Si / 1000 Ang^3
#
#
#
# Elastic Constant Matrix: (Units=GPa)
#
#
# Indices 1 2 3 4 5 6 
#
# 1 136.2315 36.6570 56.1030 0.0000 10.4117 0.0000
# 2 36.6570 58.5215 45.9734 0.0000 -2.3480 0.0000
# 3 56.1030 45.9734 111.3647 0.0000 8.3758 0.0000
# 4 0.0000 0.0000 0.0000 25.2101 0.0000 3.9944
# 5 10.4117 -2.3480 8.3758 0.0000 41.8874 0.0000
# 6 0.0000 0.0000 0.0000 3.9944 0.0000 31.1584
#
#
#
# Elastic Compliance Matrix: (Units=1/GPa)
#
#
# Indices 1 2 3 4 5 6 
#
# 1 0.009832 -0.003648 -0.003298 0.000000 -0.001989 0.000000
# 2 -0.003648 0.027176 -0.009710 0.000000 0.004372 0.000000
# 3 -0.003298 -0.009710 0.014852 0.000000 -0.002694 0.000000
# 4 0.000000 0.000000 0.000000 0.040489 0.000000 -0.005191
# 5 -0.001989 0.004372 -0.002694 0.000000 0.025152 0.000000
# 6 0.000000 0.000000 0.000000 -0.005191 0.000000 0.032760
#
#
# Mechanical properties :
#
#
# Convention : Reuss Voigt Hill
#
# Bulk Modulus (GPa) = 53.91082 64.84271 59.37677
# Shear Modulus (GPa) = 26.34990 30.81012 28.58001
#
# Velocity S-wave (km/s) = 3.46052 3.74196 3.60399
# Velocity P-wave (km/s) = 6.36143 6.93820 6.65606
#
# Compressibility (1/GPa) = 0.01854915
#
# Stress axis : x y z
#
# Youngs Moduli (GPa) = 101.70793 36.79718 67.33176
#
# Poissons Ratio (x) = 0.13423 0.22204
# Poissons Ratio (y) = 0.37102 0.65378
# Poissons Ratio (z) = 0.33540 0.35729
#
# Static dielectric constant tensor:
#      x y z
#    x 4.035250 0.000000 -0.068840 
#    y 0.000000 3.913290 0.000000 
#    z -0.068840 0.000000 4.259870 
# 
# 
# High freq. dielectric constant tensor:
#      x y z
#    x 1.881460 0.000000 -0.002960 
#    y 0.000000 1.837760 0.000000 
#    z -0.002960 0.000000 1.885360 
# 
# From -- ./inp_files/161339.got.cif
#   From: 2010.06.25/outbox.cif.g09.slc.cpg/sg15_81_cif.got.tgz:161339.got - 2010.06.28 07:06:18.
