data_PCOD8151571
_publ_section_title
;
Structure prediction by ZEFSAII (Michael W. Deem and Ramdas Pophale) SiO2 
 PCOD8151571
Probable space group: C 2/C
;
_chemical_formula_sum "Si O2"
_cell_formula_units_Z 56
_cell_length_a 11.421165
_cell_length_b 18.756674
_cell_length_c 17.700505
_cell_angle_alpha 90.000000
_cell_angle_beta 49.311250
_cell_angle_gamma 90.000000
_cell_volume 2875.222059
_symmetry_space_group_name_H-M "C 2/C"
_symmetry_group_IT_number 15
_symmetry_cell_setting 'monoclinic'
loop_
_space_group_symop_operation_xyz
x,y,z
-x,y,1/2-z
-x,-y,-z
x,-y,1/2+z
1/2+x,1/2+y,z
1/2-x,1/2+y,1/2-z
1/2-x,1/2-y,-z
1/2+x,1/2-y,1/2+z
loop_
_atom_site_type_symbol
_atom_site_label
_atom_site_fract_x
_atom_site_fract_y
_atom_site_fract_z
Si Si1 0.936154 0.921135 0.113151
Si Si2 0.000000 0.042999 0.750000
Si Si3 0.160028 0.080146 0.383117
Si Si4 0.645038 0.165449 0.744810
Si Si5 0.789221 0.555325 0.109935
Si Si6 0.994608 0.451413 0.393613
Si Si7 0.000000 0.543353 0.250000
Si Si8 0.632234 0.326912 0.756982
O O1 0.800964 0.867385 0.142903
O O2 0.973391 0.907897 0.186640
O O3 0.874123 0.001324 0.132704
O O4 0.086046 0.907742 0.997255
O O5 0.864037 0.990117 0.828487
O O6 0.346798 0.091764 0.302336
O O7 0.083197 0.136035 0.356755
O O8 0.500000 0.162560 0.750000
O O9 0.602175 0.117960 0.835996
O O10 0.681051 0.246101 0.754304
O O11 0.774502 0.629294 0.161659
O O12 0.919908 0.510981 0.095254
O O13 0.840790 0.572983 0.002563
O O14 0.946174 0.488966 0.337149
O O15 0.500000 0.329707 0.750000
#
# Coordination Sequence:
#
# PCOD8151571 Si02
#       8
#     8   4   8   8   8   8   4   8
#     4  11  22  38  63  90 119 156 200 247 297 350
#     4  12  18  38  64  90 116 150 194 256 294 346
#     4  11  22  38  63  90 119 156 200 247 297 350
#     4  11  22  39  60  86 124 158 195 244 298 357
#     4  11  21  36  60  87 115 152 195 241 292 345
#     4  11  21  36  60  87 115 152 195 241 292 345
#     4  12  18  38  64  90 116 150 194 256 294 346
#     4  11  22  39  60  86 124 158 195 244 298 357
#
# _framework density 19.476756000000002
#
# number of rings (size 3 to 8) (size 9 to 14) (size 15 to 20)
#    0.000    0.857    7.143    0.857    0.000    4.571 
#    0.000    3.571    0.000    1.714    0.000    0.000 
#    0.000    0.000    0.000    0.000    0.000    0.000 
#
# Total GULP energy -347093.827701 kJ/mol
# GULP energy per Si atom -12396.208132 kJ/mol
# Density = 1.943243 g / cm^3
# Si number density = 19.476756 Si / 1000 Ang^3
#
#
#
# Elastic Constant Matrix: (Units=GPa)
#
#
# Indices 1 2 3 4 5 6 
#
# 1 68.1138 19.0356 41.8532 0.0000 12.8093 -0.0002
# 2 19.0356 114.4051 41.2494 0.0000 12.9789 -0.0001
# 3 41.8532 41.2494 150.4626 -0.0002 8.3614 0.0001
# 4 0.0000 0.0000 -0.0002 13.1141 0.0000 1.1631
# 5 12.8093 12.9789 8.3614 0.0000 23.1433 0.0001
# 6 -0.0002 -0.0001 0.0001 1.1631 0.0001 25.0023
#
#
#
# Elastic Compliance Matrix: (Units=1/GPa)
#
#
# Indices 1 2 3 4 5 6 
#
# 1 0.019397 -0.000519 -0.004769 0.000000 -0.008722 0.000000
# 2 -0.000519 0.010212 -0.002401 0.000000 -0.004572 0.000000
# 3 -0.004769 -0.002401 0.008582 0.000000 0.000885 0.000000
# 4 0.000000 0.000000 0.000000 0.076570 0.000000 -0.003562
# 5 -0.008722 -0.004572 0.000885 0.000000 0.050281 0.000000
# 6 0.000000 0.000000 0.000000 -0.003562 0.000000 0.040162
#
#
# Mechanical properties :
#
#
# Convention : Reuss Voigt Hill
#
# Bulk Modulus (GPa) = 43.83417 59.69532 51.76474
# Shear Modulus (GPa) = 21.91220 27.64149 24.77685
#
# Velocity S-wave (km/s) = 3.35781 3.77132 3.57055
# Velocity P-wave (km/s) = 6.13090 7.04839 6.60559
#
# Compressibility (1/GPa) = 0.02281325
#
# Stress axis : x y z
#
# Youngs Moduli (GPa) = 51.55555 97.92777 116.52707
#
# Poissons Ratio (x) = 0.05078 0.55567
# Poissons Ratio (y) = 0.02673 0.27980
# Poissons Ratio (z) = 0.24585 0.23514
#
# Static dielectric constant tensor:
#      x y z
#    x 3.406050 0.000000 0.021270 
#    y 0.000000 3.577850 0.000000 
#    z 0.021270 0.000000 4.279070 
# 
# 
# High freq. dielectric constant tensor:
#      x y z
#    x 1.755690 0.000000 0.002260 
#    y 0.000000 1.730890 0.000000 
#    z 0.002260 0.000000 1.771940 
# 
# From -- ./inp_files/199481.got.cif
#   From: 2010.06.25/outbox.cif.g09.slc.cpg/sg15_100_cif.got.tgz:199481.got - 2010.06.28 07:06:18.
