data_PCOD8151348
_publ_section_title
;
Structure prediction by ZEFSAII (Michael W. Deem and Ramdas Pophale) SiO2 
 PCOD8151348
Probable space group: C 2/C
;
_chemical_formula_sum "Si O2"
_cell_formula_units_Z 48
_cell_length_a 9.141206
_cell_length_b 13.888948
_cell_length_c 17.356207
_cell_angle_alpha 90.000000
_cell_angle_beta 88.363854
_cell_angle_gamma 90.000000
_cell_volume 2202.675756
_symmetry_space_group_name_H-M "C 2/C"
_symmetry_group_IT_number 15
_symmetry_cell_setting 'monoclinic'
loop_
_space_group_symop_operation_xyz
x,y,z
-x,y,1/2-z
-x,-y,-z
x,-y,1/2+z
1/2+x,1/2+y,z
1/2-x,1/2+y,1/2-z
1/2-x,1/2-y,-z
1/2+x,1/2-y,1/2+z
loop_
_atom_site_type_symbol
_atom_site_label
_atom_site_fract_x
_atom_site_fract_y
_atom_site_fract_z
Si Si1 0.581553 0.316949 0.578301
Si Si2 0.425199 0.147288 0.487194
Si Si3 0.188215 0.469248 0.920241
Si Si4 0.827484 0.485775 0.251967
Si Si5 0.168817 0.276530 0.224427
Si Si6 0.222770 0.855376 0.855417
O O1 0.514790 0.237134 0.521247
O O2 0.681254 0.404622 0.541168
O O3 0.686858 0.260908 0.636796
O O4 0.448483 0.365885 0.625088
O O5 0.535137 0.082523 0.436606
O O6 0.305634 0.187326 0.428778
O O7 0.333566 0.079322 0.548560
O O8 0.228175 0.472594 0.828932
O O9 0.760459 0.380937 0.267606
O O10 0.775372 0.540372 0.328954
O O11 0.000000 0.482298 0.250000
O O12 0.259051 0.211668 0.282270
O O13 0.000000 0.278583 0.250000
#
# Coordination Sequence:
#
# PCOD8151348 Si02
#       6
#     8   8   8   8   8   8
#     4  11  23  42  67  94 132 172 217 278 335 398
#     4  11  24  41  65  98 130 177 220 269 334 398
#     4  11  23  40  68  94 130 175 225 267 331 406
#     4  11  20  39  67  95 125 170 221 270 325 398
#     4   9  20  37  65  91 121 169 209 261 329 387
#     4  11  22  40  68  95 132 165 217 278 329 388
#
# _framework density 21.791678000000001
#
# number of rings (size 3 to 8) (size 9 to 14) (size 15 to 20)
#    0.000    1.333    3.333    4.000    2.333    0.667 
#    0.000    0.000   11.000    0.000    0.000    0.000 
#    0.000    0.000    0.000    0.000    0.000    0.000 
#
# Total GULP energy -297439.806091 kJ/mol
# GULP energy per Si atom -12393.325254 kJ/mol
# Density = 2.174208 g / cm^3
# Si number density = 21.791678 Si / 1000 Ang^3
#
#
#
# Elastic Constant Matrix: (Units=GPa)
#
#
# Indices 1 2 3 4 5 6 
#
# 1 62.0975 38.3300 28.6025 0.0000 10.6613 0.0000
# 2 38.3300 99.7127 23.0727 0.0000 14.1846 0.0000
# 3 28.6025 23.0727 98.9544 0.0000 25.5165 0.0000
# 4 0.0000 0.0000 0.0000 26.5094 0.0000 0.3714
# 5 10.6613 14.1846 25.5165 0.0000 34.6041 0.0000
# 6 0.0000 0.0000 0.0000 0.3714 0.0000 32.8917
#
#
#
# Elastic Compliance Matrix: (Units=1/GPa)
#
#
# Indices 1 2 3 4 5 6 
#
# 1 0.023152 -0.007732 -0.004775 0.000000 -0.000442 0.000000
# 2 -0.007732 0.013462 -0.000118 0.000000 -0.003049 0.000000
# 3 -0.004775 -0.000118 0.013733 0.000000 -0.008607 0.000000
# 4 0.000000 0.000000 0.000000 0.037728 0.000000 -0.000426
# 5 -0.000442 -0.003049 -0.008607 0.000000 0.036631 0.000000
# 6 0.000000 0.000000 0.000000 -0.000426 0.000000 0.030408
#
#
# Mechanical properties :
#
#
# Convention : Reuss Voigt Hill
#
# Bulk Modulus (GPa) = 39.84504 48.97501 44.41002
# Shear Modulus (GPa) = 26.49314 30.18499 28.33906
#
# Velocity S-wave (km/s) = 3.49054 3.72581 3.61009
# Velocity P-wave (km/s) = 5.87957 6.40561 6.14822
#
# Compressibility (1/GPa) = 0.02509723
#
# Stress axis : x y z
#
# Youngs Moduli (GPa) = 43.19367 74.28355 72.81891
#
# Poissons Ratio (x) = 0.57434 0.34771
# Poissons Ratio (y) = 0.33396 0.00857
# Poissons Ratio (z) = 0.20625 0.00874
#
# Static dielectric constant tensor:
#      x y z
#    x 3.743940 0.000000 0.070370 
#    y 0.000000 4.187090 0.000000 
#    z 0.070370 0.000000 3.936780 
# 
# 
# High freq. dielectric constant tensor:
#      x y z
#    x 1.835850 0.000000 0.005420 
#    y 0.000000 1.865290 0.000000 
#    z 0.005420 0.000000 1.855200 
# 
# From -- ./inp_files/189273.got.cif
#   From: 2010.06.25/outbox.cif.g09.slc.cpg/sg15_95_cif.got.tgz:189273.got - 2010.06.28 07:06:18.
