data_PCOD8151988
_publ_section_title
;
Structure prediction by ZEFSAII (Michael W. Deem and Ramdas Pophale) SiO2 
 PCOD8151988
Probable space group: C 2/C
;
_chemical_formula_sum "Si O2"
_cell_formula_units_Z 48
_cell_length_a 28.485827
_cell_length_b 9.435904
_cell_length_c 17.477235
_cell_angle_alpha 90.000000
_cell_angle_beta 29.259334
_cell_angle_gamma 90.000000
_cell_volume 2296.062601
_symmetry_space_group_name_H-M "C 2/C"
_symmetry_group_IT_number 15
_symmetry_cell_setting 'monoclinic'
loop_
_space_group_symop_operation_xyz
x,y,z
-x,y,1/2-z
-x,-y,-z
x,-y,1/2+z
1/2+x,1/2+y,z
1/2-x,1/2+y,1/2-z
1/2-x,1/2-y,-z
1/2+x,1/2-y,1/2+z
loop_
_atom_site_type_symbol
_atom_site_label
_atom_site_fract_x
_atom_site_fract_y
_atom_site_fract_z
Si Si1 0.902278 0.934581 0.425719
Si Si2 0.681530 0.179220 0.873817
Si Si3 0.622426 0.262895 0.485196
Si Si4 0.613959 0.013241 0.600355
Si Si5 0.408121 0.938041 0.594450
Si Si6 0.220975 0.610793 0.086405
O O1 0.924876 0.086431 0.431565
O O2 0.000000 0.876308 0.250000
O O3 0.876185 0.825654 0.530729
O O4 0.819799 0.956992 0.478501
O O5 0.785015 0.226895 0.699502
O O6 0.645704 0.078164 0.857932
O O7 0.678109 0.094549 0.958596
O O8 0.555686 0.163589 0.526217
O O9 0.636724 0.175699 0.543902
O O10 0.500000 0.978644 0.750000
O O11 0.655527 0.993229 0.626959
O O12 0.343082 0.852883 0.748160
O O13 0.500000 0.000000 0.500000
O O14 0.250000 0.750000 0.000000
#
# Coordination Sequence:
#
# PCOD8151988 Si02
#       6
#     8   8   8   8   8   8
#     4  12  25  41  65  97 135 170 210 271 335 377
#     4  11  21  44  67  91 126 173 213 265 324 386
#     4  11  22  45  64  92 133 168 211 272 330 380
#     4  11  23  41  69  93 125 171 219 266 324 392
#     4  11  24  42  71  95 125 173 230 262 318 402
#     4  12  23  40  67  99 128 167 223 270 318 394
#
# _framework density 20.905353999999999
#
# number of rings (size 3 to 8) (size 9 to 14) (size 15 to 20)
#    0.000    0.667    5.000    4.000    2.333    0.667 
#    3.000    0.833    0.000    0.000    0.000    0.000 
#    0.000    0.000    0.000    0.000    0.000    0.000 
#
# Total GULP energy -297432.812311 kJ/mol
# GULP energy per Si atom -12393.033846 kJ/mol
# Density = 2.085777 g / cm^3
# Si number density = 20.905354 Si / 1000 Ang^3
#
#
#
# Elastic Constant Matrix: (Units=GPa)
#
#
# Indices 1 2 3 4 5 6 
#
# 1 104.8763 21.1888 24.6087 0.0009 4.9417 0.0020
# 2 21.1888 122.4563 8.6454 0.0012 17.0817 0.0019
# 3 24.6087 8.6454 86.0498 0.0009 0.9631 0.0019
# 4 0.0009 0.0012 0.0009 18.0623 -0.0008 -18.3188
# 5 4.9417 17.0817 0.9631 -0.0008 31.1010 -0.0017
# 6 0.0020 0.0019 0.0019 -18.3188 -0.0017 -18.8558
#
#
#
# Elastic Compliance Matrix: (Units=1/GPa)
#
#
# Indices 1 2 3 4 5 6 
#
# 1 0.010547 -0.001518 -0.002855 0.000000 -0.000754 0.000001
# 2 -0.001518 0.009123 -0.000429 0.000000 -0.004756 0.000001
# 3 -0.002855 -0.000429 0.012477 0.000000 0.000303 0.000001
# 4 0.000000 0.000000 0.000000 0.027887 -0.000001 -0.027092
# 5 -0.000754 -0.004756 0.000303 -0.000001 0.034876 -0.000003
# 6 0.000001 0.000001 0.000001 -0.027092 -0.000003 -0.026713
#
#
# Mechanical properties :
#
#
# Convention : Reuss Voigt Hill
#
# Bulk Modulus (GPa) = 44.36196 46.91867 45.64032
# Shear Modulus (GPa) = 58.60563 23.32416 40.96489
#
# Velocity S-wave (km/s) = 5.30044 3.34384 4.43147
# Velocity P-wave (km/s) = 7.66329 6.11559 6.93276
#
# Compressibility (1/GPa) = 0.02254183
#
# Stress axis : x y z
#
# Youngs Moduli (GPa) = 94.81098 109.61797 80.14445
#
# Poissons Ratio (x) = 0.16643 0.22884
# Poissons Ratio (y) = 0.14395 0.03439
# Poissons Ratio (z) = 0.27072 0.04704
#
# Static dielectric constant tensor:
#      x y z
#    x 4.295810 0.000000 0.418720 
#    y 0.000000 3.753270 0.000000 
#    z 0.418720 0.000000 5.171650 
# 
# 
# High freq. dielectric constant tensor:
#      x y z
#    x 1.809940 0.000000 0.015480 
#    y 0.000000 1.824520 0.000000 
#    z 0.015480 0.000000 1.832100 
# 
# From -- ./inp_files/208936.got.cif
#   From: 2010.06.25/outbox.cif.g09.slc.cpg/sg15_105_cif.got.tgz:208936.got - 2010.06.28 07:06:18.
