data_PCOD8151142
_publ_section_title
;
Structure prediction by ZEFSAII (Michael W. Deem and Ramdas Pophale) SiO2 
 PCOD8151142
Probable space group: C 2/C
;
_chemical_formula_sum "Si O2"
_cell_formula_units_Z 48
_cell_length_a 27.924034
_cell_length_b 14.961946
_cell_length_c 11.037211
_cell_angle_alpha 90.000000
_cell_angle_beta 31.330019
_cell_angle_gamma 90.000000
_cell_volume 2397.734720
_symmetry_space_group_name_H-M "C 2/C"
_symmetry_group_IT_number 15
_symmetry_cell_setting 'monoclinic'
loop_
_space_group_symop_operation_xyz
x,y,z
-x,y,1/2-z
-x,-y,-z
x,-y,1/2+z
1/2+x,1/2+y,z
1/2-x,1/2+y,1/2-z
1/2-x,1/2-y,-z
1/2+x,1/2-y,1/2+z
loop_
_atom_site_type_symbol
_atom_site_label
_atom_site_fract_x
_atom_site_fract_y
_atom_site_fract_z
Si Si1 0.789217 0.774862 0.544477
Si Si2 0.320339 0.666621 0.352097
Si Si3 0.203634 0.398534 0.301585
Si Si4 0.211353 0.589776 0.388609
Si Si5 0.944800 0.410877 0.088413
Si Si6 0.012889 0.234043 0.864866
O O1 0.750000 0.750000 0.500000
O O2 0.805828 0.690132 0.596866
O O3 0.720100 0.848823 0.749823
O O4 0.892066 0.815672 0.304320
O O5 0.250000 0.750000 0.500000
O O6 0.298052 0.610677 0.521042
O O7 0.301621 0.607377 0.274122
O O8 0.427048 0.691328 0.121372
O O9 0.211343 0.484673 0.367537
O O10 0.117676 0.414923 0.397476
O O11 0.118287 0.616365 0.660721
O O12 0.000000 0.500000 0.000000
O O13 0.020863 0.335708 0.897083
O O14 0.000000 0.230046 0.750000
#
# Coordination Sequence:
#
# PCOD8151142 Si02
#       6
#     8   8   8   8   8   8
#     4  12  26  42  63  98 135 175 220 274 335 398
#     4  11  19  43  69  89 120 178 220 259 330 396
#     4  11  23  43  64  94 138 167 214 275 339 395
#     4  11  23  40  64  93 131 170 207 272 334 387
#     4  11  23  37  66 102 126 163 216 275 345 407
#     4  12  20  41  69  91 124 175 224 267 322 398
#
# _framework density 20.018895000000001
#
# number of rings (size 3 to 8) (size 9 to 14) (size 15 to 20)
#    0.000    0.667    8.333    1.000    7.000    0.000 
#    0.000    3.333    3.667    0.000    0.000    0.000 
#    0.000    0.000    0.000    0.000    0.000    0.000 
#
# Total GULP energy -297509.781949 kJ/mol
# GULP energy per Si atom -12396.240915 kJ/mol
# Density = 1.997333 g / cm^3
# Si number density = 20.018895 Si / 1000 Ang^3
#
#
#
# Elastic Constant Matrix: (Units=GPa)
#
#
# Indices 1 2 3 4 5 6 
#
# 1 83.2218 5.4916 41.7283 0.0000 -2.7887 0.0000
# 2 5.4916 53.3120 10.8606 0.0000 -5.6054 0.0000
# 3 41.7283 10.8606 110.5168 0.0000 -9.7953 0.0000
# 4 0.0000 0.0000 0.0000 38.9570 0.0000 5.8134
# 5 -2.7887 -5.6054 -9.7953 0.0000 25.0215 0.0000
# 6 0.0000 0.0000 0.0000 5.8134 0.0000 33.4801
#
#
#
# Elastic Compliance Matrix: (Units=1/GPa)
#
#
# Indices 1 2 3 4 5 6 
#
# 1 0.014840 -0.000452 -0.005616 0.000000 -0.000646 0.000000
# 2 -0.000452 0.019487 -0.001411 0.000000 0.003763 0.000000
# 3 -0.005616 -0.001411 0.011627 0.000000 0.003610 0.000000
# 4 0.000000 0.000000 0.000000 0.026352 0.000000 -0.004576
# 5 -0.000646 0.003763 0.003610 0.000000 0.042150 0.000000
# 6 0.000000 0.000000 0.000000 -0.004576 0.000000 0.030663
#
#
# Mechanical properties :
#
#
# Convention : Reuss Voigt Hill
#
# Bulk Modulus (GPa) = 32.26183 40.35685 36.30934
# Shear Modulus (GPa) = 29.34094 32.08974 30.71534
#
# Velocity S-wave (km/s) = 3.83255 4.00806 3.92129
# Velocity P-wave (km/s) = 5.97790 6.45155 6.21923
#
# Compressibility (1/GPa) = 0.03099638
#
# Stress axis : x y z
#
# Youngs Moduli (GPa) = 67.38420 51.31587 86.00317
#
# Poissons Ratio (x) = 0.02322 0.48300
# Poissons Ratio (y) = 0.03049 0.12132
# Poissons Ratio (z) = 0.37844 0.07239
#
# Static dielectric constant tensor:
#      x y z
#    x 3.614700 0.000000 0.083260 
#    y 0.000000 3.992860 0.000000 
#    z 0.083260 0.000000 4.195150 
# 
# 
# High freq. dielectric constant tensor:
#      x y z
#    x 1.765120 0.000000 0.015810 
#    y 0.000000 1.768560 0.000000 
#    z 0.015810 0.000000 1.802160 
# 
# From -- ./inp_files/126833.got.cif
#   From: 2010.06.25/outbox.cif.g09.slc.cpg/sg15_64_cif.got.tgz:126833.got - 2010.06.28 07:06:18.
