data_PCOD8151719
_publ_section_title
;
Structure prediction by ZEFSAII (Michael W. Deem and Ramdas Pophale) SiO2 
 PCOD8151719
Probable space group: C 2/C
;
_chemical_formula_sum "Si O2"
_cell_formula_units_Z 60
_cell_length_a 16.507819
_cell_length_b 18.014198
_cell_length_c 17.059121
_cell_angle_alpha 90.000000
_cell_angle_beta 35.880423
_cell_angle_gamma 90.000000
_cell_volume 2973.238174
_symmetry_space_group_name_H-M "C 2/C"
_symmetry_group_IT_number 15
_symmetry_cell_setting 'monoclinic'
loop_
_space_group_symop_operation_xyz
x,y,z
-x,y,1/2-z
-x,-y,-z
x,-y,1/2+z
1/2+x,1/2+y,z
1/2-x,1/2+y,1/2-z
1/2-x,1/2-y,-z
1/2+x,1/2-y,1/2+z
loop_
_atom_site_type_symbol
_atom_site_label
_atom_site_fract_x
_atom_site_fract_y
_atom_site_fract_z
Si Si1 0.428744 0.921804 0.887502
Si Si2 0.135962 0.532846 0.789866
Si Si3 0.500000 0.792389 0.250000
Si Si4 0.484547 0.149244 0.501494
Si Si5 0.844570 0.002396 0.376220
Si Si6 0.272836 0.586001 0.277890
Si Si7 0.763284 0.873656 0.054803
Si Si8 0.480880 0.286937 0.609153
O O1 0.500000 0.895808 0.750000
O O2 0.452644 0.856363 0.933177
O O3 0.496610 0.999561 0.861426
O O4 0.264675 0.940262 0.006727
O O5 0.235525 0.464539 0.732726
O O6 0.217363 0.582562 0.666460
O O7 0.099515 0.581559 0.894167
O O8 0.626663 0.842193 0.118116
O O9 0.563696 0.745287 0.271338
O O10 0.645034 0.139945 0.396775
O O11 0.443686 0.229304 0.568738
O O12 0.803037 0.029388 0.323442
O O13 0.848434 0.073992 0.429729
O O14 0.000000 0.968317 0.250000
O O15 0.402007 0.636757 0.153669
O O16 0.857221 0.805835 0.011414
#
# Coordination Sequence:
#
# PCOD8151719 Si02
#       8
#     8   8   4   8   8   8   8   8
#     4  11  21  40  69  94 119 167 226 270 307 374
#     4  11  21  39  65  91 120 168 218 268 302 376
#     4  12  22  38  58  88 134 168 210 242 304 402
#     4  11  22  40  64  88 127 171 216 264 308 377
#     4  12  21  37  60  95 136 161 198 265 329 376
#     4  11  22  40  60  88 125 167 211 254 318 377
#     4  12  23  36  59  92 126 169 207 251 321 386
#     4  12  24  38  57  92 135 169 198 257 328 389
#
# _framework density 20.180019999999999
#
# number of rings (size 3 to 8) (size 9 to 14) (size 15 to 20)
#    0.000    0.533    6.667    4.400    0.000    0.533 
#    0.000    0.000    0.000    3.200    3.467    0.000 
#    0.000    0.000    0.000    0.000    0.000    0.000 
#
# Total GULP energy -372037.393158 kJ/mol
# GULP energy per Si atom -12401.246439 kJ/mol
# Density = 2.013409 g / cm^3
# Si number density = 20.180020 Si / 1000 Ang^3
#
#
#
# Elastic Constant Matrix: (Units=GPa)
#
#
# Indices 1 2 3 4 5 6 
#
# 1 85.6844 31.4151 42.2217 -0.0019 -1.7669 -0.0006
# 2 31.4151 58.4085 23.4495 -0.0044 0.2250 -0.0009
# 3 42.2217 23.4495 95.7317 -0.0016 -13.6009 0.0028
# 4 -0.0019 -0.0044 -0.0016 16.4503 -0.0024 -4.7477
# 5 -1.7669 0.2250 -13.6009 -0.0024 34.2837 -0.0017
# 6 -0.0006 -0.0009 0.0028 -4.7477 -0.0017 -26.7542
#
#
#
# Elastic Compliance Matrix: (Units=1/GPa)
#
#
# Indices 1 2 3 4 5 6 
#
# 1 0.017128 -0.006752 -0.006113 -0.000001 -0.001498 -0.000001
# 2 -0.006752 0.021792 -0.002575 0.000004 -0.001512 -0.000002
# 3 -0.006113 -0.002575 0.014550 0.000001 0.005474 0.000001
# 4 -0.000001 0.000004 0.000001 0.057828 0.000004 -0.010262
# 5 -0.001498 -0.001512 0.005474 0.000004 0.031273 -0.000002
# 6 -0.000001 -0.000002 0.000001 -0.010262 -0.000002 -0.035556
#
#
# Mechanical properties :
#
#
# Convention : Reuss Voigt Hill
#
# Bulk Modulus (GPa) = 44.26704 48.22189 46.24447
# Shear Modulus (GPa) = 34.38220 14.31183 24.34702
#
# Velocity S-wave (km/s) = 4.13216 2.66599 3.47723
# Velocity P-wave (km/s) = 6.68954 5.78138 6.25197
#
# Compressibility (1/GPa) = 0.02259017
#
# Stress axis : x y z
#
# Youngs Moduli (GPa) = 58.38518 45.88833 68.72692
#
# Poissons Ratio (x) = 0.30985 0.42012
# Poissons Ratio (y) = 0.39423 0.17696
# Poissons Ratio (z) = 0.35690 0.11815
#
# Static dielectric constant tensor:
#      x y z
#    x 3.682320 0.000000 0.018900 
#    y 0.000000 3.508920 0.000000 
#    z 0.018900 0.000000 3.850170 
# 
# 
# High freq. dielectric constant tensor:
#      x y z
#    x 1.781720 0.000000 -0.003680 
#    y 0.000000 1.762370 0.000000 
#    z -0.003680 0.000000 1.794940 
# 
# From -- ./inp_files/211734.got.cif
#   From: 2010.06.25/outbox.cif.g09.slc.cpg/sg15_106_cif.got.tgz:211734.got - 2010.06.28 07:06:18.
