data_PCOD8151832
_publ_section_title
;
Structure prediction by ZEFSAII (Michael W. Deem and Ramdas Pophale) SiO2 
 PCOD8151832
Probable space group: C 2/C
;
_chemical_formula_sum "Si O2"
_cell_formula_units_Z 44
_cell_length_a 9.186637
_cell_length_b 16.339873
_cell_length_c 18.299303
_cell_angle_alpha 90.000000
_cell_angle_beta 129.441327
_cell_angle_gamma 90.000000
_cell_volume 2121.348710
_symmetry_space_group_name_H-M "C 2/C"
_symmetry_group_IT_number 15
_symmetry_cell_setting 'monoclinic'
loop_
_space_group_symop_operation_xyz
x,y,z
-x,y,1/2-z
-x,-y,-z
x,-y,1/2+z
1/2+x,1/2+y,z
1/2-x,1/2+y,1/2-z
1/2-x,1/2-y,-z
1/2+x,1/2-y,1/2+z
loop_
_atom_site_type_symbol
_atom_site_label
_atom_site_fract_x
_atom_site_fract_y
_atom_site_fract_z
Si Si1 0.830194 0.332860 0.925623
Si Si2 0.399405 0.654039 0.893254
Si Si3 0.824428 0.428957 0.060013
Si Si4 0.500000 0.431552 0.750000
Si Si5 0.221964 0.594523 0.533024
Si Si6 0.755850 0.430471 0.290474
O O1 0.828697 0.238526 0.904065
O O2 0.636376 0.373287 0.838761
O O3 0.842485 0.346016 0.017084
O O4 0.012917 0.374807 0.946451
O O5 0.323071 0.582259 0.921704
O O6 0.626498 0.649699 0.962264
O O7 0.313789 0.641478 0.785255
O O8 0.027699 0.451130 0.158889
O O9 0.757103 0.500520 0.984293
O O10 0.374147 0.489142 0.763467
O O11 0.266128 0.599798 0.633139
#
# Coordination Sequence:
#
# PCOD8151832 Si02
#       6
#     8   8   8   4   8   8
#     4  11  24  40  64  93 127 168 206 259 316 376
#     4  12  24  38  66  98 132 154 209 271 316 354
#     4  11  22  42  65  95 124 168 210 257 308 380
#     4  12  20  42  68  84 122 172 220 240 308 380
#     4  11  21  44  68  87 126 174 213 246 311 383
#     4  11  21  41  67  90 121 174 214 250 300 382
#
# _framework density 20.741522
#
# number of rings (size 3 to 8) (size 9 to 14) (size 15 to 20)
#    0.000    0.727    5.455    3.273    2.545    0.000 
#    0.000    0.000    8.000    0.000    0.000    0.000 
#    0.000    0.000    0.000    0.000    0.000    0.000 
#
# Total GULP energy -272818.307689 kJ/mol
# GULP energy per Si atom -12400.832168 kJ/mol
# Density = 2.069431 g / cm^3
# Si number density = 20.741522 Si / 1000 Ang^3
#
#
#
# Elastic Constant Matrix: (Units=GPa)
#
#
# Indices 1 2 3 4 5 6 
#
# 1 127.0277 25.5644 51.5969 0.0000 16.3598 0.0000
# 2 25.5644 86.0070 41.0156 0.0000 -4.0149 0.0000
# 3 51.5969 41.0156 104.6064 0.0000 15.7935 0.0000
# 4 0.0000 0.0000 0.0000 30.0199 0.0000 0.1450
# 5 16.3598 -4.0149 15.7935 0.0000 35.8375 0.0000
# 6 0.0000 0.0000 0.0000 0.1450 0.0000 26.5861
#
#
#
# Elastic Compliance Matrix: (Units=1/GPa)
#
#
# Indices 1 2 3 4 5 6 
#
# 1 0.010159 -0.001209 -0.004088 0.000000 -0.002971 0.000000
# 2 -0.001209 0.015112 -0.006072 0.000000 0.004921 0.000000
# 3 -0.004088 -0.006072 0.014760 0.000000 -0.005319 0.000000
# 4 0.000000 0.000000 0.000000 0.033312 0.000000 -0.000182
# 5 -0.002971 0.004921 -0.005319 0.000000 0.032155 0.000000
# 6 0.000000 0.000000 0.000000 -0.000182 0.000000 0.037615
#
#
# Mechanical properties :
#
#
# Convention : Reuss Voigt Hill
#
# Bulk Modulus (GPa) = 57.82817 61.55498 59.69158
# Shear Modulus (GPa) = 29.13513 31.78634 30.46074
#
# Velocity S-wave (km/s) = 3.75197 3.91896 3.83637
# Velocity P-wave (km/s) = 6.83452 7.08656 6.96168
#
# Compressibility (1/GPa) = 0.01729261
#
# Stress axis : x y z
#
# Youngs Moduli (GPa) = 98.43679 66.17470 67.75067
#
# Poissons Ratio (x) = 0.07998 0.27699
# Poissons Ratio (y) = 0.11897 0.41138
# Poissons Ratio (z) = 0.40244 0.40181
#
# Static dielectric constant tensor:
#      x y z
#    x 3.967800 0.000000 0.264470 
#    y 0.000000 3.573160 0.000000 
#    z 0.264470 0.000000 3.738950 
# 
# 
# High freq. dielectric constant tensor:
#      x y z
#    x 1.823260 0.000000 0.019360 
#    y 0.000000 1.792300 0.000000 
#    z 0.019360 0.000000 1.812590 
# 
# From -- ./inp_files/178779.got.cif
#   From: 2010.06.25/outbox.cif.g09.slc.cpg/sg15_90_cif.got.tgz:178779.got - 2010.06.28 07:06:18.
