data_PCOD8151676
_publ_section_title
;
Structure prediction by ZEFSAII (Michael W. Deem and Ramdas Pophale) SiO2 
 PCOD8151676
Probable space group: C 2/C
;
_chemical_formula_sum "Si O2"
_cell_formula_units_Z 56
_cell_length_a 17.545817
_cell_length_b 14.112267
_cell_length_c 10.816848
_cell_angle_alpha 90.000000
_cell_angle_beta 104.093576
_cell_angle_gamma 90.000000
_cell_volume 2597.752451
_symmetry_space_group_name_H-M "C 2/C"
_symmetry_group_IT_number 15
_symmetry_cell_setting 'monoclinic'
loop_
_space_group_symop_operation_xyz
x,y,z
-x,y,1/2-z
-x,-y,-z
x,-y,1/2+z
1/2+x,1/2+y,z
1/2-x,1/2+y,1/2-z
1/2-x,1/2-y,-z
1/2+x,1/2-y,1/2+z
loop_
_atom_site_type_symbol
_atom_site_label
_atom_site_fract_x
_atom_site_fract_y
_atom_site_fract_z
Si Si1 0.366348 0.620491 0.063272
Si Si2 0.221378 0.387536 0.121159
Si Si3 0.000000 0.250387 0.750000
Si Si4 0.152639 0.780277 0.189982
Si Si5 0.153369 0.083918 0.036533
Si Si6 0.736795 0.092233 0.192155
Si Si7 0.565089 0.228361 0.526257
Si Si8 0.500000 0.281688 0.750000
O O1 0.278204 0.627675 0.082359
O O2 0.427238 0.649427 0.193468
O O3 0.376343 0.696510 0.958392
O O4 0.384739 0.514731 0.022457
O O5 0.269268 0.340630 0.252842
O O6 0.193719 0.492698 0.148232
O O7 0.145148 0.328498 0.060389
O O8 0.276974 0.382494 0.024961
O O9 0.081554 0.193021 0.757218
O O10 0.985679 0.307327 0.614047
O O11 0.172817 0.668540 0.211473
O O12 0.192985 0.071769 0.185237
O O13 0.082954 0.159807 0.015198
O O14 0.519478 0.215184 0.638589
#
# Coordination Sequence:
#
# PCOD8151676 Si02
#       8
#     8   8   4   8   8   8   8   4
#     4  11  24  39  63  97 132 166 216 264 330 386
#     4  11  23  42  69  95 125 171 220 270 316 382
#     4  12  26  41  69  98 132 176 212 265 331 384
#     4  12  22  43  67  94 132 170 218 268 322 384
#     4  11  21  38  65  97 125 165 216 264 326 383
#     4  11  23  41  66  96 124 167 220 271 318 377
#     4  12  24  44  66  95 136 173 215 263 327 385
#     4  12  24  43  63  94 138 180 204 259 331 398
#
# _framework density 21.557096999999999
#
# number of rings (size 3 to 8) (size 9 to 14) (size 15 to 20)
#    0.000    0.571    7.143    1.714    0.000    1.143 
#    0.000    1.429    0.000    0.000    0.000    0.000 
#    0.000    0.000    0.000    0.000    0.000    0.000 
#
# Total GULP energy -347175.753746 kJ/mol
# GULP energy per Si atom -12399.134062 kJ/mol
# Density = 2.150803 g / cm^3
# Si number density = 21.557097 Si / 1000 Ang^3
#
#
#
# Elastic Constant Matrix: (Units=GPa)
#
#
# Indices 1 2 3 4 5 6 
#
# 1 77.0547 31.2166 37.4754 0.0000 1.3118 0.0000
# 2 31.2166 82.1952 22.2734 0.0000 3.7530 0.0000
# 3 37.4754 22.2734 133.8761 0.0000 -4.6433 0.0000
# 4 0.0000 0.0000 0.0000 19.0888 0.0000 -4.9654
# 5 1.3118 3.7530 -4.6433 0.0000 38.3283 0.0000
# 6 0.0000 0.0000 0.0000 -4.9654 0.0000 18.1367
#
#
#
# Elastic Compliance Matrix: (Units=1/GPa)
#
#
# Indices 1 2 3 4 5 6 
#
# 1 0.017072 -0.005403 -0.003898 0.000000 -0.000527 0.000000
# 2 -0.005403 0.014538 -0.000953 0.000000 -0.001354 0.000000
# 3 -0.003898 -0.000953 0.008764 0.000000 0.001288 0.000000
# 4 0.000000 0.000000 0.000000 0.056404 0.000000 0.015442
# 5 -0.000527 -0.001354 0.001288 0.000000 0.026397 0.000000
# 6 0.000000 0.000000 0.000000 0.015442 0.000000 0.059364
#
#
# Mechanical properties :
#
#
# Convention : Reuss Voigt Hill
#
# Bulk Modulus (GPa) = 50.34010 52.78410 51.56210
# Shear Modulus (GPa) = 23.84701 28.58813 26.21757
#
# Velocity S-wave (km/s) = 3.32960 3.64560 3.49118
# Velocity P-wave (km/s) = 6.17935 6.50072 6.34207
#
# Compressibility (1/GPa) = 0.01986488
#
# Stress axis : x y z
#
# Youngs Moduli (GPa) = 58.57701 68.78356 114.10230
#
# Poissons Ratio (x) = 0.37165 0.44478
# Poissons Ratio (y) = 0.31650 0.10877
# Poissons Ratio (z) = 0.22834 0.06557
#
# Static dielectric constant tensor:
#      x y z
#    x 3.770970 0.000000 -0.111810 
#    y 0.000000 3.626100 0.000000 
#    z -0.111810 0.000000 4.168830 
# 
# 
# High freq. dielectric constant tensor:
#      x y z
#    x 1.841140 0.000000 -0.008540 
#    y 0.000000 1.813490 0.000000 
#    z -0.008540 0.000000 1.870970 
# 
# From -- ./inp_files/105442.got.cif
#   From: 2010.06.25/outbox.cif.g09.slc.cpg/sg15_53_cif.got.tgz:105442.got - 2010.06.28 07:06:18.
