data_PCOD8151470
_publ_section_title
;
Structure prediction by ZEFSAII (Michael W. Deem and Ramdas Pophale) SiO2 
 PCOD8151470
Probable space group: C 2/C
;
_chemical_formula_sum "Si O2"
_cell_formula_units_Z 48
_cell_length_a 11.954954
_cell_length_b 13.639274
_cell_length_c 17.294934
_cell_angle_alpha 90.000000
_cell_angle_beta 53.760123
_cell_angle_gamma 90.000000
_cell_volume 2274.515308
_symmetry_space_group_name_H-M "C 2/C"
_symmetry_group_IT_number 15
_symmetry_cell_setting 'monoclinic'
loop_
_space_group_symop_operation_xyz
x,y,z
-x,y,1/2-z
-x,-y,-z
x,-y,1/2+z
1/2+x,1/2+y,z
1/2-x,1/2+y,1/2-z
1/2-x,1/2-y,-z
1/2+x,1/2-y,1/2+z
loop_
_atom_site_type_symbol
_atom_site_label
_atom_site_fract_x
_atom_site_fract_y
_atom_site_fract_z
Si Si1 0.614368 0.963002 0.393312
Si Si2 0.094173 0.251504 0.366381
Si Si3 0.596640 0.714341 0.541973
Si Si4 0.115511 0.034129 0.636681
Si Si5 0.828758 0.182825 0.406913
Si Si6 0.666534 0.830016 0.818675
O O1 0.562375 0.867670 0.369051
O O2 0.748780 0.917399 0.380832
O O3 0.500000 0.000000 0.500000
O O4 0.658321 0.051394 0.318401
O O5 0.062378 0.212498 0.465231
O O6 0.250271 0.214643 0.287291
O O7 0.992263 0.206336 0.343525
O O8 0.750000 0.750000 0.500000
O O9 0.563498 0.606792 0.590640
O O10 0.489064 0.790389 0.623459
O O11 0.000000 0.014895 0.750000
O O12 0.173853 0.933649 0.575174
O O13 0.750000 0.250000 0.500000
O O14 0.752586 0.205661 0.358030
#
# Coordination Sequence:
#
# PCOD8151470 Si02
#       6
#     8   8   8   8   8   8
#     4  11  20  43  67  89 123 179 211 247 327 394
#     4  12  23  41  69  95 130 164 221 272 314 382
#     4  12  24  41  65  98 129 167 218 269 317 381
#     4  11  23  41  66  93 130 173 210 259 332 394
#     4  11  22  44  66  94 126 168 215 268 322 384
#     4  11  24  42  68  93 128 171 216 264 326 388
#
# _framework density 21.103397999999999
#
# number of rings (size 3 to 8) (size 9 to 14) (size 15 to 20)
#    0.000    0.667    5.000    4.500    0.000    0.667 
#    3.000    0.000    3.667    0.000    0.000    0.000 
#    0.000    0.000    0.000    0.000    0.000    0.000 
#
# Total GULP energy -297504.281906 kJ/mol
# GULP energy per Si atom -12396.011746 kJ/mol
# Density = 2.105537 g / cm^3
# Si number density = 21.103398 Si / 1000 Ang^3
#
#
#
# Elastic Constant Matrix: (Units=GPa)
#
#
# Indices 1 2 3 4 5 6 
#
# 1 100.8307 18.0324 8.9266 0.0000 -18.5606 0.0000
# 2 18.0324 136.5637 49.4100 0.0000 7.5334 0.0000
# 3 8.9266 49.4100 85.6314 0.0000 -19.9806 0.0000
# 4 0.0000 0.0000 0.0000 37.3074 0.0000 -3.8912
# 5 -18.5606 7.5334 -19.9806 0.0000 29.4086 0.0000
# 6 0.0000 0.0000 0.0000 -3.8912 0.0000 32.3540
#
#
#
# Elastic Compliance Matrix: (Units=1/GPa)
#
#
# Indices 1 2 3 4 5 6 
#
# 1 0.012207 -0.003343 0.003154 0.000000 0.010703 0.000000
# 2 -0.003343 0.011626 -0.008969 0.000000 -0.011182 0.000000
# 3 0.003154 -0.008969 0.020826 0.000000 0.018438 0.000000
# 4 0.000000 0.000000 0.000000 0.027145 0.000000 0.003265
# 5 0.010703 -0.011182 0.018438 0.000000 0.056150 0.000000
# 6 0.000000 0.000000 0.000000 0.003265 0.000000 0.031301
#
#
# Mechanical properties :
#
#
# Convention : Reuss Voigt Hill
#
# Bulk Modulus (GPa) = 37.96118 52.86266 45.41192
# Shear Modulus (GPa) = 26.83104 36.25778 31.54441
#
# Velocity S-wave (km/s) = 3.56955 4.14950 3.87040
# Velocity P-wave (km/s) = 5.91744 6.93264 6.44506
#
# Compressibility (1/GPa) = 0.02634270
#
# Stress axis : x y z
#
# Youngs Moduli (GPa) = 81.92315 86.01509 48.01619
#
# Poissons Ratio (x) = 0.28759 -0.15145
# Poissons Ratio (y) = 0.27391 0.43064
# Poissons Ratio (z) = -0.25840 0.77145
#
# Static dielectric constant tensor:
#      x y z
#    x 4.024740 0.000000 -0.208650 
#    y 0.000000 4.025790 0.000000 
#    z -0.208650 0.000000 4.048580 
# 
# 
# High freq. dielectric constant tensor:
#      x y z
#    x 1.836110 0.000000 -0.025930 
#    y 0.000000 1.837770 0.000000 
#    z -0.025930 0.000000 1.813760 
# 
# From -- ./inp_files/144087.got.cif
#   From: 2010.06.25/outbox.cif.g09.slc.cpg/sg15_73_cif.got.tgz:144087.got - 2010.06.28 07:06:18.
