data_PCOD8151094
_publ_section_title
;
Structure prediction by ZEFSAII (Michael W. Deem and Ramdas Pophale) SiO2 
 PCOD8151094
Probable space group: C 2/C
;
_chemical_formula_sum "Si O2"
_cell_formula_units_Z 60
_cell_length_a 26.688349
_cell_length_b 22.243696
_cell_length_c 8.301652
_cell_angle_alpha 90.000000
_cell_angle_beta 32.431238
_cell_angle_gamma 90.000000
_cell_volume 2642.959399
_symmetry_space_group_name_H-M "C 2/C"
_symmetry_group_IT_number 15
_symmetry_cell_setting 'monoclinic'
loop_
_space_group_symop_operation_xyz
x,y,z
-x,y,1/2-z
-x,-y,-z
x,-y,1/2+z
1/2+x,1/2+y,z
1/2-x,1/2+y,1/2-z
1/2-x,1/2-y,-z
1/2+x,1/2-y,1/2+z
loop_
_atom_site_type_symbol
_atom_site_label
_atom_site_fract_x
_atom_site_fract_y
_atom_site_fract_z
Si Si1 0.880675 0.973054 0.606606
Si Si2 0.764498 0.343016 0.656533
Si Si3 0.726495 0.612431 0.913449
Si Si4 0.187072 0.515811 0.022091
Si Si5 0.000000 0.818336 0.750000
Si Si6 0.414403 0.590057 0.711660
Si Si7 0.193066 0.772987 0.306039
Si Si8 0.099334 0.574112 0.558396
O O1 0.951412 0.947997 0.271004
O O2 0.779626 0.973975 0.787497
O O3 0.899842 0.040977 0.609375
O O4 0.869802 0.924608 0.781746
O O5 0.764954 0.354956 0.466183
O O6 0.773886 0.270930 0.641044
O O7 0.859771 0.364133 0.484929
O O8 0.676355 0.371692 0.989306
O O9 0.802247 0.564541 0.648494
O O10 0.712297 0.658359 0.805588
O O11 0.100135 0.473618 0.204328
O O12 0.170224 0.548115 0.235034
O O13 0.015155 0.860495 0.550591
O O14 0.083979 0.772632 0.558164
O O15 0.250000 0.750000 0.000000
O O16 0.000000 0.586098 0.750000
#
# Coordination Sequence:
#
# PCOD8151094 Si02
#       8
#     8   8   8   8   4   8   8   8
#     4  11  19  38  70 101 137 183 223 273 354 425
#     4  11  22  45  68  98 130 190 239 283 345 410
#     4  11  22  41  74  98 130 185 238 276 345 432
#     4  12  18  38  62  97 136 182 224 278 348 423
#     4  12  28  46  70 108 134 176 246 288 352 426
#     4  11  22  41  70  99 140 174 228 277 346 427
#     4  12  26  47  74  95 132 184 235 293 350 405
#     4  12  23  35  62  99 141 179 233 291 346 412
#
# _framework density 22.701826000000001
#
# number of rings (size 3 to 8) (size 9 to 14) (size 15 to 20)
#    0.000    0.533    8.000    2.400    0.933    0.533 
#    0.000    2.000    0.000    0.000    0.000    0.000 
#    0.000    0.000    0.000    0.000    0.000    0.000 
#
# Total GULP energy -371872.966100 kJ/mol
# GULP energy per Si atom -12395.765537 kJ/mol
# Density = 2.265016 g / cm^3
# Si number density = 22.701826 Si / 1000 Ang^3
#
#
#
# Elastic Constant Matrix: (Units=GPa)
#
#
# Indices 1 2 3 4 5 6 
#
# 1 59.3517 9.2449 25.9714 0.0000 16.8416 0.0000
# 2 9.2449 103.5156 39.2125 0.0000 8.5823 0.0000
# 3 25.9714 39.2125 85.0040 0.0000 11.3133 0.0000
# 4 0.0000 0.0000 0.0000 39.9692 0.0000 6.8747
# 5 16.8416 8.5823 11.3133 0.0000 13.6475 0.0000
# 6 0.0000 0.0000 0.0000 6.8747 0.0000 49.9571
#
#
#
# Elastic Compliance Matrix: (Units=1/GPa)
#
#
# Indices 1 2 3 4 5 6 
#
# 1 0.027648 0.002108 -0.005286 0.000000 -0.031063 0.000000
# 2 0.002108 0.011996 -0.005426 0.000000 -0.005647 0.000000
# 3 -0.005286 -0.005426 0.016366 0.000000 -0.003631 0.000000
# 4 0.000000 0.000000 0.000000 0.025626 0.000000 -0.003526
# 5 -0.031063 -0.005647 -0.003631 0.000000 0.118168 0.000000
# 6 0.000000 0.000000 0.000000 -0.003526 0.000000 0.020502
#
#
# Mechanical properties :
#
#
# Convention : Reuss Voigt Hill
#
# Bulk Modulus (GPa) = 25.77193 44.08097 34.92645
# Shear Modulus (GPa) = 19.96438 32.27760 26.12099
#
# Velocity S-wave (km/s) = 2.96871 3.77478 3.39575
# Velocity P-wave (km/s) = 4.80916 6.20146 5.54915
#
# Compressibility (1/GPa) = 0.03880191
#
# Stress axis : x y z
#
# Youngs Moduli (GPa) = 36.16955 83.36251 61.10409
#
# Poissons Ratio (x) = -0.17576 0.32298
# Poissons Ratio (y) = -0.07626 0.33157
# Poissons Ratio (z) = 0.19118 0.45235
#
# Static dielectric constant tensor:
#      x y z
#    x 4.243490 0.000000 0.161030 
#    y 0.000000 4.418420 0.000000 
#    z 0.161030 0.000000 4.061250 
# 
# 
# High freq. dielectric constant tensor:
#      x y z
#    x 1.907130 0.000000 0.015710 
#    y 0.000000 1.901420 0.000000 
#    z 0.015710 0.000000 1.883180 
# 
# From -- ./inp_files/70949.got.cif
#   From: 2010.06.25/outbox.cif.g09.slc.cpg/sg15_36_cif.got.tgz:70949.got - 2010.06.28 07:06:18.
