data_PCOD8151678
_publ_section_title
;
Structure prediction by ZEFSAII (Michael W. Deem and Ramdas Pophale) SiO2 
 PCOD8151678
Probable space group: C 2/C
;
_chemical_formula_sum "Si O2"
_cell_formula_units_Z 48
_cell_length_a 11.502953
_cell_length_b 16.535170
_cell_length_c 11.320452
_cell_angle_alpha 90.000000
_cell_angle_beta 108.519403
_cell_angle_gamma 90.000000
_cell_volume 2041.686813
_symmetry_space_group_name_H-M "C 2/C"
_symmetry_group_IT_number 15
_symmetry_cell_setting 'monoclinic'
loop_
_space_group_symop_operation_xyz
x,y,z
-x,y,1/2-z
-x,-y,-z
x,-y,1/2+z
1/2+x,1/2+y,z
1/2-x,1/2+y,1/2-z
1/2-x,1/2-y,-z
1/2+x,1/2-y,1/2+z
loop_
_atom_site_type_symbol
_atom_site_label
_atom_site_fract_x
_atom_site_fract_y
_atom_site_fract_z
Si Si1 0.487614 0.657388 0.379526
Si Si2 0.384765 0.096569 0.781829
Si Si3 0.252612 0.106131 0.112496
Si Si4 0.269941 0.559390 0.987801
Si Si5 0.878552 0.298203 0.482914
Si Si6 0.080283 0.425047 0.622359
O O1 0.500000 0.693254 0.250000
O O2 0.363775 0.604742 0.337777
O O3 0.598746 0.600267 0.452167
O O4 0.464359 0.721392 0.480066
O O5 0.500000 0.134376 0.750000
O O6 0.274039 0.073283 0.660571
O O7 0.327239 0.167738 0.842807
O O8 0.442704 0.022512 0.880201
O O9 0.371320 0.092029 0.230245
O O10 0.228392 0.038467 0.002379
O O11 0.269032 0.195462 0.050370
O O12 0.179377 0.598012 0.054323
O O13 0.961542 0.371120 0.562985
#
# Coordination Sequence:
#
# PCOD8151678 Si02
#       6
#     8   8   8   8   8   8
#     4  12  27  45  65  98 142 185 218 272 347 414
#     4  11  21  38  66 103 129 173 226 286 334 396
#     4  11  24  46  70  94 135 180 231 277 331 402
#     4  11  23  43  70 100 131 177 232 282 330 400
#     4  12  24  41  67 103 134 174 221 282 339 402
#     4  11  21  40  71  97 131 170 230 288 331 389
#
# _framework density 23.509972999999999
#
# number of rings (size 3 to 8) (size 9 to 14) (size 15 to 20)
#    0.000    0.667    5.000    4.500    0.000    2.000 
#    0.000    2.500    0.000    0.000    0.000    0.000 
#    0.000    0.000    0.000    0.000    0.000    0.000 
#
# Total GULP energy -297372.574777 kJ/mol
# GULP energy per Si atom -12390.523949 kJ/mol
# Density = 2.345646 g / cm^3
# Si number density = 23.509973 Si / 1000 Ang^3
#
#
#
# Elastic Constant Matrix: (Units=GPa)
#
#
# Indices 1 2 3 4 5 6 
#
# 1 72.7439 -17.5822 12.2434 0.0000 -14.0238 0.0000
# 2 -17.5822 51.0746 17.9535 0.0000 -0.3719 0.0000
# 3 12.2434 17.9535 65.0808 0.0000 -5.0249 0.0000
# 4 0.0000 0.0000 0.0000 26.8243 0.0000 -11.4204
# 5 -14.0238 -0.3719 -5.0249 0.0000 40.7811 0.0000
# 6 0.0000 0.0000 0.0000 -11.4204 0.0000 21.9804
#
#
#
# Elastic Compliance Matrix: (Units=1/GPa)
#
#
# Indices 1 2 3 4 5 6 
#
# 1 0.017552 0.007856 -0.005046 0.000000 0.005486 0.000000
# 2 0.007856 0.025210 -0.008285 0.000000 0.001911 0.000000
# 3 -0.005046 -0.008285 0.018638 0.000000 0.000486 0.000000
# 4 0.000000 0.000000 0.000000 0.047868 0.000000 0.024871
# 5 0.005486 0.001911 0.000486 0.000000 0.026485 0.000000
# 6 0.000000 0.000000 0.000000 0.024871 0.000000 0.058417
#
#
# Mechanical properties :
#
#
# Convention : Reuss Voigt Hill
#
# Bulk Modulus (GPa) = 19.82132 23.79208 21.80670
# Shear Modulus (GPa) = 22.52893 29.66948 26.09920
#
# Velocity S-wave (km/s) = 3.09895 3.55631 3.33548
# Velocity P-wave (km/s) = 4.61021 5.19664 4.91218
#
# Compressibility (1/GPa) = 0.05045072
#
# Stress axis : x y z
#
# Youngs Moduli (GPa) = 56.97208 39.66717 53.65449
#
# Poissons Ratio (x) = -0.31162 0.27072
# Poissons Ratio (y) = -0.44757 0.44452
# Poissons Ratio (z) = 0.28746 0.32864
#
# Static dielectric constant tensor:
#      x y z
#    x 4.336130 0.000000 -0.295920 
#    y 0.000000 4.264300 0.000000 
#    z -0.295920 0.000000 4.344880 
# 
# 
# High freq. dielectric constant tensor:
#      x y z
#    x 1.946640 0.000000 -0.021530 
#    y 0.000000 1.927660 0.000000 
#    z -0.021530 0.000000 1.936950 
# 
# From -- ./inp_files/87872.got.cif
#   From: 2010.06.25/outbox.cif.g09.slc.cpg/sg15_44_cif.got.tgz:87872.got - 2010.06.28 07:06:18.
