data_PCOD8151663
_publ_section_title
;
Structure prediction by ZEFSAII (Michael W. Deem and Ramdas Pophale) SiO2 
 PCOD8151663
Probable space group: C 2/C
;
_chemical_formula_sum "Si O2"
_cell_formula_units_Z 44
_cell_length_a 9.012472
_cell_length_b 20.271284
_cell_length_c 15.948551
_cell_angle_alpha 90.000000
_cell_angle_beta 42.990656
_cell_angle_gamma 90.000000
_cell_volume 1986.798320
_symmetry_space_group_name_H-M "C 2/C"
_symmetry_group_IT_number 15
_symmetry_cell_setting 'monoclinic'
loop_
_space_group_symop_operation_xyz
x,y,z
-x,y,1/2-z
-x,-y,-z
x,-y,1/2+z
1/2+x,1/2+y,z
1/2-x,1/2+y,1/2-z
1/2-x,1/2-y,-z
1/2+x,1/2-y,1/2+z
loop_
_atom_site_type_symbol
_atom_site_label
_atom_site_fract_x
_atom_site_fract_y
_atom_site_fract_z
Si Si1 0.246578 0.117437 0.633536
Si Si2 0.252347 0.997053 0.748973
Si Si3 0.376262 0.572151 0.530478
Si Si4 0.710657 0.056899 0.057434
Si Si5 0.817050 0.677250 0.997387
Si Si6 0.000000 0.894833 0.750000
O O1 0.290211 0.045250 0.654224
O O2 0.278662 0.109533 0.521040
O O3 0.423183 0.170516 0.593962
O O4 0.000000 0.143361 0.750000
O O5 0.188404 0.046972 0.849939
O O6 0.467478 0.957587 0.686459
O O7 0.083462 0.939883 0.792013
O O8 0.640960 0.583335 0.424614
O O9 0.320075 0.513993 0.486749
O O10 0.245337 0.636826 0.560543
O O11 0.750000 0.750000 0.000000
O O12 0.687474 0.651532 0.132692
#
# Coordination Sequence:
#
# PCOD8151663 Si02
#       6
#     8   8   8   8   8   4
#     4  12  23  42  69 103 138 182 232 290 364 416
#     4  12  21  36  72 107 141 169 222 309 372 404
#     4  11  23  38  64 105 136 178 229 289 358 406
#     4  11  21  38  63 106 139 168 223 306 364 406
#     4  12  29  49  69  97 147 201 241 272 334 439
#     4  12  24  46  72 106 142 182 230 298 364 414
#
# _framework density 22.146184000000002
#
# number of rings (size 3 to 8) (size 9 to 14) (size 15 to 20)
#    0.000    0.364    6.364    4.364    0.000    1.455 
#    0.000    2.727    0.000    0.000    0.000    0.000 
#    0.000    0.000    0.000    0.000    0.000    0.000 
#
# Total GULP energy -272607.392718 kJ/mol
# GULP energy per Si atom -12391.245124 kJ/mol
# Density = 2.209578 g / cm^3
# Si number density = 22.146184 Si / 1000 Ang^3
#
#
#
# Elastic Constant Matrix: (Units=GPa)
#
#
# Indices 1 2 3 4 5 6 
#
# 1 165.6502 68.9110 55.8354 0.0002 -36.7261 0.0000
# 2 68.9110 121.5113 30.4552 0.0001 -5.2778 0.0000
# 3 55.8354 30.4552 100.6265 0.0008 -22.4906 -0.0007
# 4 0.0002 0.0001 0.0008 23.0524 -0.0002 -2.1830
# 5 -36.7261 -5.2778 -22.4906 -0.0002 50.1433 0.0001
# 6 0.0000 0.0000 -0.0007 -2.1830 0.0001 27.7655
#
#
#
# Elastic Compliance Matrix: (Units=1/GPa)
#
#
# Indices 1 2 3 4 5 6 
#
# 1 0.010334 -0.004864 -0.002984 0.000000 0.005719 0.000000
# 2 -0.004864 0.011199 -0.001359 0.000000 -0.002994 0.000000
# 3 -0.002984 -0.001359 0.012764 0.000000 0.003397 0.000000
# 4 0.000000 0.000000 0.000000 0.043705 0.000000 0.003436
# 5 0.005719 -0.002994 0.003397 0.000000 0.025340 0.000000
# 6 0.000000 0.000000 0.000000 0.003436 0.000000 0.036286
#
#
# Mechanical properties :
#
#
# Convention : Reuss Voigt Hill
#
# Bulk Modulus (GPa) = 62.96488 77.57678 70.27083
# Shear Modulus (GPa) = 30.61166 35.69800 33.15483
#
# Velocity S-wave (km/s) = 3.72190 4.01923 3.87342
# Velocity P-wave (km/s) = 6.85298 7.52625 7.19749
#
# Compressibility (1/GPa) = 0.01588187
#
# Stress axis : x y z
#
# Youngs Moduli (GPa) = 96.76820 89.29344 78.34574
#
# Poissons Ratio (x) = 0.43435 0.23376
# Poissons Ratio (y) = 0.47071 0.10651
# Poissons Ratio (z) = 0.28873 0.12139
#
# Static dielectric constant tensor:
#      x y z
#    x 4.559980 0.000000 -0.275360 
#    y 0.000000 3.488550 0.000000 
#    z -0.275360 0.000000 4.131010 
# 
# 
# High freq. dielectric constant tensor:
#      x y z
#    x 1.905650 0.000000 -0.005530 
#    y 0.000000 1.804140 0.000000 
#    z -0.005530 0.000000 1.893530 
# 
# From -- ./inp_files/190783.got.cif
#   From: 2010.06.25/outbox.cif.g09.slc.cpg/sg15_96_cif.got.tgz:190783.got - 2010.06.28 07:06:18.
