data_PCOD8151820
_publ_section_title
;
Structure prediction by ZEFSAII (Michael W. Deem and Ramdas Pophale) SiO2 
 PCOD8151820
Probable space group: C 2/C
;
_chemical_formula_sum "Si O2"
_cell_formula_units_Z 64
_cell_length_a 19.782876
_cell_length_b 21.732978
_cell_length_c 10.622911
_cell_angle_alpha 90.000000
_cell_angle_beta 41.561491
_cell_angle_gamma 90.000000
_cell_volume 3030.002855
_symmetry_space_group_name_H-M "C 2/C"
_symmetry_group_IT_number 15
_symmetry_cell_setting 'monoclinic'
loop_
_space_group_symop_operation_xyz
x,y,z
-x,y,1/2-z
-x,-y,-z
x,-y,1/2+z
1/2+x,1/2+y,z
1/2-x,1/2+y,1/2-z
1/2-x,1/2-y,-z
1/2+x,1/2-y,1/2+z
loop_
_atom_site_type_symbol
_atom_site_label
_atom_site_fract_x
_atom_site_fract_y
_atom_site_fract_z
Si Si1 0.427701 0.862849 0.460660
Si Si2 0.294924 0.388374 0.670848
Si Si3 0.852948 0.758765 0.934390
Si Si4 0.514077 0.174048 0.369548
Si Si5 0.758522 0.321942 0.987417
Si Si6 0.450857 0.702625 0.060689
Si Si7 0.932615 0.006014 0.470179
Si Si8 0.354597 0.638221 0.629286
O O1 0.500000 0.890397 0.250000
O O2 0.323115 0.901837 0.625931
O O3 0.383019 0.795441 0.487459
O O4 0.508147 0.862750 0.468990
O O5 0.314451 0.357595 0.507390
O O6 0.351148 0.339883 0.684833
O O7 0.348442 0.453697 0.591602
O O8 0.945863 0.766868 0.706263
O O9 0.750000 0.750000 0.000000
O O10 0.837145 0.821606 0.031172
O O11 0.500000 0.143788 0.250000
O O12 0.460813 0.241693 0.444788
O O13 0.633078 0.171579 0.225533
O O14 0.745507 0.352923 0.143315
O O15 0.750000 0.250000 0.000000
O O16 0.551377 0.660664 0.914296
O O17 0.870229 0.069369 0.560251
O O18 0.000000 0.002434 0.250000
O O19 0.000000 0.000000 0.500000
#
# Coordination Sequence:
#
# PCOD8151820 Si02
#       8
#     8   8   8   8   8   8   8   8
#     4  11  21  41  63  92 133 171 219 281 339 407
#     4  11  25  39  63  98 130 182 229 275 339 406
#     4  12  23  37  59  96 129 169 215 275 341 407
#     4  11  23  35  59  91 131 168 209 263 336 404
#     4  11  22  41  60  94 135 175 217 275 343 411
#     4  12  21  35  60  91 132 166 219 264 332 408
#     4  12  26  45  68  95 137 185 232 281 337 406
#     4  12  24  40  62  93 133 175 221 276 330 405
#
# _framework density 21.122093
#
# number of rings (size 3 to 8) (size 9 to 14) (size 15 to 20)
#    0.000    0.500    6.250    3.375    1.750    0.000 
#    0.000    0.000    0.000    0.750    0.000    5.250 
#    0.000    0.250    0.000    0.000    0.000    0.000 
#
# Total GULP energy -396465.184781 kJ/mol
# GULP energy per Si atom -12389.537024 kJ/mol
# Density = 2.107402 g / cm^3
# Si number density = 21.122093 Si / 1000 Ang^3
#
#
#
# Elastic Constant Matrix: (Units=GPa)
#
#
# Indices 1 2 3 4 5 6 
#
# 1 96.7449 36.3076 23.5417 0.0000 25.6072 0.0000
# 2 36.3076 104.2202 48.7985 0.0000 3.1294 0.0000
# 3 23.5417 48.7985 125.8334 0.0000 20.6278 0.0000
# 4 0.0000 0.0000 0.0000 31.4228 0.0000 -5.4274
# 5 25.6072 3.1294 20.6278 0.0000 37.8059 0.0000
# 6 0.0000 0.0000 0.0000 -5.4274 0.0000 26.7886
#
#
#
# Elastic Compliance Matrix: (Units=1/GPa)
#
#
# Indices 1 2 3 4 5 6 
#
# 1 0.014753 -0.005276 0.000936 0.000000 -0.010067 0.000000
# 2 -0.005276 0.013706 -0.005192 0.000000 0.005272 0.000000
# 3 0.000936 -0.005192 0.010784 0.000000 -0.006088 0.000000
# 4 0.000000 0.000000 0.000000 0.032978 0.000000 0.006681
# 5 -0.010067 0.005272 -0.006088 0.000000 0.036155 0.000000
# 6 0.000000 0.000000 0.000000 0.006681 0.000000 0.038683
#
#
# Mechanical properties :
#
#
# Convention : Reuss Voigt Hill
#
# Bulk Modulus (GPa) = 49.55749 60.45491 55.00620
# Shear Modulus (GPa) = 28.92704 33.74684 31.33694
#
# Velocity S-wave (km/s) = 3.70471 4.00146 3.85594
# Velocity P-wave (km/s) = 6.46631 7.07338 6.77665
#
# Compressibility (1/GPa) = 0.02017859
#
# Stress axis : x y z
#
# Youngs Moduli (GPa) = 67.78203 72.96145 92.73410
#
# Poissons Ratio (x) = 0.38492 -0.08680
# Poissons Ratio (y) = 0.35759 0.48151
# Poissons Ratio (z) = -0.06345 0.37885
#
# Static dielectric constant tensor:
#      x y z
#    x 5.090160 0.000000 -7.555310 
#    y 0.000000 3.464220 0.000000 
#    z -7.555310 0.000000 52.546790 
# 
# 
# High freq. dielectric constant tensor:
#      x y z
#    x 1.837040 0.000000 0.011930 
#    y 0.000000 1.782630 0.000000 
#    z 0.011930 0.000000 1.850420 
# 
# From -- ./inp_files/114231.got.cif
#   From: 2010.06.25/outbox.cif.g09.slc.cpg/sg15_58_cif.got.tgz:114231.got - 2010.06.28 07:06:18.
