data_PCOD8151053
_publ_section_title
;
Structure prediction by ZEFSAII (Michael W. Deem and Ramdas Pophale) SiO2 
 PCOD8151053
Probable space group: C 2/C
;
_chemical_formula_sum "Si O2"
_cell_formula_units_Z 56
_cell_length_a 12.255646
_cell_length_b 19.369589
_cell_length_c 17.232665
_cell_angle_alpha 90.000000
_cell_angle_beta 130.346478
_cell_angle_gamma 90.000000
_cell_volume 3117.782076
_symmetry_space_group_name_H-M "C 2/C"
_symmetry_group_IT_number 15
_symmetry_cell_setting 'monoclinic'
loop_
_space_group_symop_operation_xyz
x,y,z
-x,y,1/2-z
-x,-y,-z
x,-y,1/2+z
1/2+x,1/2+y,z
1/2-x,1/2+y,1/2-z
1/2-x,1/2-y,-z
1/2+x,1/2-y,1/2+z
loop_
_atom_site_type_symbol
_atom_site_label
_atom_site_fract_x
_atom_site_fract_y
_atom_site_fract_z
Si Si1 0.420251 0.324688 0.563754
Si Si2 0.203389 0.122428 0.268416
Si Si3 0.149413 0.011086 0.847324
Si Si4 0.367997 0.183478 0.471296
Si Si5 0.427858 0.055766 0.912090
Si Si6 0.632748 0.531074 0.517296
Si Si7 0.364283 0.973217 0.731726
O O1 0.559310 0.336185 0.681975
O O2 0.443281 0.256749 0.521625
O O3 0.280535 0.319352 0.551668
O O4 0.396923 0.387746 0.495221
O O5 0.323452 0.173447 0.360498
O O6 0.268365 0.089004 0.220585
O O7 0.173113 0.062861 0.317450
O O8 0.269702 0.066379 0.876273
O O9 0.000000 0.043063 0.750000
O O10 0.147933 0.999997 0.938404
O O11 0.481215 0.125522 0.549699
O O12 0.417447 0.026387 0.821089
O O13 0.500000 0.000000 0.000000
O O14 0.500000 0.500000 0.500000
O O15 0.777268 0.517399 0.629515
O O16 0.500000 0.940434 0.750000
#
# Coordination Sequence:
#
# PCOD8151053 Si02
#       7
#     8   8   8   8   8   8   8
#     4  11  22  37  57  89 119 154 196 242 298 353
#     4  11  20  39  60  82 120 165 194 234 304 368
#     4  11  19  35  63  84 116 161 201 235 292 365
#     4  11  22  36  62  85 118 156 196 243 291 363
#     4  11  20  37  58  88 117 154 203 241 294 357
#     4  12  21  35  58  92 119 149 198 250 288 339
#     4  11  22  33  59  91 121 148 196 258 293 334
#
# _framework density 17.961486000000001
#
# number of rings (size 3 to 8) (size 9 to 14) (size 15 to 20)
#    0.000    0.857    7.143    3.000    0.000    1.143 
#    0.000    1.429    0.000    4.286    0.000    0.000 
#    0.000    0.000    0.000    0.000    0.000    0.000 
#
# Total GULP energy -347159.298797 kJ/mol
# GULP energy per Si atom -12398.546386 kJ/mol
# Density = 1.792060 g / cm^3
# Si number density = 17.961486 Si / 1000 Ang^3
#
#
#
# Elastic Constant Matrix: (Units=GPa)
#
#
# Indices 1 2 3 4 5 6 
#
# 1 108.8775 32.3642 46.1590 0.0000 1.9843 0.0000
# 2 32.3642 94.5413 48.3569 0.0000 2.4776 0.0000
# 3 46.1590 48.3569 147.3310 0.0000 3.0796 0.0000
# 4 0.0000 0.0000 0.0000 24.6372 0.0000 1.2754
# 5 1.9843 2.4776 3.0796 0.0000 33.9355 0.0000
# 6 0.0000 0.0000 0.0000 1.2754 0.0000 20.7469
#
#
#
# Elastic Compliance Matrix: (Units=1/GPa)
#
#
# Indices 1 2 3 4 5 6 
#
# 1 0.011033 -0.002410 -0.002661 0.000000 -0.000228 0.000000
# 2 -0.002410 0.013248 -0.003583 0.000000 -0.000501 0.000000
# 3 -0.002661 -0.003583 0.008805 0.000000 -0.000382 0.000000
# 4 0.000000 0.000000 0.000000 0.040719 0.000000 -0.002503
# 5 -0.000228 -0.000501 -0.000382 0.000000 0.029552 0.000000
# 6 0.000000 0.000000 0.000000 -0.002503 0.000000 0.048354
#
#
# Mechanical properties :
#
#
# Convention : Reuss Voigt Hill
#
# Bulk Modulus (GPa) = 63.37547 67.16777 65.27162
# Shear Modulus (GPa) = 28.68980 30.78859 29.73919
#
# Velocity S-wave (km/s) = 4.00095 4.14471 4.07347
# Velocity P-wave (km/s) = 7.53022 7.77055 7.65133
#
# Compressibility (1/GPa) = 0.01577898
#
# Stress axis : x y z
#
# Youngs Moduli (GPa) = 90.63476 75.48271 113.57137
#
# Poissons Ratio (x) = 0.18191 0.30221
# Poissons Ratio (y) = 0.21843 0.40690
# Poissons Ratio (z) = 0.24118 0.27044
#
# Static dielectric constant tensor:
#      x y z
#    x 3.456250 0.000000 0.534200 
#    y 0.000000 2.987760 0.000000 
#    z 0.534200 0.000000 3.421480 
# 
# 
# High freq. dielectric constant tensor:
#      x y z
#    x 1.699040 0.000000 0.009280 
#    y 0.000000 1.660350 0.000000 
#    z 0.009280 0.000000 1.719390 
# 
# From -- ./inp_files/199572.got.cif
#   From: 2010.06.25/outbox.cif.g09.slc.cpg/sg15_100_cif.got.tgz:199572.got - 2010.06.28 07:06:18.
