data_PCOD8151488
_publ_section_title
;
Structure prediction by ZEFSAII (Michael W. Deem and Ramdas Pophale) SiO2 
 PCOD8151488
Probable space group: C 2/C
;
_chemical_formula_sum "Si O2"
_cell_formula_units_Z 56
_cell_length_a 22.138669
_cell_length_b 14.144431
_cell_length_c 9.442089
_cell_angle_alpha 90.000000
_cell_angle_beta 119.574993
_cell_angle_gamma 90.000000
_cell_volume 2571.459902
_symmetry_space_group_name_H-M "C 2/C"
_symmetry_group_IT_number 15
_symmetry_cell_setting 'monoclinic'
loop_
_space_group_symop_operation_xyz
x,y,z
-x,y,1/2-z
-x,-y,-z
x,-y,1/2+z
1/2+x,1/2+y,z
1/2-x,1/2+y,1/2-z
1/2-x,1/2-y,-z
1/2+x,1/2-y,1/2+z
loop_
_atom_site_type_symbol
_atom_site_label
_atom_site_fract_x
_atom_site_fract_y
_atom_site_fract_z
Si Si1 0.005350 0.731186 0.921396
Si Si2 0.458470 0.435198 0.557533
Si Si3 0.266052 0.751500 0.684126
Si Si4 0.673152 0.053349 0.892060
Si Si5 0.149123 0.761297 0.759616
Si Si6 0.686799 0.595715 0.550756
Si Si7 0.620773 0.094366 0.129785
O O1 0.047624 0.826855 0.004413
O O2 0.000000 0.709618 0.750000
O O3 0.928176 0.748809 0.893091
O O4 0.043456 0.638977 0.030058
O O5 0.500000 0.437431 0.750000
O O6 0.500000 0.500000 0.500000
O O7 0.378584 0.470582 0.480041
O O8 0.250000 0.750000 0.500000
O O9 0.198797 0.792282 0.688715
O O10 0.329999 0.820270 0.774331
O O11 0.284583 0.650179 0.776422
O O12 0.671693 0.162873 0.852704
O O13 0.619614 0.986791 0.746652
O O14 0.753790 0.027316 0.948780
O O15 0.650444 0.040766 0.026803
O O16 0.154908 0.834671 0.894696
#
# Coordination Sequence:
#
# PCOD8151488 Si02
#       7
#     8   8   8   8   8   8   8
#     4  11  20  43  73  94 134 188 224 273 358 417
#     4  11  23  42  69 100 133 172 229 285 350 421
#     4  11  23  41  68  98 131 174 230 290 341 403
#     4  11  24  37  66  99 132 178 232 285 327 401
#     4  11  20  44  73  93 127 192 230 271 353 422
#     4  11  20  44  70  91 132 186 232 274 354 417
#     4  12  24  43  65 102 143 177 231 284 341 418
#
# _framework density 21.777512999999999
#
# number of rings (size 3 to 8) (size 9 to 14) (size 15 to 20)
#    0.000    0.857    8.571    0.857    4.000    2.857 
#    2.571    0.714    0.000    0.000    0.000    0.000 
#    0.000    0.000    0.000    0.000    0.000    0.000 
#
# Total GULP energy -347095.484721 kJ/mol
# GULP energy per Si atom -12396.267311 kJ/mol
# Density = 2.172795 g / cm^3
# Si number density = 21.777513 Si / 1000 Ang^3
#
#
#
# Elastic Constant Matrix: (Units=GPa)
#
#
# Indices 1 2 3 4 5 6 
#
# 1 106.8924 8.3254 44.0623 0.0000 17.7081 0.0000
# 2 8.3254 48.2551 31.0686 0.0000 -3.4651 0.0000
# 3 44.0623 31.0686 104.5852 0.0000 0.6802 0.0000
# 4 0.0000 0.0000 0.0000 21.9722 0.0000 8.4704
# 5 17.7081 -3.4651 0.6802 0.0000 35.0359 0.0000
# 6 0.0000 0.0000 0.0000 8.4704 0.0000 28.5774
#
#
#
# Elastic Compliance Matrix: (Units=1/GPa)
#
#
# Indices 1 2 3 4 5 6 
#
# 1 0.012588 0.000958 -0.005548 0.000000 -0.006160 0.000000
# 2 0.000958 0.025952 -0.008127 0.000000 0.002240 0.000000
# 3 -0.005548 -0.008127 0.014302 0.000000 0.001723 0.000000
# 4 0.000000 0.000000 0.000000 0.051383 0.000000 -0.015230
# 5 -0.006160 0.002240 0.001723 0.000000 0.031844 0.000000
# 6 0.000000 0.000000 0.000000 -0.015230 0.000000 0.039507
#
#
# Mechanical properties :
#
#
# Convention : Reuss Voigt Hill
#
# Bulk Modulus (GPa) = 36.48736 47.40504 41.94620
# Shear Modulus (GPa) = 23.79298 28.86885 26.33092
#
# Velocity S-wave (km/s) = 3.30896 3.64487 3.48097
# Velocity P-wave (km/s) = 5.60267 6.28717 5.95476
#
# Compressibility (1/GPa) = 0.02740675
#
# Stress axis : x y z
#
# Youngs Moduli (GPa) = 79.44099 38.53328 69.91979
#
# Poissons Ratio (x) = -0.03691 0.38790
# Poissons Ratio (y) = -0.07609 0.56827
# Poissons Ratio (z) = 0.44073 0.31318
#
# Static dielectric constant tensor:
#      x y z
#    x 4.716990 0.000000 0.325580 
#    y 0.000000 3.894730 0.000000 
#    z 0.325580 0.000000 4.084370 
# 
# 
# High freq. dielectric constant tensor:
#      x y z
#    x 1.872080 0.000000 0.013040 
#    y 0.000000 1.835980 0.000000 
#    z 0.013040 0.000000 1.843130 
# 
# From -- ./inp_files/61990.got.cif
#   From: 2010.06.25/outbox.cif.g09.slc.cpg/sg15_31_cif.got.tgz:61990.got - 2010.06.28 07:06:18.
