data_PCOD8151834
_publ_section_title
;
Structure prediction by ZEFSAII (Michael W. Deem and Ramdas Pophale) SiO2 
 PCOD8151834
Probable space group: C 2/C
;
_chemical_formula_sum "Si O2"
_cell_formula_units_Z 40
_cell_length_a 13.718534
_cell_length_b 15.136554
_cell_length_c 9.338265
_cell_angle_alpha 90.000000
_cell_angle_beta 68.640297
_cell_angle_gamma 90.000000
_cell_volume 1805.910441
_symmetry_space_group_name_H-M "C 2/C"
_symmetry_group_IT_number 15
_symmetry_cell_setting 'monoclinic'
loop_
_space_group_symop_operation_xyz
x,y,z
-x,y,1/2-z
-x,-y,-z
x,-y,1/2+z
1/2+x,1/2+y,z
1/2-x,1/2+y,1/2-z
1/2-x,1/2-y,-z
1/2+x,1/2-y,1/2+z
loop_
_atom_site_type_symbol
_atom_site_label
_atom_site_fract_x
_atom_site_fract_y
_atom_site_fract_z
Si Si1 0.740688 0.169444 0.895391
Si Si2 0.697435 0.781259 0.881822
Si Si3 0.408934 0.461433 0.395446
Si Si4 0.887535 0.884796 0.706797
Si Si5 0.023193 0.693234 0.890710
O O1 0.801605 0.195576 0.718851
O O2 0.796128 0.081952 0.923821
O O3 0.750000 0.250000 0.000000
O O4 0.881026 0.351796 0.075356
O O5 0.764807 0.859384 0.770991
O O6 0.750000 0.750000 0.000000
O O7 0.579900 0.816140 0.958395
O O8 0.500000 0.414052 0.250000
O O9 0.421928 0.452031 0.560782
O O10 0.408664 0.565078 0.347609
O O11 0.952761 0.795537 0.655563
O O12 0.000000 0.646317 0.750000
#
# Coordination Sequence:
#
# PCOD8151834 Si02
#       5
#     8   8   8   8   8
#     4  11  23  41  62  97 132 170 232 267 323 394
#     4  11  22  40  69  92 133 177 224 273 315 399
#     4  12  25  42  66 100 141 171 213 283 338 394
#     4  11  25  42  65 104 133 172 222 264 347 388
#     4  11  21  41  67  96 130 173 225 266 322 395
#
# _framework density 22.149493
#
# number of rings (size 3 to 8) (size 9 to 14) (size 15 to 20)
#    0.000    0.800    8.000    2.400    2.800    0.000 
#    0.000    1.000    0.000    0.000    0.000    0.000 
#    0.000    0.000    0.000    0.000    0.000    0.000 
#
# Total GULP energy -247892.706243 kJ/mol
# GULP energy per Si atom -12394.635312 kJ/mol
# Density = 2.209908 g / cm^3
# Si number density = 22.149493 Si / 1000 Ang^3
#
#
#
# Elastic Constant Matrix: (Units=GPa)
#
#
# Indices 1 2 3 4 5 6 
#
# 1 128.7955 -9.6861 19.8504 0.0000 -27.0766 0.0000
# 2 -9.6861 44.8332 -5.0985 0.0000 -6.2793 0.0000
# 3 19.8504 -5.0985 106.1574 0.0000 -9.9727 0.0000
# 4 0.0000 0.0000 0.0000 32.4397 0.0000 3.0691
# 5 -27.0766 -6.2793 -9.9727 0.0000 52.8656 0.0000
# 6 0.0000 0.0000 0.0000 3.0691 0.0000 24.8700
#
#
#
# Elastic Compliance Matrix: (Units=1/GPa)
#
#
# Indices 1 2 3 4 5 6 
#
# 1 0.009129 0.002509 -0.001139 0.000000 0.004759 0.000000
# 2 0.002509 0.023568 0.001065 0.000000 0.004286 0.000000
# 3 -0.001139 0.001065 0.009815 0.000000 0.001394 0.000000
# 4 0.000000 0.000000 0.000000 0.031191 0.000000 -0.003849
# 5 0.004759 0.004286 0.001394 0.000000 0.022125 0.000000
# 6 0.000000 0.000000 0.000000 -0.003849 0.000000 0.040684
#
#
# Mechanical properties :
#
#
# Convention : Reuss Voigt Hill
#
# Bulk Modulus (GPa) = 21.10473 32.21307 26.65890
# Shear Modulus (GPa) = 33.91286 40.34975 37.13131
#
# Velocity S-wave (km/s) = 3.91716 4.27277 4.09882
# Velocity P-wave (km/s) = 5.47794 6.23836 5.87048
#
# Compressibility (1/GPa) = 0.04738274
#
# Stress axis : x y z
#
# Youngs Moduli (GPa) = 109.54100 42.42976 101.88265
#
# Poissons Ratio (x) = -0.10647 0.11609
# Poissons Ratio (y) = -0.27486 -0.10854
# Poissons Ratio (z) = 0.12482 -0.04520
#
# Static dielectric constant tensor:
#      x y z
#    x 4.519160 0.000000 -0.128660 
#    y 0.000000 3.589110 0.000000 
#    z -0.128660 0.000000 3.427960 
# 
# 
# High freq. dielectric constant tensor:
#      x y z
#    x 1.893920 0.000000 0.003280 
#    y 0.000000 1.821290 0.000000 
#    z 0.003280 0.000000 1.890310 
# 
# From -- ./inp_files/38584.got.cif
#   From: 2010.06.25/outbox.cif.g09.slc.cpg/sg15_20_cif.got.tgz:38584.got - 2010.06.28 07:06:18.
