data_PCOD8151636
_publ_section_title
;
Structure prediction by ZEFSAII (Michael W. Deem and Ramdas Pophale) SiO2 
 PCOD8151636
Probable space group: C 2/C
;
_chemical_formula_sum "Si O2"
_cell_formula_units_Z 48
_cell_length_a 11.506589
_cell_length_b 9.196706
_cell_length_c 25.017265
_cell_angle_alpha 90.000000
_cell_angle_beta 56.658481
_cell_angle_gamma 90.000000
_cell_volume 2211.658337
_symmetry_space_group_name_H-M "C 2/C"
_symmetry_group_IT_number 15
_symmetry_cell_setting 'monoclinic'
loop_
_space_group_symop_operation_xyz
x,y,z
-x,y,1/2-z
-x,-y,-z
x,-y,1/2+z
1/2+x,1/2+y,z
1/2-x,1/2+y,1/2-z
1/2-x,1/2-y,-z
1/2+x,1/2-y,1/2+z
loop_
_atom_site_type_symbol
_atom_site_label
_atom_site_fract_x
_atom_site_fract_y
_atom_site_fract_z
Si Si1 0.222697 0.815151 0.915858
Si Si2 0.327916 0.219197 0.128639
Si Si3 0.405313 0.928078 0.321789
Si Si4 0.403150 0.367911 0.447048
Si Si5 0.063446 0.421945 0.385375
Si Si6 0.197909 0.614640 0.481458
O O1 0.330125 0.763140 0.933863
O O2 0.166190 0.695602 0.887583
O O3 0.296527 0.947018 0.866294
O O4 0.099015 0.866912 0.986830
O O5 0.177459 0.286129 0.178619
O O6 0.436722 0.351033 0.111514
O O7 0.352242 0.163504 0.062901
O O8 0.355258 0.069244 0.153854
O O9 0.500000 0.989220 0.250000
O O10 0.498883 0.864102 0.346364
O O11 0.332495 0.512452 0.442325
O O12 0.933841 0.462146 0.456891
O O13 0.250000 0.750000 0.500000
#
# Coordination Sequence:
#
# PCOD8151636 Si02
#       6
#     8   8   8   8   8   8
#     4  11  22  41  71 100 135 172 215 276 343 400
#     4  12  24  41  69 100 139 172 213 280 343 398
#     4  12  29  48  65  93 133 185 237 271 320 404
#     4  11  21  37  70 108 135 167 211 276 352 402
#     4  12  23  43  68 100 136 173 216 281 339 390
#     4  12  22  37  66 110 142 168 210 273 348 410
#
# _framework density 21.703171999999999
#
# number of rings (size 3 to 8) (size 9 to 14) (size 15 to 20)
#    0.000    0.333    8.333    1.500    2.333    2.667 
#    0.000    0.833    0.000    0.000    0.000    0.000 
#    0.000    0.000    0.000    0.000    0.000    0.000 
#
# Total GULP energy -297362.863179 kJ/mol
# GULP energy per Si atom -12390.119299 kJ/mol
# Density = 2.165377 g / cm^3
# Si number density = 21.703172 Si / 1000 Ang^3
#
#
#
# Elastic Constant Matrix: (Units=GPa)
#
#
# Indices 1 2 3 4 5 6 
#
# 1 103.4702 45.2339 32.7355 0.0000 -1.8069 0.0000
# 2 45.2339 92.7261 5.3663 0.0000 -11.2834 0.0000
# 3 32.7355 5.3663 52.5096 0.0000 -2.1834 0.0000
# 4 0.0000 0.0000 0.0000 17.0914 0.0000 0.5489
# 5 -1.8069 -11.2834 -2.1834 0.0000 16.1746 0.0000
# 6 0.0000 0.0000 0.0000 0.5489 0.0000 34.4384
#
#
#
# Elastic Compliance Matrix: (Units=1/GPa)
#
#
# Indices 1 2 3 4 5 6 
#
# 1 0.015973 -0.007854 -0.009362 0.000000 -0.004958 0.000000
# 2 -0.007854 0.015686 0.003733 0.000000 0.010569 0.000000
# 3 -0.009362 0.003733 0.024702 0.000000 0.004893 0.000000
# 4 0.000000 0.000000 0.000000 0.058539 0.000000 -0.000933
# 5 -0.004958 0.010569 0.004893 0.000000 0.069305 0.000000
# 6 0.000000 0.000000 0.000000 -0.000933 0.000000 0.029052
#
#
# Mechanical properties :
#
#
# Convention : Reuss Voigt Hill
#
# Bulk Modulus (GPa) = 34.01828 46.15301 40.08565
# Shear Modulus (GPa) = 19.99832 24.56556 22.28194
#
# Velocity S-wave (km/s) = 3.03883 3.36800 3.20764
# Velocity P-wave (km/s) = 5.29349 6.03625 5.67703
#
# Compressibility (1/GPa) = 0.02939596
#
# Stress axis : x y z
#
# Youngs Moduli (GPa) = 62.60502 63.75232 40.48208
#
# Poissons Ratio (x) = 0.50069 0.37897
# Poissons Ratio (y) = 0.49168 -0.15110
# Poissons Ratio (z) = 0.58608 -0.23796
#
# Static dielectric constant tensor:
#      x y z
#    x 4.192110 0.000000 0.091880 
#    y 0.000000 5.253380 0.000000 
#    z 0.091880 0.000000 4.344890 
# 
# 
# High freq. dielectric constant tensor:
#      x y z
#    x 1.876710 0.000000 0.013570 
#    y 0.000000 1.857560 0.000000 
#    z 0.013570 0.000000 1.801350 
# 
# From -- ./inp_files/268039.got.cif
#   From: 2010.06.25/outbox.cif.g09.slc.cpg/sg15_135_cif.got.tgz:268039.got - 2010.06.28 07:06:18.
