data_PCOD8151033
_publ_section_title
;
Structure prediction by ZEFSAII (Michael W. Deem and Ramdas Pophale) SiO2 
 PCOD8151033
Probable space group: C 2/C
;
_chemical_formula_sum "Si O2"
_cell_formula_units_Z 56
_cell_length_a 4.950308
_cell_length_b 24.330820
_cell_length_c 24.300730
_cell_angle_alpha 90.000000
_cell_angle_beta 80.043888
_cell_angle_gamma 90.000000
_cell_volume 2882.824951
_symmetry_space_group_name_H-M "C 2/C"
_symmetry_group_IT_number 15
_symmetry_cell_setting 'monoclinic'
loop_
_space_group_symop_operation_xyz
x,y,z
-x,y,1/2-z
-x,-y,-z
x,-y,1/2+z
1/2+x,1/2+y,z
1/2-x,1/2+y,1/2-z
1/2-x,1/2-y,-z
1/2+x,1/2-y,1/2+z
loop_
_atom_site_type_symbol
_atom_site_label
_atom_site_fract_x
_atom_site_fract_y
_atom_site_fract_z
Si Si1 0.470552 0.497528 0.389856
Si Si2 0.705346 0.291319 0.079739
Si Si3 0.229587 0.598825 0.439643
Si Si4 0.405952 0.951115 0.445056
Si Si5 0.332969 0.152405 0.877843
Si Si6 0.730821 0.329598 0.956704
Si Si7 0.277313 0.572359 0.712950
O O1 0.366205 0.560746 0.387482
O O2 0.706232 0.498823 0.428853
O O3 0.598149 0.476597 0.328334
O O4 0.219489 0.457494 0.414938
O O5 0.386773 0.299752 0.103496
O O6 0.771856 0.226982 0.076670
O O7 0.871619 0.319910 0.123428
O O8 0.791033 0.319252 0.018949
O O9 0.118855 0.553547 0.488095
O O10 0.440310 0.641555 0.458675
O O11 0.973845 0.632301 0.424356
O O12 0.283411 0.895526 0.423536
O O13 0.304855 0.126936 0.818136
O O14 0.500000 0.590058 0.750000
O O15 0.000000 0.548866 0.750000
#
# Coordination Sequence:
#
# PCOD8151033 Si02
#       7
#     8   8   8   8   8   8   8
#     4  11  23  35  55  79 114 149 187 231 287 331
#     4  11  20  36  52  83 113 159 188 226 271 318
#     4  12  21  35  51  82 116 161 190 227 259 335
#     4  11  19  34  51  81 114 153 187 222 264 342
#     4  11  20  35  60  78 115 147 187 229 291 336
#     4  11  22  33  54  79 121 156 197 223 253 327
#     4  11  23  40  60  85 109 139 187 244 295 349
#
# _framework density 19.425388999999999
#
# number of rings (size 3 to 8) (size 9 to 14) (size 15 to 20)
#    0.000    0.857    2.857    7.714    0.000    2.286 
#    0.000    0.000    0.000    0.000    0.000   15.000 
#    0.000    0.000    0.000    0.000    0.000    0.000 
#
# Total GULP energy -347304.019027 kJ/mol
# GULP energy per Si atom -12403.714965 kJ/mol
# Density = 1.938118 g / cm^3
# Si number density = 19.425389 Si / 1000 Ang^3
#
#
#
# Elastic Constant Matrix: (Units=GPa)
#
#
# Indices 1 2 3 4 5 6 
#
# 1 99.9633 12.5879 22.9176 0.0000 -10.6668 0.0000
# 2 12.5879 75.7230 27.8976 0.0000 -11.5240 0.0000
# 3 22.9176 27.8976 74.5479 0.0000 -4.0547 0.0000
# 4 0.0000 0.0000 0.0000 9.6541 0.0000 -0.9452
# 5 -10.6668 -11.5240 -4.0547 0.0000 34.5656 0.0000
# 6 0.0000 0.0000 0.0000 -0.9452 0.0000 28.3449
#
#
#
# Elastic Compliance Matrix: (Units=1/GPa)
#
#
# Indices 1 2 3 4 5 6 
#
# 1 0.011073 -0.000225 -0.003158 0.000000 0.002972 0.000000
# 2 -0.000225 0.016039 -0.005682 0.000000 0.004611 0.000000
# 3 -0.003158 -0.005682 0.016460 0.000000 -0.000938 0.000000
# 4 0.000000 0.000000 0.000000 0.103922 0.000000 0.003466
# 5 0.002972 0.004611 -0.000938 0.000000 0.031275 0.000000
# 6 0.000000 0.000000 0.000000 0.003466 0.000000 0.035395
#
#
# Mechanical properties :
#
#
# Convention : Reuss Voigt Hill
#
# Bulk Modulus (GPa) = 39.30576 41.89340 40.59958
# Shear Modulus (GPa) = 20.76622 26.96832 23.86727
#
# Velocity S-wave (km/s) = 3.27314 3.73004 3.50903
# Velocity P-wave (km/s) = 5.87901 6.33751 6.11256
#
# Compressibility (1/GPa) = 0.02544156
#
# Stress axis : x y z
#
# Youngs Moduli (GPa) = 90.30833 62.34973 60.75158
#
# Poissons Ratio (x) = 0.01402 0.19187
# Poissons Ratio (y) = 0.02031 0.34519
# Poissons Ratio (z) = 0.28522 0.35428
#
# Static dielectric constant tensor:
#      x y z
#    x 3.723370 0.000000 0.022880 
#    y 0.000000 3.502890 0.000000 
#    z 0.022880 0.000000 3.262450 
# 
# 
# High freq. dielectric constant tensor:
#      x y z
#    x 1.785780 0.000000 -0.001170 
#    y 0.000000 1.750860 0.000000 
#    z -0.001170 0.000000 1.707500 
# 
# From -- ./inp_files/286227.got.cif
#   From: 2010.06.25/outbox.cif.g09.slc.cpg/sg15_144_cif.got.tgz:286227.got - 2010.06.28 07:06:18.
