data_PCOD8151535
_publ_section_title
;
Structure prediction by ZEFSAII (Michael W. Deem and Ramdas Pophale) SiO2 
 PCOD8151535
Probable space group: C 2/C
;
_chemical_formula_sum "Si O2"
_cell_formula_units_Z 48
_cell_length_a 28.448488
_cell_length_b 8.507331
_cell_length_c 15.610899
_cell_angle_alpha 90.000000
_cell_angle_beta 141.491534
_cell_angle_gamma 90.000000
_cell_volume 2352.397248
_symmetry_space_group_name_H-M "C 2/C"
_symmetry_group_IT_number 15
_symmetry_cell_setting 'monoclinic'
loop_
_space_group_symop_operation_xyz
x,y,z
-x,y,1/2-z
-x,-y,-z
x,-y,1/2+z
1/2+x,1/2+y,z
1/2-x,1/2+y,1/2-z
1/2-x,1/2-y,-z
1/2+x,1/2-y,1/2+z
loop_
_atom_site_type_symbol
_atom_site_label
_atom_site_fract_x
_atom_site_fract_y
_atom_site_fract_z
Si Si1 0.085660 0.633644 0.871415
Si Si2 0.833484 0.683397 0.009819
Si Si3 0.814744 0.846499 0.817274
Si Si4 0.678739 0.820015 0.348337
Si Si5 0.847262 0.208398 0.882535
Si Si6 0.171931 0.683946 0.314502
O O1 0.144142 0.495296 0.978386
O O2 0.106098 0.698151 0.806404
O O3 0.000000 0.572481 0.750000
O O4 0.094768 0.769845 0.956270
O O5 0.869351 0.730939 0.154364
O O6 0.860441 0.782543 0.966105
O O7 0.743781 0.702154 0.898595
O O8 0.843901 0.772548 0.770048
O O9 0.727362 0.805757 0.700665
O O10 0.826895 0.030168 0.836041
O O11 0.750000 0.750000 0.500000
O O12 0.697110 0.001486 0.352445
O O13 0.882485 0.282667 0.844671
#
# Coordination Sequence:
#
# PCOD8151535 Si02
#       6
#     8   8   8   8   8   8
#     4  11  24  42  60  87 126 166 200 245 310 373
#     4   9  19  36  59  85 120 152 199 247 299 351
#     4  11  21  34  61  93 119 153 206 260 302 350
#     4  11  22  36  62  94 119 157 206 255 298 353
#     4  11  21  35  60  90 125 159 198 256 305 357
#     4   9  19  34  60  90 117 147 200 258 298 345
#
# _framework density 20.404717000000002
#
# number of rings (size 3 to 8) (size 9 to 14) (size 15 to 20)
#    0.000    1.667    1.667    5.000    7.000    0.000 
#    0.000    9.167    0.000    0.000    0.000    0.000 
#    0.000    0.000    0.000    0.000    0.000    0.000 
#
# Total GULP energy -297338.785118 kJ/mol
# GULP energy per Si atom -12389.116047 kJ/mol
# Density = 2.035827 g / cm^3
# Si number density = 20.404717 Si / 1000 Ang^3
#
#
#
# Elastic Constant Matrix: (Units=GPa)
#
#
# Indices 1 2 3 4 5 6 
#
# 1 118.4555 49.3149 67.5797 0.0000 -42.1623 0.0000
# 2 49.3149 128.5633 62.5138 0.0000 -20.8618 0.0000
# 3 67.5797 62.5138 80.0156 0.0000 -39.1645 0.0000
# 4 0.0000 0.0000 0.0000 476.1344 0.0000 76.7160
# 5 -42.1623 -20.8618 -39.1645 0.0000 50.4876 0.0000
# 6 0.0000 0.0000 0.0000 76.7160 0.0000 43.5246
#
#
#
# Elastic Compliance Matrix: (Units=1/GPa)
#
#
# Indices 1 2 3 4 5 6 
#
# 1 0.017025 0.000146 -0.012098 0.000000 0.004893 0.000000
# 2 0.000146 0.013040 -0.012274 0.000000 -0.004011 0.000000
# 3 -0.012098 -0.012274 0.040105 0.000000 0.015935 0.000000
# 4 0.000000 0.000000 0.000000 0.002933 0.000000 -0.005170
# 5 0.004893 -0.004011 0.015935 0.000000 0.034597 0.000000
# 6 0.000000 0.000000 0.000000 -0.005170 0.000000 0.032088
#
#
# Mechanical properties :
#
#
# Convention : Reuss Voigt Hill
#
# Bulk Modulus (GPa) = 46.04784 76.20568 61.12676
# Shear Modulus (GPa) = 25.57817 123.87105 74.72461
#
# Velocity S-wave (km/s) = 3.54438 7.79993 6.05811
# Velocity P-wave (km/s) = 6.27427 10.88791 8.88575
#
# Compressibility (1/GPa) = 0.02171655
#
# Stress axis : x y z
#
# Youngs Moduli (GPa) = 58.73804 76.68886 24.93470
#
# Poissons Ratio (x) = -0.01122 0.30166
# Poissons Ratio (y) = -0.00859 0.30606
# Poissons Ratio (z) = 0.71062 0.94131
#
# Static dielectric constant tensor:
#      x y z
#    x 4.163020 0.000000 -2.225760 
#    y 0.000000 3.655300 0.000000 
#    z -2.225760 0.000000 18.330490 
# 
# 
# High freq. dielectric constant tensor:
#      x y z
#    x 1.782850 0.000000 -0.064500 
#    y 0.000000 1.798530 0.000000 
#    z -0.064500 0.000000 1.776900 
# 
# From -- ./inp_files/180725.got.cif
#   From: 2010.06.25/outbox.cif.g09.slc.cpg/sg15_91_cif.got.tgz:180725.got - 2010.06.28 07:06:18.
