data_PCOD8151851
_publ_section_title
;
Structure prediction by ZEFSAII (Michael W. Deem and Ramdas Pophale) SiO2 
 PCOD8151851
Probable space group: C 2/C
;
_chemical_formula_sum "Si O2"
_cell_formula_units_Z 56
_cell_length_a 9.302648
_cell_length_b 24.476120
_cell_length_c 13.171612
_cell_angle_alpha 90.000000
_cell_angle_beta 56.538295
_cell_angle_gamma 90.000000
_cell_volume 2501.996326
_symmetry_space_group_name_H-M "C 2/C"
_symmetry_group_IT_number 15
_symmetry_cell_setting 'monoclinic'
loop_
_space_group_symop_operation_xyz
x,y,z
-x,y,1/2-z
-x,-y,-z
x,-y,1/2+z
1/2+x,1/2+y,z
1/2-x,1/2+y,1/2-z
1/2-x,1/2-y,-z
1/2+x,1/2-y,1/2+z
loop_
_atom_site_type_symbol
_atom_site_label
_atom_site_fract_x
_atom_site_fract_y
_atom_site_fract_z
Si Si1 0.708383 0.684760 0.019317
Si Si2 0.500000 0.739963 0.750000
Si Si3 0.579835 0.831449 0.863644
Si Si4 0.037137 0.061781 0.588324
Si Si5 0.749132 0.148679 0.892295
Si Si6 0.819332 0.390766 0.295977
Si Si7 0.635208 0.612261 0.346176
Si Si8 0.500000 0.531657 0.250000
O O1 0.794838 0.664623 0.088845
O O2 0.508991 0.661703 0.098119
O O3 0.750000 0.750000 0.000000
O O4 0.791451 0.657697 0.887750
O O5 0.553479 0.771005 0.831472
O O6 0.332480 0.707757 0.852217
O O7 0.673896 0.862110 0.733101
O O8 0.393396 0.855787 0.963918
O O9 0.093543 0.108650 0.643749
O O10 0.127830 0.071652 0.445537
O O11 0.832048 0.064572 0.647483
O O12 0.085272 0.004909 0.626075
O O13 0.658000 0.136037 0.822310
O O14 0.000000 0.421013 0.250000
O O15 0.635104 0.572270 0.248928
#
# Coordination Sequence:
#
# PCOD8151851 Si02
#       8
#     8   4   8   8   8   8   8   4
#     4  11  24  39  67  96 141 190 230 287 361 420
#     4  12  25  40  66 100 144 192 241 280 354 436
#     4  12  25  42  65  98 147 188 229 297 355 416
#     4  11  24  45  78  99 137 193 230 295 368 417
#     4  12  23  45  69 105 138 187 241 291 351 433
#     4  11  21  41  69 102 135 175 247 296 340 430
#     4  11  26  46  68 109 146 178 246 296 354 438
#     4  12  21  48  76 104 138 192 233 300 376 416
#
# _framework density 22.382128000000002
#
# number of rings (size 3 to 8) (size 9 to 14) (size 15 to 20)
#    0.000    0.571    5.714    2.571    4.000    1.143 
#    0.000    0.714   11.000    0.000    0.000    0.000 
#    0.000    0.000    0.000    0.000    0.000    0.000 
#
# Total GULP energy -346893.887697 kJ/mol
# GULP energy per Si atom -12389.067418 kJ/mol
# Density = 2.233119 g / cm^3
# Si number density = 22.382128 Si / 1000 Ang^3
#
#
#
# Elastic Constant Matrix: (Units=GPa)
#
#
# Indices 1 2 3 4 5 6 
#
# 1 99.7871 19.2095 53.8251 0.0000 -1.1083 0.0000
# 2 19.2095 79.4478 36.3123 0.0000 5.1858 0.0000
# 3 53.8251 36.3123 142.0826 0.0000 -9.9804 0.0000
# 4 0.0000 0.0000 0.0000 47.7963 0.0000 26.2749
# 5 -1.1083 5.1858 -9.9804 0.0000 43.2211 0.0000
# 6 0.0000 0.0000 0.0000 26.2749 0.0000 22.7120
#
#
#
# Elastic Compliance Matrix: (Units=1/GPa)
#
#
# Indices 1 2 3 4 5 6 
#
# 1 0.012679 -0.000916 -0.004613 0.000000 -0.000630 0.000000
# 2 -0.000916 0.014610 -0.003569 0.000000 -0.002601 0.000000
# 3 -0.004613 -0.003569 0.009880 0.000000 0.002591 0.000000
# 4 0.000000 0.000000 0.000000 0.057472 0.000000 -0.066488
# 5 -0.000630 -0.002601 0.002591 0.000000 0.024031 0.000000
# 6 0.000000 0.000000 0.000000 -0.066488 0.000000 0.120948
#
#
# Mechanical properties :
#
#
# Convention : Reuss Voigt Hill
#
# Bulk Modulus (GPa) = 52.71150 60.00124 56.35637
# Shear Modulus (GPa) = 18.92926 36.87726 27.90326
#
# Velocity S-wave (km/s) = 2.91130 4.06349 3.53466
# Velocity P-wave (km/s) = 5.90785 6.99155 6.47242
#
# Compressibility (1/GPa) = 0.01897119
#
# Stress axis : x y z
#
# Youngs Moduli (GPa) = 78.86977 68.44837 101.21303
#
# Poissons Ratio (x) = 0.06269 0.46694
# Poissons Ratio (y) = 0.07224 0.36128
# Poissons Ratio (z) = 0.36386 0.24433
#
# Static dielectric constant tensor:
#      x y z
#    x 4.247340 0.000000 0.224560 
#    y 0.000000 3.879310 0.000000 
#    z 0.224560 0.000000 4.196020 
# 
# 
# High freq. dielectric constant tensor:
#      x y z
#    x 1.891550 0.000000 0.019930 
#    y 0.000000 1.860020 0.000000 
#    z 0.019930 0.000000 1.899150 
# 
# From -- ./inp_files/137746.got.cif
#   From: 2010.06.25/outbox.cif.g09.slc.cpg/sg15_69_cif.got.tgz:137746.got - 2010.06.28 07:06:18.
