data_PCOD8151306
_publ_section_title
;
Structure prediction by ZEFSAII (Michael W. Deem and Ramdas Pophale) SiO2 
 PCOD8151306
Probable space group: C 2/C
;
_chemical_formula_sum "Si O2"
_cell_formula_units_Z 64
_cell_length_a 26.972153
_cell_length_b 9.535402
_cell_length_c 17.342703
_cell_angle_alpha 90.000000
_cell_angle_beta 137.215572
_cell_angle_gamma 90.000000
_cell_volume 3029.673676
_symmetry_space_group_name_H-M "C 2/C"
_symmetry_group_IT_number 15
_symmetry_cell_setting 'monoclinic'
loop_
_space_group_symop_operation_xyz
x,y,z
-x,y,1/2-z
-x,-y,-z
x,-y,1/2+z
1/2+x,1/2+y,z
1/2-x,1/2+y,1/2-z
1/2-x,1/2-y,-z
1/2+x,1/2-y,1/2+z
loop_
_atom_site_type_symbol
_atom_site_label
_atom_site_fract_x
_atom_site_fract_y
_atom_site_fract_z
Si Si1 0.310930 0.116276 0.478385
Si Si2 0.654419 0.216508 0.250576
Si Si3 0.568913 0.757332 0.273738
Si Si4 0.340515 0.488360 0.143162
Si Si5 0.935985 0.460734 0.369772
Si Si6 0.818693 0.888281 0.950555
Si Si7 0.340233 0.882560 0.398106
Si Si8 0.806653 0.839240 0.350330
O O1 0.365993 0.164537 0.607315
O O2 0.282198 0.250178 0.397031
O O3 0.241708 0.042897 0.438171
O O4 0.354635 0.013291 0.470817
O O5 0.641023 0.360001 0.280340
O O6 0.732843 0.145820 0.356669
O O7 0.638985 0.247998 0.141489
O O8 0.594491 0.101048 0.206447
O O9 0.500000 0.728479 0.250000
O O10 0.600095 0.610735 0.276594
O O11 0.541354 0.851646 0.170830
O O12 0.348821 0.429067 0.067402
O O13 0.875126 0.391166 0.354091
O O14 0.000000 0.500000 0.500000
O O15 0.865077 0.756541 0.972138
O O16 0.838291 0.013750 0.914489
O O17 0.254881 0.872088 0.283126
#
# Coordination Sequence:
#
# PCOD8151306 Si02
#       8
#     8   8   8   8   8   8   8   8
#     4  12  22  42  71 103 136 182 225 287 352 408
#     4  11  24  41  67 106 136 169 227 290 338 410
#     4  12  29  48  68  96 143 187 236 283 345 419
#     4  12  25  44  69 103 137 179 229 288 351 408
#     4  12  26  48  70  96 133 184 232 276 341 419
#     4  11  22  38  66 101 142 168 215 288 352 398
#     4  11  22  39  66 101 137 167 226 280 345 405
#     4  11  20  38  66  99 140 168 215 284 349 398
#
# _framework density 21.124389000000001
#
# number of rings (size 3 to 8) (size 9 to 14) (size 15 to 20)
#    0.000    0.500    6.250    3.750    3.500    0.000 
#    2.250    0.625    0.000    0.000    0.000    0.000 
#    0.000    0.000    0.000    0.000    0.000    0.000 
#
# Total GULP energy -396776.670215 kJ/mol
# GULP energy per Si atom -12399.270944 kJ/mol
# Density = 2.107631 g / cm^3
# Si number density = 21.124389 Si / 1000 Ang^3
#
#
#
# Elastic Constant Matrix: (Units=GPa)
#
#
# Indices 1 2 3 4 5 6 
#
# 1 74.0539 36.6519 18.8023 0.0000 -8.9028 0.0000
# 2 36.6519 137.5742 39.3342 0.0000 -10.0204 0.0000
# 3 18.8023 39.3342 84.9917 0.0000 -16.0553 0.0000
# 4 0.0000 0.0000 0.0000 33.4278 0.0000 -21.7132
# 5 -8.9028 -10.0204 -16.0553 0.0000 32.7217 0.0000
# 6 0.0000 0.0000 0.0000 -21.7132 0.0000 35.7841
#
#
#
# Elastic Compliance Matrix: (Units=1/GPa)
#
#
# Indices 1 2 3 4 5 6 
#
# 1 0.015977 -0.003685 -0.001346 0.000000 0.002558 0.000000
# 2 -0.003685 0.009243 -0.003436 0.000000 0.000142 0.000000
# 3 -0.001346 -0.003436 0.014753 0.000000 0.005821 0.000000
# 4 0.000000 0.000000 0.000000 0.049376 0.000000 0.029961
# 5 0.002558 0.000142 0.005821 0.000000 0.034156 0.000000
# 6 0.000000 0.000000 0.000000 0.029961 0.000000 0.046125
#
#
# Mechanical properties :
#
#
# Convention : Reuss Voigt Hill
#
# Bulk Modulus (GPa) = 43.40302 54.02181 48.71242
# Shear Modulus (GPa) = 25.74075 33.84215 29.79145
#
# Velocity S-wave (km/s) = 3.49453 4.00689 3.75945
# Velocity P-wave (km/s) = 6.07235 6.85825 6.47723
#
# Compressibility (1/GPa) = 0.02303987
#
# Stress axis : x y z
#
# Youngs Moduli (GPa) = 62.59025 108.18638 67.78245
#
# Poissons Ratio (x) = 0.39871 0.09121
# Poissons Ratio (y) = 0.23067 0.23288
# Poissons Ratio (z) = 0.08422 0.37169
#
# Static dielectric constant tensor:
#      x y z
#    x 2.722430 0.000000 -0.125700 
#    y 0.000000 4.170110 0.000000 
#    z -0.125700 0.000000 3.651390 
# 
# 
# High freq. dielectric constant tensor:
#      x y z
#    x 1.817640 0.000000 -0.030640 
#    y 0.000000 1.851920 0.000000 
#    z -0.030640 0.000000 1.811280 
# 
# From -- ./inp_files/224620.got.cif
#   From: 2010.06.25/outbox.cif.g09.slc.cpg/sg15_113_cif.got.tgz:224620.got - 2010.06.28 07:06:18.
