data_PCOD8151125
_publ_section_title
;
Structure prediction by ZEFSAII (Michael W. Deem and Ramdas Pophale) SiO2 
 PCOD8151125
Probable space group: C 2/C
;
_chemical_formula_sum "Si O2"
_cell_formula_units_Z 60
_cell_length_a 29.131472
_cell_length_b 18.005146
_cell_length_c 12.586730
_cell_angle_alpha 90.000000
_cell_angle_beta 27.134176
_cell_angle_gamma 90.000000
_cell_volume 3010.988137
_symmetry_space_group_name_H-M "C 2/C"
_symmetry_group_IT_number 15
_symmetry_cell_setting 'monoclinic'
loop_
_space_group_symop_operation_xyz
x,y,z
-x,y,1/2-z
-x,-y,-z
x,-y,1/2+z
1/2+x,1/2+y,z
1/2-x,1/2+y,1/2-z
1/2-x,1/2-y,-z
1/2+x,1/2-y,1/2+z
loop_
_atom_site_type_symbol
_atom_site_label
_atom_site_fract_x
_atom_site_fract_y
_atom_site_fract_z
Si Si1 0.987794 0.397117 0.048767
Si Si2 0.330094 0.563988 0.209480
Si Si3 0.378366 0.978678 0.878086
Si Si4 0.000000 0.991455 0.750000
Si Si5 0.895345 0.095638 0.293766
Si Si6 0.770141 0.769280 0.835562
Si Si7 0.053061 0.747748 0.750932
Si Si8 0.334013 0.114070 0.674286
O O1 0.960863 0.454696 0.200053
O O2 0.004730 0.315768 0.063185
O O3 0.894098 0.401477 0.159267
O O4 0.092284 0.420472 0.776392
O O5 0.230765 0.513939 0.414233
O O6 0.390803 0.551155 0.193334
O O7 0.319727 0.651676 0.219301
O O8 0.400255 0.540222 0.968310
O O9 0.384792 0.933898 0.975814
O O10 0.981061 0.941114 0.687476
O O11 0.934731 0.180155 0.199035
O O12 0.783304 0.093096 0.574617
O O13 0.837972 0.703356 0.643951
O O14 0.750000 0.750000 0.000000
O O15 0.664901 0.778957 0.990473
O O16 0.000000 0.767401 0.750000
#
# Coordination Sequence:
#
# PCOD8151125 Si02
#       8
#     8   8   8   4   8   8   8   8
#     4  11  22  40  61 100 129 171 200 262 326 383
#     4  12  22  44  64  93 124 167 215 264 313 385
#     4  11  23  37  63  96 134 158 209 261 322 374
#     4  12  26  40  64  96 120 166 218 266 318 360
#     4  11  21  41  68  85 126 169 211 262 313 371
#     4  11  19  41  67  87 122 173 213 257 316 380
#     4  11  21  38  67  93 122 168 215 255 309 391
#     4  11  20  40  68  90 127 171 212 258 312 390
#
# _framework density 19.927012999999999
#
# number of rings (size 3 to 8) (size 9 to 14) (size 15 to 20)
#    0.000    0.800    8.667    0.800    0.000    2.133 
#    7.200    0.000    0.000    4.000    0.000    0.000 
#    0.000    0.000    0.000    0.000    0.000    0.000 
#
# Total GULP energy -371813.872309 kJ/mol
# GULP energy per Si atom -12393.795744 kJ/mol
# Density = 1.988166 g / cm^3
# Si number density = 19.927013 Si / 1000 Ang^3
#
#
#
# Elastic Constant Matrix: (Units=GPa)
#
#
# Indices 1 2 3 4 5 6 
#
# 1 76.0549 20.6727 4.7186 0.0000 -0.6284 0.0000
# 2 20.6727 118.3655 47.7667 0.0000 6.5574 0.0000
# 3 4.7186 47.7667 83.2314 0.0000 2.7664 0.0000
# 4 0.0000 0.0000 0.0000 24.7061 0.0000 3.5466
# 5 -0.6284 6.5574 2.7664 0.0000 25.8934 0.0000
# 6 0.0000 0.0000 0.0000 3.5466 0.0000 32.6067
#
#
#
# Elastic Compliance Matrix: (Units=1/GPa)
#
#
# Indices 1 2 3 4 5 6 
#
# 1 0.013866 -0.002791 0.000784 0.000000 0.000960 0.000000
# 2 -0.002791 0.011674 -0.006464 0.000000 -0.002333 0.000000
# 3 0.000784 -0.006464 0.015680 0.000000 -0.000019 0.000000
# 4 0.000000 0.000000 0.000000 0.041118 0.000000 -0.004472
# 5 0.000960 -0.002333 -0.000019 0.000000 0.039236 0.000000
# 6 0.000000 0.000000 0.000000 -0.004472 0.000000 0.031155
#
#
# Mechanical properties :
#
#
# Convention : Reuss Voigt Hill
#
# Bulk Modulus (GPa) = 41.18912 47.10756 44.14834
# Shear Modulus (GPa) = 28.12709 30.27415 29.20062
#
# Velocity S-wave (km/s) = 3.76108 3.90199 3.83218
# Velocity P-wave (km/s) = 6.29093 6.63265 6.46405
#
# Compressibility (1/GPa) = 0.02427826
#
# Stress axis : x y z
#
# Youngs Moduli (GPa) = 72.11679 85.66308 63.77367
#
# Poissons Ratio (x) = 0.23911 -0.04999
# Poissons Ratio (y) = 0.20130 0.41222
# Poissons Ratio (z) = -0.05653 0.55370
#
# Static dielectric constant tensor:
#      x y z
#    x 3.767780 0.000000 -0.065160 
#    y 0.000000 4.036810 0.000000 
#    z -0.065160 0.000000 3.513540 
# 
# 
# High freq. dielectric constant tensor:
#      x y z
#    x 1.774540 0.000000 -0.010250 
#    y 0.000000 1.791870 0.000000 
#    z -0.010250 0.000000 1.752760 
# 
# From -- ./inp_files/127217.got.cif
#   From: 2010.06.25/outbox.cif.g09.slc.cpg/sg15_64_cif.got.tgz:127217.got - 2010.06.28 07:06:18.
