data_PCOD8151577
_publ_section_title
;
Structure prediction by ZEFSAII (Michael W. Deem and Ramdas Pophale) SiO2 
 PCOD8151577
Probable space group: C 2/C
;
_chemical_formula_sum "Si O2"
_cell_formula_units_Z 56
_cell_length_a 20.830710
_cell_length_b 6.332076
_cell_length_c 21.734474
_cell_angle_alpha 90.000000
_cell_angle_beta 98.706959
_cell_angle_gamma 90.000000
_cell_volume 2833.774179
_symmetry_space_group_name_H-M "C 2/C"
_symmetry_group_IT_number 15
_symmetry_cell_setting 'monoclinic'
loop_
_space_group_symop_operation_xyz
x,y,z
-x,y,1/2-z
-x,-y,-z
x,-y,1/2+z
1/2+x,1/2+y,z
1/2-x,1/2+y,1/2-z
1/2-x,1/2-y,-z
1/2+x,1/2-y,1/2+z
loop_
_atom_site_type_symbol
_atom_site_label
_atom_site_fract_x
_atom_site_fract_y
_atom_site_fract_z
Si Si1 0.762120 0.407920 0.610613
Si Si2 0.367338 0.575649 0.600740
Si Si3 0.804422 0.199186 0.187536
Si Si4 0.974737 0.200740 0.534863
Si Si5 0.315884 0.335411 0.484775
Si Si6 0.595273 0.006059 0.065589
Si Si7 0.311779 0.109201 0.815742
O O1 0.814896 0.262186 0.583871
O O2 0.795776 0.626844 0.633643
O O3 0.700247 0.457899 0.558464
O O4 0.733439 0.295155 0.665817
O O5 0.356110 0.470743 0.666667
O O6 0.440293 0.653796 0.596219
O O7 0.361483 0.400179 0.546976
O O8 0.834550 0.313577 0.251631
O O9 0.733749 0.099361 0.192986
O O10 0.923261 0.315492 0.482544
O O11 0.032848 0.347926 0.565638
O O12 0.000000 0.000000 0.500000
O O13 0.250000 0.250000 0.500000
O O14 0.346572 0.143508 0.452424
O O15 0.622523 0.922727 0.135056
#
# Coordination Sequence:
#
# PCOD8151577 Si02
#       7
#     8   8   8   8   8   8   8
#     4  11  21  36  61  92 133 159 195 260 327 383
#     4  11  23  37  60  94 126 169 205 258 320 377
#     4  11  22  37  63  94 130 164 202 258 317 395
#     4  11  24  44  64  91 125 175 218 263 315 371
#     4  12  19  35  60  96 131 151 197 262 332 383
#     4  11  24  39  66  95 124 168 216 268 312 381
#     4  11  22  40  61  97 124 166 210 252 323 384
#
# _framework density 19.76163
#
# number of rings (size 3 to 8) (size 9 to 14) (size 15 to 20)
#    0.000    0.857    5.714    3.000    0.000    0.000 
#    0.000    0.000    0.000    5.143    0.000    0.000 
#    0.000    0.000    0.000    0.000    0.000    0.000 
#
# Total GULP energy -347065.301576 kJ/mol
# GULP energy per Si atom -12395.189342 kJ/mol
# Density = 1.971665 g / cm^3
# Si number density = 19.761630 Si / 1000 Ang^3
#
#
#
# Elastic Constant Matrix: (Units=GPa)
#
#
# Indices 1 2 3 4 5 6 
#
# 1 107.8589 35.3503 49.1191 0.0000 -7.2370 0.0000
# 2 35.3503 89.1728 36.7050 0.0000 -4.1327 0.0000
# 3 49.1191 36.7050 112.1408 0.0000 -2.0451 0.0000
# 4 0.0000 0.0000 0.0000 36.8163 0.0000 1.4316
# 5 -7.2370 -4.1327 -2.0451 0.0000 27.2206 0.0000
# 6 0.0000 0.0000 0.0000 1.4316 0.0000 32.2875
#
#
#
# Elastic Compliance Matrix: (Units=1/GPa)
#
#
# Indices 1 2 3 4 5 6 
#
# 1 0.012435 -0.002993 -0.004421 0.000000 0.002519 0.000000
# 2 -0.002993 0.013755 -0.003172 0.000000 0.001054 0.000000
# 3 -0.004421 -0.003172 0.011878 0.000000 -0.000765 0.000000
# 4 0.000000 0.000000 0.000000 0.027209 0.000000 -0.001206
# 5 0.002519 0.001054 -0.000765 0.000000 0.037509 0.000000
# 6 0.000000 0.000000 0.000000 -0.001206 0.000000 0.031025
#
#
# Mechanical properties :
#
#
# Convention : Reuss Voigt Hill
#
# Bulk Modulus (GPa) = 59.18543 61.28014 60.23279
# Shear Modulus (GPa) = 31.13029 31.79808 31.46418
#
# Velocity S-wave (km/s) = 3.97330 4.01569 3.99455
# Velocity P-wave (km/s) = 7.14592 7.25107 7.19868
#
# Compressibility (1/GPa) = 0.01689605
#
# Stress axis : x y z
#
# Youngs Moduli (GPa) = 80.42046 72.69986 84.18841
#
# Poissons Ratio (x) = 0.21758 0.37220
# Poissons Ratio (y) = 0.24069 0.26705
# Poissons Ratio (z) = 0.35554 0.23061
#
# Static dielectric constant tensor:
#      x y z
#    x 3.329140 0.000000 -0.277670 
#    y 0.000000 3.537570 0.000000 
#    z -0.277670 0.000000 3.343360 
# 
# 
# High freq. dielectric constant tensor:
#      x y z
#    x 1.752860 0.000000 -0.012190 
#    y 0.000000 1.791430 0.000000 
#    z -0.012190 0.000000 1.757180 
# 
# From -- ./inp_files/278691.got.cif
#   From: 2010.06.25/outbox.cif.g09.slc.cpg/sg15_140_cif.got.tgz:278691.got - 2010.06.28 07:06:18.
