data_PCOD8151551
_publ_section_title
;
Structure prediction by ZEFSAII (Michael W. Deem and Ramdas Pophale) SiO2 
 PCOD8151551
Probable space group: C 2/C
;
_chemical_formula_sum "Si O2"
_cell_formula_units_Z 56
_cell_length_a 28.540595
_cell_length_b 11.943493
_cell_length_c 8.961893
_cell_angle_alpha 90.000000
_cell_angle_beta 121.306067
_cell_angle_gamma 90.000000
_cell_volume 2610.101011
_symmetry_space_group_name_H-M "C 2/C"
_symmetry_group_IT_number 15
_symmetry_cell_setting 'monoclinic'
loop_
_space_group_symop_operation_xyz
x,y,z
-x,y,1/2-z
-x,-y,-z
x,-y,1/2+z
1/2+x,1/2+y,z
1/2-x,1/2+y,1/2-z
1/2-x,1/2-y,-z
1/2+x,1/2-y,1/2+z
loop_
_atom_site_type_symbol
_atom_site_label
_atom_site_fract_x
_atom_site_fract_y
_atom_site_fract_z
Si Si1 0.563834 0.363972 0.351587
Si Si2 0.667892 0.708703 0.503987
Si Si3 0.623812 0.145285 0.500606
Si Si4 0.155390 0.556079 0.865320
Si Si5 0.222271 0.936939 0.856720
Si Si6 0.735161 0.732235 0.143740
Si Si7 0.616396 0.446817 0.132385
O O1 0.500000 0.389491 0.250000
O O2 0.572965 0.231594 0.400670
O O3 0.584555 0.397369 0.220770
O O4 0.591350 0.437514 0.528924
O O5 0.647219 0.835823 0.456831
O O6 0.688362 0.664260 0.378295
O O7 0.721645 0.695256 0.693307
O O8 0.617535 0.640164 0.494949
O O9 0.627201 0.080120 0.661508
O O10 0.675061 0.223971 0.566428
O O11 0.621922 0.050062 0.370968
O O12 0.221040 0.528486 0.966856
O O13 0.235809 0.895643 0.709388
O O14 0.180225 0.039980 0.786776
O O15 0.750000 0.750000 0.000000
#
# Coordination Sequence:
#
# PCOD8151551 Si02
#       7
#     8   8   8   8   8   8   8
#     4  12  28  50  73  98 129 171 235 300 354 398
#     4  11  21  40  62  97 141 181 215 262 328 407
#     4  12  25  44  66  96 138 184 226 277 326 400
#     4  11  25  40  65 100 148 184 219 256 326 411
#     4  11  21  41  62 101 143 184 212 271 325 409
#     4  11  21  35  61  95 139 183 221 256 321 400
#     4  12  24  43  75 100 133 172 224 287 356 403
#
# _framework density 21.455107000000002
#
# number of rings (size 3 to 8) (size 9 to 14) (size 15 to 20)
#    0.000    0.571    5.714    3.000    6.000    0.000 
#    0.000    0.714    0.000    0.000    0.000    0.000 
#    0.000    0.000    0.000    0.000    0.000    0.000 
#
# Total GULP energy -347076.695754 kJ/mol
# GULP energy per Si atom -12395.596277 kJ/mol
# Density = 2.140627 g / cm^3
# Si number density = 21.455107 Si / 1000 Ang^3
#
#
#
# Elastic Constant Matrix: (Units=GPa)
#
#
# Indices 1 2 3 4 5 6 
#
# 1 91.5388 43.8317 45.1987 0.0000 -12.3704 0.0000
# 2 43.8317 85.8774 15.0081 0.0000 4.9087 0.0000
# 3 45.1987 15.0081 84.4900 0.0000 -17.1753 0.0000
# 4 0.0000 0.0000 0.0000 10.4654 0.0000 -4.6492
# 5 -12.3704 4.9087 -17.1753 0.0000 28.7328 0.0000
# 6 0.0000 0.0000 0.0000 -4.6492 0.0000 27.2097
#
#
#
# Elastic Compliance Matrix: (Units=1/GPa)
#
#
# Indices 1 2 3 4 5 6 
#
# 1 0.019932 -0.009090 -0.007954 0.000000 0.005380 0.000000
# 2 -0.009090 0.016537 0.000632 0.000000 -0.006361 0.000000
# 3 -0.007954 0.000632 0.017371 0.000000 0.006851 0.000000
# 4 0.000000 0.000000 0.000000 0.103402 0.000000 0.017668
# 5 0.005380 -0.006361 0.006851 0.000000 0.042302 0.000000
# 6 0.000000 0.000000 0.000000 0.017668 0.000000 0.039770
#
#
# Mechanical properties :
#
#
# Convention : Reuss Voigt Hill
#
# Bulk Modulus (GPa) = 47.58369 52.22034 49.90201
# Shear Modulus (GPa) = 17.91192 23.80612 20.85902
#
# Velocity S-wave (km/s) = 2.89252 3.33465 3.12142
# Velocity P-wave (km/s) = 5.77771 6.26248 6.02498
#
# Compressibility (1/GPa) = 0.02101560
#
# Stress axis : x y z
#
# Youngs Moduli (GPa) = 50.17143 60.46929 57.56605
#
# Poissons Ratio (x) = 0.54969 0.45790
# Poissons Ratio (y) = 0.45608 -0.03641
# Poissons Ratio (z) = 0.39908 -0.03824
#
# Static dielectric constant tensor:
#      x y z
#    x 3.686080 0.000000 -0.279980 
#    y 0.000000 4.074410 0.000000 
#    z -0.279980 0.000000 4.066520 
# 
# 
# High freq. dielectric constant tensor:
#      x y z
#    x 1.805600 0.000000 -0.027650 
#    y 0.000000 1.854090 0.000000 
#    z -0.027650 0.000000 1.843990 
# 
# From -- ./inp_files/65549.got.cif
#   From: 2010.06.25/outbox.cif.g09.slc.cpg/sg15_33_cif.got.tgz:65549.got - 2010.06.28 07:06:18.
