data_PCOD8151976
_publ_section_title
;
Structure prediction by ZEFSAII (Michael W. Deem and Ramdas Pophale) SiO2 
 PCOD8151976
Probable space group: C 2/C
;
_chemical_formula_sum "Si O2"
_cell_formula_units_Z 44
_cell_length_a 20.648065
_cell_length_b 8.497255
_cell_length_c 14.117825
_cell_angle_alpha 90.000000
_cell_angle_beta 126.102618
_cell_angle_gamma 90.000000
_cell_volume 2001.323323
_symmetry_space_group_name_H-M "C 2/C"
_symmetry_group_IT_number 15
_symmetry_cell_setting 'monoclinic'
loop_
_space_group_symop_operation_xyz
x,y,z
-x,y,1/2-z
-x,-y,-z
x,-y,1/2+z
1/2+x,1/2+y,z
1/2-x,1/2+y,1/2-z
1/2-x,1/2-y,-z
1/2+x,1/2-y,1/2+z
loop_
_atom_site_type_symbol
_atom_site_label
_atom_site_fract_x
_atom_site_fract_y
_atom_site_fract_z
Si Si1 0.500000 0.367366 0.250000
Si Si2 0.505399 0.066235 0.608078
Si Si3 0.129007 0.629713 0.440824
Si Si4 0.177160 0.531847 0.294564
Si Si5 0.550451 0.420671 0.625658
Si Si6 0.703314 0.257737 0.696189
O O1 0.569995 0.271893 0.362714
O O2 0.452134 0.472870 0.283891
O O3 0.581121 0.970983 0.714819
O O4 0.513913 0.251831 0.619101
O O5 0.500000 0.000000 0.500000
O O6 0.425503 0.026376 0.596560
O O7 0.197148 0.585691 0.420290
O O8 0.171068 0.665072 0.576683
O O9 0.211028 0.664481 0.252365
O O10 0.212302 0.362656 0.292362
O O11 0.500000 0.500000 0.500000
O O12 0.642302 0.397911 0.671296
#
# Coordination Sequence:
#
# PCOD8151976 Si02
#       6
#     4   8   8   8   8   8
#     4  12  24  38  72 102 136 170 228 290 322 398
#     4  11  21  43  73  94 130 178 225 274 336 402
#     4  12  23  45  70  99 130 186 222 273 341 404
#     4  11  25  42  68  93 139 176 221 273 338 398
#     4  11  24  41  67 104 131 175 228 280 333 398
#     4  11  26  46  65  99 136 180 219 278 343 400
#
# _framework density 21.985454000000001
#
# number of rings (size 3 to 8) (size 9 to 14) (size 15 to 20)
#    0.000    0.727    7.273    0.545    7.636    0.000 
#    0.000    0.909    0.000    0.000    0.000    0.000 
#    0.000    0.000    0.000    0.000    0.000    0.000 
#
# Total GULP energy -272733.846097 kJ/mol
# GULP energy per Si atom -12396.993004 kJ/mol
# Density = 2.193541 g / cm^3
# Si number density = 21.985454 Si / 1000 Ang^3
#
#
#
# Elastic Constant Matrix: (Units=GPa)
#
#
# Indices 1 2 3 4 5 6 
#
# 1 115.5614 43.3060 16.6673 0.0000 -26.6788 0.0000
# 2 43.3060 101.8235 28.9926 0.0000 -2.7240 0.0000
# 3 16.6673 28.9926 55.0471 0.0000 -15.2721 0.0000
# 4 0.0000 0.0000 0.0000 33.4728 0.0000 -5.3786
# 5 -26.6788 -2.7240 -15.2721 0.0000 30.6825 0.0000
# 6 0.0000 0.0000 0.0000 -5.3786 0.0000 48.4529
#
#
#
# Elastic Compliance Matrix: (Units=1/GPa)
#
#
# Indices 1 2 3 4 5 6 
#
# 1 0.013448 -0.006130 0.002610 0.000000 0.012448 0.000000
# 2 -0.006130 0.014492 -0.008004 0.000000 -0.008027 0.000000
# 3 0.002610 -0.008004 0.025553 0.000000 0.014278 0.000000
# 4 0.000000 0.000000 0.000000 0.030418 0.000000 0.003377
# 5 0.012448 -0.008027 0.014278 0.000000 0.049810 0.000000
# 6 0.000000 0.000000 0.000000 0.003377 0.000000 0.021013
#
#
# Mechanical properties :
#
#
# Convention : Reuss Voigt Hill
#
# Bulk Modulus (GPa) = 32.84503 50.04040 41.44271
# Shear Modulus (GPa) = 26.60587 34.75272 30.67929
#
# Velocity S-wave (km/s) = 3.48251 3.98013 3.73961
# Velocity P-wave (km/s) = 5.58053 6.62812 6.12676
#
# Compressibility (1/GPa) = 0.03044601
#
# Stress axis : x y z
#
# Youngs Moduli (GPa) = 74.36181 69.00318 39.13481
#
# Poissons Ratio (x) = 0.42296 -0.10215
# Poissons Ratio (y) = 0.45581 0.31323
# Poissons Ratio (z) = -0.19410 0.55229
#
# Static dielectric constant tensor:
#      x y z
#    x 4.362430 0.000000 -0.222790 
#    y 0.000000 3.952560 0.000000 
#    z -0.222790 0.000000 4.043770 
# 
# 
# High freq. dielectric constant tensor:
#      x y z
#    x 1.882240 0.000000 -0.022570 
#    y 0.000000 1.869650 0.000000 
#    z -0.022570 0.000000 1.850460 
# 
# From -- ./inp_files/172096.got.cif
#   From: 2010.06.25/outbox.cif.g09.slc.cpg/sg15_87_cif.got.tgz:172096.got - 2010.06.28 07:06:18.
