data_PCOD8151808
_publ_section_title
;
Structure prediction by ZEFSAII (Michael W. Deem and Ramdas Pophale) SiO2 
 PCOD8151808
Probable space group: C 2/C
;
_chemical_formula_sum "Si O2"
_cell_formula_units_Z 48
_cell_length_a 11.710606
_cell_length_b 17.152485
_cell_length_c 11.262315
_cell_angle_alpha 90.000000
_cell_angle_beta 105.252529
_cell_angle_gamma 90.000000
_cell_volume 2182.531145
_symmetry_space_group_name_H-M "C 2/C"
_symmetry_group_IT_number 15
_symmetry_cell_setting 'monoclinic'
loop_
_space_group_symop_operation_xyz
x,y,z
-x,y,1/2-z
-x,-y,-z
x,-y,1/2+z
1/2+x,1/2+y,z
1/2-x,1/2+y,1/2-z
1/2-x,1/2-y,-z
1/2+x,1/2-y,1/2+z
loop_
_atom_site_type_symbol
_atom_site_label
_atom_site_fract_x
_atom_site_fract_y
_atom_site_fract_z
Si Si1 0.212827 0.077190 0.078803
Si Si2 0.394991 0.075073 0.804349
Si Si3 0.704796 0.603422 0.570475
Si Si4 0.525119 0.675725 0.893417
Si Si5 0.303097 0.911324 0.844371
Si Si6 0.052281 0.648422 0.444553
O O1 0.207355 0.107026 0.214306
O O2 0.349376 0.090096 0.080521
O O3 0.173197 0.987669 0.065992
O O4 0.129724 0.120677 0.965032
O O5 0.500000 0.042085 0.750000
O O6 0.301897 0.122495 0.697709
O O7 0.329759 0.004113 0.854829
O O8 0.451467 0.134076 0.914797
O O9 0.591756 0.658261 0.561728
O O10 0.752016 0.622420 0.452352
O O11 0.500000 0.656667 0.750000
O O12 0.577749 0.761535 0.925810
O O13 0.426277 0.868425 0.849950
#
# Coordination Sequence:
#
# PCOD8151808 Si02
#       6
#     8   8   8   8   8   8
#     4  11  24  44  70  94 132 184 231 273 335 410
#     4  11  21  40  70 102 135 177 228 286 342 401
#     4  11  24  44  68 100 134 177 226 287 333 401
#     4  12  28  46  66  97 141 186 226 277 349 414
#     4  11  22  40  70 104 132 168 233 287 337 398
#     4  12  23  44  69 101 135 177 227 284 341 408
#
# _framework density 21.992812000000001
#
# number of rings (size 3 to 8) (size 9 to 14) (size 15 to 20)
#    0.000    0.667    3.333    6.000    2.333    2.667 
#    3.000    0.000    0.000    0.000    0.000    0.000 
#    0.000    0.000    0.000    0.000    0.000    0.000 
#
# Total GULP energy -297632.031855 kJ/mol
# GULP energy per Si atom -12401.334661 kJ/mol
# Density = 2.194276 g / cm^3
# Si number density = 21.992812 Si / 1000 Ang^3
#
#
#
# Elastic Constant Matrix: (Units=GPa)
#
#
# Indices 1 2 3 4 5 6 
#
# 1 75.1145 -0.4279 10.6515 0.0000 -7.0880 0.0000
# 2 -0.4279 56.4890 25.9016 0.0000 10.0792 0.0000
# 3 10.6515 25.9016 129.4230 0.0000 13.6667 0.0000
# 4 0.0000 0.0000 0.0000 21.9817 0.0000 4.6868
# 5 -7.0880 10.0792 13.6667 0.0000 32.5417 0.0000
# 6 0.0000 0.0000 0.0000 4.6868 0.0000 22.3309
#
#
#
# Elastic Compliance Matrix: (Units=1/GPa)
#
#
# Indices 1 2 3 4 5 6 
#
# 1 0.013877 0.000174 -0.001559 0.000000 0.003624 0.000000
# 2 0.000174 0.020175 -0.003554 0.000000 -0.004719 0.000000
# 3 -0.001559 -0.003554 0.008880 0.000000 -0.002968 0.000000
# 4 0.000000 0.000000 0.000000 0.047623 0.000000 -0.009995
# 5 0.003624 -0.004719 -0.002968 0.000000 0.034227 0.000000
# 6 0.000000 0.000000 0.000000 -0.009995 0.000000 0.046879
#
#
# Mechanical properties :
#
#
# Convention : Reuss Voigt Hill
#
# Bulk Modulus (GPa) = 30.25470 37.03078 33.64274
# Shear Modulus (GPa) = 25.96619 30.36429 28.16524
#
# Velocity S-wave (km/s) = 3.43981 3.71974 3.58251
# Velocity P-wave (km/s) = 5.43718 5.94330 5.69586
#
# Compressibility (1/GPa) = 0.03305272
#
# Stress axis : x y z
#
# Youngs Moduli (GPa) = 72.06119 49.56563 112.61782
#
# Poissons Ratio (x) = -0.00860 0.17563
# Poissons Ratio (y) = -0.01251 0.40021
# Poissons Ratio (z) = 0.11238 0.17614
#
# Static dielectric constant tensor:
#      x y z
#    x 3.825070 0.000000 0.066690 
#    y 0.000000 3.703120 0.000000 
#    z 0.066690 0.000000 4.431130 
# 
# 
# High freq. dielectric constant tensor:
#      x y z
#    x 1.854890 0.000000 0.000540 
#    y 0.000000 1.841030 0.000000 
#    z 0.000540 0.000000 1.894370 
# 
# From -- ./inp_files/87770.got.cif
#   From: 2010.06.25/outbox.cif.g09.slc.cpg/sg15_44_cif.got.tgz:87770.got - 2010.06.28 07:06:18.
