data_PCOD8151153
_publ_section_title
;
Structure prediction by ZEFSAII (Michael W. Deem and Ramdas Pophale) SiO2 
 PCOD8151153
Probable space group: C 2/C
;
_chemical_formula_sum "Si O2"
_cell_formula_units_Z 32
_cell_length_a 11.897171
_cell_length_b 29.631373
_cell_length_c 13.626477
_cell_angle_alpha 90.000000
_cell_angle_beta 21.443854
_cell_angle_gamma 90.000000
_cell_volume 1756.194240
_symmetry_space_group_name_H-M "C 2/C"
_symmetry_group_IT_number 15
_symmetry_cell_setting 'monoclinic'
loop_
_space_group_symop_operation_xyz
x,y,z
-x,y,1/2-z
-x,-y,-z
x,-y,1/2+z
1/2+x,1/2+y,z
1/2-x,1/2+y,1/2-z
1/2-x,1/2-y,-z
1/2+x,1/2-y,1/2+z
loop_
_atom_site_type_symbol
_atom_site_label
_atom_site_fract_x
_atom_site_fract_y
_atom_site_fract_z
Si Si1 0.256938 0.877905 0.624527
Si Si2 0.697127 0.276211 0.688189
Si Si3 0.162596 0.020974 0.514418
Si Si4 0.859499 0.931072 0.088576
O O1 0.314962 0.826731 0.612411
O O2 0.569916 0.897784 0.326241
O O3 0.000000 0.880631 0.750000
O O4 0.151621 0.905928 0.804715
O O5 0.500000 0.275403 0.750000
O O6 0.986087 0.242297 0.447435
O O7 0.000000 0.011703 0.750000
O O8 0.944493 0.054056 0.629680
O O9 0.221066 0.974144 0.411254
O O10 0.500000 0.043454 0.250000
#
# Coordination Sequence:
#
# PCOD8151153 Si02
#       4
#     8   8   8   8
#     4  11  20  32  51  75 106 136 167 205 241 293
#     4   9  17  29  45  68 100 135 162 191 241 297
#     4  11  22  37  53  71 102 135 167 211 254 289
#     4  11  22  34  52  76  99 133 175 205 243 299
#
# _framework density 18.221219000000001
#
# number of rings (size 3 to 8) (size 9 to 14) (size 15 to 20)
#    0.000    1.500    0.000    7.500    0.000    8.000 
#    0.000    0.000    0.000    0.000    0.000    0.000 
#    0.000   70.000    0.000    0.000    0.000    0.000 
#
# Total GULP energy -198442.215242 kJ/mol
# GULP energy per Si atom -12402.638453 kJ/mol
# Density = 1.817975 g / cm^3
# Si number density = 18.221219 Si / 1000 Ang^3
#
#
#
# Elastic Constant Matrix: (Units=GPa)
#
#
# Indices 1 2 3 4 5 6 
#
# 1 72.5530 20.3187 20.0298 0.0033 1.7956 0.0014
# 2 20.3187 94.5031 19.6863 -0.0029 -4.1510 -0.0031
# 3 20.0298 19.6863 94.7125 -0.0306 6.3749 -0.0023
# 4 0.0033 -0.0029 -0.0306 26.1110 -0.0003 -3.2004
# 5 1.7956 -4.1510 6.3749 -0.0003 23.7292 -0.0038
# 6 0.0014 -0.0031 -0.0023 -3.2004 -0.0038 9.3782
#
#
#
# Elastic Compliance Matrix: (Units=1/GPa)
#
#
# Indices 1 2 3 4 5 6 
#
# 1 0.015304 -0.002792 -0.002592 -0.000006 -0.000950 -0.000006
# 2 -0.002792 0.011730 -0.002037 0.000000 0.002810 0.000005
# 3 -0.002592 -0.002037 0.011753 0.000015 -0.003318 0.000006
# 4 -0.000006 0.000000 0.000015 0.039970 -0.000001 0.013640
# 5 -0.000950 0.002810 -0.003318 -0.000001 0.043597 0.000018
# 6 -0.000006 0.000005 0.000006 0.013640 0.000018 0.111285
#
#
# Mechanical properties :
#
#
# Convention : Reuss Voigt Hill
#
# Bulk Modulus (GPa) = 41.76291 42.42648 42.09470
# Shear Modulus (GPa) = 19.49604 25.29260 22.39432
#
# Velocity S-wave (km/s) = 3.27458 3.72974 3.50955
# Velocity P-wave (km/s) = 6.10466 6.47168 6.29085
#
# Compressibility (1/GPa) = 0.02394469
#
# Stress axis : x y z
#
# Youngs Moduli (GPa) = 65.34181 85.25340 85.08379
#
# Poissons Ratio (x) = 0.23805 0.22055
# Poissons Ratio (y) = 0.18245 0.17329
# Poissons Ratio (z) = 0.16938 0.17364
#
# Static dielectric constant tensor:
#      x y z
#    x 3.101610 0.000000 0.129080 
#    y 0.000000 3.476710 0.000000 
#    z 0.129080 0.000000 3.478980 
# 
# 
# High freq. dielectric constant tensor:
#      x y z
#    x 1.664560 0.000000 0.018410 
#    y 0.000000 1.705080 0.000000 
#    z 0.018410 0.000000 1.724220 
# 
# From -- ./inp_files/4056.got.cif
#   From: 2010.06.25/outbox.cif.g09.slc.cpg/sg15_3_cif.got.tgz:4056.got - 2010.06.28 07:06:18.
