data_PCOD8151566
_publ_section_title
;
Structure prediction by ZEFSAII (Michael W. Deem and Ramdas Pophale) SiO2 
 PCOD8151566
Probable space group: C 2/C
;
_chemical_formula_sum "Si O2"
_cell_formula_units_Z 56
_cell_length_a 8.863954
_cell_length_b 17.860124
_cell_length_c 18.164693
_cell_angle_alpha 90.000000
_cell_angle_beta 69.060515
_cell_angle_gamma 90.000000
_cell_volume 2685.762232
_symmetry_space_group_name_H-M "C 2/C"
_symmetry_group_IT_number 15
_symmetry_cell_setting 'monoclinic'
loop_
_space_group_symop_operation_xyz
x,y,z
-x,y,1/2-z
-x,-y,-z
x,-y,1/2+z
1/2+x,1/2+y,z
1/2-x,1/2+y,1/2-z
1/2-x,1/2-y,-z
1/2+x,1/2-y,1/2+z
loop_
_atom_site_type_symbol
_atom_site_label
_atom_site_fract_x
_atom_site_fract_y
_atom_site_fract_z
Si Si1 0.465347 0.597897 0.073322
Si Si2 0.606126 0.822636 0.799141
Si Si3 0.679477 0.826070 0.544010
Si Si4 0.752223 0.414955 0.100971
Si Si5 0.088857 0.925713 0.400533
Si Si6 0.675360 0.341585 0.253241
Si Si7 0.145970 0.068608 0.175727
O O1 0.306439 0.645919 0.083945
O O2 0.400618 0.514785 0.103243
O O3 0.565317 0.623432 0.128129
O O4 0.597475 0.600078 0.984077
O O5 0.500000 0.852541 0.750000
O O6 0.491380 0.808556 0.888937
O O7 0.698333 0.746127 0.762952
O O8 0.740715 0.884177 0.791079
O O9 0.750000 0.750000 0.500000
O O10 0.637120 0.887503 0.487064
O O11 0.578479 0.392176 0.099735
O O12 0.797946 0.369467 0.167568
O O13 0.753007 0.503823 0.117897
O O14 0.216448 0.887615 0.321750
O O15 0.500000 0.360155 0.250000
O O16 0.000000 0.032532 0.250000
#
# Coordination Sequence:
#
# PCOD8151566 Si02
#       7
#     8   8   8   8   8   8   8
#     4   9  17  31  53  80 107 137 183 233 271 324
#     4  11  23  37  57  85 117 149 185 235 286 337
#     4  11  21  36  59  86 115 151 189 230 284 337
#     4   9  18  33  57  82 108 144 188 233 276 332
#     4   8  14  28  53  80 102 137 184 229 270 315
#     4   9  16  32  54  78 107 143 188 230 272 327
#     4  11  22  37  58  82 110 149 191 234 285 335
#
# _framework density 20.850691999999999
#
# number of rings (size 3 to 8) (size 9 to 14) (size 15 to 20)
#    0.000    2.286    0.000    7.286    0.000    0.571 
#    0.000    2.857    0.000    4.286    0.000    0.000 
#    0.000    0.000    0.000    0.000    0.000    0.000 
#
# Total GULP energy -346921.373771 kJ/mol
# GULP energy per Si atom -12390.049063 kJ/mol
# Density = 2.080324 g / cm^3
# Si number density = 20.850692 Si / 1000 Ang^3
#
#
#
# Elastic Constant Matrix: (Units=GPa)
#
#
# Indices 1 2 3 4 5 6 
#
# 1 45.1372 37.0879 23.4491 0.0000 13.5242 0.0000
# 2 37.0879 97.6120 36.1343 0.0000 13.7895 0.0000
# 3 23.4491 36.1343 98.2221 0.0000 19.0650 0.0000
# 4 0.0000 0.0000 0.0000 40.4199 0.0000 10.9401
# 5 13.5242 13.7895 19.0650 0.0000 29.4971 0.0000
# 6 0.0000 0.0000 0.0000 10.9401 0.0000 22.0770
#
#
#
# Elastic Compliance Matrix: (Units=1/GPa)
#
#
# Indices 1 2 3 4 5 6 
#
# 1 0.035509 -0.011230 -0.002521 0.000000 -0.009401 0.000000
# 2 -0.011230 0.015667 -0.003042 0.000000 -0.000209 0.000000
# 3 -0.002521 -0.003042 0.013037 0.000000 -0.005848 0.000000
# 4 0.000000 0.000000 0.000000 0.028573 0.000000 -0.014159
# 5 -0.009401 -0.000209 -0.005848 0.000000 0.042090 0.000000
# 6 0.000000 0.000000 0.000000 -0.014159 0.000000 0.052312
#
#
# Mechanical properties :
#
#
# Convention : Reuss Voigt Hill
#
# Bulk Modulus (GPa) = 32.65159 48.25710 40.45434
# Shear Modulus (GPa) = 21.64660 28.01881 24.83270
#
# Velocity S-wave (km/s) = 3.22556 3.66974 3.45480
# Velocity P-wave (km/s) = 5.43747 6.41486 5.94628
#
# Compressibility (1/GPa) = 0.03062638
#
# Stress axis : x y z
#
# Youngs Moduli (GPa) = 28.16211 63.82732 76.70369
#
# Poissons Ratio (x) = 0.71680 0.19337
# Poissons Ratio (y) = 0.31627 0.23334
# Poissons Ratio (z) = 0.07100 0.19417
#
# Static dielectric constant tensor:
#      x y z
#    x 3.310970 0.000000 0.330210 
#    y 0.000000 3.564440 0.000000 
#    z 0.330210 0.000000 4.564100 
# 
# 
# High freq. dielectric constant tensor:
#      x y z
#    x 1.745180 0.000000 0.024840 
#    y 0.000000 1.806570 0.000000 
#    z 0.024840 0.000000 1.847120 
# 
# From -- ./inp_files/190924.got.cif
#   From: 2010.06.25/outbox.cif.g09.slc.cpg/sg15_96_cif.got.tgz:190924.got - 2010.06.28 07:06:18.
