data_PCOD8151894
_publ_section_title
;
Structure prediction by ZEFSAII (Michael W. Deem and Ramdas Pophale) SiO2 
 PCOD8151894
Probable space group: C 2/C
;
_chemical_formula_sum "Si O2"
_cell_formula_units_Z 48
_cell_length_a 15.425254
_cell_length_b 29.085805
_cell_length_c 8.838475
_cell_angle_alpha 90.000000
_cell_angle_beta 36.033538
_cell_angle_gamma 90.000000
_cell_volume 2332.701213
_symmetry_space_group_name_H-M "C 2/C"
_symmetry_group_IT_number 15
_symmetry_cell_setting 'monoclinic'
loop_
_space_group_symop_operation_xyz
x,y,z
-x,y,1/2-z
-x,-y,-z
x,-y,1/2+z
1/2+x,1/2+y,z
1/2-x,1/2+y,1/2-z
1/2-x,1/2-y,-z
1/2+x,1/2-y,1/2+z
loop_
_atom_site_type_symbol
_atom_site_label
_atom_site_fract_x
_atom_site_fract_y
_atom_site_fract_z
Si Si1 0.663125 0.917771 0.464418
Si Si2 0.386977 0.840150 0.177135
Si Si3 0.665686 0.410509 0.989634
Si Si4 0.110170 0.482808 0.969610
Si Si5 0.340697 0.755207 0.024427
Si Si6 0.710538 0.829572 0.851147
O O1 0.500000 0.909051 0.750000
O O2 0.671282 0.890156 0.295054
O O3 0.774688 0.897122 0.429338
O O4 0.697913 0.972140 0.402982
O O5 0.347128 0.804860 0.097612
O O6 0.301208 0.831753 0.452456
O O7 0.560829 0.839074 0.968646
O O8 0.768953 0.447947 0.762096
O O9 0.667579 0.365603 0.880756
O O10 0.500000 0.428785 0.250000
O O11 0.000000 0.459986 0.250000
O O12 0.000000 0.500000 0.000000
O O13 0.268937 0.721542 0.247034
O O14 0.500000 0.738410 0.750000
O O15 0.250000 0.750000 0.000000
#
# Coordination Sequence:
#
# PCOD8151894 Si02
#       6
#     8   8   8   8   8   8
#     4  11  21  42  67  94 129 174 223 265 323 401
#     4  11  23  41  69  97 126 172 228 268 315 403
#     4  12  26  43  66 101 138 170 217 281 338 381
#     4  11  22  41  71  98 126 177 227 267 316 398
#     4  12  23  42  65  93 130 170 213 268 332 391
#     4  11  24  41  66  98 131 170 220 273 328 388
#
# _framework density 20.577003000000001
#
# number of rings (size 3 to 8) (size 9 to 14) (size 15 to 20)
#    0.000    0.667    6.667    2.500    4.667    0.667 
#    0.000    2.500    0.000    0.000    0.000    0.000 
#    0.000    0.000    0.000    0.000    0.000    0.000 
#
# Total GULP energy -297498.201421 kJ/mol
# GULP energy per Si atom -12395.758393 kJ/mol
# Density = 2.053017 g / cm^3
# Si number density = 20.577003 Si / 1000 Ang^3
#
#
#
# Elastic Constant Matrix: (Units=GPa)
#
#
# Indices 1 2 3 4 5 6 
#
# 1 118.1591 24.3776 53.3114 0.0000 9.6979 0.0000
# 2 24.3776 84.0526 41.7909 0.0000 7.2672 0.0000
# 3 53.3114 41.7909 125.8266 0.0000 3.0688 0.0000
# 4 0.0000 0.0000 0.0000 155.4887 0.0000 54.3164
# 5 9.6979 7.2672 3.0688 0.0000 34.7174 0.0000
# 6 0.0000 0.0000 0.0000 54.3164 0.0000 54.0507
#
#
#
# Elastic Compliance Matrix: (Units=1/GPa)
#
#
# Indices 1 2 3 4 5 6 
#
# 1 0.010735 -0.000802 -0.004222 0.000000 -0.002458 0.000000
# 2 -0.000802 0.014543 -0.004431 0.000000 -0.002429 0.000000
# 3 -0.004222 -0.004431 0.011181 0.000000 0.001119 0.000000
# 4 0.000000 0.000000 0.000000 0.009910 0.000000 -0.009959
# 5 -0.002458 -0.002429 0.001119 0.000000 0.029900 0.000000
# 6 0.000000 0.000000 0.000000 -0.009959 0.000000 0.028509
#
#
# Mechanical properties :
#
#
# Convention : Reuss Voigt Hill
#
# Bulk Modulus (GPa) = 56.98426 62.99979 59.99202
# Shear Modulus (GPa) = 38.59855 62.75526 50.67691
#
# Velocity S-wave (km/s) = 4.33576 5.52847 4.96804
# Velocity P-wave (km/s) = 7.26763 8.45192 7.88205
#
# Compressibility (1/GPa) = 0.01754871
#
# Stress axis : x y z
#
# Youngs Moduli (GPa) = 93.15077 68.76139 89.43885
#
# Poissons Ratio (x) = 0.05513 0.37763
# Poissons Ratio (y) = 0.07468 0.39633
# Poissons Ratio (z) = 0.39330 0.30470
#
# Static dielectric constant tensor:
#      x y z
#    x 3.695280 0.000000 -0.002400 
#    y 0.000000 6.159360 0.000000 
#    z -0.002400 0.000000 3.629970 
# 
# 
# High freq. dielectric constant tensor:
#      x y z
#    x 1.809650 0.000000 0.020000 
#    y 0.000000 1.811240 0.000000 
#    z 0.020000 0.000000 1.800150 
# 
# From -- ./inp_files/43803.got.cif
#   From: 2010.06.25/outbox.cif.g09.slc.cpg/sg15_22_cif.got.tgz:43803.got - 2010.06.28 07:06:18.
