data_PCOD8151492
_publ_section_title
;
Structure prediction by ZEFSAII (Michael W. Deem and Ramdas Pophale) SiO2 
 PCOD8151492
Probable space group: C 2/C
;
_chemical_formula_sum "Si O2"
_cell_formula_units_Z 60
_cell_length_a 15.128633
_cell_length_b 16.862393
_cell_length_c 11.961845
_cell_angle_alpha 90.000000
_cell_angle_beta 69.496180
_cell_angle_gamma 90.000000
_cell_volume 2858.208220
_symmetry_space_group_name_H-M "C 2/C"
_symmetry_group_IT_number 15
_symmetry_cell_setting 'monoclinic'
loop_
_space_group_symop_operation_xyz
x,y,z
-x,y,1/2-z
-x,-y,-z
x,-y,1/2+z
1/2+x,1/2+y,z
1/2-x,1/2+y,1/2-z
1/2-x,1/2-y,-z
1/2+x,1/2-y,1/2+z
loop_
_atom_site_type_symbol
_atom_site_label
_atom_site_fract_x
_atom_site_fract_y
_atom_site_fract_z
Si Si1 0.809442 0.638934 0.273939
Si Si2 0.960802 0.189296 0.966292
Si Si3 0.238720 0.421532 0.935958
Si Si4 0.425097 0.678299 0.376643
Si Si5 0.795993 0.092395 0.970656
Si Si6 0.603084 0.143655 0.676179
Si Si7 0.196854 0.290982 0.346161
Si Si8 0.000000 0.700549 0.250000
O O1 0.816173 0.590476 0.155902
O O2 0.741394 0.590132 0.386181
O O3 0.773892 0.728641 0.267334
O O4 0.910393 0.642836 0.289821
O O5 0.010036 0.244890 0.854355
O O6 0.906058 0.117720 0.927841
O O7 0.892023 0.241894 0.072210
O O8 0.039098 0.153682 0.015658
O O9 0.322875 0.358652 0.904095
O O10 0.285758 0.507981 0.917044
O O11 0.161947 0.413318 0.068253
O O12 0.500000 0.648694 0.250000
O O13 0.413248 0.772650 0.377016
O O14 0.739589 0.159283 0.928393
O O15 0.500000 0.105999 0.750000
O O16 0.664588 0.151614 0.761200
#
# Coordination Sequence:
#
# PCOD8151492 Si02
#       8
#     8   8   8   8   8   8   8   4
#     4  11  23  43  67  93 127 174 226 268 314 391
#     4  11  21  40  68  96 126 167 221 274 319 384
#     4  12  27  42  66 101 137 175 213 265 339 399
#     4  11  21  42  70  99 129 166 221 274 325 381
#     4  11  25  45  61  95 138 176 207 263 343 390
#     4  11  23  42  67  99 126 172 226 276 313 380
#     4  11  20  44  70  87 127 174 221 267 319 382
#     4  12  22  38  70 102 116 168 236 276 302 384
#
# _framework density 20.992172
#
# number of rings (size 3 to 8) (size 9 to 14) (size 15 to 20)
#    0.000    0.800    6.667    2.800    3.733    0.533 
#    2.400    1.333    0.000    0.000    0.000    0.000 
#    0.000    0.000    0.000    0.000    0.000    0.000 
#
# Total GULP energy -372129.682692 kJ/mol
# GULP energy per Si atom -12404.322756 kJ/mol
# Density = 2.094439 g / cm^3
# Si number density = 20.992172 Si / 1000 Ang^3
#
#
#
# Elastic Constant Matrix: (Units=GPa)
#
#
# Indices 1 2 3 4 5 6 
#
# 1 90.8019 5.7218 17.8165 0.0000 11.7491 0.0000
# 2 5.7218 61.8529 11.2832 0.0000 5.3387 0.0000
# 3 17.8165 11.2832 82.3978 0.0000 16.5383 0.0000
# 4 0.0000 0.0000 0.0000 19.1248 0.0000 4.4176
# 5 11.7491 5.3387 16.5383 0.0000 41.2674 0.0000
# 6 0.0000 0.0000 0.0000 4.4176 0.0000 10.4547
#
#
#
# Elastic Compliance Matrix: (Units=1/GPa)
#
#
# Indices 1 2 3 4 5 6 
#
# 1 0.011754 -0.000513 -0.001972 0.000000 -0.002490 0.000000
# 2 -0.000513 0.016673 -0.001923 0.000000 -0.001240 0.000000
# 3 -0.001972 -0.001923 0.013771 0.000000 -0.004709 0.000000
# 4 0.000000 0.000000 0.000000 0.057944 0.000000 -0.024484
# 5 -0.002490 -0.001240 -0.004709 0.000000 0.026989 0.000000
# 6 0.000000 0.000000 0.000000 -0.024484 0.000000 0.105996
#
#
# Mechanical properties :
#
#
# Convention : Reuss Voigt Hill
#
# Bulk Modulus (GPa) = 29.95559 33.85510 31.90534
# Shear Modulus (GPa) = 19.75742 27.51812 23.63777
#
# Velocity S-wave (km/s) = 3.07119 3.62453 3.35927
# Velocity P-wave (km/s) = 5.18432 5.80334 5.50254
#
# Compressibility (1/GPa) = 0.03338275
#
# Stress axis : x y z
#
# Youngs Moduli (GPa) = 85.07494 59.97820 72.61626
#
# Poissons Ratio (x) = 0.03076 0.14317
# Poissons Ratio (y) = 0.04362 0.13966
# Poissons Ratio (z) = 0.16773 0.11536
#
# Static dielectric constant tensor:
#      x y z
#    x 4.024020 0.000000 0.042230 
#    y 0.000000 3.440430 0.000000 
#    z 0.042230 0.000000 3.948060 
# 
# 
# High freq. dielectric constant tensor:
#      x y z
#    x 1.837900 0.000000 0.009080 
#    y 0.000000 1.786760 0.000000 
#    z 0.009080 0.000000 1.829640 
# 
# From -- ./inp_files/98735.got.cif
#   From: 2010.06.25/outbox.cif.g09.slc.cpg/sg15_50_cif.got.tgz:98735.got - 2010.06.28 07:06:18.
