data_PCOD8151468
_publ_section_title
;
Structure prediction by ZEFSAII (Michael W. Deem and Ramdas Pophale) SiO2 
 PCOD8151468
Probable space group: C 2/C
;
_chemical_formula_sum "Si O2"
_cell_formula_units_Z 64
_cell_length_a 27.370478
_cell_length_b 9.364437
_cell_length_c 18.337770
_cell_angle_alpha 90.000000
_cell_angle_beta 138.971880
_cell_angle_gamma 90.000000
_cell_volume 3085.308298
_symmetry_space_group_name_H-M "C 2/C"
_symmetry_group_IT_number 15
_symmetry_cell_setting 'monoclinic'
loop_
_space_group_symop_operation_xyz
x,y,z
-x,y,1/2-z
-x,-y,-z
x,-y,1/2+z
1/2+x,1/2+y,z
1/2-x,1/2+y,1/2-z
1/2-x,1/2-y,-z
1/2+x,1/2-y,1/2+z
loop_
_atom_site_type_symbol
_atom_site_label
_atom_site_fract_x
_atom_site_fract_y
_atom_site_fract_z
Si Si1 0.336720 0.071666 0.528939
Si Si2 0.683284 0.230917 0.259962
Si Si3 0.647011 0.789378 0.297927
Si Si4 0.326792 0.473873 0.147918
Si Si5 0.052254 0.476354 0.626289
Si Si6 0.832617 0.898084 0.986892
Si Si7 0.452036 0.829955 0.629733
Si Si8 0.798639 0.812026 0.383466
O O1 0.330734 0.156558 0.597363
O O2 0.345250 0.182783 0.471875
O O3 0.260979 0.984084 0.434565
O O4 0.406006 0.965804 0.607249
O O5 0.643136 0.352431 0.263492
O O6 0.626858 0.101529 0.183897
O O7 0.753225 0.173125 0.383648
O O8 0.708200 0.293754 0.210590
O O9 0.630362 0.620780 0.284694
O O10 0.715907 0.818786 0.322407
O O11 0.574223 0.871174 0.186586
O O12 0.342128 0.430452 0.082668
O O13 0.000000 0.500000 0.500000
O O14 0.009021 0.376325 0.632729
O O15 0.841425 0.040847 0.948933
O O16 0.897979 0.790779 0.036291
O O17 0.500000 0.765901 0.750000
#
# Coordination Sequence:
#
# PCOD8151468 Si02
#       8
#     8   8   8   8   8   8   8   8
#     4  11  20  43  67 102 133 175 231 285 339 410
#     4  12  26  42  70 102 141 178 232 288 350 410
#     4  11  22  42  70 100 138 176 226 287 344 411
#     4  11  22  41  71 104 131 176 233 294 339 398
#     4  12  27  47  67 100 143 186 224 286 356 420
#     4  12  24  43  69 102 138 178 235 290 336 417
#     4  12  26  42  69  99 137 183 228 277 351 416
#     4  11  24  40  69 105 132 174 235 290 342 399
#
# _framework density 20.743469999999999
#
# number of rings (size 3 to 8) (size 9 to 14) (size 15 to 20)
#    0.000    0.500    6.250    2.625    5.250    0.000 
#    0.000    6.875    0.000    0.000    0.000    0.000 
#    0.000    0.000    0.000    0.000    0.000    0.000 
#
# Total GULP energy -396982.042179 kJ/mol
# GULP energy per Si atom -12405.688818 kJ/mol
# Density = 2.069626 g / cm^3
# Si number density = 20.743470 Si / 1000 Ang^3
#
#
#
# Elastic Constant Matrix: (Units=GPa)
#
#
# Indices 1 2 3 4 5 6 
#
# 1 73.9383 21.7107 28.7999 0.0000 -11.2075 0.0000
# 2 21.7107 110.3379 49.6948 0.0000 -0.2845 0.0000
# 3 28.7999 49.6948 115.4394 0.0000 -5.8910 0.0000
# 4 0.0000 0.0000 0.0000 40.7723 0.0000 2.7574
# 5 -11.2075 -0.2845 -5.8910 0.0000 40.8419 0.0000
# 6 0.0000 0.0000 0.0000 2.7574 0.0000 25.9050
#
#
#
# Elastic Compliance Matrix: (Units=1/GPa)
#
#
# Indices 1 2 3 4 5 6 
#
# 1 0.015793 -0.001752 -0.002987 0.000000 0.003891 0.000000
# 2 -0.001752 0.011453 -0.004547 0.000000 -0.001057 0.000000
# 3 -0.002987 -0.004547 0.011406 0.000000 0.000794 0.000000
# 4 0.000000 0.000000 0.000000 0.024704 0.000000 -0.002630
# 5 0.003891 -0.001057 0.000794 0.000000 0.025659 0.000000
# 6 0.000000 0.000000 0.000000 -0.002630 0.000000 0.038883
#
#
# Mechanical properties :
#
#
# Convention : Reuss Voigt Hill
#
# Bulk Modulus (GPa) = 49.80425 55.56962 52.68694
# Shear Modulus (GPa) = 32.64490 34.80452 33.72471
#
# Velocity S-wave (km/s) = 3.97135 4.10061 4.03649
# Velocity P-wave (km/s) = 6.71495 7.01905 6.86868
#
# Compressibility (1/GPa) = 0.02007861
#
# Stress axis : x y z
#
# Youngs Moduli (GPa) = 63.32112 87.31269 87.67464
#
# Poissons Ratio (x) = 0.15297 0.26190
# Poissons Ratio (y) = 0.11094 0.39868
# Poissons Ratio (z) = 0.18915 0.39703
#
# Static dielectric constant tensor:
#      x y z
#    x 3.588350 0.000000 -0.045060 
#    y 0.000000 4.111920 0.000000 
#    z -0.045060 0.000000 3.686630 
# 
# 
# High freq. dielectric constant tensor:
#      x y z
#    x 1.803250 0.000000 -0.012370 
#    y 0.000000 1.828440 0.000000 
#    z -0.012370 0.000000 1.809040 
# 
# From -- ./inp_files/224622.got.cif
#   From: 2010.06.25/outbox.cif.g09.slc.cpg/sg15_113_cif.got.tgz:224622.got - 2010.06.28 07:06:18.
