data_PCOD8151493
_publ_section_title
;
Structure prediction by ZEFSAII (Michael W. Deem and Ramdas Pophale) SiO2 
 PCOD8151493
Probable space group: C 2/C
;
_chemical_formula_sum "Si O2"
_cell_formula_units_Z 60
_cell_length_a 20.715499
_cell_length_b 17.467038
_cell_length_c 7.938739
_cell_angle_alpha 90.000000
_cell_angle_beta 73.323573
_cell_angle_gamma 90.000000
_cell_volume 2751.723465
_symmetry_space_group_name_H-M "C 2/C"
_symmetry_group_IT_number 15
_symmetry_cell_setting 'monoclinic'
loop_
_space_group_symop_operation_xyz
x,y,z
-x,y,1/2-z
-x,-y,-z
x,-y,1/2+z
1/2+x,1/2+y,z
1/2-x,1/2+y,1/2-z
1/2-x,1/2-y,-z
1/2+x,1/2-y,1/2+z
loop_
_atom_site_type_symbol
_atom_site_label
_atom_site_fract_x
_atom_site_fract_y
_atom_site_fract_z
Si Si1 0.468329 0.576157 0.952393
Si Si2 0.356978 0.076859 0.860150
Si Si3 0.500000 0.848470 0.250000
Si Si4 0.018555 0.236830 0.932563
Si Si5 0.649959 0.763405 0.673617
Si Si6 0.683719 0.914406 0.486212
Si Si7 0.238233 0.314601 0.875439
Si Si8 0.176865 0.119428 0.442317
O O1 0.500000 0.589894 0.750000
O O2 0.490705 0.655452 0.026814
O O3 0.500000 0.500000 0.000000
O O4 0.387383 0.562712 0.011356
O O5 0.435227 0.097159 0.797038
O O6 0.317242 0.088398 0.715035
O O7 0.321533 0.129593 0.026294
O O8 0.352620 0.989633 0.919921
O O9 0.507417 0.798720 0.414237
O O10 0.099451 0.242609 0.865066
O O11 0.000000 0.255755 0.750000
O O12 0.638417 0.844409 0.589127
O O13 0.721962 0.769999 0.712459
O O14 0.647004 0.697895 0.537901
O O15 0.761754 0.913490 0.491323
O O16 0.302214 0.366108 0.770052
O O17 0.250000 0.250000 0.000000
#
# Coordination Sequence:
#
# PCOD8151493 Si02
#       8
#     8   8   4   8   8   8   8   8
#     4  11  26  46  68 102 141 181 238 291 363 429
#     4  12  26  47  65 105 142 188 232 297 352 425
#     4  12  28  46  76 106 144 188 246 284 364 426
#     4  11  23  46  74  99 141 186 232 296 351 426
#     4  11  20  44  70  98 132 179 235 291 351 415
#     4  11  25  44  70  98 144 180 239 292 358 420
#     4  11  23  40  67 103 135 176 241 284 345 425
#     4  11  23  45  73 100 135 190 229 294 360 414
#
# _framework density 21.804517000000001
#
# number of rings (size 3 to 8) (size 9 to 14) (size 15 to 20)
#    0.000    0.800    4.000    5.600    2.800    2.667 
#    3.600    0.000    0.000    0.000    0.000    0.000 
#    0.000    0.000    0.000    0.000    0.000    0.000 
#
# Total GULP energy -371835.577628 kJ/mol
# GULP energy per Si atom -12394.519254 kJ/mol
# Density = 2.175489 g / cm^3
# Si number density = 21.804517 Si / 1000 Ang^3
#
#
#
# Elastic Constant Matrix: (Units=GPa)
#
#
# Indices 1 2 3 4 5 6 
#
# 1 121.3052 64.1791 45.7349 0.0000 -22.6741 0.0000
# 2 64.1791 134.0813 34.0778 0.0000 -2.7533 0.0000
# 3 45.7349 34.0778 101.3853 0.0000 -7.6725 0.0000
# 4 0.0000 0.0000 0.0000 17.9839 0.0000 -0.0795
# 5 -22.6741 -2.7533 -7.6725 0.0000 46.0858 0.0000
# 6 0.0000 0.0000 0.0000 -0.0795 0.0000 30.7210
#
#
#
# Elastic Compliance Matrix: (Units=1/GPa)
#
#
# Indices 1 2 3 4 5 6 
#
# 1 0.013662 -0.005429 -0.003903 0.000000 0.005748 0.000000
# 2 -0.005429 0.010313 -0.001188 0.000000 -0.002253 0.000000
# 3 -0.003903 -0.001188 0.012024 0.000000 0.000011 0.000000
# 4 0.000000 0.000000 0.000000 0.055606 0.000000 0.000144
# 5 0.005748 -0.002253 0.000011 0.000000 0.024394 0.000000
# 6 0.000000 0.000000 0.000000 0.000144 0.000000 0.032551
#
#
# Mechanical properties :
#
#
# Convention : Reuss Voigt Hill
#
# Bulk Modulus (GPa) = 66.85138 71.63948 69.24543
# Shear Modulus (GPa) = 28.64084 33.14348 30.89216
#
# Velocity S-wave (km/s) = 3.62819 3.90298 3.76809
# Velocity P-wave (km/s) = 6.94822 7.29642 7.12444
#
# Compressibility (1/GPa) = 0.01495855
#
# Stress axis : x y z
#
# Youngs Moduli (GPa) = 73.19515 96.96894 83.16707
#
# Poissons Ratio (x) = 0.52649 0.32461
# Poissons Ratio (y) = 0.39741 0.09876
# Poissons Ratio (z) = 0.28568 0.11516
#
# Static dielectric constant tensor:
#      x y z
#    x 4.133610 0.000000 -0.313470 
#    y 0.000000 3.607520 0.000000 
#    z -0.313470 0.000000 4.408200 
# 
# 
# High freq. dielectric constant tensor:
#      x y z
#    x 1.856080 0.000000 -0.011510 
#    y 0.000000 1.859370 0.000000 
#    z -0.011510 0.000000 1.868520 
# 
# From -- ./inp_files/56567.got.cif
#   From: 2010.06.25/outbox.cif.g09.slc.cpg/sg15_29_cif.got.tgz:56567.got - 2010.06.28 07:06:18.
