data_PCOD8151785
_publ_section_title
;
Structure prediction by ZEFSAII (Michael W. Deem and Ramdas Pophale) SiO2 
 PCOD8151785
Probable space group: C 2/C
;
_chemical_formula_sum "Si O2"
_cell_formula_units_Z 60
_cell_length_a 22.468506
_cell_length_b 17.103992
_cell_length_c 11.980783
_cell_angle_alpha 90.000000
_cell_angle_beta 41.951272
_cell_angle_gamma 90.000000
_cell_volume 3077.919238
_symmetry_space_group_name_H-M "C 2/C"
_symmetry_group_IT_number 15
_symmetry_cell_setting 'monoclinic'
loop_
_space_group_symop_operation_xyz
x,y,z
-x,y,1/2-z
-x,-y,-z
x,-y,1/2+z
1/2+x,1/2+y,z
1/2-x,1/2+y,1/2-z
1/2-x,1/2-y,-z
1/2+x,1/2-y,1/2+z
loop_
_atom_site_type_symbol
_atom_site_label
_atom_site_fract_x
_atom_site_fract_y
_atom_site_fract_z
Si Si1 0.463181 0.222307 0.120489
Si Si2 0.500000 0.649562 0.750000
Si Si3 0.160473 0.314426 0.351815
Si Si4 0.585643 0.243902 0.561087
Si Si5 0.706908 0.166605 0.035632
Si Si6 0.820648 0.937425 0.528863
Si Si7 0.239195 0.151255 0.184608
Si Si8 0.196329 0.115618 0.996410
O O1 0.467622 0.297120 0.193663
O O2 0.388727 0.162794 0.270225
O O3 0.554842 0.173707 0.990241
O O4 0.438113 0.254471 0.034583
O O5 0.580260 0.595501 0.598293
O O6 0.196742 0.346983 0.418201
O O7 0.181355 0.222592 0.314005
O O8 0.207095 0.361220 0.186810
O O9 0.500000 0.217303 0.750000
O O10 0.658964 0.176625 0.475652
O O11 0.621032 0.326840 0.554838
O O12 0.769138 0.097721 0.994256
O O13 0.750000 0.250000 0.000000
O O14 0.766041 0.917917 0.717744
O O15 0.829231 0.029515 0.504696
O O16 0.197766 0.121721 0.127405
#
# Coordination Sequence:
#
# PCOD8151785 Si02
#       8
#     8   4   8   8   8   8   8   8
#     4  12  19  38  67  99 119 160 227 271 304 360
#     4  12  24  38  66  98 134 154 208 278 310 378
#     4  11  21  40  66  94 123 169 218 266 304 368
#     4  11  23  39  67  94 122 169 221 259 311 377
#     4  12  19  38  65  93 124 165 220 258 312 370
#     4  12  26  42  63  97 132 170 202 261 331 381
#     4  11  21  44  64  88 126 172 217 260 307 374
#     4  11  27  41  62  92 137 172 200 258 330 386
#
# _framework density 19.493689
#
# number of rings (size 3 to 8) (size 9 to 14) (size 15 to 20)
#    0.000    0.533    6.667    4.000    2.800    0.000 
#    0.000    2.000    0.000    0.000    0.000    0.000 
#    0.000    0.000    0.000    0.000    0.000    0.000 
#
# Total GULP energy -372185.071679 kJ/mol
# GULP energy per Si atom -12406.169056 kJ/mol
# Density = 1.944932 g / cm^3
# Si number density = 19.493689 Si / 1000 Ang^3
#
#
#
# Elastic Constant Matrix: (Units=GPa)
#
#
# Indices 1 2 3 4 5 6 
#
# 1 109.4130 31.8904 27.9290 0.0000 19.3117 0.0000
# 2 31.8904 69.7674 22.2881 0.0000 7.8947 0.0000
# 3 27.9290 22.2881 99.0835 0.0000 -3.0941 0.0000
# 4 0.0000 0.0000 0.0000 18.3839 0.0000 1.7166
# 5 19.3117 7.8947 -3.0941 0.0000 54.3163 0.0000
# 6 0.0000 0.0000 0.0000 1.7166 0.0000 14.2529
#
#
#
# Elastic Compliance Matrix: (Units=1/GPa)
#
#
# Indices 1 2 3 4 5 6 
#
# 1 0.011614 -0.004106 -0.002465 0.000000 -0.003673 0.000000
# 2 -0.004106 0.017226 -0.002755 0.000000 -0.001201 0.000000
# 3 -0.002465 -0.002755 0.011467 0.000000 0.001930 0.000000
# 4 0.000000 0.000000 0.000000 0.055014 0.000000 -0.006626
# 5 -0.003673 -0.001201 0.001930 0.000000 0.020001 0.000000
# 6 0.000000 0.000000 0.000000 -0.006626 0.000000 0.070959
#
#
# Mechanical properties :
#
#
# Convention : Reuss Voigt Hill
#
# Bulk Modulus (GPa) = 46.17640 49.16434 47.67037
# Shear Modulus (GPa) = 23.56812 30.46771 27.01792
#
# Velocity S-wave (km/s) = 3.48086 3.95771 3.72692
# Velocity P-wave (km/s) = 6.31621 6.79412 6.55951
#
# Compressibility (1/GPa) = 0.02165608
#
# Stress axis : x y z
#
# Youngs Moduli (GPa) = 86.10478 58.05162 87.20480
#
# Poissons Ratio (x) = 0.23834 0.21494
# Poissons Ratio (y) = 0.35351 0.24026
# Poissons Ratio (z) = 0.21223 0.15994
#
# Static dielectric constant tensor:
#      x y z
#    x 3.774780 0.000000 -0.011730 
#    y 0.000000 3.242380 0.000000 
#    z -0.011730 0.000000 3.894170 
# 
# 
# High freq. dielectric constant tensor:
#      x y z
#    x 1.776030 0.000000 0.003530 
#    y 0.000000 1.722410 0.000000 
#    z 0.003530 0.000000 1.780270 
# 
# From -- ./inp_files/119453.got.cif
#   From: 2010.06.25/outbox.cif.g09.slc.cpg/sg15_60_cif.got.tgz:119453.got - 2010.06.28 07:06:18.
