data_PCOD8151102
_publ_section_title
;
Structure prediction by ZEFSAII (Michael W. Deem and Ramdas Pophale) SiO2 
 PCOD8151102
Probable space group: C 2/C
;
_chemical_formula_sum "Si O2"
_cell_formula_units_Z 48
_cell_length_a 12.588378
_cell_length_b 10.882479
_cell_length_c 16.876325
_cell_angle_alpha 90.000000
_cell_angle_beta 109.610684
_cell_angle_gamma 90.000000
_cell_volume 2177.830310
_symmetry_space_group_name_H-M "C 2/C"
_symmetry_group_IT_number 15
_symmetry_cell_setting 'monoclinic'
loop_
_space_group_symop_operation_xyz
x,y,z
-x,y,1/2-z
-x,-y,-z
x,-y,1/2+z
1/2+x,1/2+y,z
1/2-x,1/2+y,1/2-z
1/2-x,1/2-y,-z
1/2+x,1/2-y,1/2+z
loop_
_atom_site_type_symbol
_atom_site_label
_atom_site_fract_x
_atom_site_fract_y
_atom_site_fract_z
Si Si1 0.584738 0.987596 0.948141
Si Si2 0.467039 0.453662 0.833464
Si Si3 0.269558 0.994097 0.756718
Si Si4 0.696877 0.453698 0.401152
Si Si5 0.962821 0.314652 0.326442
Si Si6 0.108182 0.703722 0.322015
O O1 0.559949 0.871284 0.885598
O O2 0.564522 0.110686 0.892722
O O3 0.713725 0.972909 0.006686
O O4 0.500000 0.000000 0.000000
O O5 0.500000 0.458661 0.750000
O O6 0.348938 0.527491 0.817295
O O7 0.573619 0.512737 0.906261
O O8 0.444733 0.316833 0.863828
O O9 0.331247 0.886972 0.724783
O O10 0.234347 0.955681 0.838044
O O11 0.346862 0.111904 0.790017
O O12 0.692508 0.311687 0.370241
O O13 0.000000 0.276809 0.250000
O O14 0.000000 0.762328 0.250000
#
# Coordination Sequence:
#
# PCOD8151102 Si02
#       6
#     8   8   8   8   8   8
#     4  12  23  41  64  95 130 169 220 264 332 373
#     4   9  22  38  62  91 125 164 208 264 322 373
#     4  11  19  39  64  95 117 165 218 260 309 379
#     4  11  24  41  62  97 134 165 209 274 326 382
#     4  11  20  41  66  90 123 167 220 264 309 391
#     4  12  22  41  69  95 124 171 222 262 316 389
#
# _framework density 22.040284
#
# number of rings (size 3 to 8) (size 9 to 14) (size 15 to 20)
#    0.000    1.000    5.000    3.000    0.000    0.667 
#    0.000    0.833    3.667    0.000    0.000    0.000 
#    0.000    0.000    0.000    0.000    0.000    0.000 
#
# Total GULP energy -297340.766990 kJ/mol
# GULP energy per Si atom -12389.198625 kJ/mol
# Density = 2.199012 g / cm^3
# Si number density = 22.040284 Si / 1000 Ang^3
#
#
#
# Elastic Constant Matrix: (Units=GPa)
#
#
# Indices 1 2 3 4 5 6 
#
# 1 111.9036 40.5085 44.3453 0.0000 36.3670 0.0000
# 2 40.5085 102.9611 35.8094 0.0000 10.0948 0.0000
# 3 44.3453 35.8094 97.3212 0.0000 27.8455 0.0000
# 4 0.0000 0.0000 0.0000 23.1652 0.0000 13.3031
# 5 36.3670 10.0948 27.8455 0.0000 49.5219 0.0000
# 6 0.0000 0.0000 0.0000 13.3031 0.0000 40.0894
#
#
#
# Elastic Compliance Matrix: (Units=1/GPa)
#
#
# Indices 1 2 3 4 5 6 
#
# 1 0.013959 -0.003774 -0.002692 0.000000 -0.007968 0.000000
# 2 -0.003774 0.012158 -0.003382 0.000000 0.002195 0.000000
# 3 -0.002692 -0.003382 0.014281 0.000000 -0.005364 0.000000
# 4 0.000000 0.000000 0.000000 0.053331 0.000000 -0.017697
# 5 -0.007968 0.002195 -0.005364 0.000000 0.028613 0.000000
# 6 0.000000 0.000000 0.000000 -0.017697 0.000000 0.030817
#
#
# Mechanical properties :
#
#
# Convention : Reuss Voigt Hill
#
# Bulk Modulus (GPa) = 48.30535 61.50137 54.90336
# Shear Modulus (GPa) = 27.81553 35.32347 31.56950
#
# Velocity S-wave (km/s) = 3.55636 4.00769 3.78875
# Velocity P-wave (km/s) = 6.23121 7.02710 6.64109
#
# Compressibility (1/GPa) = 0.02070164
#
# Stress axis : x y z
#
# Youngs Moduli (GPa) = 71.63978 82.24781 70.02384
#
# Poissons Ratio (x) = 0.31044 0.18850
# Poissons Ratio (y) = 0.27040 0.23681
# Poissons Ratio (z) = 0.19285 0.27815
#
# Static dielectric constant tensor:
#      x y z
#    x 4.308620 0.000000 0.194640 
#    y 0.000000 3.958220 0.000000 
#    z 0.194640 0.000000 4.065940 
# 
# 
# High freq. dielectric constant tensor:
#      x y z
#    x 1.882580 0.000000 0.018930 
#    y 0.000000 1.856590 0.000000 
#    z 0.018930 0.000000 1.847260 
# 
# From -- ./inp_files/196581.got.cif
#   From: 2010.06.25/outbox.cif.g09.slc.cpg/sg15_99_cif.got.tgz:196581.got - 2010.06.28 07:06:18.
