data_PCOD8151078
_publ_section_title
;
Structure prediction by ZEFSAII (Michael W. Deem and Ramdas Pophale) SiO2 
 PCOD8151078
Probable space group: C 2/C
;
_chemical_formula_sum "Si O2"
_cell_formula_units_Z 48
_cell_length_a 6.588437
_cell_length_b 20.089572
_cell_length_c 25.301442
_cell_angle_alpha 90.000000
_cell_angle_beta 135.014966
_cell_angle_gamma 90.000000
_cell_volume 2367.390430
_symmetry_space_group_name_H-M "C 2/C"
_symmetry_group_IT_number 15
_symmetry_cell_setting 'monoclinic'
loop_
_space_group_symop_operation_xyz
x,y,z
-x,y,1/2-z
-x,-y,-z
x,-y,1/2+z
1/2+x,1/2+y,z
1/2-x,1/2+y,1/2-z
1/2-x,1/2-y,-z
1/2+x,1/2-y,1/2+z
loop_
_atom_site_type_symbol
_atom_site_label
_atom_site_fract_x
_atom_site_fract_y
_atom_site_fract_z
Si Si1 0.214715 0.663049 0.176342
Si Si2 0.848128 0.773892 0.961097
Si Si3 0.934249 0.547851 0.180913
Si Si4 0.773155 0.541364 0.839707
Si Si5 0.613049 0.144488 0.961393
Si Si6 0.820897 0.924432 0.597349
O O1 0.500000 0.701706 0.250000
O O2 0.266856 0.635907 0.127206
O O3 0.935399 0.708476 0.124754
O O4 0.175452 0.602517 0.210679
O O5 0.986049 0.713944 0.955395
O O6 0.750000 0.750000 0.000000
O O7 0.070479 0.836904 0.004478
O O8 0.626557 0.581869 0.124973
O O9 0.000000 0.516493 0.250000
O O10 0.956375 0.490115 0.141564
O O11 0.500000 0.547254 0.750000
O O12 0.708355 0.496036 0.879571
O O13 0.892536 0.613541 0.878063
O O14 0.614079 0.090159 0.009365
#
# Coordination Sequence:
#
# PCOD8151078 Si02
#       6
#     8   8   8   8   8   8
#     4  11  21  37  66  98 120 160 221 264 307 365
#     4  11  24  45  63  88 128 170 217 260 304 371
#     4  11  19  37  64  93 127 162 199 257 320 367
#     4  11  24  41  62  98 131 159 206 257 316 383
#     4  11  25  43  65  90 127 173 209 258 314 374
#     4  11  20  39  68  93 123 163 207 261 312 376
#
# _framework density 20.275489
#
# number of rings (size 3 to 8) (size 9 to 14) (size 15 to 20)
#    0.000    1.000    6.667    1.500    0.000    2.000 
#    3.000    0.000    0.000    0.000    0.000    0.000 
#    0.000    0.000    0.000    0.000    0.000    0.000 
#
# Total GULP energy -297423.861946 kJ/mol
# GULP energy per Si atom -12392.660914 kJ/mol
# Density = 2.022934 g / cm^3
# Si number density = 20.275489 Si / 1000 Ang^3
#
#
#
# Elastic Constant Matrix: (Units=GPa)
#
#
# Indices 1 2 3 4 5 6 
#
# 1 114.6745 31.1059 41.8625 -0.0008 2.1784 -0.0014
# 2 31.1059 76.6162 53.6383 -0.0001 3.4796 -0.0002
# 3 41.8625 53.6383 119.8775 -0.0001 11.9599 -0.0003
# 4 -0.0008 -0.0001 -0.0001 31.7191 -0.0004 3.2819
# 5 2.1784 3.4796 11.9599 -0.0004 35.0479 -0.0007
# 6 -0.0014 -0.0002 -0.0003 3.2819 -0.0007 13.3608
#
#
#
# Elastic Compliance Matrix: (Units=1/GPa)
#
#
# Indices 1 2 3 4 5 6 
#
# 1 0.010301 -0.002406 -0.002568 0.000000 0.000475 0.000001
# 2 -0.002406 0.019605 -0.008026 0.000000 0.000942 0.000000
# 3 -0.002568 -0.008026 0.013183 0.000000 -0.003542 0.000000
# 4 0.000000 0.000000 0.000000 0.032349 0.000000 -0.007946
# 5 0.000475 0.000942 -0.003542 0.000000 0.029618 0.000002
# 6 0.000001 0.000000 0.000000 -0.007946 0.000002 0.076798
#
#
# Mechanical properties :
#
#
# Convention : Reuss Voigt Hill
#
# Bulk Modulus (GPa) = 58.51540 62.70908 60.61224
# Shear Modulus (GPa) = 23.41361 28.32968 25.87164
#
# Velocity S-wave (km/s) = 3.40188 3.74202 3.57600
# Velocity P-wave (km/s) = 6.65982 7.04741 6.85635
#
# Compressibility (1/GPa) = 0.01708952
#
# Stress axis : x y z
#
# Youngs Moduli (GPa) = 97.07345 51.00757 75.85394
#
# Poissons Ratio (x) = 0.12272 0.19481
# Poissons Ratio (y) = 0.23355 0.60879
# Poissons Ratio (z) = 0.24931 0.40938
#
# Static dielectric constant tensor:
#      x y z
#    x 4.023240 0.000000 0.079680 
#    y 0.000000 3.409460 0.000000 
#    z 0.079680 0.000000 3.713870 
# 
# 
# High freq. dielectric constant tensor:
#      x y z
#    x 1.811170 0.000000 0.003000 
#    y 0.000000 1.760920 0.000000 
#    z 0.003000 0.000000 1.793420 
# 
# From -- ./inp_files/261297.got.cif
#   From: 2010.06.25/outbox.cif.g09.slc.cpg/sg15_131_cif.got.tgz:261297.got - 2010.06.28 07:06:18.
