data_PCOD8151957
_publ_section_title
;
Structure prediction by ZEFSAII (Michael W. Deem and Ramdas Pophale) SiO2 
 PCOD8151957
Probable space group: C 2/C
;
_chemical_formula_sum "Si O2"
_cell_formula_units_Z 44
_cell_length_a 16.017527
_cell_length_b 9.706720
_cell_length_c 14.200798
_cell_angle_alpha 90.000000
_cell_angle_beta 77.555186
_cell_angle_gamma 90.000000
_cell_volume 2156.029774
_symmetry_space_group_name_H-M "C 2/C"
_symmetry_group_IT_number 15
_symmetry_cell_setting 'monoclinic'
loop_
_space_group_symop_operation_xyz
x,y,z
-x,y,1/2-z
-x,-y,-z
x,-y,1/2+z
1/2+x,1/2+y,z
1/2-x,1/2+y,1/2-z
1/2-x,1/2-y,-z
1/2+x,1/2-y,1/2+z
loop_
_atom_site_type_symbol
_atom_site_label
_atom_site_fract_x
_atom_site_fract_y
_atom_site_fract_z
Si Si1 0.945698 0.097171 0.949403
Si Si2 0.505892 0.853261 0.451633
Si Si3 0.318242 0.836503 0.422004
Si Si4 0.000000 0.020128 0.250000
Si Si5 0.731121 0.380041 0.940219
Si Si6 0.638378 0.731577 0.287538
O O1 0.850429 0.047741 0.994098
O O2 0.961945 0.082179 0.835886
O O3 0.963246 0.254277 0.972403
O O4 0.000000 0.000000 0.000000
O O5 0.414002 0.805162 0.434408
O O6 0.578324 0.847924 0.351968
O O7 0.500000 0.000000 0.500000
O O8 0.250000 0.750000 0.500000
O O9 0.312203 0.790708 0.314591
O O10 0.303510 0.001839 0.427031
O O11 0.924483 0.108337 0.223983
O O12 0.711670 0.327424 0.838958
O O13 0.750000 0.250000 0.000000
#
# Coordination Sequence:
#
# PCOD8151957 Si02
#       6
#     8   8   8   4   8   8
#     4  11  21  43  70  93 121 179 223 260 314 394
#     4  11  23  44  66  93 137 173 217 268 329 395
#     4  12  24  41  68 100 129 173 218 271 334 386
#     4  12  20  40  74  94 122 170 238 262 304 390
#     4  11  25  44  64  96 140 165 211 279 333 381
#     4  11  23  43  69  94 132 179 218 273 326 391
#
# _framework density 20.407879999999999
#
# number of rings (size 3 to 8) (size 9 to 14) (size 15 to 20)
#    0.000    0.727    5.455    4.364    0.000    4.364 
#    6.545    0.000    0.000    0.000    0.000    0.000 
#    0.000    0.000    0.000    0.000    0.000    0.000 
#
# Total GULP energy -272768.395480 kJ/mol
# GULP energy per Si atom -12398.563431 kJ/mol
# Density = 2.036143 g / cm^3
# Si number density = 20.407880 Si / 1000 Ang^3
#
#
#
# Elastic Constant Matrix: (Units=GPa)
#
#
# Indices 1 2 3 4 5 6 
#
# 1 61.1280 4.3803 16.2755 0.0000 -0.8858 0.0000
# 2 4.3803 93.1624 44.5920 0.0000 -7.0206 0.0000
# 3 16.2755 44.5920 164.6161 0.0000 -12.2327 0.0000
# 4 0.0000 0.0000 0.0000 34.3547 0.0000 3.2142
# 5 -0.8858 -7.0206 -12.2327 0.0000 37.6734 0.0000
# 6 0.0000 0.0000 0.0000 3.2142 0.0000 35.7058
#
#
#
# Elastic Compliance Matrix: (Units=1/GPa)
#
#
# Indices 1 2 3 4 5 6 
#
# 1 0.016802 -0.000001 -0.001672 0.000000 -0.000148 0.000000
# 2 -0.000001 0.012390 -0.003263 0.000000 0.001249 0.000000
# 3 -0.001672 -0.003263 0.007251 0.000000 0.001707 0.000000
# 4 0.000000 0.000000 0.000000 0.029355 0.000000 -0.002643
# 5 -0.000148 0.001249 0.001707 0.000000 0.027328 0.000000
# 6 0.000000 0.000000 0.000000 -0.002643 0.000000 0.028245
#
#
# Mechanical properties :
#
#
# Convention : Reuss Voigt Hill
#
# Bulk Modulus (GPa) = 37.63533 49.93355 43.78444
# Shear Modulus (GPa) = 35.68879 38.45736 37.07308
#
# Velocity S-wave (km/s) = 4.18637 4.34572 4.26679
# Velocity P-wave (km/s) = 6.46910 7.04991 6.76574
#
# Compressibility (1/GPa) = 0.02657078
#
# Stress axis : x y z
#
# Youngs Moduli (GPa) = 59.51604 80.70933 137.91407
#
# Poissons Ratio (x) = 0.00007 0.23059
# Poissons Ratio (y) = 0.00005 0.45007
# Poissons Ratio (z) = 0.09951 0.26339
#
# Static dielectric constant tensor:
#      x y z
#    x 3.939340 0.000000 -0.074630 
#    y 0.000000 2.860030 0.000000 
#    z -0.074630 0.000000 3.676970 
# 
# 
# High freq. dielectric constant tensor:
#      x y z
#    x 1.805860 0.000000 0.004970 
#    y 0.000000 1.797650 0.000000 
#    z 0.004970 0.000000 1.808420 
# 
# From -- ./inp_files/159295.got.cif
#   From: 2010.06.25/outbox.cif.g09.slc.cpg/sg15_80_cif.got.tgz:159295.got - 2010.06.28 07:06:18.
