data_PCOD8151751
_publ_section_title
;
Structure prediction by ZEFSAII (Michael W. Deem and Ramdas Pophale) SiO2 
 PCOD8151751
Probable space group: C 2/C
;
_chemical_formula_sum "Si O2"
_cell_formula_units_Z 64
_cell_length_a 12.053034
_cell_length_b 27.809257
_cell_length_c 13.167329
_cell_angle_alpha 90.000000
_cell_angle_beta 44.711767
_cell_angle_gamma 90.000000
_cell_volume 3105.079046
_symmetry_space_group_name_H-M "C 2/C"
_symmetry_group_IT_number 15
_symmetry_cell_setting 'monoclinic'
loop_
_space_group_symop_operation_xyz
x,y,z
-x,y,1/2-z
-x,-y,-z
x,-y,1/2+z
1/2+x,1/2+y,z
1/2-x,1/2+y,1/2-z
1/2-x,1/2-y,-z
1/2+x,1/2-y,1/2+z
loop_
_atom_site_type_symbol
_atom_site_label
_atom_site_fract_x
_atom_site_fract_y
_atom_site_fract_z
Si Si1 0.835278 0.706685 0.649211
Si Si2 0.343659 0.332143 0.416049
Si Si3 0.322176 0.563544 0.899384
Si Si4 0.340242 0.516233 0.549888
Si Si5 0.391554 0.380737 0.916060
Si Si6 0.478291 0.297880 0.013385
Si Si7 0.400851 0.963126 0.128821
Si Si8 0.046296 0.629880 0.607449
O O1 0.776014 0.701055 0.571213
O O2 0.689222 0.711357 0.822668
O O3 0.956607 0.750732 0.585937
O O4 0.937776 0.659435 0.601826
O O5 0.500000 0.339779 0.250000
O O6 0.280726 0.385948 0.481376
O O7 0.381871 0.307865 0.497807
O O8 0.500000 0.559027 0.750000
O O9 0.219090 0.564468 0.865521
O O10 0.286922 0.518194 0.993398
O O11 0.500000 0.500000 0.500000
O O12 0.358071 0.571242 0.502231
O O13 0.198474 0.509932 0.720783
O O14 0.500000 0.393296 0.750000
O O15 0.468404 0.341372 0.940244
O O16 0.231035 0.359133 0.973687
O O17 0.519798 0.926365 0.104941
O O18 0.500000 0.000000 0.000000
O O19 0.000000 0.645202 0.750000
#
# Coordination Sequence:
#
# PCOD8151751 Si02
#       8
#     8   8   8   8   8   8   8   8
#     4  11  23  43  70 100 132 176 222 279 342 403
#     4   9  20  41  68  97 133 171 222 273 336 400
#     4  11  21  39  68  99 129 177 227 270 331 403
#     4  12  24  42  68  99 136 175 223 278 328 393
#     4  12  28  45  69 100 136 177 228 281 337 405
#     4  11  24  43  70  99 132 176 224 279 341 405
#     4  12  26  42  67  97 135 179 224 272 337 401
#     4  12  24  47  68  92 136 178 219 278 341 399
#
# _framework density 20.611391999999999
#
# number of rings (size 3 to 8) (size 9 to 14) (size 15 to 20)
#    0.000    0.750    5.000    2.250    5.250    1.000 
#    0.000    0.000    2.750    0.000    0.000    0.000 
#    0.000    0.000    0.000    0.000    0.000    0.000 
#
# Total GULP energy -396841.303941 kJ/mol
# GULP energy per Si atom -12401.290748 kJ/mol
# Density = 2.056448 g / cm^3
# Si number density = 20.611392 Si / 1000 Ang^3
#
#
#
# Elastic Constant Matrix: (Units=GPa)
#
#
# Indices 1 2 3 4 5 6 
#
# 1 94.3125 16.5745 27.8440 0.0000 -5.7988 0.0000
# 2 16.5745 110.7529 37.1813 0.0000 -0.0543 0.0000
# 3 27.8440 37.1813 117.1454 0.0000 1.2287 0.0000
# 4 0.0000 0.0000 0.0000 32.5142 0.0000 -8.3015
# 5 -5.7988 -0.0543 1.2287 0.0000 28.3737 0.0000
# 6 0.0000 0.0000 0.0000 -8.3015 0.0000 43.5323
#
#
#
# Elastic Compliance Matrix: (Units=1/GPa)
#
#
# Indices 1 2 3 4 5 6 
#
# 1 0.011656 -0.000900 -0.002511 0.000000 0.002489 0.000000
# 2 -0.000900 0.010176 -0.003016 0.000000 -0.000034 0.000000
# 3 -0.002511 -0.003016 0.010100 0.000000 -0.000956 0.000000
# 4 0.000000 0.000000 0.000000 0.032330 0.000000 0.006165
# 5 0.002489 -0.000034 -0.000956 0.000000 0.035794 0.000000
# 6 0.000000 0.000000 0.000000 0.006165 0.000000 0.024147
#
#
# Mechanical properties :
#
#
# Convention : Reuss Voigt Hill
#
# Bulk Modulus (GPa) = 52.41345 53.93448 53.17396
# Shear Modulus (GPa) = 34.86370 36.92478 35.89424
#
# Velocity S-wave (km/s) = 4.11722 4.23717 4.17763
# Velocity P-wave (km/s) = 6.93445 7.08253 7.00888
#
# Compressibility (1/GPa) = 0.01907907
#
# Stress axis : x y z
#
# Youngs Moduli (GPa) = 85.79607 98.26885 99.00666
#
# Poissons Ratio (x) = 0.08846 0.24858
# Poissons Ratio (y) = 0.07723 0.29856
# Poissons Ratio (z) = 0.21541 0.29633
#
# Static dielectric constant tensor:
#      x y z
#    x 3.948560 0.000000 -0.123040 
#    y 0.000000 3.777610 0.000000 
#    z -0.123040 0.000000 3.647110 
# 
# 
# High freq. dielectric constant tensor:
#      x y z
#    x 1.825780 0.000000 -0.005760 
#    y 0.000000 1.812750 0.000000 
#    z -0.005760 0.000000 1.792220 
# 
# From -- ./inp_files/148740.got.cif
#   From: 2010.06.25/outbox.cif.g09.slc.cpg/sg15_75_cif.got.tgz:148740.got - 2010.06.28 07:06:18.
