data_PCOD8151230
_publ_section_title
;
Structure prediction by ZEFSAII (Michael W. Deem and Ramdas Pophale) SiO2 
 PCOD8151230
Probable space group: C 2/C
;
_chemical_formula_sum "Si O2"
_cell_formula_units_Z 48
_cell_length_a 24.604264
_cell_length_b 7.284369
_cell_length_c 11.652655
_cell_angle_alpha 90.000000
_cell_angle_beta 112.554597
_cell_angle_gamma 90.000000
_cell_volume 1928.727629
_symmetry_space_group_name_H-M "C 2/C"
_symmetry_group_IT_number 15
_symmetry_cell_setting 'monoclinic'
loop_
_space_group_symop_operation_xyz
x,y,z
-x,y,1/2-z
-x,-y,-z
x,-y,1/2+z
1/2+x,1/2+y,z
1/2-x,1/2+y,1/2-z
1/2-x,1/2-y,-z
1/2+x,1/2-y,1/2+z
loop_
_atom_site_type_symbol
_atom_site_label
_atom_site_fract_x
_atom_site_fract_y
_atom_site_fract_z
Si Si1 0.561450 0.733500 0.550229
Si Si2 0.673533 0.129884 0.249583
Si Si3 0.240955 0.147238 0.611701
Si Si4 0.154482 0.147578 0.950597
Si Si5 0.569550 0.704846 0.064961
Si Si6 0.432830 0.344235 0.691436
O O1 0.604140 0.860695 0.661637
O O2 0.494032 0.779713 0.528164
O O3 0.572243 0.516957 0.573010
O O4 0.575465 0.782332 0.427865
O O5 0.710726 0.221090 0.178294
O O6 0.686087 0.228112 0.381599
O O7 0.696510 0.921331 0.285284
O O8 0.250000 0.250000 0.500000
O O9 0.201566 0.967920 0.560189
O O10 0.108821 0.020652 0.845180
O O11 0.118788 0.273154 0.014873
O O12 0.581855 0.772743 0.205415
O O13 0.500000 0.418807 0.750000
#
# Coordination Sequence:
#
# PCOD8151230 Si02
#       6
#     8   8   8   8   8   8
#     4   9  17  30  57 100 141 182 228 289 333 407
#     4  12  24  43  68 100 142 181 246 297 352 419
#     4  12  27  47  68  97 136 191 244 298 360 420
#     4  11  20  36  64 104 142 183 231 282 350 418
#     4   9  16  29  58 103 146 178 229 271 345 421
#     4   9  15  28  54  96 144 176 231 276 322 413
#
# _framework density 24.886873999999999
#
# number of rings (size 3 to 8) (size 9 to 14) (size 15 to 20)
#    0.000    1.667    5.000    2.500    0.000    0.000 
#    0.000    0.000    0.000    0.000    4.333    8.167 
#    0.000    0.000    0.000    0.000    0.000    0.000 
#
# Total GULP energy -297528.436591 kJ/mol
# GULP energy per Si atom -12397.018191 kJ/mol
# Density = 2.483023 g / cm^3
# Si number density = 24.886874 Si / 1000 Ang^3
#
#
#
# Elastic Constant Matrix: (Units=GPa)
#
#
# Indices 1 2 3 4 5 6 
#
# 1 130.7862 30.9336 59.3174 0.0000 -20.7757 0.0000
# 2 30.9336 33.4249 31.3722 0.0000 -1.3339 0.0000
# 3 59.3174 31.3722 137.8885 0.0000 -14.3937 0.0000
# 4 0.0000 0.0000 0.0000 35.2711 0.0000 2.2121
# 5 -20.7757 -1.3339 -14.3937 0.0000 64.6537 0.0000
# 6 0.0000 0.0000 0.0000 2.2121 0.0000 15.3476
#
#
#
# Elastic Compliance Matrix: (Units=1/GPa)
#
#
# Indices 1 2 3 4 5 6 
#
# 1 0.011148 -0.007602 -0.002773 0.000000 0.002808 0.000000
# 2 -0.007602 0.043313 -0.006906 0.000000 -0.003087 0.000000
# 3 -0.002773 -0.006906 0.010144 0.000000 0.001225 0.000000
# 4 0.000000 0.000000 0.000000 0.028610 0.000000 -0.004124
# 5 0.002808 -0.003087 0.001225 0.000000 0.016578 0.000000
# 6 0.000000 0.000000 0.000000 -0.004124 0.000000 0.065751
#
#
# Mechanical properties :
#
#
# Convention : Reuss Voigt Hill
#
# Bulk Modulus (GPa) = 33.28700 60.59402 46.94051
# Shear Modulus (GPa) = 22.71473 35.08622 28.90048
#
# Velocity S-wave (km/s) = 3.02440 3.75884 3.41144
# Velocity P-wave (km/s) = 5.05968 6.57565 5.86684
#
# Compressibility (1/GPa) = 0.03004176
#
# Stress axis : x y z
#
# Youngs Moduli (GPa) = 89.70337 23.08801 98.57840
#
# Poissons Ratio (x) = 0.17552 0.27334
# Poissons Ratio (y) = 0.68196 0.68080
# Poissons Ratio (z) = 0.24873 0.15945
#
# Static dielectric constant tensor:
#      x y z
#    x 4.853770 0.000000 -0.144730 
#    y 0.000000 3.831460 0.000000 
#    z -0.144730 0.000000 5.041650 
# 
# 
# High freq. dielectric constant tensor:
#      x y z
#    x 2.006660 0.000000 -0.003180 
#    y 0.000000 1.937290 0.000000 
#    z -0.003180 0.000000 2.011780 
# 
# From -- ./inp_files/116783.got.cif
#   From: 2010.06.25/outbox.cif.g09.slc.cpg/sg15_59_cif.got.tgz:116783.got - 2010.06.28 07:06:18.
