data_PCOD8151605
_publ_section_title
;
Structure prediction by ZEFSAII (Michael W. Deem and Ramdas Pophale) SiO2 
 PCOD8151605
Probable space group: C 2/C
;
_chemical_formula_sum "Si O2"
_cell_formula_units_Z 60
_cell_length_a 17.789142
_cell_length_b 21.527703
_cell_length_c 12.000520
_cell_angle_alpha 90.000000
_cell_angle_beta 40.748482
_cell_angle_gamma 90.000000
_cell_volume 2999.803277
_symmetry_space_group_name_H-M "C 2/C"
_symmetry_group_IT_number 15
_symmetry_cell_setting 'monoclinic'
loop_
_space_group_symop_operation_xyz
x,y,z
-x,y,1/2-z
-x,-y,-z
x,-y,1/2+z
1/2+x,1/2+y,z
1/2-x,1/2+y,1/2-z
1/2-x,1/2-y,-z
1/2+x,1/2-y,1/2+z
loop_
_atom_site_type_symbol
_atom_site_label
_atom_site_fract_x
_atom_site_fract_y
_atom_site_fract_z
Si Si1 0.516067 0.409884 0.908979
Si Si2 0.233102 0.136961 0.057530
Si Si3 0.680091 0.317815 0.389309
Si Si4 0.500000 0.064044 0.250000
Si Si5 0.062698 0.305599 0.059235
Si Si6 0.187211 0.479031 0.157136
Si Si7 0.071008 0.038113 0.570355
Si Si8 0.604776 0.122594 0.918176
O O1 0.601057 0.367006 0.742673
O O2 0.506920 0.478012 0.868057
O O3 0.389805 0.381309 0.046826
O O4 0.566968 0.412631 0.975501
O O5 0.234560 0.184543 0.952269
O O6 0.313674 0.162389 0.064278
O O7 0.280375 0.069148 0.975267
O O8 0.594993 0.260020 0.464364
O O9 0.791034 0.326883 0.184443
O O10 0.437825 0.108393 0.409664
O O11 0.586227 0.021633 0.223437
O O12 0.000000 0.298714 0.250000
O O13 0.991933 0.346743 0.052052
O O14 0.147048 0.441736 0.312879
O O15 0.295697 0.523195 0.059021
O O16 0.000000 0.070523 0.750000
#
# Coordination Sequence:
#
# PCOD8151605 Si02
#       8
#     8   8   8   4   8   8   8   8
#     4  11  22  36  59  89 129 163 203 251 312 375
#     4  11  21  37  62  96 128 155 203 262 316 376
#     4  11  23  40  65  91 126 161 207 263 321 363
#     4  12  28  42  68  84 136 172 210 256 318 382
#     4  12  23  40  67  94 129 161 210 266 322 370
#     4  11  22  40  65  92 127 166 207 255 313 381
#     4  11  22  36  59  90 127 166 203 251 308 370
#     4  11  26  45  61  98 124 166 217 261 315 386
#
# _framework density 20.001311000000001
#
# number of rings (size 3 to 8) (size 9 to 14) (size 15 to 20)
#    0.000    0.800    6.667    2.800    7.467    0.000 
#    0.000    0.667    1.467    0.000    0.000    0.000 
#    0.000    0.000    0.000    0.000    0.000    0.000 
#
# Total GULP energy -371950.418265 kJ/mol
# GULP energy per Si atom -12398.347275 kJ/mol
# Density = 1.995579 g / cm^3
# Si number density = 20.001311 Si / 1000 Ang^3
#
#
#
# Elastic Constant Matrix: (Units=GPa)
#
#
# Indices 1 2 3 4 5 6 
#
# 1 53.0811 13.6661 44.3013 0.0000 -3.8706 0.0000
# 2 13.6661 44.2665 30.6136 0.0001 5.6492 -0.0001
# 3 44.3013 30.6136 119.4824 0.0002 -0.6900 -0.0002
# 4 0.0000 0.0001 0.0002 15.2809 -0.0001 3.7173
# 5 -3.8706 5.6492 -0.6900 -0.0001 33.1781 0.0001
# 6 0.0000 -0.0001 -0.0002 3.7173 0.0001 9.1584
#
#
#
# Elastic Compliance Matrix: (Units=1/GPa)
#
#
# Indices 1 2 3 4 5 6 
#
# 1 0.027766 -0.002314 -0.009682 0.000000 0.003432 0.000000
# 2 -0.002314 0.028442 -0.006460 0.000000 -0.005247 0.000000
# 3 -0.009682 -0.006460 0.013616 0.000000 0.000253 0.000000
# 4 0.000000 0.000000 0.000000 0.072611 0.000000 -0.029472
# 5 0.003432 -0.005247 0.000253 0.000000 0.031439 0.000000
# 6 0.000000 0.000000 0.000000 -0.029472 0.000000 0.121152
#
#
# Mechanical properties :
#
#
# Convention : Reuss Voigt Hill
#
# Bulk Modulus (GPa) = 30.38417 43.77688 37.08053
# Shear Modulus (GPa) = 14.58119 20.07341 17.32730
#
# Velocity S-wave (km/s) = 2.70295 3.17141 2.94650
# Velocity P-wave (km/s) = 4.99653 5.94516 5.49137
#
# Compressibility (1/GPa) = 0.03291187
#
# Stress axis : x y z
#
# Youngs Moduli (GPa) = 36.01551 35.15961 73.44341
#
# Poissons Ratio (x) = 0.08136 0.71110
# Poissons Ratio (y) = 0.08334 0.47442
# Poissons Ratio (z) = 0.34871 0.22712
#
# Static dielectric constant tensor:
#      x y z
#    x 3.714550 0.000000 -0.027680 
#    y 0.000000 3.486610 0.000000 
#    z -0.027680 0.000000 3.911100 
# 
# 
# High freq. dielectric constant tensor:
#      x y z
#    x 1.780820 0.000000 -0.025040 
#    y 0.000000 1.756570 0.000000 
#    z -0.025040 0.000000 1.781780 
# 
# From -- ./inp_files/100667.got.cif
#   From: 2010.06.25/outbox.cif.g09.slc.cpg/sg15_51_cif.got.tgz:100667.got - 2010.06.28 07:06:18.
