data_PCOD8151704
_publ_section_title
;
Structure prediction by ZEFSAII (Michael W. Deem and Ramdas Pophale) SiO2 
 PCOD8151704
Probable space group: C 2/C
;
_chemical_formula_sum "Si O2"
_cell_formula_units_Z 64
_cell_length_a 9.999419
_cell_length_b 19.793229
_cell_length_c 22.287950
_cell_angle_alpha 90.000000
_cell_angle_beta 48.194710
_cell_angle_gamma 90.000000
_cell_volume 3288.208535
_symmetry_space_group_name_H-M "C 2/C"
_symmetry_group_IT_number 15
_symmetry_cell_setting 'monoclinic'
loop_
_space_group_symop_operation_xyz
x,y,z
-x,y,1/2-z
-x,-y,-z
x,-y,1/2+z
1/2+x,1/2+y,z
1/2-x,1/2+y,1/2-z
1/2-x,1/2-y,-z
1/2+x,1/2-y,1/2+z
loop_
_atom_site_type_symbol
_atom_site_label
_atom_site_fract_x
_atom_site_fract_y
_atom_site_fract_z
Si Si1 0.335129 0.971201 0.511807
Si Si2 0.695569 0.262024 0.609536
Si Si3 0.007478 0.193664 0.573027
Si Si4 0.622188 0.558899 0.488442
Si Si5 0.257263 0.258838 0.397974
Si Si6 0.549025 0.832137 0.062460
Si Si7 0.981836 0.101140 0.322091
Si Si8 0.203508 0.375730 0.678602
O O1 0.406483 0.911159 0.447876
O O2 0.169869 0.943678 0.600610
O O3 0.500000 0.000000 0.500000
O O4 0.270013 0.032144 0.490228
O O5 0.572722 0.201813 0.620275
O O6 0.818695 0.293804 0.521693
O O7 0.575522 0.321545 0.671638
O O8 0.813213 0.228022 0.626533
O O9 0.000210 0.113736 0.560255
O O10 0.140874 0.225101 0.484749
O O11 0.067071 0.209352 0.623426
O O12 0.500000 0.500000 0.500000
O O13 0.727115 0.589902 0.401901
O O14 0.298818 0.204892 0.333029
O O15 0.153943 0.321717 0.399064
O O16 0.000000 0.069395 0.250000
O O17 0.167733 0.102483 0.304472
O O18 0.000000 0.400563 0.750000
#
# Coordination Sequence:
#
# PCOD8151704 Si02
#       8
#     8   8   8   8   8   8   8   8
#     4  11  23  37  62  92 119 162 211 253 295 357
#     4   9  17  31  56  82 108 141 181 232 302 344
#     4   9  18  29  55  86 111 142 178 244 291 339
#     4  11  21  39  61  89 123 161 216 251 289 360
#     4   9  17  33  53  83 114 138 185 234 298 349
#     4   9  16  31  55  81 111 141 182 236 288 340
#     4  11  24  40  60  87 121 154 200 258 314 373
#     4  11  24  39  62  86 118 160 198 255 317 369
#
# _framework density 19.463487000000001
#
# number of rings (size 3 to 8) (size 9 to 14) (size 15 to 20)
#    0.000    2.000    2.500    1.500    7.000    2.000 
#    0.000    0.000    0.000    9.000    0.000    0.000 
#    0.000    0.000    0.000    0.000    0.000    0.000 
#
# Total GULP energy -396641.712492 kJ/mol
# GULP energy per Si atom -12395.053515 kJ/mol
# Density = 1.941919 g / cm^3
# Si number density = 19.463487 Si / 1000 Ang^3
#
#
#
# Elastic Constant Matrix: (Units=GPa)
#
#
# Indices 1 2 3 4 5 6 
#
# 1 160.0719 35.9966 34.9659 -0.0016 -14.7111 0.0007
# 2 35.9966 86.9806 17.6332 -0.0011 -6.4622 0.0006
# 3 34.9659 17.6332 56.0111 -0.0012 -3.8270 0.0009
# 4 -0.0016 -0.0011 -0.0012 13.9299 0.0017 -4.2744
# 5 -14.7111 -6.4622 -3.8270 0.0017 28.1059 -0.0006
# 6 0.0007 0.0006 0.0009 -4.2744 -0.0006 40.1711
#
#
#
# Elastic Compliance Matrix: (Units=1/GPa)
#
#
# Indices 1 2 3 4 5 6 
#
# 1 0.007911 -0.002229 -0.004026 0.000000 0.003080 0.000000
# 2 -0.002229 0.013060 -0.002619 0.000000 0.001480 0.000000
# 3 -0.004026 -0.002619 0.021204 0.000001 0.000177 0.000000
# 4 0.000000 0.000000 0.000001 0.074211 -0.000004 0.007896
# 5 0.003080 0.001480 0.000177 -0.000004 0.037556 0.000000
# 6 0.000000 0.000000 0.000000 0.007896 0.000000 0.025734
#
#
# Mechanical properties :
#
#
# Convention : Reuss Voigt Hill
#
# Bulk Modulus (GPa) = 40.93956 53.36166 47.15061
# Shear Modulus (GPa) = 24.32299 30.73923 27.53111
#
# Velocity S-wave (km/s) = 3.53891 3.97839 3.76506
# Velocity P-wave (km/s) = 6.14640 6.96988 6.57105
#
# Compressibility (1/GPa) = 0.02442625
#
# Stress axis : x y z
#
# Youngs Moduli (GPa) = 126.40609 76.56917 47.16126
#
# Poissons Ratio (x) = 0.17066 0.18989
# Poissons Ratio (y) = 0.28174 0.12352
# Poissons Ratio (z) = 0.50897 0.20054
#
# Static dielectric constant tensor:
#      x y z
#    x 3.876220 -0.000010 -0.062390 
#    y -0.000010 4.296210 0.000010 
#    z -0.062390 0.000010 3.118550 
# 
# 
# High freq. dielectric constant tensor:
#      x y z
#    x 1.779460 0.000000 -0.006520 
#    y 0.000000 1.752940 0.000000 
#    z -0.006520 0.000000 1.715570 
# 
# From -- ./inp_files/289982.got.cif
#   From: 2010.06.25/outbox.cif.g09.slc.cpg/sg15_145_cif.got.tgz:289982.got - 2010.06.28 07:06:18.
