data_PCOD8151603
_publ_section_title
;
Structure prediction by ZEFSAII (Michael W. Deem and Ramdas Pophale) SiO2 
 PCOD8151603
Probable space group: C 2/C
;
_chemical_formula_sum "Si O2"
_cell_formula_units_Z 48
_cell_length_a 13.126705
_cell_length_b 22.250727
_cell_length_c 16.557573
_cell_angle_alpha 90.000000
_cell_angle_beta 33.147373
_cell_angle_gamma 90.000000
_cell_volume 2644.360596
_symmetry_space_group_name_H-M "C 2/C"
_symmetry_group_IT_number 15
_symmetry_cell_setting 'monoclinic'
loop_
_space_group_symop_operation_xyz
x,y,z
-x,y,1/2-z
-x,-y,-z
x,-y,1/2+z
1/2+x,1/2+y,z
1/2-x,1/2+y,1/2-z
1/2-x,1/2-y,-z
1/2+x,1/2-y,1/2+z
loop_
_atom_site_type_symbol
_atom_site_label
_atom_site_fract_x
_atom_site_fract_y
_atom_site_fract_z
Si Si1 0.120735 0.527191 0.848088
Si Si2 0.605705 0.863522 0.263052
Si Si3 0.690119 0.061724 0.158203
Si Si4 0.035117 0.234533 0.138723
Si Si5 0.489639 0.621350 0.062970
Si Si6 0.991358 0.001578 0.351443
O O1 0.030276 0.591691 0.883028
O O2 0.119202 0.486562 0.769711
O O3 0.332798 0.536632 0.735055
O O4 0.000000 0.500000 0.000000
O O5 0.500000 0.876152 0.250000
O O6 0.580969 0.794501 0.305073
O O7 0.821272 0.880419 0.112643
O O8 0.500000 0.091764 0.250000
O O9 0.816389 0.112482 0.117075
O O10 0.805166 0.029117 0.010163
O O11 0.000000 0.207392 0.250000
O O12 0.250000 0.250000 0.000000
O O13 0.972449 0.186334 0.114939
O O14 0.491248 0.569749 0.129261
O O15 0.000000 0.001978 0.250000
#
# Coordination Sequence:
#
# PCOD8151603 Si02
#       6
#     8   8   8   8   8   8
#     4  11  22  36  58  92 119 159 198 237 299 361
#     4  11  21  37  62  84 124 157 184 248 302 346
#     4  11  22  39  61  85 121 159 200 246 294 347
#     4  11  22  36  59  90 117 154 193 238 300 356
#     4  11  21  40  58  88 123 154 196 245 298 353
#     4  11  22  36  60  89 122 155 197 246 295 360
#
# _framework density 18.151834999999998
#
# number of rings (size 3 to 8) (size 9 to 14) (size 15 to 20)
#    0.000    1.000    6.667    3.000    2.333    2.667 
#    0.000    0.000    0.000    2.000    0.000    0.000 
#    0.000    0.000    0.000    0.000    0.000    0.000 
#
# Total GULP energy -297534.480088 kJ/mol
# GULP energy per Si atom -12397.270004 kJ/mol
# Density = 1.811052 g / cm^3
# Si number density = 18.151835 Si / 1000 Ang^3
#
#
#
# Elastic Constant Matrix: (Units=GPa)
#
#
# Indices 1 2 3 4 5 6 
#
# 1 130.0246 68.9781 56.0214 0.0033 -11.8981 0.0056
# 2 68.9781 116.9058 38.1227 -0.0043 7.9152 0.0019
# 3 56.0214 38.1227 117.4716 -0.0211 6.3212 0.0176
# 4 0.0033 -0.0043 -0.0211 25.2058 0.0121 8.6439
# 5 -11.8981 7.9152 6.3212 0.0121 40.5990 -0.0128
# 6 0.0056 0.0019 0.0176 8.6439 -0.0128 28.2291
#
#
#
# Elastic Compliance Matrix: (Units=1/GPa)
#
#
# Indices 1 2 3 4 5 6 
#
# 1 0.014140 -0.007224 -0.004737 -0.000013 0.006290 0.000007
# 2 -0.007224 0.013336 -0.000634 0.000006 -0.004618 -0.000003
# 3 -0.004737 -0.000634 0.011139 0.000015 -0.002999 -0.000012
# 4 -0.000013 0.000006 0.000015 0.044328 -0.000025 -0.013574
# 5 0.006290 -0.004618 -0.002999 -0.000025 0.027842 0.000021
# 6 0.000007 -0.000003 -0.000012 -0.013574 0.000021 0.039581
#
#
# Mechanical properties :
#
#
# Convention : Reuss Voigt Hill
#
# Bulk Modulus (GPa) = 74.49514 76.73848 75.61681
# Shear Modulus (GPa) = 27.77299 32.22544 29.99922
#
# Velocity S-wave (km/s) = 3.91581 4.21803 4.06973
# Velocity P-wave (km/s) = 7.84690 8.12958 7.98949
#
# Compressibility (1/GPa) = 0.01342369
#
# Stress axis : x y z
#
# Youngs Moduli (GPa) = 70.72239 74.98633 89.77411
#
# Poissons Ratio (x) = 0.54170 0.42528
# Poissons Ratio (y) = 0.51090 0.05694
# Poissons Ratio (z) = 0.33503 0.04756
#
# Static dielectric constant tensor:
#      x y z
#    x 3.581100 -0.012790 -0.108160 
#    y -0.012790 -2.225130 0.000310 
#    z -0.108160 0.000310 3.587000 
# 
# 
# High freq. dielectric constant tensor:
#      x y z
#    x 1.699850 0.000000 -0.004170 
#    y 0.000000 1.685200 0.000010 
#    z -0.004170 0.000010 1.720370 
# 
# From -- ./inp_files/32010.got.cif
#   From: 2010.06.25/outbox.cif.g09.slc.cpg/sg15_17_cif.got.tgz:32010.got - 2010.06.28 07:06:18.
