data_PCOD8151262
_publ_section_title
;
Structure prediction by ZEFSAII (Michael W. Deem and Ramdas Pophale) SiO2 
 PCOD8151262
Probable space group: C 2/C
;
_chemical_formula_sum "Si O2"
_cell_formula_units_Z 32
_cell_length_a 25.826601
_cell_length_b 8.595083
_cell_length_c 20.255067
_cell_angle_alpha 90.000000
_cell_angle_beta 159.743811
_cell_angle_gamma 90.000000
_cell_volume 1556.686479
_symmetry_space_group_name_H-M "C 2/C"
_symmetry_group_IT_number 15
_symmetry_cell_setting 'monoclinic'
loop_
_space_group_symop_operation_xyz
x,y,z
-x,y,1/2-z
-x,-y,-z
x,-y,1/2+z
1/2+x,1/2+y,z
1/2-x,1/2+y,1/2-z
1/2-x,1/2-y,-z
1/2+x,1/2-y,1/2+z
loop_
_atom_site_type_symbol
_atom_site_label
_atom_site_fract_x
_atom_site_fract_y
_atom_site_fract_z
Si Si1 0.782019 0.302972 0.335155
Si Si2 0.807708 0.209020 0.140713
Si Si3 0.900665 0.639520 0.490272
Si Si4 0.463700 0.570404 0.883635
O O1 0.862917 0.467645 0.419271
O O2 0.673989 0.270711 0.144440
O O3 0.678544 0.314215 0.276582
O O4 0.900201 0.164827 0.484952
O O5 0.664742 0.177098 0.015468
O O6 0.918829 0.348425 0.296203
O O7 0.916715 0.058150 0.273665
O O8 0.750000 0.250000 0.000000
O O9 0.500000 0.500000 0.000000
#
# Coordination Sequence:
#
# PCOD8151262 Si02
#       4
#     8   8   8   8
#     4  11  20  37  63  93 124 157 211 267 306 348
#     4  11  23  40  60  88 127 167 205 249 317 383
#     4  11  21  37  61  92 121 162 209 259 307 367
#     4  11  21  40  60  96 126 152 216 262 302 370
#
# _framework density 20.556484999999999
#
# number of rings (size 3 to 8) (size 9 to 14) (size 15 to 20)
#    0.000    1.000    7.500    0.750    0.000    6.000 
#    0.000    1.250    0.000    9.000    0.000    0.000 
#    0.000    0.000    0.000    0.000    0.000    0.000 
#
# Total GULP energy -198303.152619 kJ/mol
# GULP energy per Si atom -12393.947039 kJ/mol
# Density = 2.050970 g / cm^3
# Si number density = 20.556485 Si / 1000 Ang^3
#
#
#
# Elastic Constant Matrix: (Units=GPa)
#
#
# Indices 1 2 3 4 5 6 
#
# 1 40.8943 30.2149 22.3856 0.0000 -15.5874 0.0000
# 2 30.2149 84.4751 51.6871 0.0000 -18.7580 0.0000
# 3 22.3856 51.6871 104.3294 0.0000 -8.2248 0.0000
# 4 0.0000 0.0000 0.0000 44.8146 0.0000 10.8951
# 5 -15.5874 -18.7580 -8.2248 0.0000 39.9498 0.0000
# 6 0.0000 0.0000 0.0000 10.8951 0.0000 35.0772
#
#
#
# Elastic Compliance Matrix: (Units=1/GPa)
#
#
# Indices 1 2 3 4 5 6 
#
# 1 0.036260 -0.009483 -0.002356 0.000000 0.009210 0.000000
# 2 -0.009483 0.021213 -0.008113 0.000000 0.004590 0.000000
# 3 -0.002356 -0.008113 0.013964 0.000000 -0.001854 0.000000
# 4 0.000000 0.000000 0.000000 0.024137 0.000000 -0.007497
# 5 0.009210 0.004590 -0.001854 0.000000 0.030399 0.000000
# 6 0.000000 0.000000 0.000000 -0.007497 0.000000 0.030837
#
#
# Mechanical properties :
#
#
# Convention : Reuss Voigt Hill
#
# Bulk Modulus (GPa) = 31.71256 48.69710 40.20483
# Shear Modulus (GPa) = 24.12863 32.32906 28.22884
#
# Velocity S-wave (km/s) = 3.42975 3.97002 3.70974
# Velocity P-wave (km/s) = 5.58075 6.68996 6.16037
#
# Compressibility (1/GPa) = 0.03153324
#
# Stress axis : x y z
#
# Youngs Moduli (GPa) = 27.57866 47.14175 71.61447
#
# Poissons Ratio (x) = 0.44702 0.16874
# Poissons Ratio (y) = 0.26152 0.58099
# Poissons Ratio (z) = 0.06498 0.38245
#
# Static dielectric constant tensor:
#      x y z
#    x 3.553080 0.000000 0.473620 
#    y 0.000000 3.863770 0.000000 
#    z 0.473620 0.000000 4.020380 
# 
# 
# High freq. dielectric constant tensor:
#      x y z
#    x 1.774040 0.000000 0.031210 
#    y 0.000000 1.809180 0.000000 
#    z 0.031210 0.000000 1.810610 
# 
# From -- ./inp_files/102199.got.cif
#   From: 2010.06.25/outbox.cif.g09.slc.cpg/sg15_52_cif.got.tgz:102199.got - 2010.06.28 07:06:18.
