data_PCOD8151020
_publ_section_title
;
Structure prediction by ZEFSAII (Michael W. Deem and Ramdas Pophale) SiO2 
 PCOD8151020
Probable space group: C 2/C
;
_chemical_formula_sum "Si O2"
_cell_formula_units_Z 64
_cell_length_a 20.926509
_cell_length_b 23.092045
_cell_length_c 9.042968
_cell_angle_alpha 90.000000
_cell_angle_beta 64.397229
_cell_angle_gamma 90.000000
_cell_volume 3940.814611
_symmetry_space_group_name_H-M "C 2/C"
_symmetry_group_IT_number 15
_symmetry_cell_setting 'monoclinic'
loop_
_space_group_symop_operation_xyz
x,y,z
-x,y,1/2-z
-x,-y,-z
x,-y,1/2+z
1/2+x,1/2+y,z
1/2-x,1/2+y,1/2-z
1/2-x,1/2-y,-z
1/2+x,1/2-y,1/2+z
loop_
_atom_site_type_symbol
_atom_site_label
_atom_site_fract_x
_atom_site_fract_y
_atom_site_fract_z
Si Si1 0.855494 0.939019 0.569823
Si Si2 0.500000 0.249753 0.075320
Si Si3 0.224556 0.841548 0.696862
Si Si4 0.639017 0.227757 0.781776
Si Si5 0.000000 0.880860 0.074762
Si Si6 0.724556 0.341548 0.354025
Si Si7 0.644506 0.439019 0.280812
Si Si8 0.860983 0.272243 0.559811
O O1 0.793373 0.895927 0.682552
O O2 0.930805 0.914507 0.552351
O O3 0.853975 0.945790 0.396025
O O4 0.840886 1.000000 0.659114
O O5 0.500000 0.248329 0.250000
O O6 0.500000 0.315503 0.012248
O O7 0.430635 0.216524 0.086956
O O8 0.569365 0.216524 0.948226
O O9 0.174284 0.788402 0.793184
O O10 0.213138 0.857528 0.536862
O O11 0.306004 0.824200 0.645070
O O12 0.693996 0.175800 0.757078
O O13 0.617313 0.229337 0.632687
O O14 0.000000 0.878398 0.250000
O O15 0.930805 0.914507 0.086039
O O16 0.706627 0.395927 0.269298
O O17 0.674284 0.288402 0.358249
#
# Coordination Sequence:
#
# PCOD8151020 Si02
#       8
#     8   8   8   8   8   8   8   8
#     4  11  21  34  49  68  97 132 171 207 243 284
#     4  11  19  30  48  74 102 129 164 201 241 290
#     4   9  18  33  50  70  95 126 164 204 244 289
#     4   9  18  32  50  71  97 127 161 200 246 294
#     4   9  19  32  44  66  99 132 166 202 235 280
#     4   9  18  33  50  70  95 126 164 204 244 289
#     4  11  21  34  49  68  97 132 171 207 243 284
#     4   9  18  32  50  71  97 127 161 200 246 294
#
# _framework density 16.240297000000002
#
# number of rings (size 3 to 8) (size 9 to 14) (size 15 to 20)
#    0.000    2.250    2.500    3.000    0.000    1.000 
#    0.000    4.375    0.000    0.000    0.000    0.875 
#    0.000    0.000    0.000    0.000    0.000    0.000 
#
# Total GULP energy -396860.885547 kJ/mol
# GULP energy per Si atom -12401.902673 kJ/mol
# Density = 1.620333 g / cm^3
# Si number density = 16.240297 Si / 1000 Ang^3
#
#
#
# Elastic Constant Matrix: (Units=GPa)
#
#
# Indices 1 2 3 4 5 6 
#
# 1 108.2467 45.1008 46.2627 0.0000 -5.4347 0.0000
# 2 45.1008 85.2036 40.7135 0.0000 -3.1743 0.0000
# 3 46.2627 40.7135 83.4683 0.0000 -12.4931 0.0000
# 4 0.0000 0.0000 0.0000 24.2099 0.0000 1.3845
# 5 -5.4347 -3.1743 -12.4931 0.0000 22.1293 0.0000
# 6 0.0000 0.0000 0.0000 1.3845 0.0000 22.2964
#
#
#
# Elastic Compliance Matrix: (Units=1/GPa)
#
#
# Indices 1 2 3 4 5 6 
#
# 1 0.013365 -0.004595 -0.005214 0.000000 -0.000321 0.000000
# 2 -0.004595 0.016982 -0.006053 0.000000 -0.002109 0.000000
# 3 -0.005214 -0.006053 0.019117 0.000000 0.008644 0.000000
# 4 0.000000 0.000000 0.000000 0.041453 0.000000 -0.002574
# 5 -0.000321 -0.002109 0.008644 0.000000 0.049687 0.000000
# 6 0.000000 0.000000 0.000000 -0.002574 0.000000 0.045010
#
#
# Mechanical properties :
#
#
# Convention : Reuss Voigt Hill
#
# Bulk Modulus (GPa) = 56.36806 60.11918 58.24362
# Shear Modulus (GPa) = 22.39633 23.38324 22.88979
#
# Velocity S-wave (km/s) = 3.71760 3.79862 3.75833
# Velocity P-wave (km/s) = 7.29462 7.50588 7.40101
#
# Compressibility (1/GPa) = 0.01774054
#
# Stress axis : x y z
#
# Youngs Moduli (GPa) = 74.82216 58.88492 52.31040
#
# Poissons Ratio (x) = 0.27056 0.27277
# Poissons Ratio (y) = 0.34379 0.31661
# Poissons Ratio (z) = 0.39015 0.35640
#
# Static dielectric constant tensor:
#      x y z
#    x 3.033910 0.000000 -0.061400 
#    y 0.000000 2.877410 0.000000 
#    z -0.061400 0.000000 2.949050 
# 
# 
# High freq. dielectric constant tensor:
#      x y z
#    x 1.621000 0.000000 0.000180 
#    y 0.000000 1.598410 0.000000 
#    z 0.000180 0.000000 1.621250 
# 
# From -- ./inp_files/57855.got.cif
#   From: 2010.06.25/outbox.cif.g09.slc.cpg/sg15_29_cif.got.tgz:57855.got - 2010.06.28 07:06:18.
