data_PCOD8151937
_publ_section_title
;
Structure prediction by ZEFSAII (Michael W. Deem and Ramdas Pophale) SiO2 
 PCOD8151937
Probable space group: C 2/C
;
_chemical_formula_sum "Si O2"
_cell_formula_units_Z 52
_cell_length_a 18.026265
_cell_length_b 18.205969
_cell_length_c 9.795500
_cell_angle_alpha 90.000000
_cell_angle_beta 125.918577
_cell_angle_gamma 90.000000
_cell_volume 2603.463771
_symmetry_space_group_name_H-M "C 2/C"
_symmetry_group_IT_number 15
_symmetry_cell_setting 'monoclinic'
loop_
_space_group_symop_operation_xyz
x,y,z
-x,y,1/2-z
-x,-y,-z
x,-y,1/2+z
1/2+x,1/2+y,z
1/2-x,1/2+y,1/2-z
1/2-x,1/2-y,-z
1/2+x,1/2-y,1/2+z
loop_
_atom_site_type_symbol
_atom_site_label
_atom_site_fract_x
_atom_site_fract_y
_atom_site_fract_z
Si Si1 0.417295 0.839128 0.424109
Si Si2 0.542239 0.949496 0.661620
Si Si3 0.240936 0.074310 0.735968
Si Si4 0.286843 0.283149 0.900247
Si Si5 0.257786 0.440922 0.945165
Si Si6 0.183364 0.772762 0.052867
Si Si7 0.500000 0.779122 0.250000
O O1 0.504469 0.865553 0.605060
O O2 0.349156 0.909257 0.347306
O O3 0.373197 0.765096 0.440422
O O4 0.447008 0.828842 0.300655
O O5 0.500000 0.986168 0.750000
O O6 0.650574 0.939712 0.792449
O O7 0.500000 0.000000 0.500000
O O8 0.194440 0.146801 0.626977
O O9 0.204036 0.010208 0.597222
O O10 0.218724 0.052953 0.868824
O O11 0.310923 0.368419 0.948890
O O12 0.207092 0.283083 0.700489
O O13 0.250000 0.250000 0.000000
O O14 0.250000 0.750000 0.000000
O O15 0.076533 0.770902 0.903112
#
# Coordination Sequence:
#
# PCOD8151937 Si02
#       7
#     8   8   8   8   8   8   4
#     4  11  23  39  60  99 133 170 219 259 330 391
#     4  12  22  36  56  94 135 168 211 262 324 404
#     4  11  24  41  62  98 128 171 224 263 332 397
#     4  11  21  43  65  92 135 173 219 268 323 393
#     4  12  23  40  65  91 132 179 208 273 333 392
#     4  11  23  44  66  98 132 172 229 270 326 403
#     4  12  24  40  70  94 130 176 214 282 324 384
#
# _framework density 19.973389000000001
#
# number of rings (size 3 to 8) (size 9 to 14) (size 15 to 20)
#    0.000    0.615    9.231    0.923    3.231    1.231 
#    0.000    0.000    0.000    3.692    0.000    0.000 
#    0.000    0.000    0.000    0.000    0.000    0.000 
#
# Total GULP energy -322151.730528 kJ/mol
# GULP energy per Si atom -12390.451174 kJ/mol
# Density = 1.992793 g / cm^3
# Si number density = 19.973389 Si / 1000 Ang^3
#
#
#
# Elastic Constant Matrix: (Units=GPa)
#
#
# Indices 1 2 3 4 5 6 
#
# 1 65.6966 26.7643 39.0119 0.0000 -25.1642 0.0000
# 2 26.7643 119.6814 45.8292 0.0000 -27.6296 0.0000
# 3 39.0119 45.8292 137.5811 0.0000 -27.1278 0.0000
# 4 0.0000 0.0000 0.0000 44.0361 0.0000 -6.9462
# 5 -25.1642 -27.6296 -27.1278 0.0000 46.2082 0.0000
# 6 0.0000 0.0000 0.0000 -6.9462 0.0000 20.9158
#
#
#
# Elastic Compliance Matrix: (Units=1/GPa)
#
#
# Indices 1 2 3 4 5 6 
#
# 1 0.021363 -0.001295 -0.003941 0.000000 0.008546 0.000000
# 2 -0.001295 0.010500 -0.002297 0.000000 0.004224 0.000000
# 3 -0.003941 -0.002297 0.009564 0.000000 0.002095 0.000000
# 4 0.000000 0.000000 0.000000 0.023964 0.000000 0.007958
# 5 0.008546 0.004224 0.002095 0.000000 0.030051 0.000000
# 6 0.000000 0.000000 0.000000 0.007958 0.000000 0.050454
#
#
# Mechanical properties :
#
#
# Convention : Reuss Voigt Hill
#
# Bulk Modulus (GPa) = 37.93698 60.68554 49.31126
# Shear Modulus (GPa) = 29.45508 36.32226 32.88867
#
# Velocity S-wave (km/s) = 3.84437 4.26905 4.06226
# Velocity P-wave (km/s) = 6.22419 7.39925 6.83701
#
# Compressibility (1/GPa) = 0.02635950
#
# Stress axis : x y z
#
# Youngs Moduli (GPa) = 46.81045 95.23663 104.55517
#
# Poissons Ratio (x) = 0.12337 0.41206
# Poissons Ratio (y) = 0.06064 0.24021
# Poissons Ratio (z) = 0.18448 0.21880
#
# Static dielectric constant tensor:
#      x y z
#    x 3.481510 0.000000 -0.200200 
#    y 0.000000 3.565570 0.000000 
#    z -0.200200 0.000000 3.977240 
# 
# 
# High freq. dielectric constant tensor:
#      x y z
#    x 1.757360 0.000000 -0.023920 
#    y 0.000000 1.778270 0.000000 
#    z -0.023920 0.000000 1.796430 
# 
# From -- ./inp_files/49241.got.cif
#   From: 2010.06.25/outbox.cif.g09.slc.cpg/sg15_25_cif.got.tgz:49241.got - 2010.06.28 07:06:18.
