data_PCOD8151380
_publ_section_title
;
Structure prediction by ZEFSAII (Michael W. Deem and Ramdas Pophale) SiO2 
 PCOD8151380
Probable space group: C 2/C
;
_chemical_formula_sum "Si O2"
_cell_formula_units_Z 64
_cell_length_a 14.787492
_cell_length_b 11.338249
_cell_length_c 18.609195
_cell_angle_alpha 90.000000
_cell_angle_beta 92.697615
_cell_angle_gamma 90.000000
_cell_volume 3116.639445
_symmetry_space_group_name_H-M "C 2/C"
_symmetry_group_IT_number 15
_symmetry_cell_setting 'monoclinic'
loop_
_space_group_symop_operation_xyz
x,y,z
-x,y,1/2-z
-x,-y,-z
x,-y,1/2+z
1/2+x,1/2+y,z
1/2-x,1/2+y,1/2-z
1/2-x,1/2-y,-z
1/2+x,1/2-y,1/2+z
loop_
_atom_site_type_symbol
_atom_site_label
_atom_site_fract_x
_atom_site_fract_y
_atom_site_fract_z
Si Si1 0.276056 0.899498 0.937890
Si Si2 0.197745 0.343118 0.401879
Si Si3 0.872732 0.324901 0.687400
Si Si4 0.706079 0.510401 0.186175
Si Si5 0.937676 0.403734 0.846026
Si Si6 0.339786 0.551107 0.657858
Si Si7 0.994553 0.651206 0.665551
Si Si8 0.513391 0.590785 0.165705
O O1 0.204494 0.796859 0.913938
O O2 0.374111 0.863486 0.909157
O O3 0.236094 0.022049 0.905151
O O4 0.285752 0.912372 0.023248
O O5 0.271134 0.382237 0.345241
O O6 0.103841 0.386184 0.364979
O O7 0.782417 0.396446 0.663570
O O8 0.898140 0.352847 0.770496
O O9 0.851868 0.188486 0.672991
O O10 0.958780 0.359456 0.640706
O O11 0.698127 0.510546 0.271693
O O12 0.609831 0.539198 0.147271
O O13 0.935456 0.546878 0.849918
O O14 0.433988 0.494062 0.633541
O O15 0.014667 0.778258 0.630662
O O16 0.000000 0.667988 0.750000
O O17 0.500000 0.597214 0.250000
#
# Coordination Sequence:
#
# PCOD8151380 Si02
#       8
#     8   8   8   8   8   8   8   8
#     4  11  25  43  66  92 131 178 211 260 324 383
#     4  11  24  45  65  93 131 171 221 258 317 393
#     4  11  23  37  62  99 127 159 215 266 328 369
#     4  11  22  39  63  92 125 169 209 275 312 376
#     4  11  22  39  63  95 127 167 205 270 323 372
#     4  11  23  40  63  95 129 164 212 267 319 382
#     4  11  20  40  66  93 127 158 218 264 307 381
#     4   9  22  35  60  94 123 160 210 262 321 363
#
# _framework density 20.534939000000001
#
# number of rings (size 3 to 8) (size 9 to 14) (size 15 to 20)
#    0.000    1.250    5.000    0.750    8.750    0.500 
#    0.000    2.500    0.000    0.000    0.000    0.000 
#    0.000    0.000    0.000    0.000    0.000    0.000 
#
# Total GULP energy -396662.721856 kJ/mol
# GULP energy per Si atom -12395.710058 kJ/mol
# Density = 2.048820 g / cm^3
# Si number density = 20.534939 Si / 1000 Ang^3
#
#
#
# Elastic Constant Matrix: (Units=GPa)
#
#
# Indices 1 2 3 4 5 6 
#
# 1 106.4795 16.4594 30.0668 0.0000 14.3947 0.0000
# 2 16.4594 99.0449 7.5637 0.0000 19.2535 0.0000
# 3 30.0668 7.5637 54.6529 0.0000 14.4036 0.0000
# 4 0.0000 0.0000 0.0000 23.7010 0.0000 7.7429
# 5 14.3947 19.2535 14.4036 0.0000 17.9054 0.0000
# 6 0.0000 0.0000 0.0000 7.7429 0.0000 35.6944
#
#
#
# Elastic Compliance Matrix: (Units=1/GPa)
#
#
# Indices 1 2 3 4 5 6 
#
# 1 0.011531 -0.000657 -0.005071 0.000000 -0.004484 0.000000
# 2 -0.000657 0.013044 0.002682 0.000000 -0.015656 0.000000
# 3 -0.005071 0.002682 0.025891 0.000000 -0.019635 0.000000
# 4 0.000000 0.000000 0.000000 0.045410 0.000000 -0.009851
# 5 -0.004484 -0.015656 -0.019635 0.000000 0.092083 0.000000
# 6 0.000000 0.000000 0.000000 -0.009851 0.000000 0.030152
#
#
# Mechanical properties :
#
#
# Convention : Reuss Voigt Hill
#
# Bulk Modulus (GPa) = 22.53576 40.92857 31.73216
# Shear Modulus (GPa) = 20.92091 29.19930 25.06010
#
# Velocity S-wave (km/s) = 3.19532 3.77494 3.49716
# Velocity P-wave (km/s) = 4.96101 6.24297 5.63854
#
# Compressibility (1/GPa) = 0.04437393
#
# Stress axis : x y z
#
# Youngs Moduli (GPa) = 86.72115 76.66278 38.62415
#
# Poissons Ratio (x) = 0.05039 0.19586
# Poissons Ratio (y) = 0.05700 -0.10360
# Poissons Ratio (z) = 0.43977 -0.20564
#
# Static dielectric constant tensor:
#      x y z
#    x 3.919680 0.000000 -0.008670 
#    y 0.000000 3.913530 0.000000 
#    z -0.008670 0.000000 3.320310 
# 
# 
# High freq. dielectric constant tensor:
#      x y z
#    x 1.817670 0.000000 0.004360 
#    y 0.000000 1.809500 0.000000 
#    z 0.004360 0.000000 1.757950 
# 
# From -- ./inp_files/204459.got.cif
#   From: 2010.06.25/outbox.cif.g09.slc.cpg/sg15_103_cif.got.tgz:204459.got - 2010.06.28 07:06:18.
