data_PCOD8151220
_publ_section_title
;
Structure prediction by ZEFSAII (Michael W. Deem and Ramdas Pophale) SiO2 
 PCOD8151220
Probable space group: C 2/C
;
_chemical_formula_sum "Si O2"
_cell_formula_units_Z 48
_cell_length_a 19.371621
_cell_length_b 26.944687
_cell_length_c 10.994167
_cell_angle_alpha 90.000000
_cell_angle_beta 155.005548
_cell_angle_gamma 90.000000
_cell_volume 2424.708311
_symmetry_space_group_name_H-M "C 2/C"
_symmetry_group_IT_number 15
_symmetry_cell_setting 'monoclinic'
loop_
_space_group_symop_operation_xyz
x,y,z
-x,y,1/2-z
-x,-y,-z
x,-y,1/2+z
1/2+x,1/2+y,z
1/2-x,1/2+y,1/2-z
1/2-x,1/2-y,-z
1/2+x,1/2-y,1/2+z
loop_
_atom_site_type_symbol
_atom_site_label
_atom_site_fract_x
_atom_site_fract_y
_atom_site_fract_z
Si Si1 0.025843 0.599200 0.546176
Si Si2 0.289471 0.966778 0.820520
Si Si3 0.500000 0.517086 0.250000
Si Si4 0.500000 0.051038 0.250000
Si Si5 0.135105 0.910496 0.787645
Si Si6 0.455921 0.200480 0.820887
Si Si7 0.928756 0.807014 0.768426
O O1 0.944047 0.558592 0.503563
O O2 0.980433 0.586583 0.335305
O O3 0.961089 0.655303 0.471318
O O4 0.219461 0.596556 0.881063
O O5 0.203588 0.926994 0.768675
O O6 0.160481 0.982981 0.512171
O O7 0.344138 0.015241 0.983344
O O8 0.490936 0.550005 0.357933
O O9 0.038291 0.858537 0.607144
O O10 0.500000 0.192574 0.750000
O O11 0.264636 0.199649 0.539962
O O12 0.513209 0.256138 0.955587
O O13 0.000000 0.816372 0.750000
#
# Coordination Sequence:
#
# PCOD8151220 Si02
#       7
#     8   8   4   4   8   8   8
#     4  11  21  37  59  83 115 154 202 239 291 352
#     4  12  23  39  58  84 117 160 200 242 286 352
#     4  12  24  36  52  88 122 154 196 238 298 344
#     4  12  22  36  58  82 116 162 194 240 288 344
#     4  11  20  36  58  85 116 155 193 245 294 349
#     4   9  18  33  56  87 114 147 193 245 296 352
#     4   9  17  31  54  86 118 145 187 249 300 342
#
# _framework density 19.796195999999998
#
# number of rings (size 3 to 8) (size 9 to 14) (size 15 to 20)
#    0.000    1.333    4.167    4.000    0.000    0.000 
#    0.000    0.000    0.000    1.000    0.000   42.000 
#    0.000    0.000    0.000    0.000    0.000    0.000 
#
# Total GULP energy -297372.929259 kJ/mol
# GULP energy per Si atom -12390.538719 kJ/mol
# Density = 1.975114 g / cm^3
# Si number density = 19.796196 Si / 1000 Ang^3
#
#
#
# Elastic Constant Matrix: (Units=GPa)
#
#
# Indices 1 2 3 4 5 6 
#
# 1 121.7707 53.1034 8.5895 0.0000 -7.4032 0.0000
# 2 53.1034 175.9684 39.6573 0.0000 -18.9058 0.0000
# 3 8.5895 39.6573 41.9574 0.0000 -3.0168 0.0000
# 4 0.0000 0.0000 0.0000 12.6923 0.0000 -0.4526
# 5 -7.4032 -18.9058 -3.0168 0.0000 29.1415 0.0000
# 6 0.0000 0.0000 0.0000 -0.4526 0.0000 37.9282
#
#
#
# Elastic Compliance Matrix: (Units=1/GPa)
#
#
# Indices 1 2 3 4 5 6 
#
# 1 0.009496 -0.003021 0.000951 0.000000 0.000551 0.000000
# 2 -0.003021 0.008678 -0.007289 0.000000 0.004108 0.000000
# 3 0.000951 -0.007289 0.030432 0.000000 -0.001337 0.000000
# 4 0.000000 0.000000 0.000000 0.078822 0.000000 0.000941
# 5 0.000551 0.004108 -0.001337 0.000000 0.036982 0.000000
# 6 0.000000 0.000000 0.000000 0.000941 0.000000 0.026377
#
#
# Mechanical properties :
#
#
# Convention : Reuss Voigt Hill
#
# Bulk Modulus (GPa) = 33.45729 60.26634 46.86182
# Shear Modulus (GPa) = 22.78234 31.84214 27.31224
#
# Velocity S-wave (km/s) = 3.39609 4.01496 3.71842
# Velocity P-wave (km/s) = 5.68467 7.21129 6.49300
#
# Compressibility (1/GPa) = 0.02988885
#
# Stress axis : x y z
#
# Youngs Moduli (GPa) = 105.30850 115.22746 32.85985
#
# Poissons Ratio (x) = 0.34807 -0.03124
# Poissons Ratio (y) = 0.31811 0.23951
# Poissons Ratio (z) = -0.10012 0.83988
#
# Static dielectric constant tensor:
#      x y z
#    x 3.634780 0.000000 0.158590 
#    y 0.000000 4.609400 0.000000 
#    z 0.158590 0.000000 3.116210 
# 
# 
# High freq. dielectric constant tensor:
#      x y z
#    x 1.787230 0.000000 0.019470 
#    y 0.000000 1.800310 0.000000 
#    z 0.019470 0.000000 1.703620 
# 
# From -- ./inp_files/52912.got.cif
#   From: 2010.06.25/outbox.cif.g09.slc.cpg/sg15_27_cif.got.tgz:52912.got - 2010.06.28 07:06:18.
