data_PCOD8151503
_publ_section_title
;
Structure prediction by ZEFSAII (Michael W. Deem and Ramdas Pophale) SiO2 
 PCOD8151503
Probable space group: C 2/C
;
_chemical_formula_sum "Si O2"
_cell_formula_units_Z 60
_cell_length_a 20.745040
_cell_length_b 16.411924
_cell_length_c 8.278764
_cell_angle_alpha 90.000000
_cell_angle_beta 77.692604
_cell_angle_gamma 90.000000
_cell_volume 2753.860084
_symmetry_space_group_name_H-M "C 2/C"
_symmetry_group_IT_number 15
_symmetry_cell_setting 'monoclinic'
loop_
_space_group_symop_operation_xyz
x,y,z
-x,y,1/2-z
-x,-y,-z
x,-y,1/2+z
1/2+x,1/2+y,z
1/2-x,1/2+y,1/2-z
1/2-x,1/2-y,-z
1/2+x,1/2-y,1/2+z
loop_
_atom_site_type_symbol
_atom_site_label
_atom_site_fract_x
_atom_site_fract_y
_atom_site_fract_z
Si Si1 0.471346 0.580607 0.942034
Si Si2 0.362007 0.084861 0.742880
Si Si3 0.500000 0.863381 0.250000
Si Si4 0.022586 0.250363 0.926087
Si Si5 0.658353 0.759694 0.717397
Si Si6 0.691551 0.927320 0.575742
Si Si7 0.287259 0.244969 0.815332
Si Si8 0.167467 0.135230 0.448331
O O1 0.500000 0.587248 0.750000
O O2 0.493270 0.665673 0.011183
O O3 0.500000 0.500000 0.000000
O O4 0.392387 0.571480 0.004869
O O5 0.437467 0.076649 0.761238
O O6 0.352977 0.075702 0.558271
O O7 0.341152 0.175377 0.805317
O O8 0.315991 0.016563 0.846548
O O9 0.495908 0.813982 0.422576
O O10 0.102038 0.239611 0.878177
O O11 0.000000 0.273556 0.750000
O O12 0.662090 0.857641 0.707682
O O13 0.729911 0.721350 0.719137
O O14 0.642942 0.717087 0.554912
O O15 0.769425 0.910358 0.508448
O O16 0.319274 0.331615 0.741285
O O17 0.250000 0.250000 0.000000
#
# Coordination Sequence:
#
# PCOD8151503 Si02
#       8
#     8   8   4   8   8   8   8   8
#     4  11  25  44  66 102 142 182 234 286 357 425
#     4  12  26  46  63 103 137 176 228 284 355 413
#     4  12  28  46  70 102 140 182 240 294 338 430
#     4  11  23  44  74  99 137 187 234 279 354 418
#     4  11  20  45  70  95 129 183 228 284 336 412
#     4  11  26  42  70  97 138 174 229 287 350 409
#     4  11  23  41  71 103 132 171 237 289 341 417
#     4  11  21  47  72  93 134 189 228 286 345 413
#
# _framework density 21.787599
#
# number of rings (size 3 to 8) (size 9 to 14) (size 15 to 20)
#    0.000    0.800    5.333    3.200    6.533    2.667 
#    1.200    0.000    0.000    0.000    0.000    0.000 
#    0.000    0.000    0.000    0.000    0.000    0.000 
#
# Total GULP energy -371779.553521 kJ/mol
# GULP energy per Si atom -12392.651784 kJ/mol
# Density = 2.173801 g / cm^3
# Si number density = 21.787599 Si / 1000 Ang^3
#
#
#
# Elastic Constant Matrix: (Units=GPa)
#
#
# Indices 1 2 3 4 5 6 
#
# 1 137.8117 52.7029 32.0667 0.0000 -17.6159 0.0000
# 2 52.7029 90.5017 30.0483 0.0000 3.4939 0.0000
# 3 32.0667 30.0483 101.7948 0.0000 -6.9461 0.0000
# 4 0.0000 0.0000 0.0000 18.5186 0.0000 6.5063
# 5 -17.6159 3.4939 -6.9461 0.0000 31.4079 0.0000
# 6 0.0000 0.0000 0.0000 6.5063 0.0000 29.0990
#
#
#
# Elastic Compliance Matrix: (Units=1/GPa)
#
#
# Indices 1 2 3 4 5 6 
#
# 1 0.010664 -0.006084 -0.001126 0.000000 0.006409 0.000000
# 2 -0.006084 0.015872 -0.003170 0.000000 -0.005879 0.000000
# 3 -0.001126 -0.003170 0.011265 0.000000 0.002212 0.000000
# 4 0.000000 0.000000 0.000000 0.058603 0.000000 -0.013103
# 5 0.006409 -0.005879 0.002212 0.000000 0.036577 0.000000
# 6 0.000000 0.000000 0.000000 -0.013103 0.000000 0.037295
#
#
# Mechanical properties :
#
#
# Convention : Reuss Voigt Hill
#
# Bulk Modulus (GPa) = 58.68009 62.19378 60.43693
# Shear Modulus (GPa) = 25.41732 30.15781 27.78757
#
# Velocity S-wave (km/s) = 3.41925 3.72448 3.57513
# Velocity P-wave (km/s) = 6.52531 6.86317 6.69637
#
# Compressibility (1/GPa) = 0.01704155
#
# Stress axis : x y z
#
# Youngs Moduli (GPa) = 93.77248 63.00535 88.76981
#
# Poissons Ratio (x) = 0.38330 0.09997
# Poissons Ratio (y) = 0.57048 0.28138
# Poissons Ratio (z) = 0.10561 0.19971
#
# Static dielectric constant tensor:
#      x y z
#    x 4.090940 0.000000 -0.050780 
#    y 0.000000 3.494490 0.000000 
#    z -0.050780 0.000000 3.909650 
# 
# 
# High freq. dielectric constant tensor:
#      x y z
#    x 1.869580 0.000000 -0.012490 
#    y 0.000000 1.841080 0.000000 
#    z -0.012490 0.000000 1.855900 
# 
# From -- ./inp_files/56566.got.cif
#   From: 2010.06.25/outbox.cif.g09.slc.cpg/sg15_29_cif.got.tgz:56566.got - 2010.06.28 07:06:18.
