data_PCOD8151437
_publ_section_title
;
Structure prediction by ZEFSAII (Michael W. Deem and Ramdas Pophale) SiO2 
 PCOD8151437
Probable space group: C 2/C
;
_chemical_formula_sum "Si O2"
_cell_formula_units_Z 40
_cell_length_a 12.491345
_cell_length_b 7.808806
_cell_length_c 17.535337
_cell_angle_alpha 90.000000
_cell_angle_beta 61.636308
_cell_angle_gamma 90.000000
_cell_volume 1505.101708
_symmetry_space_group_name_H-M "C 2/C"
_symmetry_group_IT_number 15
_symmetry_cell_setting 'monoclinic'
loop_
_space_group_symop_operation_xyz
x,y,z
-x,y,1/2-z
-x,-y,-z
x,-y,1/2+z
1/2+x,1/2+y,z
1/2-x,1/2+y,1/2-z
1/2-x,1/2-y,-z
1/2+x,1/2-y,1/2+z
loop_
_atom_site_type_symbol
_atom_site_label
_atom_site_fract_x
_atom_site_fract_y
_atom_site_fract_z
Si Si1 0.076640 0.864492 0.797324
Si Si2 0.859544 0.488346 0.271657
Si Si3 0.385396 0.207981 0.979512
Si Si4 0.099303 0.221854 0.849777
Si Si5 0.850435 0.640831 0.426265
O O1 0.171923 0.710302 0.741003
O O2 0.000000 0.923944 0.750000
O O3 0.985622 0.801142 0.893733
O O4 0.150418 0.033112 0.804665
O O5 0.831759 0.617883 0.212113
O O6 0.790679 0.552865 0.371315
O O7 0.000000 0.479067 0.250000
O O8 0.404231 0.003483 0.965149
O O9 0.250000 0.250000 0.000000
O O10 0.400154 0.268460 0.060198
O O11 0.959487 0.229309 0.868052
O O12 0.750000 0.750000 0.500000
#
# Coordination Sequence:
#
# PCOD8151437 Si02
#       5
#     8   8   8   8   8
#     4  11  20  41  74  94 139 187 233 286 362 424
#     4   9  19  41  69  98 134 184 230 282 356 422
#     4  12  25  43  63 106 143 181 240 298 342 417
#     4  11  23  42  71 101 132 191 237 280 362 423
#     4  11  22  43  71 105 144 183 234 299 360 427
#
# _framework density 26.576277000000001
#
# number of rings (size 3 to 8) (size 9 to 14) (size 15 to 20)
#    0.000    1.200    6.000    4.200    0.000    0.000 
#    0.000    6.000    0.000    0.000    0.000    0.000 
#    0.000    0.000    0.000    0.000    0.000    0.000 
#
# Total GULP energy -248056.461727 kJ/mol
# GULP energy per Si atom -12402.823086 kJ/mol
# Density = 2.651579 g / cm^3
# Si number density = 26.576277 Si / 1000 Ang^3
#
#
#
# Elastic Constant Matrix: (Units=GPa)
#
#
# Indices 1 2 3 4 5 6 
#
# 1 50.9248 54.5499 25.7971 0.0000 13.2985 0.0000
# 2 54.5499 206.9284 103.3371 0.0000 6.7624 0.0000
# 3 25.7971 103.3371 195.1592 0.0000 35.2870 0.0000
# 4 0.0000 0.0000 0.0000 49.6401 0.0000 -8.9234
# 5 13.2985 6.7624 35.2870 0.0000 39.2453 0.0000
# 6 0.0000 0.0000 0.0000 -8.9234 0.0000 58.9060
#
#
#
# Elastic Compliance Matrix: (Units=1/GPa)
#
#
# Indices 1 2 3 4 5 6 
#
# 1 0.031112 -0.009261 0.002877 0.000000 -0.011533 0.000000
# 2 -0.009261 0.009519 -0.004880 0.000000 0.005886 0.000000
# 3 0.002877 -0.004880 0.008779 0.000000 -0.008028 0.000000
# 4 0.000000 0.000000 0.000000 0.020709 0.000000 0.003137
# 5 -0.011533 0.005886 -0.008028 0.000000 0.035593 0.000000
# 6 0.000000 0.000000 0.000000 0.003137 0.000000 0.017451
#
#
# Mechanical properties :
#
#
# Convention : Reuss Voigt Hill
#
# Bulk Modulus (GPa) = 37.20198 91.15340 64.17769
# Shear Modulus (GPa) = 32.33039 47.51349 39.92194
#
# Velocity S-wave (km/s) = 3.49164 4.23284 3.87998
# Velocity P-wave (km/s) = 5.50309 7.63299 6.65382
#
# Compressibility (1/GPa) = 0.02688029
#
# Stress axis : x y z
#
# Youngs Moduli (GPa) = 32.14201 105.05481 113.90279
#
# Poissons Ratio (x) = 0.97295 -0.32766
# Poissons Ratio (y) = 0.29768 0.55588
# Poissons Ratio (z) = -0.09246 0.51270
#
# Static dielectric constant tensor:
#      x y z
#    x 3.661020 0.000000 -0.545870 
#    y 0.000000 8.040810 0.000000 
#    z -0.545870 0.000000 4.908810 
# 
# 
# High freq. dielectric constant tensor:
#      x y z
#    x 2.099410 0.000000 -0.007330 
#    y 0.000000 2.087120 0.000000 
#    z -0.007330 0.000000 2.075250 
# 
# From -- ./inp_files/195100.got.cif
#   From: 2010.06.25/outbox.cif.g09.slc.cpg/sg15_98_cif.got.tgz:195100.got - 2010.06.28 07:06:18.
