data_PCOD8151760
_publ_section_title
;
Structure prediction by ZEFSAII (Michael W. Deem and Ramdas Pophale) SiO2 
 PCOD8151760
Probable space group: C 2/C
;
_chemical_formula_sum "Si O2"
_cell_formula_units_Z 56
_cell_length_a 19.751001
_cell_length_b 20.389759
_cell_length_c 14.812201
_cell_angle_alpha 90.000000
_cell_angle_beta 152.103576
_cell_angle_gamma 90.000000
_cell_volume 2790.938844
_symmetry_space_group_name_H-M "C 2/C"
_symmetry_group_IT_number 15
_symmetry_cell_setting 'monoclinic'
loop_
_space_group_symop_operation_xyz
x,y,z
-x,y,1/2-z
-x,-y,-z
x,-y,1/2+z
1/2+x,1/2+y,z
1/2-x,1/2+y,1/2-z
1/2-x,1/2-y,-z
1/2+x,1/2-y,1/2+z
loop_
_atom_site_type_symbol
_atom_site_label
_atom_site_fract_x
_atom_site_fract_y
_atom_site_fract_z
Si Si1 0.304697 0.105599 0.367646
Si Si2 0.000000 0.407806 0.250000
Si Si3 0.500000 0.545462 0.750000
Si Si4 0.291271 0.996379 0.118128
Si Si5 0.906969 0.242119 0.723733
Si Si6 0.753480 0.457656 0.277347
Si Si7 0.499431 0.379741 0.431887
Si Si8 0.962052 0.618905 0.370326
O O1 0.383904 0.133489 0.552352
O O2 0.415690 0.123825 0.419481
O O3 0.286752 0.027520 0.362433
O O4 0.146338 0.136129 0.161330
O O5 0.092180 0.450651 0.289791
O O6 0.361708 0.500963 0.614917
O O7 0.454452 0.587653 0.608773
O O8 0.254538 0.967334 0.172130
O O9 0.352594 0.070167 0.191225
O O10 0.750000 0.250000 0.500000
O O11 0.916484 0.188466 0.815066
O O12 0.963854 0.310786 0.826784
O O13 0.000000 0.216156 0.750000
O O14 0.599491 0.428948 0.126916
O O15 0.875998 0.406954 0.450587
#
# Coordination Sequence:
#
# PCOD8151760 Si02
#       8
#     8   4   4   8   8   8   8   8
#     4  11  22  40  61  88 125 161 210 260 320 366
#     4  12  22  38  65  90 119 162 210 262 320 368
#     4  12  22  36  59  90 133 166 200 250 316 384
#     4  11  23  36  60  94 123 163 210 257 317 375
#     4  12  25  41  62  95 126 172 212 241 303 388
#     4  11  21  40  58  90 125 167 205 259 319 374
#     4  12  24  40  59  92 134 167 200 258 315 372
#     4  11  21  41  60  86 131 162 208 261 303 373
#
# _framework density 20.064931999999999
#
# number of rings (size 3 to 8) (size 9 to 14) (size 15 to 20)
#    0.000    0.571    6.429    4.714    3.000    0.000 
#    0.000    0.000    0.000    0.857    0.000    0.000 
#    0.000    0.000    0.000    0.000    0.000    0.000 
#
# Total GULP energy -347146.916804 kJ/mol
# GULP energy per Si atom -12398.104172 kJ/mol
# Density = 2.001926 g / cm^3
# Si number density = 20.064932 Si / 1000 Ang^3
#
#
#
# Elastic Constant Matrix: (Units=GPa)
#
#
# Indices 1 2 3 4 5 6 
#
# 1 69.2017 6.5937 25.2578 0.0000 7.4049 0.0000
# 2 6.5937 68.6452 23.9411 0.0000 -2.2178 0.0000
# 3 25.2578 23.9411 163.7499 0.0000 2.2125 0.0000
# 4 0.0000 0.0000 0.0000 28.4596 0.0000 0.8293
# 5 7.4049 -2.2178 2.2125 0.0000 31.7827 0.0000
# 6 0.0000 0.0000 0.0000 0.8293 0.0000 19.7820
#
#
#
# Elastic Compliance Matrix: (Units=1/GPa)
#
#
# Indices 1 2 3 4 5 6 
#
# 1 0.015736 -0.000840 -0.002256 0.000000 -0.003568 0.000000
# 2 -0.000840 0.015443 -0.002148 0.000000 0.001423 0.000000
# 3 -0.002256 -0.002148 0.006770 0.000000 -0.000096 0.000000
# 4 0.000000 0.000000 0.000000 0.035181 0.000000 -0.001475
# 5 -0.003568 0.001423 -0.000096 0.000000 0.032401 0.000000
# 6 0.000000 0.000000 0.000000 -0.001475 0.000000 0.050613
#
#
# Mechanical properties :
#
#
# Convention : Reuss Voigt Hill
#
# Bulk Modulus (GPa) = 36.41398 45.90910 41.16154
# Shear Modulus (GPa) = 28.44387 32.39180 30.41783
#
# Velocity S-wave (km/s) = 3.76918 4.02225 3.89777
# Velocity P-wave (km/s) = 6.09342 6.67093 6.38870
#
# Compressibility (1/GPa) = 0.02746198
#
# Stress axis : x y z
#
# Youngs Moduli (GPa) = 63.54947 64.75296 147.70705
#
# Poissons Ratio (x) = 0.05438 0.33325
# Poissons Ratio (y) = 0.05337 0.31721
# Poissons Ratio (z) = 0.14338 0.13906
#
# Static dielectric constant tensor:
#      x y z
#    x 3.668140 0.000000 -0.028020 
#    y 0.000000 3.436940 0.000000 
#    z -0.028020 0.000000 4.251690 
# 
# 
# High freq. dielectric constant tensor:
#      x y z
#    x 1.789400 0.000000 0.011990 
#    y 0.000000 1.740800 0.000000 
#    z 0.011990 0.000000 1.803620 
# 
# From -- ./inp_files/169202.got.cif
#   From: 2010.06.25/outbox.cif.g09.slc.cpg/sg15_85_cif.got.tgz:169202.got - 2010.06.28 07:06:18.
