data_PCOD8151111
_publ_section_title
;
Structure prediction by ZEFSAII (Michael W. Deem and Ramdas Pophale) SiO2 
 PCOD8151111
Probable space group: C 2/C
;
_chemical_formula_sum "Si O2"
_cell_formula_units_Z 56
_cell_length_a 22.008989
_cell_length_b 17.239918
_cell_length_c 21.624291
_cell_angle_alpha 90.000000
_cell_angle_beta 160.382525
_cell_angle_gamma 90.000000
_cell_volume 2754.728494
_symmetry_space_group_name_H-M "C 2/C"
_symmetry_group_IT_number 15
_symmetry_cell_setting 'monoclinic'
loop_
_space_group_symop_operation_xyz
x,y,z
-x,y,1/2-z
-x,-y,-z
x,-y,1/2+z
1/2+x,1/2+y,z
1/2-x,1/2+y,1/2-z
1/2-x,1/2-y,-z
1/2+x,1/2-y,1/2+z
loop_
_atom_site_type_symbol
_atom_site_label
_atom_site_fract_x
_atom_site_fract_y
_atom_site_fract_z
Si Si1 0.779996 0.088888 0.381391
Si Si2 0.386934 0.349394 0.852120
Si Si3 0.232611 0.087509 0.624929
Si Si4 0.127723 0.803453 0.923967
Si Si5 0.056238 0.852064 0.237870
Si Si6 0.533829 0.174898 0.351808
Si Si7 0.531666 0.798723 0.448744
O O1 0.813002 0.112729 0.342952
O O2 0.622023 0.143869 0.253813
O O3 0.967173 0.096693 0.598604
O O4 0.707891 0.001452 0.318696
O O5 0.223554 0.337932 0.646628
O O6 0.533391 0.407960 0.963821
O O7 0.480809 0.264992 0.952885
O O8 0.231296 0.124675 0.555036
O O9 0.379863 0.135210 0.805222
O O10 0.000000 0.842303 0.750000
O O11 0.250000 0.750000 0.000000
O O12 0.031475 0.749467 0.883893
O O13 0.272090 0.853028 0.436893
O O14 0.000000 0.888199 0.250000
O O15 0.966771 0.767446 0.147730
O O16 0.500000 0.143891 0.250000
#
# Coordination Sequence:
#
# PCOD8151111 Si02
#       7
#     8   8   8   8   8   8   8
#     4  12  27  40  65 104 132 176 223 274 351 399
#     4  11  24  42  68  92 129 178 227 272 333 401
#     4  11  25  45  62  99 142 165 219 293 330 389
#     4  11  19  39  69  98 122 175 225 261 330 404
#     4  11  21  41  68  90 133 173 217 276 327 399
#     4  11  21  41  65  91 128 174 224 274 327 405
#     4  11  22  43  70  95 131 173 229 285 320 403
#
# _framework density 20.328681
#
# number of rings (size 3 to 8) (size 9 to 14) (size 15 to 20)
#    0.000    0.857    7.143    2.143    2.000    3.429 
#    2.571    0.000    0.000    0.000    0.000    0.000 
#    0.000    0.000    0.000    0.000    0.000    0.000 
#
# Total GULP energy -347178.149647 kJ/mol
# GULP energy per Si atom -12399.219630 kJ/mol
# Density = 2.028241 g / cm^3
# Si number density = 20.328681 Si / 1000 Ang^3
#
#
#
# Elastic Constant Matrix: (Units=GPa)
#
#
# Indices 1 2 3 4 5 6 
#
# 1 94.3876 25.3388 14.0470 0.0078 -1.4966 0.0005
# 2 25.3388 79.4001 2.5542 0.0101 -6.8414 0.0060
# 3 14.0470 2.5542 104.0198 0.0069 1.9274 0.0144
# 4 0.0078 0.0101 0.0069 21.5197 -0.0068 -8.1786
# 5 -1.4966 -6.8414 1.9274 -0.0068 29.2138 0.0071
# 6 0.0005 0.0060 0.0144 -8.1786 0.0071 8.3051
#
#
#
# Elastic Compliance Matrix: (Units=1/GPa)
#
#
# Indices 1 2 3 4 5 6 
#
# 1 0.011819 -0.003738 -0.001501 0.000000 -0.000171 0.000004
# 2 -0.003738 0.014051 0.000103 -0.000015 0.003092 -0.000027
# 3 -0.001501 0.000103 0.009827 -0.000015 -0.000701 -0.000031
# 4 0.000000 -0.000015 -0.000015 0.074262 -0.000003 0.073130
# 5 -0.000171 0.003092 -0.000701 -0.000003 0.034992 -0.000034
# 6 0.000004 -0.000027 -0.000031 0.073130 -0.000034 0.192423
#
#
# Mechanical properties :
#
#
# Convention : Reuss Voigt Hill
#
# Bulk Modulus (GPa) = 39.33504 40.18753 39.76129
# Shear Modulus (GPa) = 14.04016 27.53224 20.78620
#
# Velocity S-wave (km/s) = 2.63089 3.68415 3.20113
# Velocity P-wave (km/s) = 5.34979 6.15703 5.76755
#
# Compressibility (1/GPa) = 0.02542263
#
# Stress axis : x y z
#
# Youngs Moduli (GPa) = 84.61078 71.17166 101.76315
#
# Poissons Ratio (x) = 0.26605 0.15275
# Poissons Ratio (y) = 0.31629 -0.01043
# Poissons Ratio (z) = 0.12701 -0.00730
#
# Static dielectric constant tensor:
#      x y z
#    x 3.531220 -0.000040 0.179810 
#    y -0.000040 3.504200 -0.000060 
#    z 0.179810 -0.000060 3.716380 
# 
# 
# High freq. dielectric constant tensor:
#      x y z
#    x 1.790760 0.000000 0.004700 
#    y 0.000000 1.772860 -0.000010 
#    z 0.004700 -0.000010 1.810130 
# 
# From -- ./inp_files/253375.got.cif
#   From: 2010.06.25/outbox.cif.g09.slc.cpg/sg15_127_cif.got.tgz:253375.got - 2010.06.28 07:06:18.
