data_PCOD8151122
_publ_section_title
;
Structure prediction by ZEFSAII (Michael W. Deem and Ramdas Pophale) SiO2 
 PCOD8151122
Probable space group: C 2/C
;
_chemical_formula_sum "Si O2"
_cell_formula_units_Z 56
_cell_length_a 19.732779
_cell_length_b 10.858166
_cell_length_c 10.840839
_cell_angle_alpha 90.000000
_cell_angle_beta 107.915992
_cell_angle_gamma 90.000000
_cell_volume 2210.142786
_symmetry_space_group_name_H-M "C 2/C"
_symmetry_group_IT_number 15
_symmetry_cell_setting 'monoclinic'
loop_
_space_group_symop_operation_xyz
x,y,z
-x,y,1/2-z
-x,-y,-z
x,-y,1/2+z
1/2+x,1/2+y,z
1/2-x,1/2+y,1/2-z
1/2-x,1/2-y,-z
1/2+x,1/2-y,1/2+z
loop_
_atom_site_type_symbol
_atom_site_label
_atom_site_fract_x
_atom_site_fract_y
_atom_site_fract_z
Si Si1 0.095751 0.357901 0.357622
Si Si2 0.500000 0.936509 0.750000
Si Si3 0.398838 0.740821 0.790108
Si Si4 0.799705 0.508739 0.962337
Si Si5 0.244036 0.609743 0.307713
Si Si6 0.978784 0.155133 0.059442
Si Si7 0.000000 0.059475 0.750000
Si Si8 0.375538 0.219431 0.886759
O O1 0.045903 0.473873 0.362858
O O2 0.159776 0.378559 0.490763
O O3 0.053200 0.230125 0.342350
O O4 0.123417 0.366690 0.233842
O O5 0.448583 0.861068 0.811914
O O6 0.317200 0.783254 0.727889
O O7 0.428002 0.643434 0.703565
O O8 0.414702 0.666439 0.925366
O O9 0.758744 0.485835 0.810336
O O10 0.851756 0.628271 0.983035
O O11 0.754004 0.536754 0.060451
O O12 0.319498 0.672678 0.334724
O O13 0.048503 0.219343 0.040771
O O14 0.995650 0.018251 0.119814
#
# Coordination Sequence:
#
# PCOD8151122 Si02
#       8
#     8   4   8   8   8   8   4   8
#     4  12  22  43  79 110 143 189 244 324 376 437
#     4  11  19  40  72 110 139 175 248 314 376 423
#     4  11  25  43  72 104 145 199 252 308 369 456
#     4  12  25  51  76 112 151 194 253 318 381 446
#     4  12  28  49  76 115 151 200 251 310 391 447
#     4  12  24  47  72 107 150 196 256 309 377 450
#     4  11  25  46  62 100 151 201 254 294 374 441
#     4  12  26  46  73 109 155 194 249 315 380 453
#
# _framework density 25.337730000000001
#
# number of rings (size 3 to 8) (size 9 to 14) (size 15 to 20)
#    0.000    0.286    7.143    1.714    2.000    2.857 
#    2.571    0.000    0.000    0.000    0.000    0.000 
#    0.000    0.000    0.000    0.000    0.000    0.000 
#
# Total GULP energy -347009.716989 kJ/mol
# GULP energy per Si atom -12393.204178 kJ/mol
# Density = 2.528006 g / cm^3
# Si number density = 25.337730 Si / 1000 Ang^3
#
#
#
# Elastic Constant Matrix: (Units=GPa)
#
#
# Indices 1 2 3 4 5 6 
#
# 1 67.4293 17.6594 23.5391 0.0000 6.6220 0.0000
# 2 17.6594 97.2993 8.9688 0.0000 -2.7267 0.0000
# 3 23.5391 8.9688 98.9916 0.0000 -21.7356 0.0000
# 4 0.0000 0.0000 0.0000 17.1593 0.0000 4.6056
# 5 6.6220 -2.7267 -21.7356 0.0000 25.5576 0.0000
# 6 0.0000 0.0000 0.0000 4.6056 0.0000 33.7931
#
#
#
# Elastic Compliance Matrix: (Units=1/GPa)
#
#
# Indices 1 2 3 4 5 6 
#
# 1 0.019046 -0.003151 -0.006641 0.000000 -0.010919 0.000000
# 2 -0.003151 0.010888 0.000242 0.000000 0.002184 0.000000
# 3 -0.006641 0.000242 0.014808 0.000000 0.014340 0.000000
# 4 0.000000 0.000000 0.000000 0.060490 0.000000 -0.008244
# 5 -0.010919 0.002184 0.014340 0.000000 0.054385 0.000000
# 6 0.000000 0.000000 0.000000 -0.008244 0.000000 0.030715
#
#
# Mechanical properties :
#
#
# Convention : Reuss Voigt Hill
#
# Bulk Modulus (GPa) = 38.99652 40.45054 39.72353
# Shear Modulus (GPa) = 22.93802 29.53888 26.23845
#
# Velocity S-wave (km/s) = 3.01207 3.41809 3.22149
# Velocity P-wave (km/s) = 5.24603 5.61934 5.43589
#
# Compressibility (1/GPa) = 0.02564332
#
# Stress axis : x y z
#
# Youngs Moduli (GPa) = 52.50421 91.84195 67.53273
#
# Poissons Ratio (x) = 0.28936 0.44848
# Poissons Ratio (y) = 0.16542 -0.01636
# Poissons Ratio (z) = 0.34868 -0.02225
#
# Static dielectric constant tensor:
#      x y z
#    x 4.506750 0.000000 -0.145310 
#    y 0.000000 4.585900 0.000000 
#    z -0.145310 0.000000 4.392240 
# 
# 
# High freq. dielectric constant tensor:
#      x y z
#    x 1.996580 0.000000 -0.015170 
#    y 0.000000 2.015570 0.000000 
#    z -0.015170 0.000000 2.019150 
# 
# From -- ./inp_files/111700.got.cif
#   From: 2010.06.25/outbox.cif.g09.slc.cpg/sg15_56_cif.got.tgz:111700.got - 2010.06.28 07:06:18.
