data_PCOD8151064
_publ_section_title
;
Structure prediction by ZEFSAII (Michael W. Deem and Ramdas Pophale) SiO2 
 PCOD8151064
Probable space group: C 2/C
;
_chemical_formula_sum "Si O2"
_cell_formula_units_Z 56
_cell_length_a 18.688768
_cell_length_b 17.488560
_cell_length_c 11.056937
_cell_angle_alpha 90.000000
_cell_angle_beta 131.914721
_cell_angle_gamma 90.000000
_cell_volume 2689.206619
_symmetry_space_group_name_H-M "C 2/C"
_symmetry_group_IT_number 15
_symmetry_cell_setting 'monoclinic'
loop_
_space_group_symop_operation_xyz
x,y,z
-x,y,1/2-z
-x,-y,-z
x,-y,1/2+z
1/2+x,1/2+y,z
1/2-x,1/2+y,1/2-z
1/2-x,1/2-y,-z
1/2+x,1/2-y,1/2+z
loop_
_atom_site_type_symbol
_atom_site_label
_atom_site_fract_x
_atom_site_fract_y
_atom_site_fract_z
Si Si1 0.972815 0.699821 0.589068
Si Si2 0.124353 0.694489 0.566298
Si Si3 0.854122 0.928214 0.828459
Si Si4 0.297773 0.399903 0.235596
Si Si5 0.469970 0.626041 0.087737
Si Si6 0.393211 0.342225 0.105733
Si Si7 0.245523 0.707159 0.120624
O O1 0.007932 0.787441 0.628895
O O2 0.859880 0.689427 0.445224
O O3 0.000000 0.662353 0.750000
O O4 0.031897 0.666416 0.540742
O O5 0.183042 0.616916 0.601062
O O6 0.099052 0.752324 0.427239
O O7 0.205182 0.738085 0.730349
O O8 0.802290 0.872436 0.673699
O O9 0.969685 0.923419 0.941121
O O10 0.810049 0.009396 0.745494
O O11 0.837973 0.897512 0.947202
O O12 0.356938 0.375625 0.424741
O O13 0.338716 0.350717 0.170440
O O14 0.500000 0.589287 0.250000
O O15 0.500000 0.372762 0.250000
O O16 0.250000 0.750000 0.000000
#
# Coordination Sequence:
#
# PCOD8151064 Si02
#       7
#     8   8   8   8   8   8   8
#     4  11  19  36  63  94 120 157 214 264 298 361
#     4  11  23  39  61  92 123 170 215 246 312 379
#     4  11  25  39  60  96 124 162 208 261 322 383
#     4  12  25  39  62  89 134 172 195 258 326 379
#     4  11  21  35  63  95 124 157 204 260 326 375
#     4  11  23  43  61  89 129 166 216 258 308 381
#     4  11  20  38  64  92 123 157 205 264 309 363
#
# _framework density 20.823983999999999
#
# number of rings (size 3 to 8) (size 9 to 14) (size 15 to 20)
#    0.000    0.857    7.143    1.714    2.000    0.000 
#    0.000    0.714    0.000    0.857    0.000    0.000 
#    0.000    0.000    0.000    0.000    0.000    0.000 
#
# Total GULP energy -346930.484311 kJ/mol
# GULP energy per Si atom -12390.374440 kJ/mol
# Density = 2.077659 g / cm^3
# Si number density = 20.823984 Si / 1000 Ang^3
#
#
#
# Elastic Constant Matrix: (Units=GPa)
#
#
# Indices 1 2 3 4 5 6 
#
# 1 112.4422 15.9852 33.1703 0.0000 15.0720 0.0000
# 2 15.9852 72.1428 21.7704 0.0000 -0.6872 0.0000
# 3 33.1703 21.7704 90.8843 0.0000 -5.2664 0.0000
# 4 0.0000 0.0000 0.0000 17.2525 0.0000 -0.8316
# 5 15.0720 -0.6872 -5.2664 0.0000 39.1076 0.0000
# 6 0.0000 0.0000 0.0000 -0.8316 0.0000 11.1187
#
#
#
# Elastic Compliance Matrix: (Units=1/GPa)
#
#
# Indices 1 2 3 4 5 6 
#
# 1 0.010871 -0.001265 -0.003939 0.000000 -0.004742 0.000000
# 2 -0.001265 0.015091 -0.003134 0.000000 0.000331 0.000000
# 3 -0.003939 -0.003134 0.013381 0.000000 0.003265 0.000000
# 4 0.000000 0.000000 0.000000 0.058172 0.000000 0.004351
# 5 -0.004742 0.000331 0.003265 0.000000 0.027844 0.000000
# 6 0.000000 0.000000 0.000000 0.004351 0.000000 0.090264
#
#
# Mechanical properties :
#
#
# Convention : Reuss Voigt Hill
#
# Bulk Modulus (GPa) = 44.12003 46.36902 45.24452
# Shear Modulus (GPa) = 20.84602 27.13202 23.98902
#
# Velocity S-wave (km/s) = 3.16738 3.61352 3.39778
# Velocity P-wave (km/s) = 5.88299 6.30281 6.09652
#
# Compressibility (1/GPa) = 0.02266544
#
# Stress axis : x y z
#
# Youngs Moduli (GPa) = 91.98675 66.26654 74.73474
#
# Poissons Ratio (x) = 0.08384 0.29441
# Poissons Ratio (y) = 0.11638 0.23421
# Poissons Ratio (z) = 0.36237 0.20767
#
# Static dielectric constant tensor:
#      x y z
#    x 3.904990 0.000000 0.080250 
#    y 0.000000 3.489270 0.000000 
#    z 0.080250 0.000000 3.791810 
# 
# 
# High freq. dielectric constant tensor:
#      x y z
#    x 1.816580 0.000000 -0.001760 
#    y 0.000000 1.778530 0.000000 
#    z -0.001760 0.000000 1.818650 
# 
# From -- ./inp_files/106731.got.cif
#   From: 2010.06.25/outbox.cif.g09.slc.cpg/sg15_54_cif.got.tgz:106731.got - 2010.06.28 07:06:18.
