data_PCOD8151310
_publ_section_title
;
Structure prediction by ZEFSAII (Michael W. Deem and Ramdas Pophale) SiO2 
 PCOD8151310
Probable space group: C 2/C
;
_chemical_formula_sum "Si O2"
_cell_formula_units_Z 56
_cell_length_a 13.740647
_cell_length_b 18.490714
_cell_length_c 11.345074
_cell_angle_alpha 90.000000
_cell_angle_beta 65.319771
_cell_angle_gamma 90.000000
_cell_volume 2619.183553
_symmetry_space_group_name_H-M "C 2/C"
_symmetry_group_IT_number 15
_symmetry_cell_setting 'monoclinic'
loop_
_space_group_symop_operation_xyz
x,y,z
-x,y,1/2-z
-x,-y,-z
x,-y,1/2+z
1/2+x,1/2+y,z
1/2-x,1/2+y,1/2-z
1/2-x,1/2-y,-z
1/2+x,1/2-y,1/2+z
loop_
_atom_site_type_symbol
_atom_site_label
_atom_site_fract_x
_atom_site_fract_y
_atom_site_fract_z
Si Si1 0.221500 0.200414 0.735376
Si Si2 0.112643 0.673221 0.649862
Si Si3 0.469169 0.268368 0.004105
Si Si4 0.208410 0.579090 0.402798
Si Si5 0.503267 0.879138 0.611467
Si Si6 0.734835 0.076264 0.964456
Si Si7 0.685761 0.346244 0.854775
O O1 0.325466 0.195184 0.764523
O O2 0.113418 0.194998 0.864665
O O3 0.215194 0.136836 0.644757
O O4 0.233754 0.278071 0.663984
O O5 0.092084 0.746292 0.585005
O O6 0.180912 0.615480 0.541762
O O7 0.000000 0.638576 0.750000
O O8 0.517545 0.195752 0.035162
O O9 0.561954 0.325718 0.932266
O O10 0.264718 0.502525 0.400005
O O11 0.296319 0.625436 0.287228
O O12 0.100994 0.576104 0.377022
O O13 0.500000 0.861153 0.750000
O O14 0.606489 0.926485 0.530006
O O15 0.782954 0.090468 0.069585
#
# Coordination Sequence:
#
# PCOD8151310 Si02
#       7
#     8   8   8   8   8   8   8
#     4  12  23  42  72 102 133 176 231 285 336 397
#     4  11  22  42  72 103 136 173 224 284 348 397
#     4  11  24  39  68 107 129 175 229 286 334 394
#     4  11  26  43  64 101 140 182 224 276 351 414
#     4  11  20  38  68 100 135 169 222 284 349 395
#     4  12  26  42  66  98 141 185 220 281 349 412
#     4  12  24  45  69  98 137 177 233 280 336 408
#
# _framework density 21.380709
#
# number of rings (size 3 to 8) (size 9 to 14) (size 15 to 20)
#    0.000    0.571    7.143    2.143    4.000    0.571 
#    0.000    0.714    3.143    0.000    0.000    0.000 
#    0.000    0.000    0.000    0.000    0.000    0.000 
#
# Total GULP energy -347324.411867 kJ/mol
# GULP energy per Si atom -12404.443281 kJ/mol
# Density = 2.133205 g / cm^3
# Si number density = 21.380709 Si / 1000 Ang^3
#
#
#
# Elastic Constant Matrix: (Units=GPa)
#
#
# Indices 1 2 3 4 5 6 
#
# 1 46.7225 18.2370 18.0830 0.0000 -4.3898 0.0000
# 2 18.2370 118.0575 42.2821 0.0000 -5.4944 0.0000
# 3 18.0830 42.2821 119.3132 0.0000 -13.8320 0.0000
# 4 0.0000 0.0000 0.0000 30.7804 0.0000 1.8169
# 5 -4.3898 -5.4944 -13.8320 0.0000 46.2860 0.0000
# 6 0.0000 0.0000 0.0000 1.8169 0.0000 18.0345
#
#
#
# Elastic Compliance Matrix: (Units=1/GPa)
#
#
# Indices 1 2 3 4 5 6 
#
# 1 0.023522 -0.002693 -0.002475 0.000000 0.001172 0.000000
# 2 -0.002693 0.010011 -0.003140 0.000000 -0.000005 0.000000
# 3 -0.002475 -0.003140 0.010150 0.000000 0.002426 0.000000
# 4 0.000000 0.000000 0.000000 0.032683 0.000000 -0.003293
# 5 0.001172 -0.000005 0.002426 0.000000 0.022440 0.000000
# 6 0.000000 0.000000 0.000000 -0.003293 0.000000 0.055781
#
#
# Mechanical properties :
#
#
# Convention : Reuss Voigt Hill
#
# Bulk Modulus (GPa) = 36.94441 49.03306 42.98873
# Shear Modulus (GPa) = 27.74314 32.71960 30.23137
#
# Velocity S-wave (km/s) = 3.60610 3.91619 3.76434
# Velocity P-wave (km/s) = 5.88689 6.59028 6.24849
#
# Compressibility (1/GPa) = 0.02706769
#
# Stress axis : x y z
#
# Youngs Moduli (GPa) = 42.51356 99.89227 98.51799
#
# Poissons Ratio (x) = 0.26898 0.24382
# Poissons Ratio (y) = 0.11447 0.30936
# Poissons Ratio (z) = 0.10522 0.31368
#
# Static dielectric constant tensor:
#      x y z
#    x 3.727950 0.000000 0.020320 
#    y 0.000000 3.555960 0.000000 
#    z 0.020320 0.000000 4.132350 
# 
# 
# High freq. dielectric constant tensor:
#      x y z
#    x 1.824460 0.000000 0.000830 
#    y 0.000000 1.812420 0.000000 
#    z 0.000830 0.000000 1.865510 
# 
# From -- ./inp_files/98651.got.cif
#   From: 2010.06.25/outbox.cif.g09.slc.cpg/sg15_50_cif.got.tgz:98651.got - 2010.06.28 07:06:18.
