data_PCOD8151847
_publ_section_title
;
Structure prediction by ZEFSAII (Michael W. Deem and Ramdas Pophale) SiO2 
 PCOD8151847
Probable space group: C 2/C
;
_chemical_formula_sum "Si O2"
_cell_formula_units_Z 64
_cell_length_a 19.738969
_cell_length_b 27.098853
_cell_length_c 9.298558
_cell_angle_alpha 90.000000
_cell_angle_beta 142.107646
_cell_angle_gamma 90.000000
_cell_volume 3054.826665
_symmetry_space_group_name_H-M "C 2/C"
_symmetry_group_IT_number 15
_symmetry_cell_setting 'monoclinic'
loop_
_space_group_symop_operation_xyz
x,y,z
-x,y,1/2-z
-x,-y,-z
x,-y,1/2+z
1/2+x,1/2+y,z
1/2-x,1/2+y,1/2-z
1/2-x,1/2-y,-z
1/2+x,1/2-y,1/2+z
loop_
_atom_site_type_symbol
_atom_site_label
_atom_site_fract_x
_atom_site_fract_y
_atom_site_fract_z
Si Si1 0.468329 0.813057 0.361124
Si Si2 0.828450 0.129791 0.799056
Si Si3 0.907536 0.371906 0.707875
Si Si4 0.274102 0.357516 0.535365
Si Si5 0.236967 0.542500 0.134353
Si Si6 0.573683 0.472724 0.009801
Si Si7 0.016632 0.203054 0.108490
Si Si8 0.384823 0.024778 0.286179
O O1 0.500000 0.812830 0.250000
O O2 0.556244 0.849562 0.579893
O O3 0.484436 0.758508 0.456350
O O4 0.343485 0.831058 0.173771
O O5 0.713573 0.146899 0.536834
O O6 0.871340 0.075633 0.824827
O O7 0.813908 0.125190 0.945793
O O8 0.915270 0.169743 0.883265
O O9 0.900459 0.430769 0.701287
O O10 0.000000 0.354838 0.750000
O O11 0.271771 0.403080 0.642119
O O12 0.366597 0.319595 0.746662
O O13 0.334280 0.512777 0.376675
O O14 0.147807 0.545751 0.111823
O O15 0.197422 0.514507 0.923931
O O16 0.500000 0.456899 0.750000
O O17 0.500000 0.500000 0.000000
O O18 0.000000 0.205531 0.250000
O O19 0.500000 0.000000 0.500000
#
# Coordination Sequence:
#
# PCOD8151847 Si02
#       8
#     8   8   8   8   8   8   8   8
#     4  11  23  42  67  98 129 171 219 273 331 385
#     4  11  22  42  67  96 131 170 219 270 330 389
#     4  12  24  42  66  94 136 171 215 271 327 391
#     4  11  21  41  68  97 130 169 223 269 319 395
#     4  12  24  40  64  95 128 171 213 259 322 379
#     4  12  24  41  63  91 129 168 215 261 314 384
#     4   9  21  40  68  97 126 171 220 274 330 388
#     4  12  25  41  61  93 131 171 213 262 317 386
#
# _framework density 20.950453
#
# number of rings (size 3 to 8) (size 9 to 14) (size 15 to 20)
#    0.000    0.750    2.500    7.125    0.000    0.500 
#    0.000    0.000    2.750    0.000    0.000    0.000 
#    0.000    0.000    0.000    0.000    0.000    0.000 
#
# Total GULP energy -396814.575489 kJ/mol
# GULP energy per Si atom -12400.455484 kJ/mol
# Density = 2.090277 g / cm^3
# Si number density = 20.950453 Si / 1000 Ang^3
#
#
#
# Elastic Constant Matrix: (Units=GPa)
#
#
# Indices 1 2 3 4 5 6 
#
# 1 72.0221 25.5544 22.9027 0.0000 8.9470 0.0000
# 2 25.5544 116.1530 32.9015 0.0000 18.8830 0.0000
# 3 22.9027 32.9015 118.3556 0.0000 26.5666 0.0000
# 4 0.0000 0.0000 0.0000 30.1822 0.0000 10.1902
# 5 8.9470 18.8830 26.5666 0.0000 35.3187 0.0000
# 6 0.0000 0.0000 0.0000 10.1902 0.0000 26.4098
#
#
#
# Elastic Compliance Matrix: (Units=1/GPa)
#
#
# Indices 1 2 3 4 5 6 
#
# 1 0.015615 -0.002696 -0.002055 0.000000 -0.000969 0.000000
# 2 -0.002696 0.010221 -0.001500 0.000000 -0.003654 0.000000
# 3 -0.002055 -0.001500 0.010788 0.000000 -0.006793 0.000000
# 4 0.000000 0.000000 0.000000 0.038095 0.000000 -0.014699
# 5 -0.000969 -0.003654 -0.006793 0.000000 0.035622 0.000000
# 6 0.000000 0.000000 0.000000 -0.014699 0.000000 0.043536
#
#
# Mechanical properties :
#
#
# Convention : Reuss Voigt Hill
#
# Bulk Modulus (GPa) = 41.45240 52.13866 46.79553
# Shear Modulus (GPa) = 28.66659 33.39361 31.03010
#
# Velocity S-wave (km/s) = 3.70307 3.99674 3.85271
# Velocity P-wave (km/s) = 6.17354 6.79994 6.49430
#
# Compressibility (1/GPa) = 0.02412405
#
# Stress axis : x y z
#
# Youngs Moduli (GPa) = 64.04146 97.83584 92.69303
#
# Poissons Ratio (x) = 0.26375 0.19046
# Poissons Ratio (y) = 0.17265 0.13900
# Poissons Ratio (z) = 0.13159 0.14671
#
# Static dielectric constant tensor:
#      x y z
#    x 4.741170 0.000000 0.383650 
#    y 0.000000 3.952980 0.000000 
#    z 0.383650 0.000000 3.856690 
# 
# 
# High freq. dielectric constant tensor:
#      x y z
#    x 1.820490 0.000000 0.021470 
#    y 0.000000 1.826750 0.000000 
#    z 0.021470 0.000000 1.820400 
# 
# From -- ./inp_files/52841.got.cif
#   From: 2010.06.25/outbox.cif.g09.slc.cpg/sg15_27_cif.got.tgz:52841.got - 2010.06.28 07:06:18.
