data_PCOD8151042
_publ_section_title
;
Structure prediction by ZEFSAII (Michael W. Deem and Ramdas Pophale) SiO2 
 PCOD8151042
Probable space group: C 2/C
;
_chemical_formula_sum "Si O2"
_cell_formula_units_Z 64
_cell_length_a 21.329228
_cell_length_b 14.876595
_cell_length_c 11.947370
_cell_angle_alpha 90.000000
_cell_angle_beta 116.544564
_cell_angle_gamma 90.000000
_cell_volume 3391.357662
_symmetry_space_group_name_H-M "C 2/C"
_symmetry_group_IT_number 15
_symmetry_cell_setting 'monoclinic'
loop_
_space_group_symop_operation_xyz
x,y,z
-x,y,1/2-z
-x,-y,-z
x,-y,1/2+z
1/2+x,1/2+y,z
1/2-x,1/2+y,1/2-z
1/2-x,1/2-y,-z
1/2+x,1/2-y,1/2+z
loop_
_atom_site_type_symbol
_atom_site_label
_atom_site_fract_x
_atom_site_fract_y
_atom_site_fract_z
Si Si1 0.963747 0.689814 0.613371
Si Si2 0.784005 0.151375 0.520736
Si Si3 0.082084 0.651445 0.527242
Si Si4 0.306940 0.946058 0.718228
Si Si5 0.352374 0.770253 0.855233
Si Si6 0.767752 0.633246 0.788668
Si Si7 0.927040 0.505867 0.141701
Si Si8 0.424201 0.280516 0.180137
O O1 0.903223 0.747642 0.502919
O O2 0.926769 0.601439 0.633186
O O3 0.000000 0.740132 0.750000
O O4 0.022857 0.665478 0.571000
O O5 0.750000 0.250000 0.500000
O O6 0.758938 0.101444 0.391602
O O7 0.761231 0.100599 0.614935
O O8 0.868363 0.152162 0.580356
O O9 0.156774 0.682485 0.637679
O O10 0.085613 0.546096 0.493869
O O11 0.064654 0.698080 0.395575
O O12 0.330442 0.876221 0.835034
O O13 0.367920 0.960831 0.678481
O O14 0.277408 0.041575 0.730466
O O15 0.285806 0.703257 0.813433
O O16 0.394576 0.751853 0.775134
O O17 0.000000 0.540960 0.250000
O O18 0.500000 0.328933 0.250000
#
# Coordination Sequence:
#
# PCOD8151042 Si02
#       8
#     8   8   8   8   8   8   8   8
#     4  11  24  35  50  79 124 164 189 231 295 368
#     4  11  19  39  59  88 122 150 202 255 285 345
#     4  12  18  35  55  85 119 152 194 233 299 358
#     4  12  21  37  61  86 122 156 194 246 302 343
#     4  11  21  39  59  86 119 151 200 244 291 354
#     4  11  22  35  61  90 118 156 194 244 298 353
#     4  11  20  33  51  85 120 154 185 231 288 368
#     4  11  19  34  64  92 106 151 205 254 294 334
#
# _framework density 18.871497999999999
#
# number of rings (size 3 to 8) (size 9 to 14) (size 15 to 20)
#    0.000    0.750    7.500    3.750    0.000    0.000 
#    0.000    2.500    2.750    3.750    0.000    0.000 
#    0.000    0.000    0.000    0.000    0.000    0.000 
#
# Total GULP energy -396629.127935 kJ/mol
# GULP energy per Si atom -12394.660248 kJ/mol
# Density = 1.882855 g / cm^3
# Si number density = 18.871498 Si / 1000 Ang^3
#
#
#
# Elastic Constant Matrix: (Units=GPa)
#
#
# Indices 1 2 3 4 5 6 
#
# 1 96.0839 40.1745 38.2560 0.0000 28.1526 0.0000
# 2 40.1745 49.1526 32.1968 0.0000 4.9354 0.0000
# 3 38.2560 32.1968 122.3459 0.0000 21.4758 0.0000
# 4 0.0000 0.0000 0.0000 18.3471 0.0000 7.6095
# 5 28.1526 4.9354 21.4758 0.0000 37.5975 0.0000
# 6 0.0000 0.0000 0.0000 7.6095 0.0000 20.6071
#
#
#
# Elastic Compliance Matrix: (Units=1/GPa)
#
#
# Indices 1 2 3 4 5 6 
#
# 1 0.021022 -0.015799 -0.000018 0.000000 -0.013657 0.000000
# 2 -0.015799 0.036465 -0.006549 0.000000 0.010784 0.000000
# 3 -0.000018 -0.006549 0.010836 0.000000 -0.005316 0.000000
# 4 0.000000 0.000000 0.000000 0.064362 0.000000 -0.023766
# 5 -0.013657 0.010784 -0.005316 0.000000 0.038444 0.000000
# 6 0.000000 0.000000 0.000000 -0.023766 0.000000 0.057303
#
#
# Mechanical properties :
#
#
# Convention : Reuss Voigt Hill
#
# Bulk Modulus (GPa) = 42.39059 54.31522 48.35290
# Shear Modulus (GPa) = 17.79181 25.77402 21.78291
#
# Velocity S-wave (km/s) = 3.07382 3.69963 3.40115
# Velocity P-wave (km/s) = 5.92531 6.86249 6.41105
#
# Compressibility (1/GPa) = 0.02359014
#
# Stress axis : x y z
#
# Youngs Moduli (GPa) = 47.56888 27.42365 92.28571
#
# Poissons Ratio (x) = 0.43326 0.00171
# Poissons Ratio (y) = 0.75154 0.60438
# Poissons Ratio (z) = 0.00088 0.17960
#
# Static dielectric constant tensor:
#      x y z
#    x 3.445750 0.000000 0.021840 
#    y 0.000000 3.232710 0.000000 
#    z 0.021840 0.000000 3.720370 
# 
# 
# High freq. dielectric constant tensor:
#      x y z
#    x 1.736890 0.000000 0.014110 
#    y 0.000000 1.685720 0.000000 
#    z 0.014110 0.000000 1.745970 
# 
# From -- ./inp_files/112738.got.cif
#   From: 2010.06.25/outbox.cif.g09.slc.cpg/sg15_57_cif.got.tgz:112738.got - 2010.06.28 07:06:18.
