data_PCOD8151304
_publ_section_title
;
Structure prediction by ZEFSAII (Michael W. Deem and Ramdas Pophale) SiO2 
 PCOD8151304
Probable space group: C 2/C
;
_chemical_formula_sum "Si O2"
_cell_formula_units_Z 48
_cell_length_a 9.213496
_cell_length_b 25.910111
_cell_length_c 10.568067
_cell_angle_alpha 90.000000
_cell_angle_beta 60.631756
_cell_angle_gamma 90.000000
_cell_volume 2198.616981
_symmetry_space_group_name_H-M "C 2/C"
_symmetry_group_IT_number 15
_symmetry_cell_setting 'monoclinic'
loop_
_space_group_symop_operation_xyz
x,y,z
-x,y,1/2-z
-x,-y,-z
x,-y,1/2+z
1/2+x,1/2+y,z
1/2-x,1/2+y,1/2-z
1/2-x,1/2-y,-z
1/2+x,1/2-y,1/2+z
loop_
_atom_site_type_symbol
_atom_site_label
_atom_site_fract_x
_atom_site_fract_y
_atom_site_fract_z
Si Si1 0.538182 0.694155 0.921227
Si Si2 0.809510 0.464832 0.829767
Si Si3 0.054232 0.311875 0.872583
Si Si4 0.259689 0.648157 0.866000
Si Si5 0.117171 0.870512 0.806882
Si Si6 0.187503 0.972377 0.151122
O O1 0.558333 0.755013 0.929380
O O2 0.375513 0.682267 0.907244
O O3 0.706840 0.670220 0.788925
O O4 0.507410 0.668008 0.068573
O O5 0.689933 0.415420 0.864743
O O6 0.795741 0.504723 0.719724
O O7 0.000000 0.445251 0.750000
O O8 0.758474 0.491770 0.984721
O O9 0.232708 0.337640 0.815671
O O10 0.000000 0.310315 0.750000
O O11 0.929442 0.346105 0.009690
O O12 0.308004 0.588845 0.847113
O O13 0.000000 0.896116 0.750000
O O14 0.000000 0.992229 0.250000
#
# Coordination Sequence:
#
# PCOD8151304 Si02
#       6
#     8   8   8   8   8   8
#     4  11  21  39  67  99 132 168 222 266 327 388
#     4  12  26  46  70  98 132 174 227 279 336 398
#     4  12  21  38  70 100 127 176 224 271 325 392
#     4  11  20  38  66 101 130 165 220 278 315 392
#     4  12  26  44  64  95 140 176 220 273 333 395
#     4  12  23  43  69  98 136 174 220 276 336 400
#
# _framework density 21.831906
#
# number of rings (size 3 to 8) (size 9 to 14) (size 15 to 20)
#    0.000    0.333    6.667    4.500    0.000    2.000 
#    0.000    0.833    0.000    0.000    0.000    0.000 
#    0.000    0.000    0.000    0.000    0.000    0.000 
#
# Total GULP energy -297680.429635 kJ/mol
# GULP energy per Si atom -12403.351235 kJ/mol
# Density = 2.178222 g / cm^3
# Si number density = 21.831906 Si / 1000 Ang^3
#
#
#
# Elastic Constant Matrix: (Units=GPa)
#
#
# Indices 1 2 3 4 5 6 
#
# 1 87.2327 20.9104 48.9301 0.0000 1.9500 0.0000
# 2 20.9104 77.5585 25.8702 0.0000 3.8579 0.0000
# 3 48.9301 25.8702 163.7941 0.0000 -13.0020 0.0000
# 4 0.0000 0.0000 0.0000 34.1734 0.0000 3.1305
# 5 1.9500 3.8579 -13.0020 0.0000 20.4878 0.0000
# 6 0.0000 0.0000 0.0000 3.1305 0.0000 15.9722
#
#
#
# Elastic Compliance Matrix: (Units=1/GPa)
#
#
# Indices 1 2 3 4 5 6 
#
# 1 0.014482 -0.002305 -0.004251 0.000000 -0.003642 0.000000
# 2 -0.002305 0.014319 -0.001863 0.000000 -0.003659 0.000000
# 3 -0.004251 -0.001863 0.008140 0.000000 0.005921 0.000000
# 4 0.000000 0.000000 0.000000 0.029798 0.000000 -0.005840
# 5 -0.003642 -0.003659 0.005921 0.000000 0.053603 0.000000
# 6 0.000000 0.000000 0.000000 -0.005840 0.000000 0.063753
#
#
# Mechanical properties :
#
#
# Convention : Reuss Voigt Hill
#
# Bulk Modulus (GPa) = 49.75008 57.77852 53.76430
# Shear Modulus (GPa) = 24.08083 29.65166 26.86624
#
# Velocity S-wave (km/s) = 3.32476 3.68935 3.51179
# Velocity P-wave (km/s) = 6.12993 6.68364 6.41276
#
# Compressibility (1/GPa) = 0.02010047
#
# Stress axis : x y z
#
# Youngs Moduli (GPa) = 69.05022 69.83929 122.85749
#
# Poissons Ratio (x) = 0.16100 0.52230
# Poissons Ratio (y) = 0.15918 0.22893
# Poissons Ratio (z) = 0.29355 0.13013
#
# Static dielectric constant tensor:
#      x y z
#    x 3.761670 0.000000 -0.174870 
#    y 0.000000 3.842120 0.000000 
#    z -0.174870 0.000000 4.559680 
# 
# 
# High freq. dielectric constant tensor:
#      x y z
#    x 1.830800 0.000000 -0.012770 
#    y 0.000000 1.861690 0.000000 
#    z -0.012770 0.000000 1.878350 
# 
# From -- ./inp_files/80534.got.cif
#   From: 2010.06.25/outbox.cif.g09.slc.cpg/sg15_41_cif.got.tgz:80534.got - 2010.06.28 07:06:18.
