data_PCOD8151599
_publ_section_title
;
Structure prediction by ZEFSAII (Michael W. Deem and Ramdas Pophale) SiO2 
 PCOD8151599
Probable space group: C 2/C
;
_chemical_formula_sum "Si O2"
_cell_formula_units_Z 44
_cell_length_a 8.882959
_cell_length_b 30.660569
_cell_length_c 7.848709
_cell_angle_alpha 90.000000
_cell_angle_beta 112.640810
_cell_angle_gamma 90.000000
_cell_volume 1972.912410
_symmetry_space_group_name_H-M "C 2/C"
_symmetry_group_IT_number 15
_symmetry_cell_setting 'monoclinic'
loop_
_space_group_symop_operation_xyz
x,y,z
-x,y,1/2-z
-x,-y,-z
x,-y,1/2+z
1/2+x,1/2+y,z
1/2-x,1/2+y,1/2-z
1/2-x,1/2-y,-z
1/2+x,1/2-y,1/2+z
loop_
_atom_site_type_symbol
_atom_site_label
_atom_site_fract_x
_atom_site_fract_y
_atom_site_fract_z
Si Si1 0.169743 0.862161 0.616610
Si Si2 0.694749 0.367264 0.014770
Si Si3 0.875717 0.711149 0.046340
Si Si4 0.811143 0.545686 0.703960
Si Si5 0.684455 0.048963 0.396906
Si Si6 0.000000 0.685012 0.750000
O O1 0.284838 0.835158 0.538323
O O2 0.204652 0.913472 0.631787
O O3 0.981096 0.853736 0.485231
O O4 0.205339 0.849421 0.827137
O O5 0.715370 0.419369 0.046309
O O6 0.838642 0.344321 0.179775
O O7 0.000000 0.719954 0.250000
O O8 0.750000 0.750000 0.000000
O O9 0.975267 0.713269 0.910828
O O10 0.744248 0.497745 0.628145
O O11 0.000000 0.548125 0.750000
O O12 0.792862 0.555083 0.893473
O O13 0.500000 0.054848 0.250000
#
# Coordination Sequence:
#
# PCOD8151599 Si02
#       6
#     8   8   8   8   8   4
#     4  11  25  46  69 103 143 183 238 292 355 418
#     4  11  24  43  72 103 142 189 234 290 348 422
#     4  12  29  51  77 110 144 183 232 292 357 428
#     4  11  21  37  60  99 136 186 241 286 349 410
#     4  11  22  37  64  93 140 187 237 294 349 416
#     4  12  26  48  80 104 148 188 232 284 360 424
#
# _framework density 22.302056
#
# number of rings (size 3 to 8) (size 9 to 14) (size 15 to 20)
#    0.000    0.727    2.727    6.000    2.545    5.091 
#    0.000    0.000    0.000    0.000    0.000    0.000 
#    0.000    0.000    0.000    0.000    0.000    0.000 
#
# Total GULP energy -272799.126452 kJ/mol
# GULP energy per Si atom -12399.960293 kJ/mol
# Density = 2.225130 g / cm^3
# Si number density = 22.302056 Si / 1000 Ang^3
#
#
#
# Elastic Constant Matrix: (Units=GPa)
#
#
# Indices 1 2 3 4 5 6 
#
# 1 100.1494 34.4482 61.6052 0.0000 -2.6606 0.0000
# 2 34.4482 96.4555 42.9876 0.0000 2.9773 0.0000
# 3 61.6052 42.9876 112.2596 0.0000 3.9980 0.0000
# 4 0.0000 0.0000 0.0000 18.8778 0.0000 11.8975
# 5 -2.6606 2.9773 3.9980 0.0000 41.3909 0.0000
# 6 0.0000 0.0000 0.0000 11.8975 0.0000 24.8656
#
#
#
# Elastic Compliance Matrix: (Units=1/GPa)
#
#
# Indices 1 2 3 4 5 6 
#
# 1 0.015564 -0.002147 -0.007787 0.000000 0.001907 0.000000
# 2 -0.002147 0.012805 -0.003700 0.000000 -0.000702 0.000000
# 3 -0.007787 -0.003700 0.014657 0.000000 -0.001650 0.000000
# 4 0.000000 0.000000 0.000000 0.075843 0.000000 -0.036289
# 5 0.001907 -0.000702 -0.001650 0.000000 0.024492 0.000000
# 6 0.000000 0.000000 0.000000 -0.036289 0.000000 0.057580
#
#
# Mechanical properties :
#
#
# Convention : Reuss Voigt Hill
#
# Bulk Modulus (GPa) = 63.46104 65.21627 64.33866
# Shear Modulus (GPa) = 21.41673 28.34842 24.88258
#
# Velocity S-wave (km/s) = 3.10224 3.56913 3.34384
# Velocity P-wave (km/s) = 6.43031 6.80373 6.61965
#
# Compressibility (1/GPa) = 0.01575770
#
# Stress axis : x y z
#
# Youngs Moduli (GPa) = 64.24938 78.09446 68.22705
#
# Poissons Ratio (x) = 0.16767 0.53129
# Poissons Ratio (y) = 0.13795 0.25245
# Poissons Ratio (z) = 0.50031 0.28896
#
# Static dielectric constant tensor:
#      x y z
#    x 3.760140 0.000000 -0.135830 
#    y 0.000000 4.165040 0.000000 
#    z -0.135830 0.000000 4.012930 
# 
# 
# High freq. dielectric constant tensor:
#      x y z
#    x 1.877810 0.000000 -0.004370 
#    y 0.000000 1.872860 0.000000 
#    z -0.004370 0.000000 1.893050 
# 
# From -- ./inp_files/26221.got.cif
#   From: 2010.06.25/outbox.cif.g09.slc.cpg/sg15_14_cif.got.tgz:26221.got - 2010.06.28 07:06:18.
