data_PCOD8151043
_publ_section_title
;
Structure prediction by ZEFSAII (Michael W. Deem and Ramdas Pophale) SiO2 
 PCOD8151043
Probable space group: C 2/C
;
_chemical_formula_sum "Si O2"
_cell_formula_units_Z 60
_cell_length_a 21.020619
_cell_length_b 17.688586
_cell_length_c 12.501360
_cell_angle_alpha 90.000000
_cell_angle_beta 36.750560
_cell_angle_gamma 90.000000
_cell_volume 2781.239724
_symmetry_space_group_name_H-M "C 2/C"
_symmetry_group_IT_number 15
_symmetry_cell_setting 'monoclinic'
loop_
_space_group_symop_operation_xyz
x,y,z
-x,y,1/2-z
-x,-y,-z
x,-y,1/2+z
1/2+x,1/2+y,z
1/2-x,1/2+y,1/2-z
1/2-x,1/2-y,-z
1/2+x,1/2-y,1/2+z
loop_
_atom_site_type_symbol
_atom_site_label
_atom_site_fract_x
_atom_site_fract_y
_atom_site_fract_z
Si Si1 0.775625 0.355633 0.228149
Si Si2 0.774277 0.562450 0.524518
Si Si3 0.225979 0.715839 0.420844
Si Si4 0.000000 0.655782 0.750000
Si Si5 0.612339 0.425465 0.067232
Si Si6 0.055209 0.910473 0.578710
Si Si7 0.351430 0.426670 0.718153
Si Si8 0.918031 0.457534 0.188052
O O1 0.786411 0.267309 0.248781
O O2 0.648256 0.363561 0.400436
O O3 0.829826 0.414601 0.236385
O O4 0.816926 0.373214 0.050811
O O5 0.699825 0.600501 0.535441
O O6 0.703799 0.507802 0.695171
O O7 0.868471 0.518976 0.336625
O O8 0.250000 0.750000 0.500000
O O9 0.277100 0.634221 0.372979
O O10 0.098995 0.707306 0.578227
O O11 0.978210 0.604700 0.675922
O O12 0.500000 0.387940 0.250000
O O13 0.603070 0.516390 0.075681
O O14 0.647947 0.397607 0.903963
O O15 0.000000 0.862889 0.750000
O O16 0.971183 0.932397 0.600445
O O17 0.000000 0.500000 0.000000
#
# Coordination Sequence:
#
# PCOD8151043 Si02
#       8
#     8   8   8   4   8   8   8   8
#     4  12  25  42  65  98 137 177 223 284 341 409
#     4  12  21  41  66 101 132 172 228 285 342 400
#     4  12  27  46  65  99 139 179 231 276 348 418
#     4  12  26  44  72 100 138 182 228 286 350 412
#     4  11  21  35  61 101 131 165 216 274 340 405
#     4  11  19  34  65  99 130 164 210 270 342 392
#     4  12  22  40  68  95 136 176 219 285 337 413
#     4  12  25  44  72 103 131 176 235 293 344 403
#
# _framework density 21.573112999999999
#
# number of rings (size 3 to 8) (size 9 to 14) (size 15 to 20)
#    0.000    0.267    8.000    2.800    4.667    0.000 
#    0.000    0.667    2.933    0.000    0.000    0.000 
#    0.000    0.000    0.000    0.000    0.000    0.000 
#
# Total GULP energy -371821.037770 kJ/mol
# GULP energy per Si atom -12394.034592 kJ/mol
# Density = 2.152401 g / cm^3
# Si number density = 21.573113 Si / 1000 Ang^3
#
#
#
# Elastic Constant Matrix: (Units=GPa)
#
#
# Indices 1 2 3 4 5 6 
#
# 1 130.7804 28.0623 37.0370 0.0000 16.8461 0.0000
# 2 28.0623 53.3894 13.9154 0.0000 1.6909 0.0000
# 3 37.0370 13.9154 91.8239 0.0000 5.8666 0.0000
# 4 0.0000 0.0000 0.0000 30.1934 0.0000 4.3986
# 5 16.8461 1.6909 5.8666 0.0000 41.9114 0.0000
# 6 0.0000 0.0000 0.0000 4.3986 0.0000 20.6786
#
#
#
# Elastic Compliance Matrix: (Units=1/GPa)
#
#
# Indices 1 2 3 4 5 6 
#
# 1 0.009881 -0.004273 -0.003123 0.000000 -0.003362 0.000000
# 2 -0.004273 0.021354 -0.001581 0.000000 0.001077 0.000000
# 3 -0.003123 -0.001581 0.012417 0.000000 -0.000419 0.000000
# 4 0.000000 0.000000 0.000000 0.034179 0.000000 -0.007270
# 5 -0.003362 0.001077 -0.000419 0.000000 0.025226 0.000000
# 6 0.000000 0.000000 0.000000 -0.007270 0.000000 0.049906
#
#
# Mechanical properties :
#
#
# Convention : Reuss Voigt Hill
#
# Bulk Modulus (GPa) = 38.91563 48.22477 43.57020
# Shear Modulus (GPa) = 27.85775 31.68862 29.77318
#
# Velocity S-wave (km/s) = 3.59739 3.83677 3.71901
# Velocity P-wave (km/s) = 5.94416 6.48309 6.21946
#
# Compressibility (1/GPa) = 0.02569662
#
# Stress axis : x y z
#
# Youngs Moduli (GPa) = 101.20630 46.82884 80.53791
#
# Poissons Ratio (x) = 0.20010 0.25152
# Poissons Ratio (y) = 0.43246 0.12737
# Poissons Ratio (z) = 0.31607 0.07406
#
# Static dielectric constant tensor:
#      x y z
#    x 3.892590 0.000000 0.007900 
#    y 0.000000 4.260960 0.000000 
#    z 0.007900 0.000000 4.033740 
# 
# 
# High freq. dielectric constant tensor:
#      x y z
#    x 1.861140 0.000000 0.004510 
#    y 0.000000 1.811740 0.000000 
#    z 0.004510 0.000000 1.851490 
# 
# From -- ./inp_files/113774.got.cif
#   From: 2010.06.25/outbox.cif.g09.slc.cpg/sg15_57_cif.got.tgz:113774.got - 2010.06.28 07:06:18.
