data_PCOD8151613
_publ_section_title
;
Structure prediction by ZEFSAII (Michael W. Deem and Ramdas Pophale) SiO2 
 PCOD8151613
Probable space group: C 2/C
;
_chemical_formula_sum "Si O2"
_cell_formula_units_Z 64
_cell_length_a 16.682741
_cell_length_b 14.546689
_cell_length_c 15.515179
_cell_angle_alpha 90.000000
_cell_angle_beta 120.093894
_cell_angle_gamma 90.000000
_cell_volume 3257.671609
_symmetry_space_group_name_H-M "C 2/C"
_symmetry_group_IT_number 15
_symmetry_cell_setting 'monoclinic'
loop_
_space_group_symop_operation_xyz
x,y,z
-x,y,1/2-z
-x,-y,-z
x,-y,1/2+z
1/2+x,1/2+y,z
1/2-x,1/2+y,1/2-z
1/2-x,1/2-y,-z
1/2+x,1/2-y,1/2+z
loop_
_atom_site_type_symbol
_atom_site_label
_atom_site_fract_x
_atom_site_fract_y
_atom_site_fract_z
Si Si1 0.298091 0.684554 0.094032
Si Si2 0.937636 0.848247 0.095707
Si Si3 0.894622 0.053558 0.025912
Si Si4 0.754979 0.058355 0.795709
Si Si5 0.414890 0.179366 0.752193
Si Si6 0.858895 0.809416 0.229710
Si Si7 0.737178 0.860922 0.739194
Si Si8 0.566456 0.688847 0.093872
O O1 0.327647 0.589356 0.065444
O O2 0.390894 0.731069 0.181826
O O3 0.224647 0.665482 0.131710
O O4 0.250000 0.750000 0.000000
O O5 0.862583 0.821607 0.128278
O O6 0.039176 0.818524 0.178062
O O7 0.937399 0.957162 0.077737
O O8 0.912685 0.792298 0.995658
O O9 0.976032 0.125976 0.053421
O O10 0.837334 0.040645 0.907334
O O11 0.674946 0.116390 0.797769
O O12 0.792427 0.112688 0.732917
O O13 0.704648 0.964740 0.738731
O O14 0.500000 0.128286 0.750000
O O15 0.445102 0.212694 0.864373
O O16 0.819614 0.708849 0.231490
O O17 0.846224 0.862296 0.817935
#
# Coordination Sequence:
#
# PCOD8151613 Si02
#       8
#     8   8   8   8   8   8   8   8
#     4  11  21  38  64  95 125 161 208 263 330 372
#     4  11  24  39  62  95 126 164 212 262 314 371
#     4  12  21  37  67  97 124 159 211 278 317 376
#     4  12  22  43  64  93 129 166 210 259 323 374
#     4  11  23  39  62  90 126 168 209 263 310 385
#     4  11  23  42  62  90 131 168 203 261 317 375
#     4  11  24  40  62  92 128 170 206 257 319 385
#     4  11  21  37  63  92 122 158 206 262 320 367
#
# _framework density 19.645935000000001
#
# number of rings (size 3 to 8) (size 9 to 14) (size 15 to 20)
#    0.000    0.750    7.500    1.875    0.000    3.500 
#    2.250    0.000    0.000    1.500    0.000    0.000 
#    0.000    0.000    0.000    0.000    0.000    0.000 
#
# Total GULP energy -396818.835844 kJ/mol
# GULP energy per Si atom -12400.588620 kJ/mol
# Density = 1.960122 g / cm^3
# Si number density = 19.645935 Si / 1000 Ang^3
#
#
#
# Elastic Constant Matrix: (Units=GPa)
#
#
# Indices 1 2 3 4 5 6 
#
# 1 103.6354 40.7795 36.5514 0.0000 -15.1014 0.0000
# 2 40.7795 103.7105 36.7060 0.0000 -5.4061 0.0000
# 3 36.5514 36.7060 106.6612 0.0000 -20.4797 0.0000
# 4 0.0000 0.0000 0.0000 29.5056 0.0000 -1.5603
# 5 -15.1014 -5.4061 -20.4797 0.0000 33.6259 0.0000
# 6 0.0000 0.0000 0.0000 -1.5603 0.0000 18.1377
#
#
#
# Elastic Compliance Matrix: (Units=1/GPa)
#
#
# Indices 1 2 3 4 5 6 
#
# 1 0.012517 -0.003941 -0.002237 0.000000 0.003625 0.000000
# 2 -0.003941 0.012231 -0.003195 0.000000 -0.001749 0.000000
# 3 -0.002237 -0.003195 0.012400 0.000000 0.006034 0.000000
# 4 0.000000 0.000000 0.000000 0.034047 0.000000 0.002929
# 5 0.003625 -0.001749 0.006034 0.000000 0.034761 0.000000
# 6 0.000000 0.000000 0.000000 0.002929 0.000000 0.055386
#
#
# Mechanical properties :
#
#
# Convention : Reuss Voigt Hill
#
# Bulk Modulus (GPa) = 54.33863 60.23123 57.28493
# Shear Modulus (GPa) = 26.84968 29.58518 28.21743
#
# Velocity S-wave (km/s) = 3.70087 3.88483 3.79396
# Velocity P-wave (km/s) = 6.78093 7.13074 6.95803
#
# Compressibility (1/GPa) = 0.01840311
#
# Stress axis : x y z
#
# Youngs Moduli (GPa) = 79.88948 81.75720 80.64501
#
# Poissons Ratio (x) = 0.32221 0.18041
# Poissons Ratio (y) = 0.31485 0.25762
# Poissons Ratio (z) = 0.17872 0.26118
#
# Static dielectric constant tensor:
#      x y z
#    x 3.778070 0.000000 -0.369600 
#    y 0.000000 3.484380 0.000000 
#    z -0.369600 0.000000 3.847540 
# 
# 
# High freq. dielectric constant tensor:
#      x y z
#    x 1.769590 0.000000 -0.016060 
#    y 0.000000 1.747440 0.000000 
#    z -0.016060 0.000000 1.770080 
# 
# From -- ./inp_files/162282.got.cif
#   From: 2010.06.25/outbox.cif.g09.slc.cpg/sg15_82_cif.got.tgz:162282.got - 2010.06.28 07:06:18.
