data_PCOD8151407
_publ_section_title
;
Structure prediction by ZEFSAII (Michael W. Deem and Ramdas Pophale) SiO2 
 PCOD8151407
Probable space group: C 2/C
;
_chemical_formula_sum "Si O2"
_cell_formula_units_Z 40
_cell_length_a 16.021669
_cell_length_b 19.032087
_cell_length_c 9.772591
_cell_angle_alpha 90.000000
_cell_angle_beta 39.059799
_cell_angle_gamma 90.000000
_cell_volume 1877.737328
_symmetry_space_group_name_H-M "C 2/C"
_symmetry_group_IT_number 15
_symmetry_cell_setting 'monoclinic'
loop_
_space_group_symop_operation_xyz
x,y,z
-x,y,1/2-z
-x,-y,-z
x,-y,1/2+z
1/2+x,1/2+y,z
1/2-x,1/2+y,1/2-z
1/2-x,1/2-y,-z
1/2+x,1/2-y,1/2+z
loop_
_atom_site_type_symbol
_atom_site_label
_atom_site_fract_x
_atom_site_fract_y
_atom_site_fract_z
Si Si1 0.646224 0.948572 0.005395
Si Si2 0.000000 0.099634 0.250000
Si Si3 0.223225 0.713165 0.390483
Si Si4 0.000000 0.873992 0.250000
Si Si5 0.496514 0.701906 0.492616
Si Si6 0.790221 0.988172 0.563493
O O1 0.689474 0.867979 0.958181
O O2 0.668323 0.980138 0.825045
O O3 0.500000 0.956188 0.250000
O O4 0.735438 0.000689 0.981906
O O5 0.049747 0.146199 0.312648
O O6 0.883945 0.055168 0.470529
O O7 0.250000 0.750000 0.500000
O O8 0.102129 0.744143 0.455177
O O9 0.360584 0.730998 0.135647
O O10 0.066675 0.829876 0.289209
O O11 0.879753 0.919121 0.463744
#
# Coordination Sequence:
#
# PCOD8151407 Si02
#       6
#     8   4   8   4   8   8
#     4  12  24  41  66  98 136 176 222 278 347 403
#     4  11  20  40  74  98 126 179 228 286 324 403
#     4  12  23  43  69  99 134 185 231 279 330 410
#     4  11  24  42  70 100 136 179 224 290 340 397
#     4  12  23  42  68 101 137 178 235 279 340 406
#     4  11  22  42  67 100 136 171 228 279 338 406
#
# _framework density 21.302233000000001
#
# number of rings (size 3 to 8) (size 9 to 14) (size 15 to 20)
#    0.000    0.400    6.000    3.000    0.000    4.000 
#    0.000    2.000    0.000    0.000    0.000    0.000 
#    0.000    0.000    0.000    0.000    0.000    0.000 
#
# Total GULP energy -247787.757000 kJ/mol
# GULP energy per Si atom -12389.387850 kJ/mol
# Density = 2.125375 g / cm^3
# Si number density = 21.302233 Si / 1000 Ang^3
#
#
#
# Elastic Constant Matrix: (Units=GPa)
#
#
# Indices 1 2 3 4 5 6 
#
# 1 99.3573 42.1690 36.6686 -0.0001 1.6447 0.0002
# 2 42.1690 74.4651 34.9767 0.0000 10.6927 0.0001
# 3 36.6686 34.9767 131.6584 -0.0003 -3.9659 0.0003
# 4 -0.0001 0.0000 -0.0003 9.7682 0.0002 4.3884
# 5 1.6447 10.6927 -3.9659 0.0002 51.7895 -0.0002
# 6 0.0002 0.0001 0.0003 4.3884 -0.0002 34.2068
#
#
#
# Elastic Compliance Matrix: (Units=1/GPa)
#
#
# Indices 1 2 3 4 5 6 
#
# 1 0.013733 -0.006988 -0.001943 0.000000 0.000858 0.000000
# 2 -0.006988 0.019555 -0.003372 0.000000 -0.004074 0.000000
# 3 -0.001943 -0.003372 0.009076 0.000000 0.001453 0.000000
# 4 0.000000 0.000000 0.000000 0.108635 0.000000 -0.013937
# 5 0.000858 -0.004074 0.001453 0.000000 0.020234 0.000000
# 6 0.000000 0.000000 0.000000 -0.013937 0.000000 0.031022
#
#
# Mechanical properties :
#
#
# Convention : Reuss Voigt Hill
#
# Bulk Modulus (GPa) = 56.30594 59.23438 57.77016
# Shear Modulus (GPa) = 21.47969 31.93066 26.70518
#
# Velocity S-wave (km/s) = 3.17887 3.87581 3.54451
# Velocity P-wave (km/s) = 6.32162 6.92071 6.62794
#
# Compressibility (1/GPa) = 0.01776011
#
# Stress axis : x y z
#
# Youngs Moduli (GPa) = 72.81663 51.13849 110.18179
#
# Poissons Ratio (x) = 0.35734 0.21404
# Poissons Ratio (y) = 0.50882 0.37148
# Poissons Ratio (z) = 0.14146 0.17241
#
# Static dielectric constant tensor:
#      x y z
#    x 4.681170 0.000000 -1.336400 
#    y 0.000000 3.893700 0.000000 
#    z -1.336400 0.000000 5.720410 
# 
# 
# High freq. dielectric constant tensor:
#      x y z
#    x 1.841040 0.000000 -0.006050 
#    y 0.000000 1.827150 0.000000 
#    z -0.006050 0.000000 1.843400 
# 
# From -- ./inp_files/41977.got.cif
#   From: 2010.06.25/outbox.cif.g09.slc.cpg/sg15_21_cif.got.tgz:41977.got - 2010.06.28 07:06:18.
