data_PCOD8151705
_publ_section_title
;
Structure prediction by ZEFSAII (Michael W. Deem and Ramdas Pophale) SiO2 
 PCOD8151705
Probable space group: C 2/C
;
_chemical_formula_sum "Si O2"
_cell_formula_units_Z 44
_cell_length_a 15.527076
_cell_length_b 12.848743
_cell_length_c 12.909674
_cell_angle_alpha 90.000000
_cell_angle_beta 121.618063
_cell_angle_gamma 90.000000
_cell_volume 2193.217574
_symmetry_space_group_name_H-M "C 2/C"
_symmetry_group_IT_number 15
_symmetry_cell_setting 'monoclinic'
loop_
_space_group_symop_operation_xyz
x,y,z
-x,y,1/2-z
-x,-y,-z
x,-y,1/2+z
1/2+x,1/2+y,z
1/2-x,1/2+y,1/2-z
1/2-x,1/2-y,-z
1/2+x,1/2-y,1/2+z
loop_
_atom_site_type_symbol
_atom_site_label
_atom_site_fract_x
_atom_site_fract_y
_atom_site_fract_z
Si Si1 0.469066 0.403946 0.912168
Si Si2 0.236687 0.186193 0.151284
Si Si3 0.727267 0.123494 0.105461
Si Si4 0.212162 0.895508 0.418109
Si Si5 0.904561 0.749617 0.619173
Si Si6 0.000000 0.963256 0.250000
O O1 0.381688 0.332284 0.902204
O O2 0.566922 0.333899 0.951000
O O3 0.436088 0.459875 0.784596
O O4 0.500000 0.500000 0.000000
O O5 0.300119 0.142843 0.289920
O O6 0.258133 0.308208 0.147514
O O7 0.264814 0.126017 0.062528
O O8 0.819644 0.201763 0.139731
O O9 0.748163 0.003072 0.101199
O O10 0.635118 0.150566 0.970086
O O11 0.089080 0.894063 0.357308
O O12 0.000000 0.716285 0.750000
#
# Coordination Sequence:
#
# PCOD8151705 Si02
#       6
#     8   8   8   8   8   4
#     4  12  20  37  64  92 121 163 212 268 313 373
#     4  11  23  39  62  94 131 160 209 272 329 372
#     4  11  23  39  66  90 124 174 210 270 326 378
#     4  11  24  40  60  98 131 161 216 275 313 389
#     4  11  21  39  61  95 123 161 229 260 308 396
#     4  12  20  38  66  92 122 164 220 262 316 372
#
# _framework density 20.061848999999999
#
# number of rings (size 3 to 8) (size 9 to 14) (size 15 to 20)
#    0.000    0.727    8.182    0.000    2.545    2.909 
#    0.000    0.909    8.000    0.000    0.000    0.000 
#    0.000    0.000    0.000    0.000    0.000    0.000 
#
# Total GULP energy -272663.565707 kJ/mol
# GULP energy per Si atom -12393.798441 kJ/mol
# Density = 2.001619 g / cm^3
# Si number density = 20.061849 Si / 1000 Ang^3
#
#
#
# Elastic Constant Matrix: (Units=GPa)
#
#
# Indices 1 2 3 4 5 6 
#
# 1 68.5585 45.1003 36.9747 0.0000 -6.4095 0.0000
# 2 45.1003 140.2739 77.3361 0.0000 -6.7119 0.0000
# 3 36.9747 77.3361 144.0313 0.0000 -7.4603 0.0000
# 4 0.0000 0.0000 0.0000 27.7172 0.0000 -7.7359
# 5 -6.4095 -6.7119 -7.4603 0.0000 38.2921 0.0000
# 6 0.0000 0.0000 0.0000 -7.7359 0.0000 34.8241
#
#
#
# Elastic Compliance Matrix: (Units=1/GPa)
#
#
# Indices 1 2 3 4 5 6 
#
# 1 0.019146 -0.004842 -0.002215 0.000000 0.001924 0.000000
# 2 -0.004842 0.011371 -0.004850 0.000000 0.000238 0.000000
# 3 -0.002215 -0.004850 0.010155 0.000000 0.000758 0.000000
# 4 0.000000 0.000000 0.000000 0.038464 0.000000 0.008544
# 5 0.001924 0.000238 0.000758 0.000000 0.026626 0.000000
# 6 0.000000 0.000000 0.000000 0.008544 0.000000 0.030614
#
#
# Mechanical properties :
#
#
# Convention : Reuss Voigt Hill
#
# Bulk Modulus (GPa) = 59.32355 74.63176 66.97766
# Shear Modulus (GPa) = 30.15475 33.06351 31.60913
#
# Velocity S-wave (km/s) = 3.88118 4.06406 3.97367
# Velocity P-wave (km/s) = 7.05119 7.70089 7.38319
#
# Compressibility (1/GPa) = 0.01685671
#
# Stress axis : x y z
#
# Youngs Moduli (GPa) = 52.22945 87.94119 98.47194
#
# Poissons Ratio (x) = 0.42585 0.21815
# Poissons Ratio (y) = 0.25292 0.47761
# Poissons Ratio (z) = 0.11571 0.42654
#
# Static dielectric constant tensor:
#      x y z
#    x 3.575280 0.000000 -0.085570 
#    y 0.000000 3.602460 0.000000 
#    z -0.085570 0.000000 3.919400 
# 
# 
# High freq. dielectric constant tensor:
#      x y z
#    x 1.766770 0.000000 -0.018710 
#    y 0.000000 1.773890 0.000000 
#    z -0.018710 0.000000 1.796820 
# 
# From -- ./inp_files/152262.got.cif
#   From: 2010.06.25/outbox.cif.g09.slc.cpg/sg15_77_cif.got.tgz:152262.got - 2010.06.28 07:06:18.
