data_PCOD8151013
_publ_section_title
;
Structure prediction by ZEFSAII (Michael W. Deem and Ramdas Pophale) SiO2 
 PCOD8151013
Probable space group: C 2/C
;
_chemical_formula_sum "Si O2"
_cell_formula_units_Z 64
_cell_length_a 30.005363
_cell_length_b 13.756408
_cell_length_c 22.136463
_cell_angle_alpha 90.000000
_cell_angle_beta 159.700021
_cell_angle_gamma 90.000000
_cell_volume 3170.010228
_symmetry_space_group_name_H-M "C 2/C"
_symmetry_group_IT_number 15
_symmetry_cell_setting 'monoclinic'
loop_
_space_group_symop_operation_xyz
x,y,z
-x,y,1/2-z
-x,-y,-z
x,-y,1/2+z
1/2+x,1/2+y,z
1/2-x,1/2+y,1/2-z
1/2-x,1/2-y,-z
1/2+x,1/2-y,1/2+z
loop_
_atom_site_type_symbol
_atom_site_label
_atom_site_fract_x
_atom_site_fract_y
_atom_site_fract_z
Si Si1 0.250052 0.907500 0.437935
Si Si2 0.418556 0.072256 0.265670
Si Si3 0.656146 0.409511 0.096774
Si Si4 0.372502 0.197109 0.410881
Si Si5 0.252922 0.293581 0.875164
Si Si6 0.484881 0.559773 0.664520
Si Si7 0.089651 0.426274 0.150356
Si Si8 0.701627 0.998912 0.617985
O O1 0.368212 0.921040 0.633722
O O2 0.276426 0.812453 0.431561
O O3 0.252677 0.997817 0.393959
O O4 0.118708 0.898590 0.308766
O O5 0.367265 0.161982 0.240647
O O6 0.573279 0.064720 0.462973
O O7 0.362799 0.975085 0.226656
O O8 0.602417 0.300598 0.026549
O O9 0.792040 0.399907 0.238906
O O10 0.681083 0.454667 0.194649
O O11 0.560189 0.478005 0.938877
O O12 0.275093 0.209469 0.231597
O O13 0.513169 0.171651 0.565598
O O14 0.321754 0.113054 0.391891
O O15 0.384426 0.353387 0.047244
O O16 0.500000 0.511710 0.750000
O O17 0.000000 0.500000 0.000000
#
# Coordination Sequence:
#
# PCOD8151013 Si02
#       8
#     8   8   8   8   8   8   8   8
#     4  12  27  39  64 103 139 171 214 280 336 392
#     4  11  21  42  66  91 132 172 225 264 323 397
#     4  12  22  43  67  94 134 171 223 275 322 397
#     4  11  23  40  67 102 125 171 228 272 324 389
#     4  12  22  41  65  99 130 175 218 262 336 402
#     4  12  26  45  66  94 139 180 215 270 341 398
#     4  11  18  40  69  87 124 182 223 263 319 394
#     4  11  23  43  65  95 132 174 220 271 325 383
#
# _framework density 20.189208000000001
#
# number of rings (size 3 to 8) (size 9 to 14) (size 15 to 20)
#    0.000    0.500    8.750    0.750    1.750    2.500 
#    0.000    2.500    0.000    5.250    0.000    0.000 
#    0.000    0.000    0.000    0.000    0.000    0.000 
#
# Total GULP energy -396740.078320 kJ/mol
# GULP energy per Si atom -12398.127447 kJ/mol
# Density = 2.014326 g / cm^3
# Si number density = 20.189208 Si / 1000 Ang^3
#
#
#
# Elastic Constant Matrix: (Units=GPa)
#
#
# Indices 1 2 3 4 5 6 
#
# 1 100.2733 28.2189 29.1507 0.0003 -17.9072 0.0002
# 2 28.2189 107.1962 37.8207 0.0002 -14.4216 0.0001
# 3 29.1507 37.8207 84.7569 0.0003 -22.2198 0.0003
# 4 0.0003 0.0002 0.0003 21.5528 0.0002 2.0511
# 5 -17.9072 -14.4216 -22.2198 0.0002 36.1755 0.0002
# 6 0.0002 0.0001 0.0003 2.0511 0.0002 30.7500
#
#
#
# Elastic Compliance Matrix: (Units=1/GPa)
#
#
# Indices 1 2 3 4 5 6 
#
# 1 0.011808 -0.001803 -0.002280 0.000000 0.003726 0.000000
# 2 -0.001803 0.011430 -0.004195 0.000000 0.001087 0.000000
# 3 -0.002280 -0.004195 0.016354 0.000000 0.007244 0.000000
# 4 0.000000 0.000000 0.000000 0.046694 0.000000 -0.003115
# 5 0.003726 0.001087 0.007244 0.000000 0.034370 0.000000
# 6 0.000000 0.000000 0.000000 -0.003115 0.000000 0.032728
#
#
# Mechanical properties :
#
#
# Convention : Reuss Voigt Hill
#
# Bulk Modulus (GPa) = 43.41066 53.62301 48.51683
# Shear Modulus (GPa) = 28.15026 30.83141 29.49084
#
# Velocity S-wave (km/s) = 3.73811 3.91208 3.82609
# Velocity P-wave (km/s) = 6.33876 6.85739 6.60317
#
# Compressibility (1/GPa) = 0.02303582
#
# Stress axis : x y z
#
# Youngs Moduli (GPa) = 84.68599 87.49167 61.14872
#
# Poissons Ratio (x) = 0.15773 0.13942
# Poissons Ratio (y) = 0.15267 0.25653
# Poissons Ratio (z) = 0.19308 0.36704
#
# Static dielectric constant tensor:
#      x y z
#    x 4.039130 0.000000 -0.182520 
#    y 0.000000 3.596580 0.000000 
#    z -0.182520 0.000000 3.664300 
# 
# 
# High freq. dielectric constant tensor:
#      x y z
#    x 1.802500 0.000000 -0.002760 
#    y 0.000000 1.773710 0.000000 
#    z -0.002760 0.000000 1.787250 
# 
# From -- ./inp_files/259446.got.cif
#   From: 2010.06.25/outbox.cif.g09.slc.cpg/sg15_130_cif.got.tgz:259446.got - 2010.06.28 07:06:18.
