data_PCOD8151107
_publ_section_title
;
Structure prediction by ZEFSAII (Michael W. Deem and Ramdas Pophale) SiO2 
 PCOD8151107
Probable space group: C 2/C
;
_chemical_formula_sum "Si O2"
_cell_formula_units_Z 48
_cell_length_a 20.278553
_cell_length_b 16.958744
_cell_length_c 11.537666
_cell_angle_alpha 90.000000
_cell_angle_beta 141.698729
_cell_angle_gamma 90.000000
_cell_volume 2459.221725
_symmetry_space_group_name_H-M "C 2/C"
_symmetry_group_IT_number 15
_symmetry_cell_setting 'monoclinic'
loop_
_space_group_symop_operation_xyz
x,y,z
-x,y,1/2-z
-x,-y,-z
x,-y,1/2+z
1/2+x,1/2+y,z
1/2-x,1/2+y,1/2-z
1/2-x,1/2-y,-z
1/2+x,1/2-y,1/2+z
loop_
_atom_site_type_symbol
_atom_site_label
_atom_site_fract_x
_atom_site_fract_y
_atom_site_fract_z
Si Si1 0.619072 0.912466 0.877895
Si Si2 0.240053 0.684765 0.730925
Si Si3 0.705592 0.080900 0.024505
Si Si4 0.414783 0.789909 0.284636
Si Si5 0.146230 0.341444 0.664619
Si Si6 0.389746 0.376304 0.633777
O O1 0.500000 0.890119 0.750000
O O2 0.643218 0.880651 0.784774
O O3 0.632578 0.006408 0.895617
O O4 0.702784 0.875959 0.082157
O O5 0.138876 0.716330 0.663316
O O6 0.295197 0.758062 0.743697
O O7 0.321313 0.638066 0.924340
O O8 0.659222 0.159257 0.901439
O O9 0.709230 0.098297 0.166897
O O10 0.824158 0.069612 0.134619
O O11 0.528883 0.830392 0.451014
O O12 0.424934 0.704419 0.243797
O O13 0.500000 0.419936 0.750000
#
# Coordination Sequence:
#
# PCOD8151107 Si02
#       6
#     8   8   8   8   8   8
#     4  12  27  41  60  93 134 165 194 252 323 373
#     4  11  22  40  64  92 123 164 211 249 306 363
#     4  11  24  38  63  98 123 160 206 255 317 361
#     4  11  19  39  66  96 117 162 210 263 299 354
#     4  12  22  40  67  89 129 160 208 256 301 370
#     4  11  20  40  69  92 118 159 216 266 291 357
#
# _framework density 19.518370000000001
#
# number of rings (size 3 to 8) (size 9 to 14) (size 15 to 20)
#    0.000    0.667    6.667    3.000    4.667    1.333 
#    0.000    0.833    3.667    0.000    0.000    0.000 
#    0.000    0.000    0.000    0.000    0.000    0.000 
#
# Total GULP energy -297706.380610 kJ/mol
# GULP energy per Si atom -12404.432525 kJ/mol
# Density = 1.947395 g / cm^3
# Si number density = 19.518370 Si / 1000 Ang^3
#
#
#
# Elastic Constant Matrix: (Units=GPa)
#
#
# Indices 1 2 3 4 5 6 
#
# 1 151.4009 30.8122 54.9356 0.0000 -3.0414 0.0000
# 2 30.8122 39.6724 17.4973 0.0000 -4.6866 0.0000
# 3 54.9356 17.4973 84.9071 0.0000 -4.9097 0.0000
# 4 0.0000 0.0000 0.0000 29.2048 0.0000 4.1687
# 5 -3.0414 -4.6866 -4.9097 0.0000 39.2117 0.0000
# 6 0.0000 0.0000 0.0000 4.1687 0.0000 23.9144
#
#
#
# Elastic Compliance Matrix: (Units=1/GPa)
#
#
# Indices 1 2 3 4 5 6 
#
# 1 0.009505 -0.005190 -0.005111 0.000000 -0.000523 0.000000
# 2 -0.005190 0.030830 -0.002826 0.000000 0.002928 0.000000
# 3 -0.005111 -0.002826 0.015738 0.000000 0.001236 0.000000
# 4 0.000000 0.000000 0.000000 0.035115 0.000000 -0.006121
# 5 -0.000523 0.002928 0.001236 0.000000 0.025967 0.000000
# 6 0.000000 0.000000 0.000000 -0.006121 0.000000 0.042883
#
#
# Mechanical properties :
#
#
# Convention : Reuss Voigt Hill
#
# Bulk Modulus (GPa) = 33.53490 53.60785 43.57138
# Shear Modulus (GPa) = 25.48030 29.98187 27.73109
#
# Velocity S-wave (km/s) = 3.61702 3.92354 3.77340
# Velocity P-wave (km/s) = 5.88747 6.93185 6.43090
#
# Compressibility (1/GPa) = 0.02981968
#
# Stress axis : x y z
#
# Youngs Moduli (GPa) = 105.20674 32.43631 63.54046
#
# Poissons Ratio (x) = 0.16835 0.32473
# Poissons Ratio (y) = 0.54603 0.17956
# Poissons Ratio (z) = 0.53767 0.09166
#
# Static dielectric constant tensor:
#      x y z
#    x 4.190640 0.000000 0.071090 
#    y 0.000000 3.323400 0.000000 
#    z 0.071090 0.000000 3.483390 
# 
# 
# High freq. dielectric constant tensor:
#      x y z
#    x 1.787300 0.000000 0.002620 
#    y 0.000000 1.737350 0.000000 
#    z 0.002620 0.000000 1.749600 
# 
# From -- ./inp_files/97170.got.cif
#   From: 2010.06.25/outbox.cif.g09.slc.cpg/sg15_49_cif.got.tgz:97170.got - 2010.06.28 07:06:18.
