data_PCOD8151095
_publ_section_title
;
Structure prediction by ZEFSAII (Michael W. Deem and Ramdas Pophale) SiO2 
 PCOD8151095
Probable space group: C 2/C
;
_chemical_formula_sum "Si O2"
_cell_formula_units_Z 44
_cell_length_a 5.082213
_cell_length_b 24.727460
_cell_length_c 15.036068
_cell_angle_alpha 90.000000
_cell_angle_beta 99.086755
_cell_angle_gamma 90.000000
_cell_volume 1865.872295
_symmetry_space_group_name_H-M "C 2/C"
_symmetry_group_IT_number 15
_symmetry_cell_setting 'monoclinic'
loop_
_space_group_symop_operation_xyz
x,y,z
-x,y,1/2-z
-x,-y,-z
x,-y,1/2+z
1/2+x,1/2+y,z
1/2-x,1/2+y,1/2-z
1/2-x,1/2-y,-z
1/2+x,1/2-y,1/2+z
loop_
_atom_site_type_symbol
_atom_site_label
_atom_site_fract_x
_atom_site_fract_y
_atom_site_fract_z
Si Si1 0.329297 0.477438 0.654243
Si Si2 0.000000 0.225771 0.750000
Si Si3 0.862933 0.408731 0.417766
Si Si4 0.424205 0.611454 0.030686
Si Si5 0.145033 0.811202 0.671621
Si Si6 0.000000 0.404944 0.750000
Si Si7 0.500000 0.156639 0.750000
O O1 0.500000 0.495324 0.750000
O O2 0.197879 0.528508 0.599861
O O3 0.506051 0.441077 0.595435
O O4 0.083294 0.440661 0.670815
O O5 0.869961 0.265004 0.665246
O O6 0.767089 0.191211 0.785324
O O7 0.603641 0.384316 0.452136
O O8 0.116154 0.398290 0.492767
O O9 0.917428 0.380191 0.327703
O O10 0.453809 0.670968 0.079979
O O11 0.257928 0.869012 0.704784
O O12 0.000000 0.786227 0.750000
#
# Coordination Sequence:
#
# PCOD8151095 Si02
#       7
#     8   4   8   8   8   4   4
#     4  12  25  41  71 109 151 200 241 280 352 436
#     4  11  26  46  87 100 131 192 252 301 362 446
#     4  12  30  45  73  98 158 194 242 291 348 440
#     4  12  25  47  69 115 146 187 235 305 360 416
#     4  11  22  44  76 111 140 179 235 310 377 423
#     4  11  19  38  70 104 146 190 229 295 342 440
#     4  12  27  56  69 102 139 204 249 288 368 430
#
# _framework density 23.581461999999998
#
# number of rings (size 3 to 8) (size 9 to 14) (size 15 to 20)
#    0.000    0.364    4.545    3.818    8.909    0.000 
#    0.000    5.455    0.000    0.000    0.000    0.000 
#    0.000    0.000    0.000    0.000    0.000    0.000 
#
# Total GULP energy -272636.731986 kJ/mol
# GULP energy per Si atom -12392.578727 kJ/mol
# Density = 2.352779 g / cm^3
# Si number density = 23.581462 Si / 1000 Ang^3
#
#
#
# Elastic Constant Matrix: (Units=GPa)
#
#
# Indices 1 2 3 4 5 6 
#
# 1 115.7412 35.9435 26.9277 0.0000 -11.3361 0.0000
# 2 35.9435 99.4427 31.3858 0.0000 -9.9053 0.0000
# 3 26.9277 31.3858 92.4173 0.0000 -15.0896 0.0000
# 4 0.0000 0.0000 0.0000 24.5440 0.0000 -10.5567
# 5 -11.3361 -9.9053 -15.0896 0.0000 50.4795 0.0000
# 6 0.0000 0.0000 0.0000 -10.5567 0.0000 62.5220
#
#
#
# Elastic Compliance Matrix: (Units=1/GPa)
#
#
# Indices 1 2 3 4 5 6 
#
# 1 0.010083 -0.002981 -0.001736 0.000000 0.001160 0.000000
# 2 -0.002981 0.012205 -0.003148 0.000000 0.000784 0.000000
# 3 -0.001736 -0.003148 0.012859 0.000000 0.002836 0.000000
# 4 0.000000 0.000000 0.000000 0.043934 0.000000 0.007418
# 5 0.001160 0.000784 0.002836 0.000000 0.021072 0.000000
# 6 0.000000 0.000000 0.000000 0.007418 0.000000 0.017247
#
#
# Mechanical properties :
#
#
# Convention : Reuss Voigt Hill
#
# Bulk Modulus (GPa) = 51.50344 55.12392 53.31368
# Shear Modulus (GPa) = 35.81574 41.73206 38.77390
#
# Velocity S-wave (km/s) = 3.90142 4.21134 4.05934
# Velocity P-wave (km/s) = 6.49483 6.86104 6.68045
#
# Compressibility (1/GPa) = 0.01941618
#
# Stress axis : x y z
#
# Youngs Moduli (GPa) = 99.17375 81.93121 77.76888
#
# Poissons Ratio (x) = 0.24424 0.13501
# Poissons Ratio (y) = 0.29564 0.24485
# Poissons Ratio (z) = 0.17218 0.25795
#
# Static dielectric constant tensor:
#      x y z
#    x 4.408380 0.000000 -0.038460 
#    y 0.000000 4.270000 0.000000 
#    z -0.038460 0.000000 4.222820 
# 
# 
# High freq. dielectric constant tensor:
#      x y z
#    x 1.951220 0.000000 0.002640 
#    y 0.000000 1.933920 0.000000 
#    z 0.002640 0.000000 1.916310 
# 
# From -- ./inp_files/129862.got.cif
#   From: 2010.06.25/outbox.cif.g09.slc.cpg/sg15_65_cif.got.tgz:129862.got - 2010.06.28 07:06:18.
