data_PCOD8151427
_publ_section_title
;
Structure prediction by ZEFSAII (Michael W. Deem and Ramdas Pophale) SiO2 
 PCOD8151427
Probable space group: C 2/C
;
_chemical_formula_sum "Si O2"
_cell_formula_units_Z 52
_cell_length_a 9.994534
_cell_length_b 10.081489
_cell_length_c 26.170835
_cell_angle_alpha 90.000000
_cell_angle_beta 87.445168
_cell_angle_gamma 90.000000
_cell_volume 2634.346605
_symmetry_space_group_name_H-M "C 2/C"
_symmetry_group_IT_number 15
_symmetry_cell_setting 'monoclinic'
loop_
_space_group_symop_operation_xyz
x,y,z
-x,y,1/2-z
-x,-y,-z
x,-y,1/2+z
1/2+x,1/2+y,z
1/2-x,1/2+y,1/2-z
1/2-x,1/2-y,-z
1/2+x,1/2-y,1/2+z
loop_
_atom_site_type_symbol
_atom_site_label
_atom_site_fract_x
_atom_site_fract_y
_atom_site_fract_z
Si Si1 0.113538 0.261570 0.434451
Si Si2 0.569454 0.294227 0.200488
Si Si3 0.000000 0.538656 0.250000
Si Si4 0.327133 0.201995 0.950032
Si Si5 0.600264 0.796067 0.887165
Si Si6 0.836849 0.431523 0.163056
Si Si7 0.138384 0.396702 0.539874
O O1 0.108596 0.329394 0.379326
O O2 0.149955 0.362739 0.479792
O O3 0.224611 0.145686 0.433411
O O4 0.961341 0.206930 0.443083
O O5 0.500000 0.367166 0.250000
O O6 0.600790 0.139563 0.216981
O O7 0.468563 0.293017 0.154623
O O8 0.693973 0.381858 0.183439
O O9 0.071274 0.439756 0.288208
O O10 0.225454 0.211304 0.904868
O O11 0.380231 0.052794 0.954401
O O12 0.250000 0.250000 0.000000
O O13 0.491021 0.826855 0.933011
O O14 0.669453 0.925540 0.862685
#
# Coordination Sequence:
#
# PCOD8151427 Si02
#       7
#     8   8   4   8   8   8   8
#     4  11  23  39  66  97 127 171 209 254 318 373
#     4   9  21  42  62  91 122 162 204 261 324 364
#     4   8  22  40  64  86 122 162 204 264 320 364
#     4  12  24  38  61  94 129 168 212 249 302 375
#     4  11  22  41  67  92 125 168 206 257 314 371
#     4  11  20  41  70  89 125 163 213 259 314 379
#     4  11  23  43  62  92 137 169 202 258 313 375
#
# _framework density 19.739239999999999
#
# number of rings (size 3 to 8) (size 9 to 14) (size 15 to 20)
#    0.462    0.923    4.615    1.385    0.000    3.077 
#    0.000    1.538    0.000    0.000    0.000    0.000 
#    0.000    0.000    0.000    0.000    0.000    0.000 
#
# Total GULP energy -322238.992527 kJ/mol
# GULP energy per Si atom -12393.807405 kJ/mol
# Density = 1.969431 g / cm^3
# Si number density = 19.739240 Si / 1000 Ang^3
#
#
#
# Elastic Constant Matrix: (Units=GPa)
#
#
# Indices 1 2 3 4 5 6 
#
# 1 141.3314 34.5260 44.0522 0.0000 -6.2665 0.0000
# 2 34.5260 37.7562 14.4694 0.0000 -1.5135 0.0000
# 3 44.0522 14.4694 107.9355 0.0000 7.5077 0.0000
# 4 0.0000 0.0000 0.0000 23.9812 0.0000 2.0434
# 5 -6.2665 -1.5135 7.5077 0.0000 35.7652 0.0000
# 6 0.0000 0.0000 0.0000 2.0434 0.0000 37.9741
#
#
#
# Elastic Compliance Matrix: (Units=1/GPa)
#
#
# Indices 1 2 3 4 5 6 
#
# 1 0.010106 -0.007927 -0.003208 0.000000 0.002109 0.000000
# 2 -0.007927 0.034279 -0.001385 0.000000 0.000352 0.000000
# 3 -0.003208 -0.001385 0.010963 0.000000 -0.002922 0.000000
# 4 0.000000 0.000000 0.000000 0.041891 0.000000 -0.002254
# 5 0.002109 0.000352 -0.002922 0.000000 0.028958 0.000000
# 6 0.000000 0.000000 0.000000 -0.002254 0.000000 0.026455
#
#
# Mechanical properties :
#
#
# Convention : Reuss Voigt Hill
#
# Bulk Modulus (GPa) = 32.99457 52.56868 42.78162
# Shear Modulus (GPa) = 26.62478 32.47580 29.55029
#
# Velocity S-wave (km/s) = 3.67662 4.06056 3.87335
# Velocity P-wave (km/s) = 5.89702 6.97664 6.45943
#
# Compressibility (1/GPa) = 0.03030802
#
# Stress axis : x y z
#
# Youngs Moduli (GPa) = 98.95504 29.17220 91.21474
#
# Poissons Ratio (x) = 0.23125 0.29266
# Poissons Ratio (y) = 0.78441 0.12630
# Poissons Ratio (z) = 0.31749 0.04039
#
# Static dielectric constant tensor:
#      x y z
#    x 3.827620 0.000000 -0.033180 
#    y 0.000000 3.435330 0.000000 
#    z -0.033180 0.000000 3.921520 
# 
# 
# High freq. dielectric constant tensor:
#      x y z
#    x 1.773600 0.000000 0.004000 
#    y 0.000000 1.739370 0.000000 
#    z 0.004000 0.000000 1.789370 
# 
# From -- ./inp_files/287683.got.cif
#   From: 2010.06.25/outbox.cif.g09.slc.cpg/sg15_144_cif.got.tgz:287683.got - 2010.06.28 07:06:18.
