data_PCOD8151780
_publ_section_title
;
Structure prediction by ZEFSAII (Michael W. Deem and Ramdas Pophale) SiO2 
 PCOD8151780
Probable space group: C 2/C
;
_chemical_formula_sum "Si O2"
_cell_formula_units_Z 64
_cell_length_a 27.833537
_cell_length_b 8.867676
_cell_length_c 13.921395
_cell_angle_alpha 90.000000
_cell_angle_beta 123.961293
_cell_angle_gamma 90.000000
_cell_volume 2849.921763
_symmetry_space_group_name_H-M "C 2/C"
_symmetry_group_IT_number 15
_symmetry_cell_setting 'monoclinic'
loop_
_space_group_symop_operation_xyz
x,y,z
-x,y,1/2-z
-x,-y,-z
x,-y,1/2+z
1/2+x,1/2+y,z
1/2-x,1/2+y,1/2-z
1/2-x,1/2-y,-z
1/2+x,1/2-y,1/2+z
loop_
_atom_site_type_symbol
_atom_site_label
_atom_site_fract_x
_atom_site_fract_y
_atom_site_fract_z
Si Si1 0.161111 0.467690 0.965949
Si Si2 0.064261 0.148451 0.539629
Si Si3 0.212369 0.994184 0.941286
Si Si4 0.170170 0.295220 0.166370
Si Si5 0.151114 0.741997 0.274572
Si Si6 0.251610 0.067790 0.188394
Si Si7 0.117130 0.211091 0.400713
Si Si8 0.437280 0.668125 0.354235
O O1 0.227651 0.527258 0.049980
O O2 0.148639 0.354795 0.039465
O O3 0.147157 0.382059 0.852627
O O4 0.118087 0.609837 0.920065
O O5 0.091568 0.259263 0.649237
O O6 0.101767 0.130669 0.483939
O O7 0.002545 0.224777 0.446285
O O8 0.064820 0.985605 0.588904
O O9 0.166377 0.092349 0.830156
O O10 0.180919 0.837498 0.932723
O O11 0.227144 0.084680 0.053832
O O12 0.199146 0.126458 0.198026
O O13 0.220517 0.404779 0.262891
O O14 0.112817 0.285055 0.167534
O O15 0.198669 0.694248 0.248617
O O16 0.069949 0.157348 0.269041
#
# Coordination Sequence:
#
# PCOD8151780 Si02
#       8
#     8   8   8   8   8   8   8   8
#     4  11  24  42  66 107 147 184 221 283 355 427
#     4  11  26  47  75  96 135 188 242 290 346 410
#     4  11  21  40  65  97 142 178 223 280 342 416
#     4  12  25  41  69 105 146 187 231 279 357 425
#     4  11  21  46  65  99 138 183 228 284 346 416
#     4  11  24  38  64 103 145 178 224 279 349 425
#     4  12  25  43  71 103 138 179 238 294 350 406
#     4  11  26  48  70 104 135 180 243 298 337 414
#
# _framework density 22.456755999999999
#
# number of rings (size 3 to 8) (size 9 to 14) (size 15 to 20)
#    0.000    0.750    3.750    4.500    7.000    0.000 
#    0.000    7.500    0.000    0.000    0.000    0.000 
#    0.000    0.000    0.000    0.000    0.000    0.000 
#
# Total GULP energy -396688.961006 kJ/mol
# GULP energy per Si atom -12396.530031 kJ/mol
# Density = 2.240564 g / cm^3
# Si number density = 22.456756 Si / 1000 Ang^3
#
#
#
# Elastic Constant Matrix: (Units=GPa)
#
#
# Indices 1 2 3 4 5 6 
#
# 1 69.1219 19.6438 36.2963 0.0000 6.4663 0.0000
# 2 19.6438 78.4836 31.4578 0.0000 5.7460 0.0000
# 3 36.2963 31.4578 138.2427 0.0000 12.7311 0.0000
# 4 0.0000 0.0000 0.0000 27.5677 0.0000 -3.4979
# 5 6.4663 5.7460 12.7311 0.0000 28.7929 0.0000
# 6 0.0000 0.0000 0.0000 -3.4979 0.0000 22.1402
#
#
#
# Elastic Compliance Matrix: (Units=1/GPa)
#
#
# Indices 1 2 3 4 5 6 
#
# 1 0.017386 -0.002708 -0.003793 0.000000 -0.001687 0.000000
# 2 -0.002708 0.014500 -0.002479 0.000000 -0.001189 0.000000
# 3 -0.003793 -0.002479 0.009038 0.000000 -0.002649 0.000000
# 4 0.000000 0.000000 0.000000 0.037016 0.000000 0.005848
# 5 -0.001687 -0.001189 -0.002649 0.000000 0.036519 0.000000
# 6 0.000000 0.000000 0.000000 0.005848 0.000000 0.046091
#
#
# Mechanical properties :
#
#
# Convention : Reuss Voigt Hill
#
# Bulk Modulus (GPa) = 43.54677 51.18269 47.36473
# Shear Modulus (GPa) = 26.85795 28.93019 27.89407
#
# Velocity S-wave (km/s) = 3.46205 3.59313 3.52820
# Velocity P-wave (km/s) = 5.95101 6.32892 6.14288
#
# Compressibility (1/GPa) = 0.02296382
#
# Stress axis : x y z
#
# Youngs Moduli (GPa) = 57.51610 68.96558 110.64697
#
# Poissons Ratio (x) = 0.18674 0.41973
# Poissons Ratio (y) = 0.15574 0.27430
# Poissons Ratio (z) = 0.21818 0.17097
#
# Static dielectric constant tensor:
#      x y z
#    x 4.103820 0.000000 0.054990 
#    y 0.000000 3.762030 0.000000 
#    z 0.054990 0.000000 4.308670 
# 
# 
# High freq. dielectric constant tensor:
#      x y z
#    x 1.868430 0.000000 -0.009680 
#    y 0.000000 1.874800 0.000000 
#    z -0.009680 0.000000 1.904350 
# 
# From -- ./inp_files/180826.got.cif
#   From: 2010.06.25/outbox.cif.g09.slc.cpg/sg15_91_cif.got.tgz:180826.got - 2010.06.28 07:06:18.
