data_PCOD8151258
_publ_section_title
;
Structure prediction by ZEFSAII (Michael W. Deem and Ramdas Pophale) SiO2 
 PCOD8151258
Probable space group: C 2/C
;
_chemical_formula_sum "Si O2"
_cell_formula_units_Z 48
_cell_length_a 21.698391
_cell_length_b 12.987472
_cell_length_c 9.522220
_cell_angle_alpha 90.000000
_cell_angle_beta 112.734807
_cell_angle_gamma 90.000000
_cell_volume 2474.937378
_symmetry_space_group_name_H-M "C 2/C"
_symmetry_group_IT_number 15
_symmetry_cell_setting 'monoclinic'
loop_
_space_group_symop_operation_xyz
x,y,z
-x,y,1/2-z
-x,-y,-z
x,-y,1/2+z
1/2+x,1/2+y,z
1/2-x,1/2+y,1/2-z
1/2-x,1/2-y,-z
1/2+x,1/2-y,1/2+z
loop_
_atom_site_type_symbol
_atom_site_label
_atom_site_fract_x
_atom_site_fract_y
_atom_site_fract_z
Si Si1 0.851971 0.805231 0.343128
Si Si2 0.650191 0.697524 0.197890
Si Si3 0.426592 0.651916 0.637346
Si Si4 0.571304 0.409555 0.863329
Si Si5 0.216672 0.598032 0.834402
Si Si6 0.713439 0.900022 0.659732
O O1 0.868457 0.816679 0.194166
O O2 0.915656 0.853989 0.477548
O O3 0.787056 0.870104 0.329307
O O4 0.844277 0.685640 0.376686
O O5 0.626628 0.623464 0.301136
O O6 0.662594 0.811606 0.268669
O O7 0.719772 0.646455 0.208946
O O8 0.595353 0.705179 0.027128
O O9 0.500000 0.691339 0.750000
O O10 0.427513 0.530758 0.611745
O O11 0.500000 0.370092 0.750000
O O12 0.190098 0.499026 0.726864
O O13 0.224946 0.572908 0.006295
#
# Coordination Sequence:
#
# PCOD8151258 Si02
#       6
#     8   8   8   8   8   8
#     4  11  22  39  59  88 125 152 193 244 295 349
#     4  11  22  39  59  88 125 152 193 244 295 349
#     4  11  24  37  59  93 121 155 199 240 288 353
#     4  11  20  37  61  85 117 161 195 238 296 349
#     4  11  23  39  63  90 118 154 196 243 297 352
#     4  11  23  39  63  90 118 154 196 243 297 352
#
# _framework density 19.394428999999999
#
# number of rings (size 3 to 8) (size 9 to 14) (size 15 to 20)
#    0.000    1.000    3.333    5.000    4.667    4.000 
#    0.000    0.000    0.000    6.000    0.000    0.000 
#    0.000    0.000    0.000    0.000    0.000    0.000 
#
# Total GULP energy -297694.923024 kJ/mol
# GULP energy per Si atom -12403.955126 kJ/mol
# Density = 1.935029 g / cm^3
# Si number density = 19.394429 Si / 1000 Ang^3
#
#
#
# Elastic Constant Matrix: (Units=GPa)
#
#
# Indices 1 2 3 4 5 6 
#
# 1 47.8058 23.4851 20.1056 0.0000 7.9800 0.0000
# 2 23.4851 83.0125 38.0747 0.0000 10.0418 0.0000
# 3 20.1056 38.0747 112.1573 0.0000 3.9147 0.0000
# 4 0.0000 0.0000 0.0000 29.9959 0.0000 -4.7116
# 5 7.9800 10.0418 3.9147 0.0000 30.9527 0.0000
# 6 0.0000 0.0000 0.0000 -4.7116 0.0000 24.8749
#
#
#
# Elastic Compliance Matrix: (Units=1/GPa)
#
#
# Indices 1 2 3 4 5 6 
#
# 1 0.025426 -0.005490 -0.002539 0.000000 -0.004453 0.000000
# 2 -0.005490 0.015973 -0.004326 0.000000 -0.003220 0.000000
# 3 -0.002539 -0.004326 0.010816 0.000000 0.000690 0.000000
# 4 0.000000 0.000000 0.000000 0.034360 0.000000 0.006508
# 5 -0.004453 -0.003220 0.000690 0.000000 0.034413 0.000000
# 6 0.000000 0.000000 0.000000 0.006508 0.000000 0.041434
#
#
# Mechanical properties :
#
#
# Convention : Reuss Voigt Hill
#
# Bulk Modulus (GPa) = 36.35687 45.14516 40.75102
# Shear Modulus (GPa) = 25.47124 27.91872 26.69498
#
# Velocity S-wave (km/s) = 3.62792 3.79822 3.71405
# Velocity P-wave (km/s) = 6.02792 6.52405 6.28088
#
# Compressibility (1/GPa) = 0.02750511
#
# Stress axis : x y z
#
# Youngs Moduli (GPa) = 39.32963 62.60471 92.45892
#
# Poissons Ratio (x) = 0.34372 0.23473
# Poissons Ratio (y) = 0.21593 0.39997
# Poissons Ratio (z) = 0.09985 0.27082
#
# Static dielectric constant tensor:
#      x y z
#    x 3.471630 0.000000 0.037450 
#    y 0.000000 3.517270 0.000000 
#    z 0.037450 0.000000 3.681820 
# 
# 
# High freq. dielectric constant tensor:
#      x y z
#    x 1.740800 0.000000 -0.003650 
#    y 0.000000 1.744120 0.000000 
#    z -0.003650 0.000000 1.769400 
# 
# From -- ./inp_files/55416.got.cif
#   From: 2010.06.25/outbox.cif.g09.slc.cpg/sg15_28_cif.got.tgz:55416.got - 2010.06.28 07:06:18.
