data_PCOD8151767
_publ_section_title
;
Structure prediction by ZEFSAII (Michael W. Deem and Ramdas Pophale) SiO2 
 PCOD8151767
Probable space group: C 2/C
;
_chemical_formula_sum "Si O2"
_cell_formula_units_Z 64
_cell_length_a 14.800444
_cell_length_b 17.856061
_cell_length_c 17.443094
_cell_angle_alpha 90.000000
_cell_angle_beta 38.253076
_cell_angle_gamma 90.000000
_cell_volume 2854.105745
_symmetry_space_group_name_H-M "C 2/C"
_symmetry_group_IT_number 15
_symmetry_cell_setting 'monoclinic'
loop_
_space_group_symop_operation_xyz
x,y,z
-x,y,1/2-z
-x,-y,-z
x,-y,1/2+z
1/2+x,1/2+y,z
1/2-x,1/2+y,1/2-z
1/2-x,1/2-y,-z
1/2+x,1/2-y,1/2+z
loop_
_atom_site_type_symbol
_atom_site_label
_atom_site_fract_x
_atom_site_fract_y
_atom_site_fract_z
Si Si1 0.444260 0.928068 0.370604
Si Si2 0.015283 0.288595 0.582073
Si Si3 0.384546 0.905465 0.883366
Si Si4 0.591663 0.623664 0.506511
Si Si5 0.883584 0.911802 0.262573
Si Si6 0.669868 0.575462 0.152333
Si Si7 0.876578 0.329791 0.140262
Si Si8 0.702720 0.673064 0.277920
O O1 0.500000 0.898769 0.250000
O O2 0.279239 0.903351 0.508064
O O3 0.565113 0.898620 0.349263
O O4 0.452640 0.017264 0.368484
O O5 0.136809 0.345815 0.534397
O O6 0.065270 0.204016 0.565836
O O7 0.001208 0.301300 0.500290
O O8 0.856252 0.312935 0.719841
O O9 0.500000 0.866936 0.750000
O O10 0.234304 0.919165 0.940403
O O11 0.463949 0.571274 0.626733
O O12 0.594982 0.633179 0.412153
O O13 0.762115 0.851298 0.320105
O O14 0.000000 0.882777 0.250000
O O15 0.809323 0.987327 0.344333
O O16 0.500000 0.594545 0.250000
O O17 0.718561 0.621856 0.193555
O O18 0.847357 0.256998 0.213389
#
# Coordination Sequence:
#
# PCOD8151767 Si02
#       8
#     8   8   8   8   8   8   8   8
#     4  11  26  45  70 102 134 177 233 283 342 402
#     4  11  21  40  62  94 137 177 217 267 331 402
#     4  11  22  37  63  97 136 172 219 270 333 401
#     4  11  23  40  64 100 136 174 221 276 332 410
#     4  11  24  42  68  99 137 178 224 276 342 400
#     4  11  25  47  71  96 135 180 229 285 339 400
#     4  11  24  43  68  97 133 178 223 278 336 406
#     4  11  24  43  67  98 133 177 225 274 340 402
#
# _framework density 22.423836999999999
#
# number of rings (size 3 to 8) (size 9 to 14) (size 15 to 20)
#    0.000    1.000    3.750    3.375    1.750    4.500 
#    0.000    1.250    0.000    0.000    0.000    0.000 
#    0.000    0.000    0.000    0.000    0.000    0.000 
#
# Total GULP energy -396435.848911 kJ/mol
# GULP energy per Si atom -12388.620278 kJ/mol
# Density = 2.237280 g / cm^3
# Si number density = 22.423837 Si / 1000 Ang^3
#
#
#
# Elastic Constant Matrix: (Units=GPa)
#
#
# Indices 1 2 3 4 5 6 
#
# 1 77.2807 34.4867 26.4332 -0.0008 2.6493 0.0022
# 2 34.4867 67.5996 1.3806 0.0018 12.5100 -0.0003
# 3 26.4332 1.3806 142.3888 0.0078 16.7316 -0.0045
# 4 -0.0008 0.0018 0.0078 29.6210 -0.0019 2.6133
# 5 2.6493 12.5100 16.7316 -0.0019 27.3650 0.0001
# 6 0.0022 -0.0003 -0.0045 2.6133 0.0001 25.4252
#
#
#
# Elastic Compliance Matrix: (Units=1/GPa)
#
#
# Indices 1 2 3 4 5 6 
#
# 1 0.018836 -0.010537 -0.004036 0.000003 0.005462 -0.000003
# 2 -0.010537 0.022133 0.003028 -0.000003 -0.010950 0.000002
# 3 -0.004036 0.003028 0.008468 -0.000003 -0.006171 0.000002
# 4 0.000003 -0.000003 -0.000003 0.034069 0.000005 -0.003502
# 5 0.005462 -0.010950 -0.006171 0.000005 0.044793 -0.000002
# 6 -0.000003 0.000002 0.000002 -0.003502 -0.000002 0.039691
#
#
# Mechanical properties :
#
#
# Convention : Reuss Voigt Hill
#
# Bulk Modulus (GPa) = 37.95634 45.76333 41.85984
# Shear Modulus (GPa) = 25.01713 31.48013 28.24863
#
# Velocity S-wave (km/s) = 3.34376 3.75089 3.55316
# Velocity P-wave (km/s) = 5.64545 6.26191 5.96166
#
# Compressibility (1/GPa) = 0.02634606
#
# Stress axis : x y z
#
# Youngs Moduli (GPa) = 53.09108 45.18076 118.08991
#
# Poissons Ratio (x) = 0.47609 0.47664
# Poissons Ratio (y) = 0.55945 -0.35761
# Poissons Ratio (z) = 0.21429 -0.13682
#
# Static dielectric constant tensor:
#      x y z
#    x 3.614050 0.000000 0.077280 
#    y 0.000000 3.788110 0.000000 
#    z 0.077280 0.000000 4.594120 
# 
# 
# High freq. dielectric constant tensor:
#      x y z
#    x 1.852730 0.000000 0.002650 
#    y 0.000000 1.869590 0.000000 
#    z 0.002650 0.000000 1.914790 
# 
# From -- ./inp_files/206435.got.cif
#   From: 2010.06.25/outbox.cif.g09.slc.cpg/sg15_104_cif.got.tgz:206435.got - 2010.06.28 07:06:18.
