data_PCOD8151653
_publ_section_title
;
Structure prediction by ZEFSAII (Michael W. Deem and Ramdas Pophale) SiO2 
 PCOD8151653
Probable space group: C 2/C
;
_chemical_formula_sum "Si O2"
_cell_formula_units_Z 52
_cell_length_a 15.617001
_cell_length_b 20.829587
_cell_length_c 20.189461
_cell_angle_alpha 90.000000
_cell_angle_beta 158.074561
_cell_angle_gamma 90.000000
_cell_volume 2452.319132
_symmetry_space_group_name_H-M "C 2/C"
_symmetry_group_IT_number 15
_symmetry_cell_setting 'monoclinic'
loop_
_space_group_symop_operation_xyz
x,y,z
-x,y,1/2-z
-x,-y,-z
x,-y,1/2+z
1/2+x,1/2+y,z
1/2-x,1/2+y,1/2-z
1/2-x,1/2-y,-z
1/2+x,1/2-y,1/2+z
loop_
_atom_site_type_symbol
_atom_site_label
_atom_site_fract_x
_atom_site_fract_y
_atom_site_fract_z
Si Si1 0.036256 0.037934 0.422391
Si Si2 0.369469 0.796466 0.724247
Si Si3 0.141602 0.923396 0.571041
Si Si4 0.095681 0.509905 0.903169
Si Si5 0.350075 0.166813 0.944130
Si Si6 0.000000 0.075602 0.750000
Si Si7 0.899785 0.435487 0.959773
O O1 0.982162 0.083140 0.446635
O O2 0.874520 0.058673 0.246072
O O3 0.979096 0.964164 0.405132
O O4 0.307569 0.043477 0.595646
O O5 0.500000 0.779510 0.750000
O O6 0.188230 0.852624 0.577224
O O7 0.229024 0.733580 0.645727
O O8 0.535066 0.819939 0.901818
O O9 0.381272 0.962789 0.744629
O O10 0.316845 0.466771 0.079519
O O11 0.046946 0.564251 0.923611
O O12 0.131177 0.121162 0.792662
O O13 0.523073 0.130717 0.018667
O O14 0.000000 0.500000 0.000000
#
# Coordination Sequence:
#
# PCOD8151653 Si02
#       7
#     8   8   8   8   8   4   8
#     4  11  21  38  61  92 122 158 194 251 317 351
#     4  12  24  41  58  85 125 166 203 246 301 372
#     4  11  24  38  61  93 130 157 197 252 305 372
#     4  12  21  37  65  93 122 159 197 255 305 368
#     4  12  26  39  58  90 125 163 209 245 301 371
#     4  12  20  34  60  90 120 158 200 242 300 368
#     4  12  20  39  59  88 121 155 204 249 298 361
#
# _framework density 21.204419000000001
#
# number of rings (size 3 to 8) (size 9 to 14) (size 15 to 20)
#    0.000    0.308    8.462    1.846    0.000    1.231 
#    0.000    0.000    0.000    0.923    0.000    0.000 
#    0.000    0.000    0.000    0.000    0.000    0.000 
#
# Total GULP energy -322235.943924 kJ/mol
# GULP energy per Si atom -12393.690151 kJ/mol
# Density = 2.115616 g / cm^3
# Si number density = 21.204419 Si / 1000 Ang^3
#
#
#
# Elastic Constant Matrix: (Units=GPa)
#
#
# Indices 1 2 3 4 5 6 
#
# 1 118.7420 32.7555 15.8845 -0.0198 19.4751 0.0033
# 2 32.7555 112.5987 36.6320 -0.0078 10.0870 -0.0049
# 3 15.8845 36.6320 56.5767 -0.0236 17.4292 0.0006
# 4 -0.0198 -0.0078 -0.0236 30.2559 -0.0294 7.8423
# 5 19.4751 10.0870 17.4292 -0.0294 30.4854 -0.0059
# 6 0.0033 -0.0049 0.0006 7.8423 -0.0059 31.7760
#
#
#
# Elastic Compliance Matrix: (Units=1/GPa)
#
#
# Indices 1 2 3 4 5 6 
#
# 1 0.010023 -0.002614 0.000710 0.000001 -0.005944 -0.000003
# 2 -0.002614 0.011940 -0.007640 -0.000003 0.002087 0.000003
# 3 0.000710 -0.007640 0.026440 0.000008 -0.013042 -0.000006
# 4 0.000001 -0.000003 0.000008 0.035310 0.000028 -0.008715
# 5 -0.005944 0.002087 -0.013042 0.000028 0.043365 0.000002
# 6 -0.000003 0.000003 -0.000006 -0.008715 0.000002 0.033621
#
#
# Mechanical properties :
#
#
# Convention : Reuss Voigt Hill
#
# Bulk Modulus (GPa) = 34.11331 50.94018 42.52675
# Shear Modulus (GPa) = 26.37691 32.01316 29.19503
#
# Velocity S-wave (km/s) = 3.53077 3.88975 3.71460
# Velocity P-wave (km/s) = 5.72229 6.65200 6.20458
#
# Compressibility (1/GPa) = 0.02931407
#
# Stress axis : x y z
#
# Youngs Moduli (GPa) = 99.77452 83.75144 37.82104
#
# Poissons Ratio (x) = 0.21893 -0.02684
# Poissons Ratio (y) = 0.26081 0.28895
# Poissons Ratio (z) = -0.07079 0.63986
#
# Static dielectric constant tensor:
#      x y z
#    x 4.211680 -0.000070 0.047560 
#    y -0.000070 3.772870 -0.000630 
#    z 0.047560 -0.000630 4.258290 
# 
# 
# High freq. dielectric constant tensor:
#      x y z
#    x 1.834650 0.000000 -0.002400 
#    y 0.000000 1.790250 -0.000040 
#    z -0.002400 -0.000040 1.848020 
# 
# From -- ./inp_files/277997.got.cif
#   From: 2010.06.25/outbox.cif.g09.slc.cpg/sg15_139_cif.got.tgz:277997.got - 2010.06.28 07:06:18.
