data_PCOD8151342
_publ_section_title
;
Structure prediction by ZEFSAII (Michael W. Deem and Ramdas Pophale) SiO2 
 PCOD8151342
Probable space group: C 2/C
;
_chemical_formula_sum "Si O2"
_cell_formula_units_Z 64
_cell_length_a 9.570434
_cell_length_b 27.909324
_cell_length_c 18.382678
_cell_angle_alpha 90.000000
_cell_angle_beta 139.730175
_cell_angle_gamma 90.000000
_cell_volume 3173.825420
_symmetry_space_group_name_H-M "C 2/C"
_symmetry_group_IT_number 15
_symmetry_cell_setting 'monoclinic'
loop_
_space_group_symop_operation_xyz
x,y,z
-x,y,1/2-z
-x,-y,-z
x,-y,1/2+z
1/2+x,1/2+y,z
1/2-x,1/2+y,1/2-z
1/2-x,1/2-y,-z
1/2+x,1/2-y,1/2+z
loop_
_atom_site_type_symbol
_atom_site_label
_atom_site_fract_x
_atom_site_fract_y
_atom_site_fract_z
Si Si1 0.622579 0.709108 0.989694
Si Si2 0.933988 0.726990 0.525772
Si Si3 0.064604 0.378868 0.859424
Si Si4 0.236247 0.464125 0.008972
Si Si5 0.247308 0.356940 0.635128
Si Si6 0.350689 0.313721 0.254547
Si Si7 0.051846 0.561458 0.965905
Si Si8 0.121733 0.923978 0.229331
O O1 0.563005 0.727336 0.046013
O O2 0.749756 0.659092 0.045458
O O3 0.750000 0.750000 0.000000
O O4 0.403271 0.705664 0.855363
O O5 0.750000 0.750000 0.500000
O O6 0.832763 0.695337 0.421114
O O7 0.098246 0.694536 0.638257
O O8 0.861752 0.369979 0.831611
O O9 0.000000 0.372515 0.750000
O O10 0.144872 0.433554 0.904482
O O11 0.211217 0.521470 0.995059
O O12 0.492521 0.450622 0.112993
O O13 0.094487 0.450558 0.022890
O O14 0.500000 0.357095 0.750000
O O15 0.193962 0.393046 0.546805
O O16 0.500000 0.290035 0.250000
O O17 0.424444 0.368206 0.289173
O O18 0.880721 0.569364 0.832038
O O19 0.000000 0.947446 0.250000
#
# Coordination Sequence:
#
# PCOD8151342 Si02
#       8
#     8   8   8   8   8   8   8   8
#     4  12  24  39  65  93 121 168 222 260 315 381
#     4  12  28  41  62  94 131 169 213 269 327 383
#     4  11  24  41  63  94 129 166 213 270 321 383
#     4   9  18  34  59  93 120 152 206 259 313 374
#     4  11  24  42  61  92 133 168 210 263 329 390
#     4  11  20  39  65  89 123 163 216 264 304 372
#     4   9  18  34  61  90 121 156 201 258 318 378
#     4   9  16  31  58  87 118 150 199 263 307 357
#
# _framework density 20.164940000000001
#
# number of rings (size 3 to 8) (size 9 to 14) (size 15 to 20)
#    0.000    1.500    5.000    0.000    5.250    3.500 
#    0.000    0.000    0.000    4.500    0.000    0.000 
#    0.000    0.000    0.000    0.000    0.000    0.000 
#
# Total GULP energy -396466.067065 kJ/mol
# GULP energy per Si atom -12389.564596 kJ/mol
# Density = 2.011904 g / cm^3
# Si number density = 20.164940 Si / 1000 Ang^3
#
#
#
# Elastic Constant Matrix: (Units=GPa)
#
#
# Indices 1 2 3 4 5 6 
#
# 1 68.5403 30.8650 39.2951 0.0000 2.9751 0.0006
# 2 30.8650 89.4219 38.0225 0.0000 2.4621 0.0002
# 3 39.2951 38.0225 159.6608 -0.0003 13.5044 0.0029
# 4 0.0000 0.0000 -0.0003 33.3242 0.0001 4.6258
# 5 2.9751 2.4621 13.5044 0.0001 30.2927 0.0006
# 6 0.0006 0.0002 0.0029 4.6258 0.0006 24.0140
#
#
#
# Elastic Compliance Matrix: (Units=1/GPa)
#
#
# Indices 1 2 3 4 5 6 
#
# 1 0.018828 -0.005038 -0.003442 0.000000 0.000095 0.000000
# 2 -0.005038 0.013794 -0.002070 0.000000 0.000297 0.000000
# 3 -0.003442 -0.002070 0.007857 0.000000 -0.002996 -0.000001
# 4 0.000000 0.000000 0.000000 0.030833 0.000000 -0.005939
# 5 0.000095 0.000297 -0.002996 0.000000 0.034314 -0.000001
# 6 0.000000 0.000000 -0.000001 -0.005939 -0.000001 0.042787
#
#
# Mechanical properties :
#
#
# Convention : Reuss Voigt Hill
#
# Bulk Modulus (GPa) = 51.60336 59.33204 55.46770
# Shear Modulus (GPa) = 28.41379 31.48884 29.95132
#
# Velocity S-wave (km/s) = 3.75783 3.95595 3.85816
# Velocity P-wave (km/s) = 6.66893 7.09601 6.88578
#
# Compressibility (1/GPa) = 0.01937858
#
# Stress axis : x y z
#
# Youngs Moduli (GPa) = 53.11285 72.49621 127.27696
#
# Poissons Ratio (x) = 0.36521 0.43811
# Poissons Ratio (y) = 0.26756 0.26349
# Poissons Ratio (z) = 0.18282 0.15008
#
# Static dielectric constant tensor:
#      x y z
#    x 3.136310 0.000000 0.104440 
#    y 0.000000 3.671730 -0.000020 
#    z 0.104440 -0.000020 4.192810 
# 
# 
# High freq. dielectric constant tensor:
#      x y z
#    x 1.740140 0.000000 0.008710 
#    y 0.000000 1.788850 0.000000 
#    z 0.008710 0.000000 1.802010 
# 
# From -- ./inp_files/194270.got.cif
#   From: 2010.06.25/outbox.cif.g09.slc.cpg/sg15_98_cif.got.tgz:194270.got - 2010.06.28 07:06:18.
