data_PCOD8151460
_publ_section_title
;
Structure prediction by ZEFSAII (Michael W. Deem and Ramdas Pophale) SiO2 
 PCOD8151460
Probable space group: C 2/C
;
_chemical_formula_sum "Si O2"
_cell_formula_units_Z 52
_cell_length_a 16.909428
_cell_length_b 11.136451
_cell_length_c 15.549808
_cell_angle_alpha 90.000000
_cell_angle_beta 53.952195
_cell_angle_gamma 90.000000
_cell_volume 2367.526807
_symmetry_space_group_name_H-M "C 2/C"
_symmetry_group_IT_number 15
_symmetry_cell_setting 'monoclinic'
loop_
_space_group_symop_operation_xyz
x,y,z
-x,y,1/2-z
-x,-y,-z
x,-y,1/2+z
1/2+x,1/2+y,z
1/2-x,1/2+y,1/2-z
1/2-x,1/2-y,-z
1/2+x,1/2-y,1/2+z
loop_
_atom_site_type_symbol
_atom_site_label
_atom_site_fract_x
_atom_site_fract_y
_atom_site_fract_z
Si Si1 0.118640 0.411870 0.769840
Si Si2 0.707283 0.068589 0.376608
Si Si3 0.601041 0.452508 0.641393
Si Si4 0.000000 0.404178 0.250000
Si Si5 0.940275 0.361332 0.989397
Si Si6 0.855944 0.770898 0.392985
Si Si7 0.438073 0.754353 0.450174
O O1 0.216323 0.431782 0.765317
O O2 0.093424 0.514318 0.717354
O O3 0.130822 0.285116 0.711440
O O4 0.038688 0.434210 0.900166
O O5 0.812921 0.088168 0.350108
O O6 0.650559 0.187795 0.441409
O O7 0.656108 0.943236 0.438725
O O8 0.500000 0.420912 0.750000
O O9 0.615413 0.592018 0.619539
O O10 0.595560 0.381461 0.553103
O O11 0.954799 0.323172 0.351477
O O12 0.933842 0.288803 0.905198
O O13 0.963016 0.270894 0.054820
O O14 0.750000 0.750000 0.500000
#
# Coordination Sequence:
#
# PCOD8151460 Si02
#       7
#     8   8   8   4   8   8   8
#     4  11  21  40  73 101 128 175 239 292 335 414
#     4  11  22  44  71 104 136 181 243 291 348 426
#     4  12  27  45  64  99 150 185 219 295 360 417
#     4  12  18  38  74 104 126 170 226 284 360 398
#     4  11  20  42  73 101 130 175 239 296 338 417
#     4  12  25  44  69  94 138 187 235 278 347 430
#     4  11  23  41  71 103 139 177 227 294 355 416
#
# _framework density 21.963847000000001
#
# number of rings (size 3 to 8) (size 9 to 14) (size 15 to 20)
#    0.000    0.615    6.923    2.308    0.000    1.846 
#    2.769    1.538    0.000    0.000    0.000    0.000 
#    0.000    0.000    0.000    0.000    0.000    0.000 
#
# Total GULP energy -322106.449704 kJ/mol
# GULP energy per Si atom -12388.709604 kJ/mol
# Density = 2.191386 g / cm^3
# Si number density = 21.963847 Si / 1000 Ang^3
#
#
#
# Elastic Constant Matrix: (Units=GPa)
#
#
# Indices 1 2 3 4 5 6 
#
# 1 115.7541 16.2862 35.4164 0.0000 10.1180 0.0000
# 2 16.2862 97.9022 21.7512 0.0000 10.5466 0.0000
# 3 35.4164 21.7512 82.8860 0.0000 12.1275 0.0000
# 4 0.0000 0.0000 0.0000 16.7441 0.0000 -4.2214
# 5 10.1180 10.5466 12.1275 0.0000 41.8273 0.0000
# 6 0.0000 0.0000 0.0000 -4.2214 0.0000 19.9379
#
#
#
# Elastic Compliance Matrix: (Units=1/GPa)
#
#
# Indices 1 2 3 4 5 6 
#
# 1 0.010040 -0.000672 -0.003950 0.000000 -0.001114 0.000000
# 2 -0.000672 0.011053 -0.002328 0.000000 -0.001949 0.000000
# 3 -0.003950 -0.002328 0.014764 0.000000 -0.002738 0.000000
# 4 0.000000 0.000000 0.000000 0.063090 0.000000 0.013358
# 5 -0.001114 -0.001949 -0.002738 0.000000 0.025463 0.000000
# 6 0.000000 0.000000 0.000000 0.013358 0.000000 0.052984
#
#
# Mechanical properties :
#
#
# Convention : Reuss Voigt Hill
#
# Bulk Modulus (GPa) = 45.54696 49.27222 47.40959
# Shear Modulus (GPa) = 25.17435 30.57443 27.87439
#
# Velocity S-wave (km/s) = 3.38919 3.73505 3.56631
# Velocity P-wave (km/s) = 6.00814 6.40958 6.21211
#
# Compressibility (1/GPa) = 0.02195536
#
# Stress axis : x y z
#
# Youngs Moduli (GPa) = 99.60517 90.47009 67.73085
#
# Poissons Ratio (x) = 0.06084 0.26757
# Poissons Ratio (y) = 0.06698 0.15768
# Poissons Ratio (z) = 0.39348 0.21062
#
# Static dielectric constant tensor:
#      x y z
#    x 10.905060 0.000000 -1.998760 
#    y 0.000000 3.990690 0.000000 
#    z -1.998760 0.000000 5.139930 
# 
# 
# High freq. dielectric constant tensor:
#      x y z
#    x 1.879670 0.000000 0.022490 
#    y 0.000000 1.855980 0.000000 
#    z 0.022490 0.000000 1.853890 
# 
# From -- ./inp_files/160774.got.cif
#   From: 2010.06.25/outbox.cif.g09.slc.cpg/sg15_81_cif.got.tgz:160774.got - 2010.06.28 07:06:18.
