data_PCOD8151313
_publ_section_title
;
Structure prediction by ZEFSAII (Michael W. Deem and Ramdas Pophale) SiO2 
 PCOD8151313
Probable space group: C 2/C
;
_chemical_formula_sum "Si O2"
_cell_formula_units_Z 56
_cell_length_a 21.438935
_cell_length_b 17.662645
_cell_length_c 9.237760
_cell_angle_alpha 90.000000
_cell_angle_beta 127.188869
_cell_angle_gamma 90.000000
_cell_volume 2786.709794
_symmetry_space_group_name_H-M "C 2/C"
_symmetry_group_IT_number 15
_symmetry_cell_setting 'monoclinic'
loop_
_space_group_symop_operation_xyz
x,y,z
-x,y,1/2-z
-x,-y,-z
x,-y,1/2+z
1/2+x,1/2+y,z
1/2-x,1/2+y,1/2-z
1/2-x,1/2-y,-z
1/2+x,1/2-y,1/2+z
loop_
_atom_site_type_symbol
_atom_site_label
_atom_site_fract_x
_atom_site_fract_y
_atom_site_fract_z
Si Si1 0.930493 0.308463 0.739645
Si Si2 0.247610 0.997106 0.858698
Si Si3 0.168208 0.861579 0.142083
Si Si4 0.366516 0.367111 0.730137
Si Si5 0.979984 0.151739 0.886129
Si Si6 0.707291 0.731427 0.135854
Si Si7 0.306463 0.095410 0.195480
O O1 0.975287 0.242729 0.889814
O O2 0.865481 0.270473 0.544604
O O3 0.891678 0.367653 0.794397
O O4 0.000000 0.351342 0.750000
O O5 0.174545 0.948080 0.809594
O O6 0.306711 0.942962 0.853190
O O7 0.221126 0.063496 0.712377
O O8 0.293704 0.032066 0.057071
O O9 0.103705 0.878192 0.175834
O O10 0.220631 0.788511 0.249680
O O11 0.127973 0.846899 0.931059
O O12 0.320649 0.299296 0.747350
O O13 0.453191 0.377914 0.913929
O O14 0.000000 0.124732 0.750000
O O15 0.738463 0.659604 0.085847
#
# Coordination Sequence:
#
# PCOD8151313 Si02
#       7
#     8   8   8   8   8   8   8
#     4  11  20  38  68  97 120 171 221 277 306 383
#     4  11  24  39  65  93 133 172 215 265 323 396
#     4  12  23  40  65  96 127 176 218 273 326 373
#     4  11  24  41  59  99 137 164 210 279 331 384
#     4  11  23  39  64  95 132 169 217 261 326 392
#     4  11  21  38  70  94 124 168 233 273 310 388
#     4  11  22  42  65  97 127 175 225 262 325 381
#
# _framework density 20.095383999999999
#
# number of rings (size 3 to 8) (size 9 to 14) (size 15 to 20)
#    0.000    0.857    7.143    2.143    2.000    0.571 
#    0.000    0.714    0.000    0.000    0.000    0.000 
#    0.000    0.000    0.000    0.000    0.000    0.000 
#
# Total GULP energy -347179.635420 kJ/mol
# GULP energy per Si atom -12399.272694 kJ/mol
# Density = 2.004965 g / cm^3
# Si number density = 20.095384 Si / 1000 Ang^3
#
#
#
# Elastic Constant Matrix: (Units=GPa)
#
#
# Indices 1 2 3 4 5 6 
#
# 1 120.1683 32.3450 15.8715 0.0000 -9.5273 0.0000
# 2 32.3450 78.7791 20.8606 0.0000 -7.2399 0.0000
# 3 15.8715 20.8606 66.2437 0.0000 -10.7639 0.0000
# 4 0.0000 0.0000 0.0000 28.3779 0.0000 0.8779
# 5 -9.5273 -7.2399 -10.7639 0.0000 22.8848 0.0000
# 6 0.0000 0.0000 0.0000 0.8779 0.0000 35.3379
#
#
#
# Elastic Compliance Matrix: (Units=1/GPa)
#
#
# Indices 1 2 3 4 5 6 
#
# 1 0.009563 -0.003488 -0.000785 0.000000 0.002508 0.000000
# 2 -0.003488 0.015256 -0.003703 0.000000 0.001633 0.000000
# 3 -0.000785 -0.003703 0.017548 0.000000 0.006755 0.000000
# 4 0.000000 0.000000 0.000000 0.035266 0.000000 -0.000876
# 5 0.002508 0.001633 0.006755 0.000000 0.048435 0.000000
# 6 0.000000 0.000000 0.000000 -0.000876 0.000000 0.028320
#
#
# Mechanical properties :
#
#
# Convention : Reuss Voigt Hill
#
# Bulk Modulus (GPa) = 37.85855 44.81615 41.33735
# Shear Modulus (GPa) = 27.91016 30.39438 29.15227
#
# Velocity S-wave (km/s) = 3.73082 3.89331 3.81293
# Velocity P-wave (km/s) = 6.11874 6.52385 6.32454
#
# Compressibility (1/GPa) = 0.02641411
#
# Stress axis : x y z
#
# Youngs Moduli (GPa) = 104.56880 65.54589 56.98731
#
# Poissons Ratio (x) = 0.22862 0.04475
# Poissons Ratio (y) = 0.36473 0.21105
# Poissons Ratio (z) = 0.08212 0.24274
#
# Static dielectric constant tensor:
#      x y z
#    x 4.007290 0.000000 -0.052630 
#    y 0.000000 3.714880 0.000000 
#    z -0.052630 0.000000 3.432090 
# 
# 
# High freq. dielectric constant tensor:
#      x y z
#    x 1.798980 0.000000 -0.010210 
#    y 0.000000 1.778170 0.000000 
#    z -0.010210 0.000000 1.764710 
# 
# From -- ./inp_files/62787.got.cif
#   From: 2010.06.25/outbox.cif.g09.slc.cpg/sg15_32_cif.got.tgz:62787.got - 2010.06.28 07:06:18.
