data_PCOD8151654
_publ_section_title
;
Structure prediction by ZEFSAII (Michael W. Deem and Ramdas Pophale) SiO2 
 PCOD8151654
Probable space group: C 2/C
;
_chemical_formula_sum "Si O2"
_cell_formula_units_Z 48
_cell_length_a 18.901451
_cell_length_b 14.374486
_cell_length_c 8.597596
_cell_angle_alpha 90.000000
_cell_angle_beta 74.713289
_cell_angle_gamma 90.000000
_cell_volume 2253.305787
_symmetry_space_group_name_H-M "C 2/C"
_symmetry_group_IT_number 15
_symmetry_cell_setting 'monoclinic'
loop_
_space_group_symop_operation_xyz
x,y,z
-x,y,1/2-z
-x,-y,-z
x,-y,1/2+z
1/2+x,1/2+y,z
1/2-x,1/2+y,1/2-z
1/2-x,1/2-y,-z
1/2+x,1/2-y,1/2+z
loop_
_atom_site_type_symbol
_atom_site_label
_atom_site_fract_x
_atom_site_fract_y
_atom_site_fract_z
Si Si1 0.925358 0.931736 0.703059
Si Si2 0.879813 0.100181 0.906330
Si Si3 0.220570 0.581614 0.093339
Si Si4 0.654097 0.747808 0.801041
Si Si5 0.085409 0.262501 0.167667
Si Si6 0.294630 0.116357 0.747066
O O1 0.939191 0.924061 0.507421
O O2 0.888714 0.836878 0.781916
O O3 0.000000 0.950255 0.750000
O O4 0.873203 0.018124 0.781005
O O5 0.893991 0.196190 0.805538
O O6 0.804800 0.113106 0.044097
O O7 0.177586 0.650035 0.232992
O O8 0.218565 0.476081 0.147888
O O9 0.187573 0.590953 0.940453
O O10 0.724771 0.684860 0.803625
O O11 0.600194 0.763097 0.975840
O O12 0.132200 0.339531 0.226994
O O13 0.000000 0.281025 0.250000
#
# Coordination Sequence:
#
# PCOD8151654 Si02
#       6
#     8   8   8   8   8   8
#     4  11  22  37  58  89 127 165 201 244 303 373
#     4  11  21  38  61  93 125 158 201 251 304 368
#     4  11  22  39  64  94 120 156 206 257 307 359
#     4  11  23  40  65  93 122 161 205 257 308 358
#     4  11  24  42  61  88 122 163 207 253 308 366
#     4  11  22  40  65  93 124 159 204 256 305 364
#
# _framework density 21.302035
#
# number of rings (size 3 to 8) (size 9 to 14) (size 15 to 20)
#    0.000    1.000    0.000   10.000    0.000    1.333 
#    0.000    7.500    0.000    0.000    0.000    0.000 
#    0.000    0.000    0.000    0.000    0.000    0.000 
#
# Total GULP energy -297609.933621 kJ/mol
# GULP energy per Si atom -12400.413901 kJ/mol
# Density = 2.125355 g / cm^3
# Si number density = 21.302035 Si / 1000 Ang^3
#
#
#
# Elastic Constant Matrix: (Units=GPa)
#
#
# Indices 1 2 3 4 5 6 
#
# 1 85.9219 21.1895 59.1727 0.0000 12.4001 0.0000
# 2 21.1895 55.0854 42.0006 0.0000 -2.0754 0.0000
# 3 59.1727 42.0006 143.1622 0.0000 -1.8170 0.0000
# 4 0.0000 0.0000 0.0000 43.3135 0.0000 18.4881
# 5 12.4001 -2.0754 -1.8170 0.0000 30.7021 0.0000
# 6 0.0000 0.0000 0.0000 18.4881 0.0000 -9.4127
#
#
#
# Elastic Compliance Matrix: (Units=1/GPa)
#
#
# Indices 1 2 3 4 5 6 
#
# 1 0.018065 -0.001901 -0.007009 0.000000 -0.007840 0.000000
# 2 -0.001901 0.023627 -0.006121 0.000000 0.002003 0.000000
# 3 -0.007009 -0.006121 0.011717 0.000000 0.003110 0.000000
# 4 0.000000 0.000000 0.000000 0.012559 0.000000 0.024667
# 5 -0.007840 0.002003 0.003110 0.000000 0.036057 0.000000
# 6 0.000000 0.000000 0.000000 0.024667 0.000000 -0.057789
#
#
# Mechanical properties :
#
#
# Convention : Reuss Voigt Hill
#
# Bulk Modulus (GPa) = 42.82758 58.76612 50.79685
# Shear Modulus (GPa) = 60.91704 23.70769 42.31236
#
# Velocity S-wave (km/s) = 5.35340 3.33968 4.46163
# Velocity P-wave (km/s) = 7.63940 6.52060 7.10207
#
# Compressibility (1/GPa) = 0.02334944
#
# Stress axis : x y z
#
# Youngs Moduli (GPa) = 55.35431 42.32459 85.34484
#
# Poissons Ratio (x) = 0.08044 0.59817
# Poissons Ratio (y) = 0.10520 0.52237
# Poissons Ratio (z) = 0.38797 0.25905
#
# Static dielectric constant tensor:
#      x y z
#    x 3.667280 0.000000 0.257470 
#    y 0.000000 3.998000 0.000000 
#    z 0.257470 0.000000 4.206850 
# 
# 
# High freq. dielectric constant tensor:
#      x y z
#    x 1.816590 0.000000 0.015370 
#    y 0.000000 1.842810 0.000000 
#    z 0.015370 0.000000 1.853590 
# 
# From -- ./inp_files/55224.got.cif
#   From: 2010.06.25/outbox.cif.g09.slc.cpg/sg15_28_cif.got.tgz:55224.got - 2010.06.28 07:06:18.
