data_PCOD8151691
_publ_section_title
;
Structure prediction by ZEFSAII (Michael W. Deem and Ramdas Pophale) SiO2 
 PCOD8151691
Probable space group: C 2/C
;
_chemical_formula_sum "Si O2"
_cell_formula_units_Z 56
_cell_length_a 12.702977
_cell_length_b 11.994623
_cell_length_c 20.366099
_cell_angle_alpha 90.000000
_cell_angle_beta 115.907221
_cell_angle_gamma 90.000000
_cell_volume 2791.273846
_symmetry_space_group_name_H-M "C 2/C"
_symmetry_group_IT_number 15
_symmetry_cell_setting 'monoclinic'
loop_
_space_group_symop_operation_xyz
x,y,z
-x,y,1/2-z
-x,-y,-z
x,-y,1/2+z
1/2+x,1/2+y,z
1/2-x,1/2+y,1/2-z
1/2-x,1/2-y,-z
1/2+x,1/2-y,1/2+z
loop_
_atom_site_type_symbol
_atom_site_label
_atom_site_fract_x
_atom_site_fract_y
_atom_site_fract_z
Si Si1 0.147336 0.834904 0.962009
Si Si2 0.466044 0.686901 0.310910
Si Si3 0.515458 0.065870 0.436257
Si Si4 0.220119 0.936168 0.519667
Si Si5 0.087250 0.437078 0.215637
Si Si6 0.325151 0.498260 0.344708
Si Si7 0.014969 0.814861 0.057813
O O1 0.088285 0.790808 0.880120
O O2 0.250000 0.750000 0.000000
O O3 0.052926 0.841566 0.994295
O O4 0.196805 0.958595 0.966002
O O5 0.500000 0.635191 0.250000
O O6 0.400543 0.804275 0.286951
O O7 0.390702 0.602738 0.332461
O O8 0.649444 0.101809 0.461096
O O9 0.452529 0.186213 0.419338
O O10 0.500000 0.000000 0.500000
O O11 0.459409 0.990530 0.364300
O O12 0.124071 0.841729 0.476151
O O13 0.218441 0.972746 0.594801
O O14 0.216943 0.477597 0.267146
O O15 0.000000 0.472040 0.250000
O O16 0.411990 0.391557 0.371366
#
# Coordination Sequence:
#
# PCOD8151691 Si02
#       7
#     8   8   8   8   8   8   8
#     4  11  21  38  68  95 126 166 221 270 323 387
#     4  11  24  41  64  95 128 167 224 275 322 387
#     4  12  26  43  67 103 134 166 228 277 327 387
#     4  11  21  43  69  91 130 174 215 268 329 406
#     4  11  25  45  66  92 131 179 218 268 334 392
#     4  11  23  44  67  91 128 176 220 256 335 403
#     4  11  23  42  67  98 129 174 214 270 339 396
#
# _framework density 20.062525000000001
#
# number of rings (size 3 to 8) (size 9 to 14) (size 15 to 20)
#    0.000    0.857    4.286    3.857    8.000    1.143 
#    0.000    0.714    0.000    0.000    0.000    0.000 
#    0.000    0.000    0.000    0.000    0.000    0.000 
#
# Total GULP energy -347221.201827 kJ/mol
# GULP energy per Si atom -12400.757208 kJ/mol
# Density = 2.001686 g / cm^3
# Si number density = 20.062525 Si / 1000 Ang^3
#
#
#
# Elastic Constant Matrix: (Units=GPa)
#
#
# Indices 1 2 3 4 5 6 
#
# 1 84.7018 24.6863 56.3199 0.0000 20.9821 0.0000
# 2 24.6863 105.5768 32.1082 0.0000 -0.8851 0.0000
# 3 56.3199 32.1082 122.4519 0.0000 6.8298 0.0000
# 4 0.0000 0.0000 0.0000 32.4873 0.0000 1.4908
# 5 20.9821 -0.8851 6.8298 0.0000 29.5688 0.0000
# 6 0.0000 0.0000 0.0000 1.4908 0.0000 31.1544
#
#
#
# Elastic Compliance Matrix: (Units=1/GPa)
#
#
# Indices 1 2 3 4 5 6 
#
# 1 0.021498 -0.002563 -0.008470 0.000000 -0.013375 0.000000
# 2 -0.002563 0.010624 -0.001749 0.000000 0.002541 0.000000
# 3 -0.008470 -0.001749 0.012347 0.000000 0.003106 0.000000
# 4 0.000000 0.000000 0.000000 0.030849 0.000000 -0.001476
# 5 -0.013375 0.002541 0.003106 0.000000 0.042669 0.000000
# 6 0.000000 0.000000 0.000000 -0.001476 0.000000 0.032169
#
#
# Mechanical properties :
#
#
# Convention : Reuss Voigt Hill
#
# Bulk Modulus (GPa) = 52.89097 59.88438 56.38767
# Shear Modulus (GPa) = 27.46927 31.94984 29.70955
#
# Velocity S-wave (km/s) = 3.70426 3.99496 3.85235
# Velocity P-wave (km/s) = 6.68698 7.15495 6.92492
#
# Compressibility (1/GPa) = 0.01890682
#
# Stress axis : x y z
#
# Youngs Moduli (GPa) = 46.51580 94.12493 80.98987
#
# Poissons Ratio (x) = 0.24125 0.68595
# Poissons Ratio (y) = 0.11922 0.14162
# Poissons Ratio (z) = 0.39397 0.16459
#
# Static dielectric constant tensor:
#      x y z
#    x 3.687730 0.000000 0.113620 
#    y 0.000000 3.865480 0.000000 
#    z 0.113620 0.000000 3.698430 
# 
# 
# High freq. dielectric constant tensor:
#      x y z
#    x 1.786810 0.000000 0.010500 
#    y 0.000000 1.791870 0.000000 
#    z 0.010500 0.000000 1.785860 
# 
# From -- ./inp_files/237071.got.cif
#   From: 2010.06.25/outbox.cif.g09.slc.cpg/sg15_119_cif.got.tgz:237071.got - 2010.06.28 07:06:18.
