data_PCOD8151764
_publ_section_title
;
Structure prediction by ZEFSAII (Michael W. Deem and Ramdas Pophale) SiO2 
 PCOD8151764
Probable space group: C 2/C
;
_chemical_formula_sum "Si O2"
_cell_formula_units_Z 36
_cell_length_a 14.149155
_cell_length_b 21.564110
_cell_length_c 5.741377
_cell_angle_alpha 90.000000
_cell_angle_beta 99.877609
_cell_angle_gamma 90.000000
_cell_volume 1725.806599
_symmetry_space_group_name_H-M "C 2/C"
_symmetry_group_IT_number 15
_symmetry_cell_setting 'monoclinic'
loop_
_space_group_symop_operation_xyz
x,y,z
-x,y,1/2-z
-x,-y,-z
x,-y,1/2+z
1/2+x,1/2+y,z
1/2-x,1/2+y,1/2-z
1/2-x,1/2-y,-z
1/2+x,1/2-y,1/2+z
loop_
_atom_site_type_symbol
_atom_site_label
_atom_site_fract_x
_atom_site_fract_y
_atom_site_fract_z
Si Si1 0.591336 0.848231 0.434660
Si Si2 0.725857 0.845118 0.107895
Si Si3 0.887331 0.246731 0.713859
Si Si4 0.500000 0.942854 0.750000
Si Si5 0.300065 0.026248 0.068235
O O1 0.500000 0.828020 0.250000
O O2 0.678334 0.876266 0.317985
O O3 0.634186 0.785713 0.564100
O O4 0.560630 0.899503 0.605081
O O5 0.832292 0.818874 0.196986
O O6 0.652932 0.788924 0.014165
O O7 0.729327 0.900865 0.923391
O O8 0.000000 0.233041 0.750000
O O9 0.583012 0.983615 0.910179
O O10 0.259531 0.999376 0.299806
#
# Coordination Sequence:
#
# PCOD8151764 Si02
#       5
#     8   8   8   4   8
#     4  12  18  36  59  87 132 157 191 251 306 374
#     4  11  24  37  62  88 120 165 200 253 315 361
#     4  11  21  40  61  90 121 153 208 256 310 373
#     4  12  22  36  58  88 130 162 204 240 304 384
#     4  12  25  40  59  88 128 168 212 251 302 372
#
# _framework density 20.859811000000001
#
# number of rings (size 3 to 8) (size 9 to 14) (size 15 to 20)
#    0.000    0.444    7.778    2.667    0.000    0.000 
#    0.000    0.000    0.000    1.333    0.000    0.000 
#    0.000    0.000    0.000    0.000    0.000    0.000 
#
# Total GULP energy -223055.518105 kJ/mol
# GULP energy per Si atom -12391.973228 kJ/mol
# Density = 2.081233 g / cm^3
# Si number density = 20.859811 Si / 1000 Ang^3
#
#
#
# Elastic Constant Matrix: (Units=GPa)
#
#
# Indices 1 2 3 4 5 6 
#
# 1 86.6303 27.2418 28.8341 0.0000 9.1621 0.0000
# 2 27.2418 73.3222 29.7539 0.0000 2.6738 0.0000
# 3 28.8341 29.7539 109.5011 0.0000 -7.9492 0.0000
# 4 0.0000 0.0000 0.0000 34.4733 0.0000 10.7542
# 5 9.1621 2.6738 -7.9492 0.0000 26.0690 0.0000
# 6 0.0000 0.0000 0.0000 10.7542 0.0000 25.1967
#
#
#
# Elastic Compliance Matrix: (Units=1/GPa)
#
#
# Indices 1 2 3 4 5 6 
#
# 1 0.014403 -0.003868 -0.003150 0.000000 -0.005626 0.000000
# 2 -0.003868 0.016586 -0.003593 0.000000 -0.001437 0.000000
# 3 -0.003150 -0.003593 0.011295 0.000000 0.004920 0.000000
# 4 0.000000 0.000000 0.000000 0.033463 0.000000 -0.014282
# 5 -0.005626 -0.001437 0.004920 0.000000 0.041985 0.000000
# 6 0.000000 0.000000 0.000000 -0.014282 0.000000 0.045784
#
#
# Mechanical properties :
#
#
# Convention : Reuss Voigt Hill
#
# Bulk Modulus (GPa) = 47.47657 49.01257 48.24457
# Shear Modulus (GPa) = 26.07460 29.38939 27.73199
#
# Velocity S-wave (km/s) = 3.53936 3.75760 3.65011
# Velocity P-wave (km/s) = 6.28586 6.50948 6.39864
#
# Compressibility (1/GPa) = 0.02106302
#
# Stress axis : x y z
#
# Youngs Moduli (GPa) = 69.42979 60.29276 88.53360
#
# Poissons Ratio (x) = 0.23320 0.27889
# Poissons Ratio (y) = 0.26854 0.31806
# Poissons Ratio (z) = 0.21871 0.21661
#
# Static dielectric constant tensor:
#      x y z
#    x 3.476660 0.000000 -0.044320 
#    y 0.000000 3.710730 0.000000 
#    z -0.044320 0.000000 4.446190 
# 
# 
# High freq. dielectric constant tensor:
#      x y z
#    x 1.762570 0.000000 -0.003530 
#    y 0.000000 1.811930 0.000000 
#    z -0.003530 0.000000 1.838910 
# 
# From -- ./inp_files/4358.got.cif
#   From: 2010.06.25/outbox.cif.g09.slc.cpg/sg15_3_cif.got.tgz:4358.got - 2010.06.28 07:06:18.
