data_PCOD8151822
_publ_section_title
;
Structure prediction by ZEFSAII (Michael W. Deem and Ramdas Pophale) SiO2 
 PCOD8151822
Probable space group: C 2/C
;
_chemical_formula_sum "Si O2"
_cell_formula_units_Z 48
_cell_length_a 12.887247
_cell_length_b 23.811663
_cell_length_c 10.346883
_cell_angle_alpha 90.000000
_cell_angle_beta 129.498075
_cell_angle_gamma 90.000000
_cell_volume 2450.064407
_symmetry_space_group_name_H-M "C 2/C"
_symmetry_group_IT_number 15
_symmetry_cell_setting 'monoclinic'
loop_
_space_group_symop_operation_xyz
x,y,z
-x,y,1/2-z
-x,-y,-z
x,-y,1/2+z
1/2+x,1/2+y,z
1/2-x,1/2+y,1/2-z
1/2-x,1/2-y,-z
1/2+x,1/2-y,1/2+z
loop_
_atom_site_type_symbol
_atom_site_label
_atom_site_fract_x
_atom_site_fract_y
_atom_site_fract_z
Si Si1 0.139083 0.455645 0.791509
Si Si2 0.924092 0.385087 0.007122
Si Si3 0.892462 0.740219 0.550494
Si Si4 0.917515 0.154851 0.891686
Si Si5 0.801610 0.578888 0.669580
Si Si6 0.130734 0.890372 0.405078
O O1 0.116866 0.411916 0.660222
O O2 0.205157 0.513493 0.794124
O O3 0.000000 0.471024 0.750000
O O4 0.238029 0.427442 0.973703
O O5 0.892710 0.319396 0.980032
O O6 0.837251 0.416779 0.046825
O O7 0.083219 0.390813 0.155873
O O8 0.750000 0.750000 0.500000
O O9 0.917743 0.785145 0.458694
O O10 0.000000 0.743988 0.750000
O O11 0.841253 0.108624 0.919320
O O12 0.844404 0.155517 0.691332
O O13 0.076416 0.138601 0.995528
O O14 0.000000 0.927129 0.250000
#
# Coordination Sequence:
#
# PCOD8151822 Si02
#       6
#     8   8   8   8   8   8
#     4  12  24  39  69  93 127 169 216 260 314 383
#     4  11  23  38  61 103 124 162 215 258 325 364
#     4  12  23  40  68  92 126 165 209 266 314 371
#     4   9  21  42  64  84 134 165 209 257 319 374
#     4  11  21  41  64  95 128 168 203 275 312 371
#     4   8  23  43  61  88 131 171 203 257 322 380
#
# _framework density 19.591321000000001
#
# number of rings (size 3 to 8) (size 9 to 14) (size 15 to 20)
#    1.000    0.333    5.000    1.500    4.667    0.667 
#    3.000    1.667    0.000    0.000    0.000    0.000 
#    0.000    0.000    0.000    0.000    0.000    0.000 
#
# Total GULP energy -297372.066709 kJ/mol
# GULP energy per Si atom -12390.502780 kJ/mol
# Density = 1.954673 g / cm^3
# Si number density = 19.591321 Si / 1000 Ang^3
#
#
#
# Elastic Constant Matrix: (Units=GPa)
#
#
# Indices 1 2 3 4 5 6 
#
# 1 80.6620 38.3839 19.0473 0.0000 -6.5624 0.0000
# 2 38.3839 154.3168 40.4136 0.0000 -7.3178 0.0000
# 3 19.0473 40.4136 71.8223 0.0000 -4.1589 0.0000
# 4 0.0000 0.0000 0.0000 33.0855 0.0000 -3.0840
# 5 -6.5624 -7.3178 -4.1589 0.0000 19.1323 0.0000
# 6 0.0000 0.0000 0.0000 -3.0840 0.0000 21.8368
#
#
#
# Elastic Compliance Matrix: (Units=1/GPa)
#
#
# Indices 1 2 3 4 5 6 
#
# 1 0.014545 -0.002929 -0.002011 0.000000 0.003432 0.000000
# 2 -0.002929 0.008266 -0.003798 0.000000 0.001332 0.000000
# 3 -0.002011 -0.003798 0.016679 0.000000 0.001483 0.000000
# 4 0.000000 0.000000 0.000000 0.030628 0.000000 0.004326
# 5 0.003432 0.001332 0.001483 0.000000 0.054277 0.000000
# 6 0.000000 0.000000 0.000000 0.004326 0.000000 0.046405
#
#
# Mechanical properties :
#
#
# Convention : Reuss Voigt Hill
#
# Bulk Modulus (GPa) = 45.41986 55.83228 50.62607
# Shear Modulus (GPa) = 25.56070 28.74135 27.15103
#
# Velocity S-wave (km/s) = 3.61597 3.83436 3.72677
# Velocity P-wave (km/s) = 6.37712 6.93999 6.66450
#
# Compressibility (1/GPa) = 0.02201680
#
# Stress axis : x y z
#
# Youngs Moduli (GPa) = 68.75224 120.97338 59.95472
#
# Poissons Ratio (x) = 0.35427 0.12056
# Poissons Ratio (y) = 0.20134 0.22768
# Poissons Ratio (z) = 0.13825 0.45941
#
# Static dielectric constant tensor:
#      x y z
#    x 3.724840 0.000000 -0.014260 
#    y 0.000000 3.735420 0.000000 
#    z -0.014260 0.000000 3.444530 
# 
# 
# High freq. dielectric constant tensor:
#      x y z
#    x 1.775410 0.000000 -0.003630 
#    y 0.000000 1.752470 0.000000 
#    z -0.003630 0.000000 1.751270 
# 
# From -- ./inp_files/89161.got.cif
#   From: 2010.06.25/outbox.cif.g09.slc.cpg/sg15_45_cif.got.tgz:89161.got - 2010.06.28 07:06:18.
