data_PCOD8151595
_publ_section_title
;
Structure prediction by ZEFSAII (Michael W. Deem and Ramdas Pophale) SiO2 
 PCOD8151595
Probable space group: C 2/C
;
_chemical_formula_sum "Si O2"
_cell_formula_units_Z 64
_cell_length_a 22.656062
_cell_length_b 9.603346
_cell_length_c 29.315303
_cell_angle_alpha 90.000000
_cell_angle_beta 150.688422
_cell_angle_gamma 90.000000
_cell_volume 3122.526477
_symmetry_space_group_name_H-M "C 2/C"
_symmetry_group_IT_number 15
_symmetry_cell_setting 'monoclinic'
loop_
_space_group_symop_operation_xyz
x,y,z
-x,y,1/2-z
-x,-y,-z
x,-y,1/2+z
1/2+x,1/2+y,z
1/2-x,1/2+y,1/2-z
1/2-x,1/2-y,-z
1/2+x,1/2-y,1/2+z
loop_
_atom_site_type_symbol
_atom_site_label
_atom_site_fract_x
_atom_site_fract_y
_atom_site_fract_z
Si Si1 0.918802 0.180632 0.026949
Si Si2 0.375881 0.377951 0.961501
Si Si3 0.694546 0.354208 0.866039
Si Si4 0.322653 0.374984 0.822698
Si Si5 0.390597 0.672850 0.841733
Si Si6 0.988819 0.168738 0.672087
Si Si7 0.466161 0.344431 0.660745
Si Si8 0.309725 0.318654 0.123250
O O1 0.922707 0.210255 0.083272
O O2 0.053293 0.210436 0.099430
O O3 0.823886 0.287679 0.941786
O O4 0.876130 0.024784 0.987537
O O5 0.309785 0.394913 0.868399
O O6 0.311074 0.267741 0.950444
O O7 0.517373 0.326891 0.052673
O O8 0.605435 0.303766 0.765214
O O9 0.631947 0.289156 0.869074
O O10 0.717281 0.518286 0.887496
O O11 0.326696 0.520972 0.797741
O O12 0.210967 0.290935 0.725717
O O13 0.481419 0.698333 0.860400
O O14 0.862882 0.226202 0.608965
O O15 0.097368 0.230015 0.775153
O O16 0.972453 0.007985 0.670394
#
# Coordination Sequence:
#
# PCOD8151595 Si02
#       8
#     8   8   8   8   8   8   8   8
#     4  11  21  37  60  85 121 158 192 243 305 346
#     4  11  23  41  59  89 121 154 195 248 300 354
#     4   9  20  35  61  90 115 154 199 243 288 356
#     4  11  25  42  61  87 118 159 203 244 291 354
#     4  11  22  42  64  84 119 161 200 243 298 350
#     4   9  16  37  63  85 113 161 192 238 295 355
#     4   9  17  36  60  84 118 156 194 234 299 355
#     4   9  19  36  64  87 118 151 199 243 293 356
#
# _framework density 20.496224000000002
#
# number of rings (size 3 to 8) (size 9 to 14) (size 15 to 20)
#    0.000    2.000    3.750    3.375    0.000    3.500 
#    0.000    3.750    2.750    0.000    0.000    0.000 
#    0.000    0.000    0.000    0.000    0.000    0.000 
#
# Total GULP energy -396433.755659 kJ/mol
# GULP energy per Si atom -12388.554864 kJ/mol
# Density = 2.044957 g / cm^3
# Si number density = 20.496224 Si / 1000 Ang^3
#
#
#
# Elastic Constant Matrix: (Units=GPa)
#
#
# Indices 1 2 3 4 5 6 
#
# 1 64.7629 24.3914 11.2822 0.0001 6.8830 0.0004
# 2 24.3914 58.8152 32.2750 -0.0003 17.8010 0.0005
# 3 11.2822 32.2750 71.7318 -0.0009 12.0617 0.0005
# 4 0.0001 -0.0003 -0.0009 37.1232 -0.0002 9.3793
# 5 6.8830 17.8010 12.0617 -0.0002 36.1865 0.0001
# 6 0.0004 0.0005 0.0005 9.3793 0.0001 21.0040
#
#
#
# Elastic Compliance Matrix: (Units=1/GPa)
#
#
# Indices 1 2 3 4 5 6 
#
# 1 0.018328 -0.008061 0.000703 0.000000 0.000245 0.000000
# 2 -0.008061 0.028664 -0.010081 0.000000 -0.009207 0.000000
# 3 0.000703 -0.010081 0.018597 0.000000 -0.001373 0.000000
# 4 0.000000 0.000000 0.000000 0.030363 0.000000 -0.013558
# 5 0.000245 -0.009207 -0.001373 0.000000 0.032575 0.000000
# 6 0.000000 0.000000 0.000000 -0.013558 0.000000 0.053664
#
#
# Mechanical properties :
#
#
# Convention : Reuss Voigt Hill
#
# Bulk Modulus (GPa) = 32.56108 36.80080 34.68094
# Shear Modulus (GPa) = 21.99672 27.35349 24.67511
#
# Velocity S-wave (km/s) = 3.27954 3.65713 3.47347
# Velocity P-wave (km/s) = 5.50103 5.98554 5.74839
#
# Compressibility (1/GPa) = 0.03071152
#
# Stress axis : x y z
#
# Youngs Moduli (GPa) = 54.56016 34.88707 53.77198
#
# Poissons Ratio (x) = 0.28122 -0.03780
# Poissons Ratio (y) = 0.43980 0.54208
# Poissons Ratio (z) = -0.03836 0.35170
#
# Static dielectric constant tensor:
#      x y z
#    x 3.967190 0.000000 -0.035640 
#    y 0.000000 3.299710 0.000000 
#    z -0.035640 0.000000 3.884940 
# 
# 
# High freq. dielectric constant tensor:
#      x y z
#    x 1.806390 0.000000 0.001330 
#    y 0.000000 1.760760 0.000000 
#    z 0.001330 0.000000 1.809630 
# 
# From -- ./inp_files/318645.got.cif
#   From: 2010.06.25/outbox.cif.g09.slc.cpg/sg15_160_cif.got.tgz:318645.got - 2010.06.28 07:06:18.
