data_PCOD8151151
_publ_section_title
;
Structure prediction by ZEFSAII (Michael W. Deem and Ramdas Pophale) SiO2 
 PCOD8151151
Probable space group: C 2/C
;
_chemical_formula_sum "Si O2"
_cell_formula_units_Z 56
_cell_length_a 8.873309
_cell_length_b 25.273149
_cell_length_c 11.452858
_cell_angle_alpha 90.000000
_cell_angle_beta 70.200417
_cell_angle_gamma 90.000000
_cell_volume 2416.543233
_symmetry_space_group_name_H-M "C 2/C"
_symmetry_group_IT_number 15
_symmetry_cell_setting 'monoclinic'
loop_
_space_group_symop_operation_xyz
x,y,z
-x,y,1/2-z
-x,-y,-z
x,-y,1/2+z
1/2+x,1/2+y,z
1/2-x,1/2+y,1/2-z
1/2-x,1/2-y,-z
1/2+x,1/2-y,1/2+z
loop_
_atom_site_type_symbol
_atom_site_label
_atom_site_fract_x
_atom_site_fract_y
_atom_site_fract_z
Si Si1 0.634680 0.496184 0.619100
Si Si2 0.671291 0.340126 0.766753
Si Si3 0.547238 0.416096 0.969876
Si Si4 0.402328 0.946592 0.163742
Si Si5 0.412961 0.145215 0.998305
Si Si6 0.124252 0.724366 0.824229
Si Si7 0.304290 0.358777 0.163715
O O1 0.500000 0.509761 0.750000
O O2 0.601158 0.437720 0.573963
O O3 0.631970 0.535536 0.510235
O O4 0.812866 0.503103 0.626883
O O5 0.500000 0.344063 0.750000
O O6 0.681499 0.387760 0.856830
O O7 0.825023 0.348271 0.644872
O O8 0.675571 0.284501 0.836174
O O9 0.485153 0.373958 0.082203
O O10 0.500000 0.968189 0.250000
O O11 0.507908 0.913088 0.042569
O O12 0.267548 0.907919 0.248060
O O13 0.543286 0.193182 0.954302
O O14 0.283529 0.154252 0.933197
O O15 0.288571 0.693541 0.746676
O O16 0.000000 0.721591 0.750000
#
# Coordination Sequence:
#
# PCOD8151151 Si02
#       7
#     8   8   8   8   8   8   8
#     4  11  23  41  65  90 126 177 221 264 325 388
#     4  11  20  31  57  91 130 173 206 275 323 372
#     4  11  23  36  61  95 128 165 225 265 315 389
#     4   9  19  40  67  89 117 171 216 268 322 379
#     4   9  18  33  54  88 129 158 214 269 316 382
#     4   8  18  29  53  89 128 167 214 257 328 379
#     4   9  16  34  57  88 120 162 209 263 305 389
#
# _framework density 23.173596
#
# number of rings (size 3 to 8) (size 9 to 14) (size 15 to 20)
#    0.000    2.286    2.857    2.143    2.000    1.714 
#    0.000    3.571    0.000    3.429    7.429    0.000 
#    0.000    0.000   22.857    0.000    0.000    0.000 
#
# Total GULP energy -346929.745996 kJ/mol
# GULP energy per Si atom -12390.348071 kJ/mol
# Density = 2.312085 g / cm^3
# Si number density = 23.173596 Si / 1000 Ang^3
#
#
#
# Elastic Constant Matrix: (Units=GPa)
#
#
# Indices 1 2 3 4 5 6 
#
# 1 61.7866 28.7438 27.8579 0.0000 -6.2012 0.0000
# 2 28.7438 116.0601 60.6772 0.0000 -8.9497 0.0000
# 3 27.8579 60.6772 135.9742 0.0000 -38.0816 0.0000
# 4 0.0000 0.0000 0.0000 30.6928 0.0000 -2.6523
# 5 -6.2012 -8.9497 -38.0816 0.0000 31.2217 0.0000
# 6 0.0000 0.0000 0.0000 -2.6523 0.0000 16.4718
#
#
#
# Elastic Compliance Matrix: (Units=1/GPa)
#
#
# Indices 1 2 3 4 5 6 
#
# 1 0.018837 -0.003442 -0.002357 0.000000 -0.000120 0.000000
# 2 -0.003442 0.012279 -0.006045 0.000000 -0.004537 0.000000
# 3 -0.002357 -0.006045 0.015064 0.000000 0.016173 0.000000
# 4 0.000000 0.000000 0.000000 0.033041 0.000000 0.005320
# 5 -0.000120 -0.004537 0.016173 0.000000 0.050431 0.000000
# 6 0.000000 0.000000 0.000000 0.005320 0.000000 0.061566
#
#
# Mechanical properties :
#
#
# Convention : Reuss Voigt Hill
#
# Bulk Modulus (GPa) = 44.45950 60.93097 52.69523
# Shear Modulus (GPa) = 22.48165 28.78006 25.63086
#
# Velocity S-wave (km/s) = 3.11809 3.52793 3.32932
# Velocity P-wave (km/s) = 5.67365 6.55328 6.12926
#
# Compressibility (1/GPa) = 0.02249238
#
# Stress axis : x y z
#
# Youngs Moduli (GPa) = 53.08798 81.43840 66.38270
#
# Poissons Ratio (x) = 0.28034 0.15644
# Poissons Ratio (y) = 0.18274 0.40127
# Poissons Ratio (z) = 0.12511 0.49228
#
# Static dielectric constant tensor:
#      x y z
#    x 3.737980 0.000000 -0.118900 
#    y 0.000000 4.408820 0.000000 
#    z -0.118900 0.000000 4.466600 
# 
# 
# High freq. dielectric constant tensor:
#      x y z
#    x 1.864460 0.000000 -0.020790 
#    y 0.000000 1.914310 0.000000 
#    z -0.020790 0.000000 1.917380 
# 
# From -- ./inp_files/81238.got.cif
#   From: 2010.06.25/outbox.cif.g09.slc.cpg/sg15_41_cif.got.tgz:81238.got - 2010.06.28 07:06:18.
