data_PCOD8151292
_publ_section_title
;
Structure prediction by ZEFSAII (Michael W. Deem and Ramdas Pophale) SiO2 
 PCOD8151292
Probable space group: C 2/C
;
_chemical_formula_sum "Si O2"
_cell_formula_units_Z 32
_cell_length_a 13.330344
_cell_length_b 7.426183
_cell_length_c 18.467237
_cell_angle_alpha 90.000000
_cell_angle_beta 44.096884
_cell_angle_gamma 90.000000
_cell_volume 1272.153084
_symmetry_space_group_name_H-M "C 2/C"
_symmetry_group_IT_number 15
_symmetry_cell_setting 'monoclinic'
loop_
_space_group_symop_operation_xyz
x,y,z
-x,y,1/2-z
-x,-y,-z
x,-y,1/2+z
1/2+x,1/2+y,z
1/2-x,1/2+y,1/2-z
1/2-x,1/2-y,-z
1/2+x,1/2-y,1/2+z
loop_
_atom_site_type_symbol
_atom_site_label
_atom_site_fract_x
_atom_site_fract_y
_atom_site_fract_z
Si Si1 0.292504 0.050642 0.149417
Si Si2 0.136949 0.678226 0.634728
Si Si3 0.399935 0.115380 0.454181
Si Si4 0.491979 0.527419 0.839641
O O1 0.258563 0.242577 0.126682
O O2 0.432401 0.061538 0.126622
O O3 0.162846 0.988089 0.270888
O O4 0.318637 0.900651 0.073041
O O5 0.000000 0.609156 0.750000
O O6 0.183276 0.511125 0.560650
O O7 0.088537 0.838373 0.604473
O O8 0.397893 0.321830 0.429017
O O9 0.500000 0.563774 0.750000
#
# Coordination Sequence:
#
# PCOD8151292 Si02
#       4
#     8   8   8   8
#     4   9  22  37  57  92 117 145 212 240 279 383
#     4   9  20  38  56  86 119 154 196 242 293 354
#     4  11  20  38  62  82 118 164 184 247 314 331
#     4   9  21  38  55  85 114 149 201 242 285 362
#
# _framework density 25.154207
#
# number of rings (size 3 to 8) (size 9 to 14) (size 15 to 20)
#    0.000    3.000    0.000    1.500    7.000    4.000 
#    0.000   10.000    0.000    0.000    0.000    0.000 
#    0.000    0.000    0.000    0.000    0.000    0.000 
#
# Total GULP energy -198242.300899 kJ/mol
# GULP energy per Si atom -12390.143806 kJ/mol
# Density = 2.509695 g / cm^3
# Si number density = 25.154207 Si / 1000 Ang^3
#
#
#
# Elastic Constant Matrix: (Units=GPa)
#
#
# Indices 1 2 3 4 5 6 
#
# 1 57.4936 26.9718 0.2710 0.0000 -5.6406 0.0000
# 2 26.9718 133.1270 30.4004 0.0000 2.7916 0.0001
# 3 0.2710 30.4004 23.3880 0.0000 -16.6214 0.0000
# 4 0.0000 0.0000 0.0000 26.1964 0.0000 -10.7895
# 5 -5.6406 2.7916 -16.6214 0.0000 31.7426 0.0000
# 6 0.0000 0.0001 0.0000 -10.7895 0.0000 18.5936
#
#
#
# Elastic Compliance Matrix: (Units=1/GPa)
#
#
# Indices 1 2 3 4 5 6 
#
# 1 0.025894 -0.013522 0.034070 0.000000 0.023631 0.000000
# 2 -0.013522 0.022748 -0.051828 0.000000 -0.031542 0.000000
# 3 0.034070 -0.051828 0.186779 0.000000 0.108415 0.000000
# 4 0.000000 0.000000 0.000000 0.050162 0.000000 0.029108
# 5 0.023631 -0.031542 0.108415 0.000000 0.095246 0.000000
# 6 0.000000 0.000000 0.000000 0.029108 0.000000 0.070672
#
#
# Mechanical properties :
#
#
# Convention : Reuss Voigt Hill
#
# Bulk Modulus (GPa) = 5.78499 36.58833 21.18666
# Shear Modulus (GPa) = 8.74613 25.73090 17.23852
#
# Velocity S-wave (km/s) = 1.86670 3.20179 2.62069
# Velocity P-wave (km/s) = 2.63645 5.31468 4.19504
#
# Compressibility (1/GPa) = 0.17286115
#
# Stress axis : x y z
#
# Youngs Moduli (GPa) = 38.61825 43.96008 5.35392
#
# Poissons Ratio (x) = 0.59442 -0.18241
# Poissons Ratio (y) = 0.52219 0.27748
# Poissons Ratio (z) = -1.31572 2.27837
#
# Static dielectric constant tensor:
#      x y z
#    x 4.552730 0.000000 -0.546340 
#    y 0.000000 4.383140 0.000000 
#    z -0.546340 0.000000 4.723280 
# 
# 
# High freq. dielectric constant tensor:
#      x y z
#    x 1.984070 0.000000 -0.034840 
#    y 0.000000 1.982020 0.000000 
#    z -0.034840 0.000000 2.021270 
# 
# From -- ./inp_files/125801.got.cif
#   From: 2010.06.25/outbox.cif.g09.slc.cpg/sg15_63_cif.got.tgz:125801.got - 2010.06.28 07:06:18.
