data_PCOD8151895
_publ_section_title
;
Structure prediction by ZEFSAII (Michael W. Deem and Ramdas Pophale) SiO2 
 PCOD8151895
Probable space group: C 2/C
;
_chemical_formula_sum "Si O2"
_cell_formula_units_Z 48
_cell_length_a 17.660230
_cell_length_b 9.214003
_cell_length_c 14.396830
_cell_angle_alpha 90.000000
_cell_angle_beta 79.206897
_cell_angle_gamma 90.000000
_cell_volume 2301.230163
_symmetry_space_group_name_H-M "C 2/C"
_symmetry_group_IT_number 15
_symmetry_cell_setting 'monoclinic'
loop_
_space_group_symop_operation_xyz
x,y,z
-x,y,1/2-z
-x,-y,-z
x,-y,1/2+z
1/2+x,1/2+y,z
1/2-x,1/2+y,1/2-z
1/2-x,1/2-y,-z
1/2+x,1/2-y,1/2+z
loop_
_atom_site_type_symbol
_atom_site_label
_atom_site_fract_x
_atom_site_fract_y
_atom_site_fract_z
Si Si1 0.849076 0.480908 0.285989
Si Si2 0.960298 0.155572 0.506020
Si Si3 0.442080 0.249690 0.674043
Si Si4 0.182558 0.033243 0.251473
Si Si5 0.677781 0.272550 0.579234
Si Si6 0.922273 0.776070 0.222447
O O1 0.883545 0.385235 0.193852
O O2 0.759497 0.519965 0.294478
O O3 0.856253 0.382833 0.377692
O O4 0.902869 0.622394 0.275125
O O5 0.882891 0.135158 0.465060
O O6 0.938357 0.230009 0.608415
O O7 0.013742 0.264717 0.433673
O O8 0.000000 0.000000 0.500000
O O9 0.500000 0.258998 0.750000
O O10 0.389433 0.394258 0.678234
O O11 0.205180 0.128946 0.158160
O O12 0.151576 0.873406 0.234142
O O13 0.750000 0.250000 0.500000
O O14 0.000000 0.838882 0.250000
#
# Coordination Sequence:
#
# PCOD8151895 Si02
#       6
#     8   8   8   8   8   8
#     4  11  24  42  65  95 139 172 209 279 347 388
#     4  12  23  41  73  98 126 180 235 273 320 409
#     4  11  21  43  69  94 131 179 225 269 329 403
#     4  11  21  42  67  94 132 174 221 270 325 397
#     4  11  24  44  69  96 131 181 230 269 334 409
#     4  12  25  42  65 100 135 167 224 286 339 391
#
# _framework density 20.858409000000002
#
# number of rings (size 3 to 8) (size 9 to 14) (size 15 to 20)
#    0.000    0.667    5.000    6.000    0.000    0.667 
#    3.000    0.833    0.000    0.000    0.000    0.000 
#    0.000    0.000    0.000    0.000    0.000    0.000 
#
# Total GULP energy -297498.077177 kJ/mol
# GULP energy per Si atom -12395.753216 kJ/mol
# Density = 2.081093 g / cm^3
# Si number density = 20.858409 Si / 1000 Ang^3
#
#
#
# Elastic Constant Matrix: (Units=GPa)
#
#
# Indices 1 2 3 4 5 6 
#
# 1 121.2638 21.2494 26.0861 0.0000 -0.0692 0.0000
# 2 21.2494 90.7861 28.5920 0.0000 -12.3231 0.0000
# 3 26.0861 28.5920 105.5289 0.0000 -21.3004 0.0000
# 4 0.0000 0.0000 0.0000 20.0580 0.0000 0.2401
# 5 -0.0692 -12.3231 -21.3004 0.0000 47.3741 0.0000
# 6 0.0000 0.0000 0.0000 0.2401 0.0000 32.2135
#
#
#
# Elastic Compliance Matrix: (Units=1/GPa)
#
#
# Indices 1 2 3 4 5 6 
#
# 1 0.008972 -0.001637 -0.002043 0.000000 -0.001331 0.000000
# 2 -0.001637 0.012488 -0.002555 0.000000 0.002097 0.000000
# 3 -0.002043 -0.002555 0.011591 0.000000 0.004544 0.000000
# 4 0.000000 0.000000 0.000000 0.049860 0.000000 -0.000372
# 5 -0.001331 0.002097 0.004544 0.000000 0.023695 0.000000
# 6 0.000000 0.000000 0.000000 -0.000372 0.000000 0.031046
#
#
# Mechanical properties :
#
#
# Convention : Reuss Voigt Hill
#
# Bulk Modulus (GPa) = 48.59352 52.15933 50.37642
# Shear Modulus (GPa) = 31.85086 36.03922 33.94504
#
# Velocity S-wave (km/s) = 3.91193 4.16119 4.03848
# Velocity P-wave (km/s) = 6.61450 6.93888 6.77863
#
# Compressibility (1/GPa) = 0.02057888
#
# Stress axis : x y z
#
# Youngs Moduli (GPa) = 111.45637 80.07971 86.27716
#
# Poissons Ratio (x) = 0.13112 0.17626
# Poissons Ratio (y) = 0.18249 0.22047
# Poissons Ratio (z) = 0.22770 0.20463
#
# Static dielectric constant tensor:
#      x y z
#    x 3.951000 0.000000 -0.214870 
#    y 0.000000 3.838490 0.000000 
#    z -0.214870 0.000000 3.851000 
# 
# 
# High freq. dielectric constant tensor:
#      x y z
#    x 1.838480 0.000000 -0.016490 
#    y 0.000000 1.816300 0.000000 
#    z -0.016490 0.000000 1.802460 
# 
# From -- ./inp_files/159718.got.cif
#   From: 2010.06.25/outbox.cif.g09.slc.cpg/sg15_80_cif.got.tgz:159718.got - 2010.06.28 07:06:18.
