data_PCOD8151911
_publ_section_title
;
Structure prediction by ZEFSAII (Michael W. Deem and Ramdas Pophale) SiO2 
 PCOD8151911
Probable space group: C 2/C
;
_chemical_formula_sum "Si O2"
_cell_formula_units_Z 52
_cell_length_a 19.595473
_cell_length_b 13.904746
_cell_length_c 18.248217
_cell_angle_alpha 90.000000
_cell_angle_beta 149.290233
_cell_angle_gamma 90.000000
_cell_volume 2539.195646
_symmetry_space_group_name_H-M "C 2/C"
_symmetry_group_IT_number 15
_symmetry_cell_setting 'monoclinic'
loop_
_space_group_symop_operation_xyz
x,y,z
-x,y,1/2-z
-x,-y,-z
x,-y,1/2+z
1/2+x,1/2+y,z
1/2-x,1/2+y,1/2-z
1/2-x,1/2-y,-z
1/2+x,1/2-y,1/2+z
loop_
_atom_site_type_symbol
_atom_site_label
_atom_site_fract_x
_atom_site_fract_y
_atom_site_fract_z
Si Si1 0.227971 0.964134 0.914037
Si Si2 0.759124 0.340922 0.360738
Si Si3 0.000000 0.839195 0.750000
Si Si4 0.119255 0.495541 0.308785
Si Si5 0.023689 0.293733 0.689211
Si Si6 0.164199 0.666061 0.733669
Si Si7 0.615187 0.216125 0.980137
O O1 0.089419 0.906171 0.780266
O O2 0.220940 0.055204 0.855597
O O3 0.348955 0.894967 0.001106
O O4 0.250808 0.000785 0.018694
O O5 0.629230 0.273744 0.245817
O O6 0.796630 0.360294 0.311874
O O7 0.882072 0.291552 0.516843
O O8 0.100096 0.772628 0.889280
O O9 0.081100 0.598927 0.241933
O O10 0.153006 0.429896 0.271121
O O11 0.000000 0.454515 0.250000
O O12 0.000000 0.256354 0.750000
O O13 0.023080 0.721088 0.603168
O O14 0.271994 0.736710 0.866966
#
# Coordination Sequence:
#
# PCOD8151911 Si02
#       7
#     8   8   4   8   8   8   8
#     4  12  24  42  70 102 134 176 229 274 338 405
#     4  12  27  44  68 104 135 185 224 280 344 396
#     4  12  24  40  72 106 130 174 222 286 334 400
#     4  11  21  42  69  95 125 174 231 276 323 402
#     4  11  24  46  72  96 132 181 239 279 326 395
#     4  12  25  42  67 101 143 176 220 281 346 408
#     4  12  23  42  68 100 140 174 221 274 343 407
#
# _framework density 20.478926000000001
#
# number of rings (size 3 to 8) (size 9 to 14) (size 15 to 20)
#    0.000    0.308    7.692    2.769    1.077    3.692 
#    0.000    0.769    0.000    0.000    0.000    0.000 
#    0.000    0.000    0.000    0.000    0.000    0.000 
#
# Total GULP energy -322503.509417 kJ/mol
# GULP energy per Si atom -12403.981131 kJ/mol
# Density = 2.043231 g / cm^3
# Si number density = 20.478926 Si / 1000 Ang^3
#
#
#
# Elastic Constant Matrix: (Units=GPa)
#
#
# Indices 1 2 3 4 5 6 
#
# 1 138.8149 51.5379 30.8866 0.0010 -6.8877 0.0016
# 2 51.5379 90.3545 27.8905 0.0008 7.3341 0.0013
# 3 30.8866 27.8905 63.2205 0.0021 9.5755 0.0033
# 4 0.0010 0.0008 0.0021 18.6467 0.0011 -3.4691
# 5 -6.8877 7.3341 9.5755 0.0011 35.9926 0.0017
# 6 0.0016 0.0013 0.0033 -3.4691 0.0017 1.8906
#
#
#
# Elastic Compliance Matrix: (Units=1/GPa)
#
#
# Indices 1 2 3 4 5 6 
#
# 1 0.009966 -0.004992 -0.003240 -0.000001 0.003786 -0.000005
# 2 -0.004992 0.015359 -0.003874 0.000001 -0.003054 0.000005
# 3 -0.003240 -0.003874 0.019886 -0.000009 -0.005121 -0.000042
# 4 -0.000001 0.000001 -0.000009 0.081426 -0.000007 0.149412
# 5 0.003786 -0.003054 -0.005121 -0.000007 0.030493 -0.000033
# 6 -0.000005 0.000005 -0.000042 0.149412 -0.000033 0.803104
#
#
# Mechanical properties :
#
#
# Convention : Reuss Voigt Hill
#
# Bulk Modulus (GPa) = 47.62463 57.00219 52.31341
# Shear Modulus (GPa) = 5.04315 23.44430 14.24372
#
# Velocity S-wave (km/s) = 1.57097 3.38716 2.64015
# Velocity P-wave (km/s) = 5.15718 6.57207 5.90714
#
# Compressibility (1/GPa) = 0.02099754
#
# Stress axis : x y z
#
# Youngs Moduli (GPa) = 100.34196 65.11021 50.28784
#
# Poissons Ratio (x) = 0.32501 0.16294
# Poissons Ratio (y) = 0.50087 0.19483
# Poissons Ratio (z) = 0.32513 0.25226
#
# Static dielectric constant tensor:
#      x y z
#    x 3.942470 0.000000 -0.068190 
#    y 0.000000 3.650770 0.000000 
#    z -0.068190 0.000000 3.963500 
# 
# 
# High freq. dielectric constant tensor:
#      x y z
#    x 1.794140 0.000000 0.008470 
#    y 0.000000 1.803860 0.000000 
#    z 0.008470 0.000000 1.812580 
# 
# From -- ./inp_files/215612.got.cif
#   From: 2010.06.25/outbox.cif.g09.slc.cpg/sg15_108_cif.got.tgz:215612.got - 2010.06.28 07:06:18.
