data_PCOD8151197
_publ_section_title
;
Structure prediction by ZEFSAII (Michael W. Deem and Ramdas Pophale) SiO2 
 PCOD8151197
Probable space group: C 2/C
;
_chemical_formula_sum "Si O2"
_cell_formula_units_Z 60
_cell_length_a 23.687405
_cell_length_b 21.622173
_cell_length_c 12.422773
_cell_angle_alpha 90.000000
_cell_angle_beta 148.888419
_cell_angle_gamma 90.000000
_cell_volume 3287.601784
_symmetry_space_group_name_H-M "C 2/C"
_symmetry_group_IT_number 15
_symmetry_cell_setting 'monoclinic'
loop_
_space_group_symop_operation_xyz
x,y,z
-x,y,1/2-z
-x,-y,-z
x,-y,1/2+z
1/2+x,1/2+y,z
1/2-x,1/2+y,1/2-z
1/2-x,1/2-y,-z
1/2+x,1/2-y,1/2+z
loop_
_atom_site_type_symbol
_atom_site_label
_atom_site_fract_x
_atom_site_fract_y
_atom_site_fract_z
Si Si1 0.302980 0.702359 0.362937
Si Si2 0.589061 0.749674 0.612391
Si Si3 0.920328 0.026134 0.783562
Si Si4 0.350250 0.291700 0.696248
Si Si5 0.877102 0.905742 0.584465
Si Si6 0.000000 0.880532 0.250000
Si Si7 0.106295 0.687786 0.370138
Si Si8 0.198323 0.882165 0.270217
O O1 0.171776 0.703876 0.180880
O O2 0.326387 0.686181 0.278154
O O3 0.385675 0.657973 0.564580
O O4 0.338493 0.771418 0.446560
O O5 0.463133 0.748008 0.365311
O O6 0.589035 0.772681 0.734828
O O7 0.622862 0.677928 0.665745
O O8 0.828275 0.059304 0.701255
O O9 0.994580 0.075719 0.843677
O O10 0.866491 0.973855 0.619415
O O11 0.000000 0.000000 0.000000
O O12 0.250000 0.250000 0.500000
O O13 0.346154 0.353095 0.618329
O O14 0.800334 0.900934 0.353795
O O15 0.000000 0.893658 0.750000
O O16 0.184018 0.629582 0.484808
O O17 0.000000 0.659906 0.250000
#
# Coordination Sequence:
#
# PCOD8151197 Si02
#       8
#     8   8   8   8   8   4   8   8
#     4  11  21  34  55  86 123 155 191 244 287 357
#     4  11  21  37  56  88 126 155 197 245 300 353
#     4  12  21  36  57  85 117 152 197 243 297 349
#     4  12  24  37  59  86 120 160 194 240 300 367
#     4  12  23  39  57  87 121 155 195 247 302 361
#     4  12  20  34  56  90 118 152 192 238 298 340
#     4  11  20  35  58  87 118 156 200 238 293 355
#     4  11  22  37  58  84 119 157 191 248 299 352
#
# _framework density 18.250387
#
# number of rings (size 3 to 8) (size 9 to 14) (size 15 to 20)
#    0.000    0.533    5.333    6.400    0.000    0.000 
#    0.000    0.000    0.000    0.800    6.933    0.000 
#    0.000    0.000    0.000    0.000    0.000    0.000 
#
# Total GULP energy -371662.636208 kJ/mol
# GULP energy per Si atom -12388.754540 kJ/mol
# Density = 1.820885 g / cm^3
# Si number density = 18.250387 Si / 1000 Ang^3
#
#
#
# Elastic Constant Matrix: (Units=GPa)
#
#
# Indices 1 2 3 4 5 6 
#
# 1 118.5182 51.6298 42.9170 0.0000 4.2949 0.0000
# 2 51.6298 100.8903 45.4390 0.0000 6.3381 0.0000
# 3 42.9170 45.4390 99.3046 0.0000 17.4169 0.0000
# 4 0.0000 0.0000 0.0000 111.1339 0.0000 -39.3761
# 5 4.2949 6.3381 17.4169 0.0000 33.8341 0.0000
# 6 0.0000 0.0000 0.0000 -39.3761 0.0000 57.6564
#
#
#
# Elastic Compliance Matrix: (Units=1/GPa)
#
#
# Indices 1 2 3 4 5 6 
#
# 1 0.011497 -0.004573 -0.003046 0.000000 0.000965 0.000000
# 2 -0.004573 0.014317 -0.004624 0.000000 0.000279 0.000000
# 3 -0.003046 -0.004624 0.014600 0.000000 -0.006263 0.000000
# 4 0.000000 0.000000 0.000000 0.011871 0.000000 0.008107
# 5 0.000965 0.000279 -0.006263 0.000000 0.032605 0.000000
# 6 0.000000 0.000000 0.000000 0.008107 0.000000 0.022881
#
#
# Mechanical properties :
#
#
# Convention : Reuss Voigt Hill
#
# Bulk Modulus (GPa) = 62.77282 66.52051 64.64666
# Shear Modulus (GPa) = 36.34637 52.44005 44.39321
#
# Velocity S-wave (km/s) = 4.46751 5.36619 4.93734
# Velocity P-wave (km/s) = 7.81547 8.65579 8.24634
#
# Compressibility (1/GPa) = 0.01593046
#
# Stress axis : x y z
#
# Youngs Moduli (GPa) = 86.97596 69.84906 68.49085
#
# Poissons Ratio (x) = 0.31939 0.20862
# Poissons Ratio (y) = 0.39770 0.31667
# Poissons Ratio (z) = 0.26492 0.32295
#
# Static dielectric constant tensor:
#      x y z
#    x 3.780150 0.000000 0.062420 
#    y 0.000000 3.537780 0.000000 
#    z 0.062420 0.000000 3.589040 
# 
# 
# High freq. dielectric constant tensor:
#      x y z
#    x 1.724810 0.000000 -0.010040 
#    y 0.000000 1.691140 0.000000 
#    z -0.010040 0.000000 1.701290 
# 
# From -- ./inp_files/119990.got.cif
#   From: 2010.06.25/outbox.cif.g09.slc.cpg/sg15_60_cif.got.tgz:119990.got - 2010.06.28 07:06:18.
