data_PCOD8151883
_publ_section_title
;
Structure prediction by ZEFSAII (Michael W. Deem and Ramdas Pophale) SiO2 
 PCOD8151883
Probable space group: C 2/C
;
_chemical_formula_sum "Si O2"
_cell_formula_units_Z 36
_cell_length_a 21.229335
_cell_length_b 6.877295
_cell_length_c 14.405594
_cell_angle_alpha 90.000000
_cell_angle_beta 125.634481
_cell_angle_gamma 90.000000
_cell_volume 1709.394675
_symmetry_space_group_name_H-M "C 2/C"
_symmetry_group_IT_number 15
_symmetry_cell_setting 'monoclinic'
loop_
_space_group_symop_operation_xyz
x,y,z
-x,y,1/2-z
-x,-y,-z
x,-y,1/2+z
1/2+x,1/2+y,z
1/2-x,1/2+y,1/2-z
1/2-x,1/2-y,-z
1/2+x,1/2-y,1/2+z
loop_
_atom_site_type_symbol
_atom_site_label
_atom_site_fract_x
_atom_site_fract_y
_atom_site_fract_z
Si Si1 0.564804 0.097630 0.618207
Si Si2 0.500000 0.020737 0.750000
Si Si3 0.342700 0.590598 0.407942
Si Si4 0.676854 0.745980 0.745942
Si Si5 0.416068 0.646930 0.660857
O O1 0.592644 0.296704 0.596217
O O2 0.500000 0.000000 0.500000
O O3 0.529349 0.150891 0.689195
O O4 0.635428 0.949278 0.691013
O O5 0.430410 0.878234 0.654115
O O6 0.326525 0.381676 0.349822
O O7 0.265477 0.718030 0.348994
O O8 0.374291 0.548505 0.537910
O O9 0.637713 0.622937 0.795016
O O10 0.500000 0.545013 0.750000
#
# Coordination Sequence:
#
# PCOD8151883 Si02
#       5
#     8   4   8   8   8
#     4  11  21  42  65  89 125 167 209 256 307 373
#     4   8  18  38  60  88 120 158 206 250 310 346
#     4  12  22  42  66  91 130 163 209 260 313 380
#     4  11  24  40  63  97 124 167 207 257 323 363
#     4   9  20  40  64  88 125 166 202 259 312 365
#
# _framework density 21.060085000000001
#
# number of rings (size 3 to 8) (size 9 to 14) (size 15 to 20)
#    0.667    0.889    4.444    0.667    0.000    3.556 
#    6.000    1.111    0.000    0.000    0.000    0.000 
#    0.000    0.000    0.000    0.000    0.000    0.000 
#
# Total GULP energy -223194.016297 kJ/mol
# GULP energy per Si atom -12399.667572 kJ/mol
# Density = 2.101215 g / cm^3
# Si number density = 21.060085 Si / 1000 Ang^3
#
#
#
# Elastic Constant Matrix: (Units=GPa)
#
#
# Indices 1 2 3 4 5 6 
#
# 1 87.4600 1.2859 27.7778 0.0000 -4.6107 0.0000
# 2 1.2859 29.8441 12.3103 0.0000 -3.1191 0.0000
# 3 27.7778 12.3103 134.6438 0.0000 -3.4304 0.0000
# 4 0.0000 0.0000 0.0000 15.6664 0.0000 -1.2086
# 5 -4.6107 -3.1191 -3.4304 0.0000 36.7352 0.0000
# 6 0.0000 0.0000 0.0000 -1.2086 0.0000 30.2897
#
#
#
# Elastic Compliance Matrix: (Units=1/GPa)
#
#
# Indices 1 2 3 4 5 6 
#
# 1 0.012311 0.000671 -0.002566 0.000000 0.001362 0.000000
# 2 0.000671 0.035120 -0.003279 0.000000 0.002760 0.000000
# 3 -0.002566 -0.003279 0.008261 0.000000 0.000171 0.000000
# 4 0.000000 0.000000 0.000000 0.064028 0.000000 0.002555
# 5 0.001362 0.002760 0.000171 0.000000 0.027643 0.000000
# 6 0.000000 0.000000 0.000000 0.002555 0.000000 0.033117
#
#
# Mechanical properties :
#
#
# Convention : Reuss Voigt Hill
#
# Bulk Modulus (GPa) = 22.05489 37.18844 29.62166
# Shear Modulus (GPa) = 24.27867 30.57652 27.42759
#
# Velocity S-wave (km/s) = 3.39902 3.81448 3.61272
# Velocity P-wave (km/s) = 5.08916 6.09072 5.61233
#
# Compressibility (1/GPa) = 0.04534141
#
# Stress axis : x y z
#
# Youngs Moduli (GPa) = 81.22908 28.47417 121.05639
#
# Poissons Ratio (x) = -0.01909 0.31068
# Poissons Ratio (y) = -0.05447 0.39694
# Poissons Ratio (z) = 0.20847 0.09337
#
# Static dielectric constant tensor:
#      x y z
#    x 3.989510 0.000000 -0.002750 
#    y 0.000000 3.432150 0.000000 
#    z -0.002750 0.000000 3.719520 
# 
# 
# High freq. dielectric constant tensor:
#      x y z
#    x 1.839450 0.000000 -0.002740 
#    y 0.000000 1.794250 0.000000 
#    z -0.002740 0.000000 1.826160 
# 
# From -- ./inp_files/165905.got.cif
#   From: 2010.06.25/outbox.cif.g09.slc.cpg/sg15_83_cif.got.tgz:165905.got - 2010.06.28 07:06:18.
