data_PCOD8151683
_publ_section_title
;
Structure prediction by ZEFSAII (Michael W. Deem and Ramdas Pophale) SiO2 
 PCOD8151683
Probable space group: C 2/C
;
_chemical_formula_sum "Si O2"
_cell_formula_units_Z 44
_cell_length_a 16.892400
_cell_length_b 16.727501
_cell_length_c 11.561559
_cell_angle_alpha 90.000000
_cell_angle_beta 142.645900
_cell_angle_gamma 90.000000
_cell_volume 1982.170006
_symmetry_space_group_name_H-M "C 2/C"
_symmetry_group_IT_number 15
_symmetry_cell_setting 'monoclinic'
loop_
_space_group_symop_operation_xyz
x,y,z
-x,y,1/2-z
-x,-y,-z
x,-y,1/2+z
1/2+x,1/2+y,z
1/2-x,1/2+y,1/2-z
1/2-x,1/2-y,-z
1/2+x,1/2-y,1/2+z
loop_
_atom_site_type_symbol
_atom_site_label
_atom_site_fract_x
_atom_site_fract_y
_atom_site_fract_z
Si Si1 0.289990 0.399776 0.529474
Si Si2 0.500000 0.273608 0.750000
Si Si3 0.438854 0.849410 0.378868
Si Si4 0.633598 0.103884 0.474659
Si Si5 0.300389 0.066315 0.339968
Si Si6 0.855462 0.925231 0.068137
O O1 0.376954 0.329148 0.577387
O O2 0.161469 0.409012 0.301680
O O3 0.244977 0.377017 0.606703
O O4 0.364817 0.483565 0.623109
O O5 0.532261 0.224964 0.671132
O O6 0.381600 0.828468 0.441188
O O7 0.567607 0.898672 0.558875
O O8 0.500000 0.092772 0.250000
O O9 0.752043 0.125803 0.524893
O O10 0.672499 0.022439 0.584242
O O11 0.185921 0.072203 0.113290
O O12 0.000000 0.886992 0.250000
#
# Coordination Sequence:
#
# PCOD8151683 Si02
#       6
#     8   4   8   8   8   8
#     4  11  23  41  64  99 134 174 220 269 333 395
#     4  12  26  42  66  96 140 176 224 264 326 394
#     4  12  22  39  66  96 131 178 224 269 319 397
#     4  11  22  37  66 100 131 167 221 275 336 396
#     4  11  21  38  66  98 133 169 219 280 340 383
#     4  11  23  40  66 101 139 168 213 281 352 391
#
# _framework density 22.197893000000001
#
# number of rings (size 3 to 8) (size 9 to 14) (size 15 to 20)
#    0.000    0.727    6.364    3.273    0.000    4.364 
#    0.000    0.000    0.000    5.455    0.000    0.000 
#    0.000    0.000    0.000    0.000    0.000    0.000 
#
# Total GULP energy -272724.542331 kJ/mol
# GULP energy per Si atom -12396.570106 kJ/mol
# Density = 2.214737 g / cm^3
# Si number density = 22.197893 Si / 1000 Ang^3
#
#
#
# Elastic Constant Matrix: (Units=GPa)
#
#
# Indices 1 2 3 4 5 6 
#
# 1 158.4453 21.1092 78.9063 0.0000 -8.2391 0.0000
# 2 21.1092 34.0261 7.1273 0.0000 -1.1780 0.0000
# 3 78.9063 7.1273 171.4132 0.0000 -0.9438 0.0000
# 4 0.0000 0.0000 0.0000 14.9118 0.0000 0.2420
# 5 -8.2391 -1.1780 -0.9438 0.0000 49.0712 0.0000
# 6 0.0000 0.0000 0.0000 0.2420 0.0000 27.0463
#
#
#
# Elastic Compliance Matrix: (Units=1/GPa)
#
#
# Indices 1 2 3 4 5 6 
#
# 1 0.008957 -0.004690 -0.003921 0.000000 0.001316 0.000000
# 2 -0.004690 0.032126 0.000823 0.000000 0.000000 0.000000
# 3 -0.003921 0.000823 0.007602 0.000000 -0.000492 0.000000
# 4 0.000000 0.000000 0.000000 0.067071 0.000000 -0.000600
# 5 0.001316 0.000000 -0.000492 0.000000 0.020590 0.000000
# 6 0.000000 0.000000 0.000000 -0.000600 0.000000 0.036979
#
#
# Mechanical properties :
#
#
# Convention : Reuss Voigt Hill
#
# Bulk Modulus (GPa) = 30.20261 64.24113 47.22187
# Shear Modulus (GPa) = 25.00775 35.32197 30.16486
#
# Velocity S-wave (km/s) = 3.36010 3.99335 3.69033
# Velocity P-wave (km/s) = 5.35624 7.08982 6.28310
#
# Compressibility (1/GPa) = 0.03310972
#
# Stress axis : x y z
#
# Youngs Moduli (GPa) = 111.64092 31.12700 131.54643
#
# Poissons Ratio (x) = 0.14599 0.51580
# Poissons Ratio (y) = 0.52360 -0.10828
# Poissons Ratio (z) = 0.43775 -0.02562
#
# Static dielectric constant tensor:
#      x y z
#    x 4.629470 0.000000 -0.004120 
#    y 0.000000 3.472990 0.000000 
#    z -0.004120 0.000000 3.915170 
# 
# 
# High freq. dielectric constant tensor:
#      x y z
#    x 1.897340 0.000000 -0.001390 
#    y 0.000000 1.821380 0.000000 
#    z -0.001390 0.000000 1.881990 
# 
# From -- ./inp_files/106774.got.cif
#   From: 2010.06.25/outbox.cif.g09.slc.cpg/sg15_54_cif.got.tgz:106774.got - 2010.06.28 07:06:18.
