data_PCOD8151961
_publ_section_title
;
Structure prediction by ZEFSAII (Michael W. Deem and Ramdas Pophale) SiO2 
 PCOD8151961
Probable space group: C 2/C
;
_chemical_formula_sum "Si O2"
_cell_formula_units_Z 52
_cell_length_a 28.825404
_cell_length_b 14.785842
_cell_length_c 16.977912
_cell_angle_alpha 90.000000
_cell_angle_beta 20.046702
_cell_angle_gamma 90.000000
_cell_volume 2480.440356
_symmetry_space_group_name_H-M "C 2/C"
_symmetry_group_IT_number 15
_symmetry_cell_setting 'monoclinic'
loop_
_space_group_symop_operation_xyz
x,y,z
-x,y,1/2-z
-x,-y,-z
x,-y,1/2+z
1/2+x,1/2+y,z
1/2-x,1/2+y,1/2-z
1/2-x,1/2-y,-z
1/2+x,1/2-y,1/2+z
loop_
_atom_site_type_symbol
_atom_site_label
_atom_site_fract_x
_atom_site_fract_y
_atom_site_fract_z
Si Si1 0.583717 0.816495 0.538094
Si Si2 0.484221 0.414544 0.580908
Si Si3 0.500000 0.229591 0.750000
Si Si4 0.778954 0.961806 0.185265
Si Si5 0.212942 0.860310 0.485357
Si Si6 0.804665 0.338295 0.686847
Si Si7 0.999155 0.718130 0.498637
O O1 0.650145 0.916230 0.434580
O O2 0.702623 0.744190 0.338809
O O3 0.489005 0.807626 0.612257
O O4 0.500000 0.797715 0.750000
O O5 0.500000 0.500000 0.500000
O O6 0.585123 0.423253 0.493518
O O7 0.332549 0.407568 0.859766
O O8 0.519245 0.325532 0.475100
O O9 0.597379 0.288428 0.649429
O O10 0.585401 0.165484 0.557125
O O11 0.776798 0.069403 0.194522
O O12 0.775728 0.936637 0.098952
O O13 0.356678 0.810716 0.265445
O O14 0.878659 0.334305 0.653280
#
# Coordination Sequence:
#
# PCOD8151961 Si02
#       7
#     8   8   4   8   8   8   8
#     4  11  25  47  65  94 142 181 223 283 345 403
#     4  12  23  39  67 104 132 169 235 281 332 409
#     4  12  20  44  74  96 134 178 222 290 336 398
#     4  11  24  45  64  95 139 175 223 277 348 396
#     4  11  21  43  71  93 134 178 218 285 341 399
#     4  12  25  42  70 103 134 183 226 280 343 405
#     4  11  23  44  70  99 133 179 236 276 343 412
#
# _framework density 20.964020000000001
#
# number of rings (size 3 to 8) (size 9 to 14) (size 15 to 20)
#    0.000    0.615    7.692    1.385    1.077    5.538 
#    2.769    0.000    0.000    0.000    0.000    0.000 
#    0.000    0.000    0.000    0.000    0.000    0.000 
#
# Total GULP energy -322505.655027 kJ/mol
# GULP energy per Si atom -12404.063655 kJ/mol
# Density = 2.091631 g / cm^3
# Si number density = 20.964020 Si / 1000 Ang^3
#
#
#
# Elastic Constant Matrix: (Units=GPa)
#
#
# Indices 1 2 3 4 5 6 
#
# 1 95.4072 19.5929 27.6071 0.0001 6.2107 -0.0002
# 2 19.5929 90.1968 11.8158 0.0000 9.5139 -0.0004
# 3 27.6071 11.8158 54.6862 0.0003 19.5763 -0.0003
# 4 0.0001 0.0000 0.0003 30.9046 -0.0002 -1.0398
# 5 6.2107 9.5139 19.5763 -0.0002 38.4514 0.0003
# 6 -0.0002 -0.0004 -0.0003 -1.0398 0.0003 32.5312
#
#
#
# Elastic Compliance Matrix: (Units=1/GPa)
#
#
# Indices 1 2 3 4 5 6 
#
# 1 0.012706 -0.002086 -0.006620 0.000000 0.001834 0.000000
# 2 -0.002086 0.011869 -0.000710 0.000000 -0.002238 0.000000
# 3 -0.006620 -0.000710 0.026091 0.000000 -0.012038 0.000000
# 4 0.000000 0.000000 0.000000 0.032392 0.000000 0.001035
# 5 0.001834 -0.002238 -0.012038 0.000000 0.032393 0.000000
# 6 0.000000 0.000000 0.000000 0.001035 0.000000 0.030773
#
#
# Mechanical properties :
#
#
# Convention : Reuss Voigt Hill
#
# Bulk Modulus (GPa) = 31.41378 39.81352 35.61365
# Shear Modulus (GPa) = 28.46259 32.46242 30.46250
#
# Velocity S-wave (km/s) = 3.68868 3.93935 3.81607
# Velocity P-wave (km/s) = 5.75838 6.30269 6.03667
#
# Compressibility (1/GPa) = 0.03183316
#
# Stress axis : x y z
#
# Youngs Moduli (GPa) = 78.70266 84.25184 38.32721
#
# Poissons Ratio (x) = 0.17577 0.25374
# Poissons Ratio (y) = 0.16420 0.02721
# Poissons Ratio (z) = 0.52103 0.05982
#
# Static dielectric constant tensor:
#      x y z
#    x 4.021610 0.000000 -0.047300 
#    y 0.000000 3.651020 0.000000 
#    z -0.047300 0.000000 3.806950 
# 
# 
# High freq. dielectric constant tensor:
#      x y z
#    x 1.832700 0.000000 -0.001380 
#    y 0.000000 1.818180 0.000000 
#    z -0.001380 0.000000 1.814170 
# 
# From -- ./inp_files/225468.got.cif
#   From: 2010.06.25/outbox.cif.g09.slc.cpg/sg15_113_cif.got.tgz:225468.got - 2010.06.28 07:06:18.
