data_PCOD8151833
_publ_section_title
;
Structure prediction by ZEFSAII (Michael W. Deem and Ramdas Pophale) SiO2 
 PCOD8151833
Probable space group: C 2/C
;
_chemical_formula_sum "Si O2"
_cell_formula_units_Z 44
_cell_length_a 17.900036
_cell_length_b 8.653412
_cell_length_c 17.023758
_cell_angle_alpha 90.000000
_cell_angle_beta 51.025912
_cell_angle_gamma 90.000000
_cell_volume 2050.020921
_symmetry_space_group_name_H-M "C 2/C"
_symmetry_group_IT_number 15
_symmetry_cell_setting 'monoclinic'
loop_
_space_group_symop_operation_xyz
x,y,z
-x,y,1/2-z
-x,-y,-z
x,-y,1/2+z
1/2+x,1/2+y,z
1/2-x,1/2+y,1/2-z
1/2-x,1/2-y,-z
1/2+x,1/2-y,1/2+z
loop_
_atom_site_type_symbol
_atom_site_label
_atom_site_fract_x
_atom_site_fract_y
_atom_site_fract_z
Si Si1 0.500000 0.809260 0.750000
Si Si2 0.178784 0.178102 0.404660
Si Si3 0.369414 0.676341 0.236545
Si Si4 0.167804 0.462628 0.135721
Si Si5 0.727891 0.474511 0.083288
Si Si6 0.534470 0.434841 0.115780
O O1 0.529178 0.705334 0.806886
O O2 0.410590 0.911359 0.832367
O O3 0.166552 0.236597 0.323992
O O4 0.217447 0.314436 0.435101
O O5 0.075744 0.113373 0.503492
O O6 0.251542 0.033635 0.360053
O O7 0.382070 0.817415 0.288906
O O8 0.284927 0.568424 0.327449
O O9 0.471355 0.590467 0.156188
O O10 0.213410 0.424249 0.019918
O O11 0.621699 0.448589 0.119734
#
# Coordination Sequence:
#
# PCOD8151833 Si02
#       6
#     4   8   8   8   8   8
#     4  12  20  40  68  86 122 170 230 256 310 386
#     4  11  22  44  65  94 133 174 208 263 337 391
#     4  12  24  38  65 102 135 156 215 288 323 360
#     4  11  24  39  65  95 123 175 220 261 315 399
#     4  11  21  43  66  90 130 179 217 254 321 404
#     4  11  21  41  67  93 123 178 220 257 316 404
#
# _framework density 21.463194000000001
#
# number of rings (size 3 to 8) (size 9 to 14) (size 15 to 20)
#    0.000    0.727    5.455    3.273    2.545    0.000 
#    0.000    0.909    0.000    0.000    0.000    0.000 
#    0.000    0.000    0.000    0.000    0.000    0.000 
#
# Total GULP energy -272738.532884 kJ/mol
# GULP energy per Si atom -12397.206040 kJ/mol
# Density = 2.141434 g / cm^3
# Si number density = 21.463194 Si / 1000 Ang^3
#
#
#
# Elastic Constant Matrix: (Units=GPa)
#
#
# Indices 1 2 3 4 5 6 
#
# 1 75.5599 31.0273 49.1105 0.0000 11.2072 0.0000
# 2 31.0273 104.7807 42.5425 0.0000 1.4374 0.0001
# 3 49.1105 42.5425 126.7244 0.0000 15.6416 0.0000
# 4 0.0000 0.0000 0.0000 44.0695 0.0000 -2.2840
# 5 11.2072 1.4374 15.6416 0.0000 32.5760 0.0000
# 6 0.0000 0.0001 0.0000 -2.2840 0.0000 30.0394
#
#
#
# Elastic Compliance Matrix: (Units=1/GPa)
#
#
# Indices 1 2 3 4 5 6 
#
# 1 0.018831 -0.003175 -0.005793 0.000000 -0.003557 0.000000
# 2 -0.003175 0.011644 -0.002923 0.000000 0.001982 0.000000
# 3 -0.005793 -0.002923 0.011539 0.000000 -0.003419 0.000000
# 4 0.000000 0.000000 0.000000 0.022781 0.000000 0.001732
# 5 -0.003557 0.001982 -0.003419 0.000000 0.033475 0.000000
# 6 0.000000 0.000000 0.000000 0.001732 0.000000 0.033421
#
#
# Mechanical properties :
#
#
# Convention : Reuss Voigt Hill
#
# Bulk Modulus (GPa) = 54.84922 61.38062 58.11492
# Shear Modulus (GPa) = 30.94996 33.62929 32.28963
#
# Velocity S-wave (km/s) = 3.80149 3.96262 3.88289
# Velocity P-wave (km/s) = 6.69917 7.04249 6.87298
#
# Compressibility (1/GPa) = 0.01823180
#
# Stress axis : x y z
#
# Youngs Moduli (GPa) = 53.10379 85.88411 86.66073
#
# Poissons Ratio (x) = 0.27272 0.50200
# Poissons Ratio (y) = 0.16863 0.25330
# Poissons Ratio (z) = 0.30761 0.25103
#
# Static dielectric constant tensor:
#      x y z
#    x 3.522770 0.000000 -0.093380 
#    y 0.000000 3.839030 0.000000 
#    z -0.093380 0.000000 4.283220 
# 
# 
# High freq. dielectric constant tensor:
#      x y z
#    x 1.812100 0.000000 -0.001940 
#    y 0.000000 1.837150 0.000000 
#    z -0.001940 0.000000 1.871110 
# 
# From -- ./inp_files/159791.got.cif
#   From: 2010.06.25/outbox.cif.g09.slc.cpg/sg15_80_cif.got.tgz:159791.got - 2010.06.28 07:06:18.
