data_PCOD8151908
_publ_section_title
;
Structure prediction by ZEFSAII (Michael W. Deem and Ramdas Pophale) SiO2 
 PCOD8151908
Probable space group: C 2/C
;
_chemical_formula_sum "Si O2"
_cell_formula_units_Z 60
_cell_length_a 16.173032
_cell_length_b 19.771537
_cell_length_c 10.718247
_cell_angle_alpha 90.000000
_cell_angle_beta 127.604607
_cell_angle_gamma 90.000000
_cell_volume 2715.268136
_symmetry_space_group_name_H-M "C 2/C"
_symmetry_group_IT_number 15
_symmetry_cell_setting 'monoclinic'
loop_
_space_group_symop_operation_xyz
x,y,z
-x,y,1/2-z
-x,-y,-z
x,-y,1/2+z
1/2+x,1/2+y,z
1/2-x,1/2+y,1/2-z
1/2-x,1/2-y,-z
1/2+x,1/2-y,1/2+z
loop_
_atom_site_type_symbol
_atom_site_label
_atom_site_fract_x
_atom_site_fract_y
_atom_site_fract_z
Si Si1 0.064887 0.150130 0.699186
Si Si2 0.228295 0.606114 0.716152
Si Si3 0.094973 0.127310 0.149010
Si Si4 0.667423 0.222445 0.321151
Si Si5 0.718128 0.246738 0.826024
Si Si6 0.693855 0.524168 0.069937
Si Si7 0.114532 0.580648 0.382734
Si Si8 0.000000 0.029437 0.250000
O O1 0.185374 0.127037 0.808572
O O2 0.065945 0.229693 0.731835
O O3 0.000000 0.113507 0.750000
O O4 0.015657 0.134466 0.520743
O O5 0.197493 0.667163 0.781109
O O6 0.278398 0.541842 0.826789
O O7 0.123994 0.590545 0.540985
O O8 0.120501 0.202424 0.222094
O O9 0.183930 0.093580 0.142234
O O10 0.079308 0.075552 0.246164
O O11 0.750000 0.250000 0.500000
O O12 0.704399 0.225765 0.209999
O O13 0.626050 0.148839 0.314748
O O14 0.750000 0.250000 0.000000
O O15 0.791708 0.530068 0.067256
O O16 0.578754 0.515935 0.904105
O O17 0.000000 0.549139 0.250000
#
# Coordination Sequence:
#
# PCOD8151908 Si02
#       8
#     8   8   8   8   8   8   8   4
#     4  11  22  36  69 105 142 174 234 300 366 428
#     4  11  25  47  67 102 148 191 240 306 367 442
#     4  12  25  41  71 108 140 189 229 298 376 440
#     4  11  21  42  69 105 140 188 241 303 360 428
#     4  11  24  43  69 102 151 197 236 299 376 440
#     4  12  26  47  70 108 149 186 242 307 375 442
#     4  12  26  45  75 100 139 199 259 302 355 445
#     4  12  26  42  72 110 146 184 234 298 388 444
#
# _framework density 22.097266000000001
#
# number of rings (size 3 to 8) (size 9 to 14) (size 15 to 20)
#    0.000    0.533    5.333    4.000    6.533    0.533 
#    0.000    0.000    1.467    0.000    0.000    0.000 
#    0.000    0.000    0.000    0.000    0.000    0.000 
#
# Total GULP energy -371713.350810 kJ/mol
# GULP energy per Si atom -12390.445027 kJ/mol
# Density = 2.204697 g / cm^3
# Si number density = 22.097266 Si / 1000 Ang^3
#
#
#
# Elastic Constant Matrix: (Units=GPa)
#
#
# Indices 1 2 3 4 5 6 
#
# 1 85.6293 13.5094 46.4177 0.0000 -6.8348 0.0000
# 2 13.5094 97.7758 48.1648 0.0000 5.4824 0.0000
# 3 46.4177 48.1648 139.3667 0.0000 -9.3012 0.0000
# 4 0.0000 0.0000 0.0000 22.5920 0.0000 38.1770
# 5 -6.8348 5.4824 -9.3012 0.0000 37.1154 0.0000
# 6 0.0000 0.0000 0.0000 38.1770 0.0000 -37.0761
#
#
#
# Elastic Compliance Matrix: (Units=1/GPa)
#
#
# Indices 1 2 3 4 5 6 
#
# 1 0.014336 0.000298 -0.004785 0.000000 0.001397 0.000000
# 2 0.000298 0.012655 -0.004672 0.000000 -0.002985 0.000000
# 3 -0.004785 -0.004672 0.010547 0.000000 0.002452 0.000000
# 4 0.000000 0.000000 0.000000 0.016154 0.000000 0.016634
# 5 0.001397 -0.002985 0.002452 0.000000 0.028256 0.000000
# 6 0.000000 0.000000 0.000000 0.016634 0.000000 -0.009844
#
#
# Mechanical properties :
#
#
# Convention : Reuss Voigt Hill
#
# Bulk Modulus (GPa) = 52.02621 59.88396 55.95509
# Shear Modulus (GPa) = 51.63689 18.83826 35.23757
#
# Velocity S-wave (km/s) = 4.83929 2.92295 3.99765
# Velocity P-wave (km/s) = 7.40407 6.20891 6.83267
#
# Compressibility (1/GPa) = 0.01922108
#
# Stress axis : x y z
#
# Youngs Moduli (GPa) = 69.75262 79.01901 94.81216
#
# Poissons Ratio (x) = -0.02353 0.45364
# Poissons Ratio (y) = -0.02077 0.44296
# Poissons Ratio (z) = 0.33374 0.36918
#
# Static dielectric constant tensor:
#      x y z
#    x 3.936610 0.000000 -0.065480 
#    y 0.000000 4.271200 0.000000 
#    z -0.065480 0.000000 4.022320 
# 
# 
# High freq. dielectric constant tensor:
#      x y z
#    x 1.855210 0.000000 -0.011040 
#    y 0.000000 1.883010 0.000000 
#    z -0.011040 0.000000 1.869980 
# 
# From -- ./inp_files/107646.got.cif
#   From: 2010.06.25/outbox.cif.g09.slc.cpg/sg15_54_cif.got.tgz:107646.got - 2010.06.28 07:06:18.
