data_PCOD8151857
_publ_section_title
;
Structure prediction by ZEFSAII (Michael W. Deem and Ramdas Pophale) SiO2 
 PCOD8151857
Probable space group: C 2/C
;
_chemical_formula_sum "Si O2"
_cell_formula_units_Z 60
_cell_length_a 11.259943
_cell_length_b 14.557672
_cell_length_c 18.874899
_cell_angle_alpha 90.000000
_cell_angle_beta 115.495400
_cell_angle_gamma 90.000000
_cell_volume 2792.657245
_symmetry_space_group_name_H-M "C 2/C"
_symmetry_group_IT_number 15
_symmetry_cell_setting 'monoclinic'
loop_
_space_group_symop_operation_xyz
x,y,z
-x,y,1/2-z
-x,-y,-z
x,-y,1/2+z
1/2+x,1/2+y,z
1/2-x,1/2+y,1/2-z
1/2-x,1/2-y,-z
1/2+x,1/2-y,1/2+z
loop_
_atom_site_type_symbol
_atom_site_label
_atom_site_fract_x
_atom_site_fract_y
_atom_site_fract_z
Si Si1 0.834394 0.691794 0.898569
Si Si2 0.580203 0.375712 0.378849
Si Si3 0.201924 0.356001 0.705973
Si Si4 0.143638 0.677286 0.756646
Si Si5 0.335474 0.493028 0.322955
Si Si6 0.521856 0.087942 0.456922
Si Si7 0.000000 0.273685 0.750000
Si Si8 0.284776 0.385728 0.941606
O O1 0.722336 0.611597 0.877377
O O2 0.887123 0.689396 0.833687
O O3 0.763984 0.788120 0.898003
O O4 0.952702 0.673010 0.983381
O O5 0.481948 0.459698 0.340621
O O6 0.516683 0.285326 0.326362
O O7 0.606676 0.366886 0.469534
O O8 0.282635 0.268670 0.696974
O O9 0.301689 0.436677 0.751813
O O10 0.108344 0.392233 0.620365
O O11 0.124363 0.335959 0.760200
O O12 0.232615 0.590493 0.798709
O O13 0.000000 0.663097 0.750000
O O14 0.340209 0.539389 0.401404
O O15 0.645848 0.077249 0.435860
O O16 0.500000 0.000000 0.500000
#
# Coordination Sequence:
#
# PCOD8151857 Si02
#       8
#     8   8   8   8   8   8   4   8
#     4  11  22  48  73 101 133 181 235 297 346 416
#     4  11  21  41  70 109 132 167 231 296 346 405
#     4  12  24  47  69 106 136 190 232 292 347 419
#     4  12  28  47  66 100 145 185 232 292 359 417
#     4  12  25  41  72  99 145 181 235 286 356 421
#     4  11  25  42  73 105 138 183 239 283 346 421
#     4  12  20  42  78 100 128 186 244 288 342 406
#     4  11  24  43  72 105 140 180 230 293 354 423
#
# _framework density 21.484914
#
# number of rings (size 3 to 8) (size 9 to 14) (size 15 to 20)
#    0.000    0.533    4.000    5.200    4.667    1.067 
#    8.400    0.667    0.000    0.000    0.000    0.000 
#    0.000    0.000    0.000    0.000    0.000    0.000 
#
# Total GULP energy -371924.492761 kJ/mol
# GULP energy per Si atom -12397.483092 kJ/mol
# Density = 2.143601 g / cm^3
# Si number density = 21.484914 Si / 1000 Ang^3
#
#
#
# Elastic Constant Matrix: (Units=GPa)
#
#
# Indices 1 2 3 4 5 6 
#
# 1 74.3744 43.3800 42.7381 0.0000 0.2208 0.0000
# 2 43.3800 127.0392 52.2235 0.0000 0.8383 0.0000
# 3 42.7381 52.2235 139.7454 0.0000 7.6564 0.0000
# 4 0.0000 0.0000 0.0000 21.4083 0.0000 3.9009
# 5 0.2208 0.8383 7.6564 0.0000 32.0284 0.0000
# 6 0.0000 0.0000 0.0000 3.9009 0.0000 37.0124
#
#
#
# Elastic Compliance Matrix: (Units=1/GPa)
#
#
# Indices 1 2 3 4 5 6 
#
# 1 0.018438 -0.004682 -0.003940 0.000000 0.000937 0.000000
# 2 -0.004682 0.010501 -0.002512 0.000000 0.000358 0.000000
# 3 -0.003940 -0.002512 0.009418 0.000000 -0.002158 0.000000
# 4 0.000000 0.000000 0.000000 0.047626 0.000000 -0.005019
# 5 0.000937 0.000358 -0.002158 0.000000 0.031722 0.000000
# 6 0.000000 0.000000 0.000000 -0.005019 0.000000 0.027547
#
#
# Mechanical properties :
#
#
# Convention : Reuss Voigt Hill
#
# Bulk Modulus (GPa) = 62.16006 68.64914 65.40460
# Shear Modulus (GPa) = 28.92128 31.61098 30.26613
#
# Velocity S-wave (km/s) = 3.67293 3.83993 3.75736
# Velocity P-wave (km/s) = 6.85434 7.18900 7.02366
#
# Compressibility (1/GPa) = 0.01608750
#
# Stress axis : x y z
#
# Youngs Moduli (GPa) = 54.23560 95.23222 106.18108
#
# Poissons Ratio (x) = 0.44591 0.41840
# Poissons Ratio (y) = 0.25395 0.26670
# Poissons Ratio (z) = 0.21371 0.23920
#
# Static dielectric constant tensor:
#      x y z
#    x 3.810660 0.000000 0.137680 
#    y 0.000000 3.948920 0.000000 
#    z 0.137680 0.000000 4.328590 
# 
# 
# High freq. dielectric constant tensor:
#      x y z
#    x 1.830980 0.000000 0.012390 
#    y 0.000000 1.840080 0.000000 
#    z 0.012390 0.000000 1.868080 
# 
# From -- ./inp_files/198374.got.cif
#   From: 2010.06.25/outbox.cif.g09.slc.cpg/sg15_100_cif.got.tgz:198374.got - 2010.06.28 07:06:18.
