data_PCOD8151788
_publ_section_title
;
Structure prediction by ZEFSAII (Michael W. Deem and Ramdas Pophale) SiO2 
 PCOD8151788
Probable space group: C 2/C
;
_chemical_formula_sum "Si O2"
_cell_formula_units_Z 56
_cell_length_a 20.633776
_cell_length_b 13.676015
_cell_length_c 14.314512
_cell_angle_alpha 90.000000
_cell_angle_beta 40.710538
_cell_angle_gamma 90.000000
_cell_volume 2634.637154
_symmetry_space_group_name_H-M "C 2/C"
_symmetry_group_IT_number 15
_symmetry_cell_setting 'monoclinic'
loop_
_space_group_symop_operation_xyz
x,y,z
-x,y,1/2-z
-x,-y,-z
x,-y,1/2+z
1/2+x,1/2+y,z
1/2-x,1/2+y,1/2-z
1/2-x,1/2-y,-z
1/2+x,1/2-y,1/2+z
loop_
_atom_site_type_symbol
_atom_site_label
_atom_site_fract_x
_atom_site_fract_y
_atom_site_fract_z
Si Si1 0.887141 0.971691 0.865911
Si Si2 0.387422 0.499911 0.651748
Si Si3 0.782315 0.146656 0.037599
Si Si4 0.764229 0.347074 0.711864
Si Si5 0.773215 0.132830 0.634829
Si Si6 0.887663 0.653003 0.406708
Si Si7 0.608331 0.969481 0.414018
O O1 0.866196 0.012209 0.785442
O O2 0.000000 0.936706 0.750000
O O3 0.861514 0.059151 0.966882
O O4 0.818627 0.883942 0.981248
O O5 0.500000 0.500000 0.500000
O O6 0.345996 0.392040 0.674423
O O7 0.336818 0.589134 0.651657
O O8 0.720883 0.179221 0.195895
O O9 0.698139 0.099939 0.060170
O O10 0.851251 0.235789 0.929833
O O11 0.771535 0.250178 0.642349
O O12 0.842074 0.431981 0.597914
O O13 0.666245 0.078380 0.761954
O O14 0.887828 0.615194 0.512328
O O15 0.000000 0.638472 0.250000
O O16 0.500000 0.000000 0.500000
#
# Coordination Sequence:
#
# PCOD8151788 Si02
#       7
#     8   8   8   8   8   8   8
#     4  12  23  43  69 100 134 177 230 282 346 402
#     4  11  23  43  70  98 134 176 226 283 338 406
#     4  11  21  40  66  97 137 166 225 296 339 408
#     4  11  23  43  66  98 134 177 224 276 345 405
#     4  11  24  44  67 100 136 175 226 281 343 410
#     4  11  24  38  64 102 130 177 228 282 354 407
#     4  11  23  45  64  94 140 181 223 281 341 414
#
# _framework density 21.255299999999998
#
# number of rings (size 3 to 8) (size 9 to 14) (size 15 to 20)
#    0.000    0.857    5.714    3.000    2.000    1.714 
#    2.571    0.714    0.000    0.000    0.000    0.000 
#    0.000    0.000    0.000    0.000    0.000    0.000 
#
# Total GULP energy -346915.674762 kJ/mol
# GULP energy per Si atom -12389.845527 kJ/mol
# Density = 2.120692 g / cm^3
# Si number density = 21.255300 Si / 1000 Ang^3
#
#
#
# Elastic Constant Matrix: (Units=GPa)
#
#
# Indices 1 2 3 4 5 6 
#
# 1 80.0080 20.4697 44.0963 0.0000 -15.4373 0.0000
# 2 20.4697 121.7300 42.3321 0.0000 -19.3160 0.0000
# 3 44.0963 42.3321 146.7584 0.0000 -16.6905 0.0000
# 4 0.0000 0.0000 0.0000 26.8073 0.0000 5.7329
# 5 -15.4373 -19.3160 -16.6905 0.0000 40.7508 0.0000
# 6 0.0000 0.0000 0.0000 5.7329 0.0000 24.9213
#
#
#
# Elastic Compliance Matrix: (Units=1/GPa)
#
#
# Indices 1 2 3 4 5 6 
#
# 1 0.015669 -0.000581 -0.004087 0.000000 0.003986 0.000000
# 2 -0.000581 0.009627 -0.002211 0.000000 0.003437 0.000000
# 3 -0.004087 -0.002211 0.008794 0.000000 0.001005 0.000000
# 4 0.000000 0.000000 0.000000 0.039233 0.000000 -0.009025
# 5 0.003986 0.003437 0.001005 0.000000 0.028091 0.000000
# 6 0.000000 0.000000 0.000000 -0.009025 0.000000 0.042203
#
#
# Mechanical properties :
#
#
# Convention : Reuss Voigt Hill
#
# Bulk Modulus (GPa) = 49.18507 62.47695 55.83101
# Shear Modulus (GPa) = 30.45932 34.60241 32.53087
#
# Velocity S-wave (km/s) = 3.78963 4.03915 3.91638
# Velocity P-wave (km/s) = 6.50683 7.15615 6.83920
#
# Compressibility (1/GPa) = 0.02033137
#
# Stress axis : x y z
#
# Youngs Moduli (GPa) = 63.81947 103.87365 113.71137
#
# Poissons Ratio (x) = 0.06035 0.46476
# Poissons Ratio (y) = 0.03708 0.25146
# Poissons Ratio (z) = 0.26084 0.22971
#
# Static dielectric constant tensor:
#      x y z
#    x 4.006880 0.000000 -0.022360 
#    y 0.000000 3.754300 0.000000 
#    z -0.022360 0.000000 4.277970 
# 
# 
# High freq. dielectric constant tensor:
#      x y z
#    x 1.825440 0.000000 -0.000940 
#    y 0.000000 1.825830 0.000000 
#    z -0.000940 0.000000 1.846670 
# 
# From -- ./inp_files/168435.got.cif
#   From: 2010.06.25/outbox.cif.g09.slc.cpg/sg15_85_cif.got.tgz:168435.got - 2010.06.28 07:06:18.
