data_PCOD8151207
_publ_section_title
;
Structure prediction by ZEFSAII (Michael W. Deem and Ramdas Pophale) SiO2 
 PCOD8151207
Probable space group: C 2/C
;
_chemical_formula_sum "Si O2"
_cell_formula_units_Z 44
_cell_length_a 9.346364
_cell_length_b 20.381168
_cell_length_c 11.977389
_cell_angle_alpha 90.000000
_cell_angle_beta 68.184521
_cell_angle_gamma 90.000000
_cell_volume 2118.176993
_symmetry_space_group_name_H-M "C 2/C"
_symmetry_group_IT_number 15
_symmetry_cell_setting 'monoclinic'
loop_
_space_group_symop_operation_xyz
x,y,z
-x,y,1/2-z
-x,-y,-z
x,-y,1/2+z
1/2+x,1/2+y,z
1/2-x,1/2+y,1/2-z
1/2-x,1/2-y,-z
1/2+x,1/2-y,1/2+z
loop_
_atom_site_type_symbol
_atom_site_label
_atom_site_fract_x
_atom_site_fract_y
_atom_site_fract_z
Si Si1 0.500000 0.637750 0.750000
Si Si2 0.756883 0.243836 0.868398
Si Si3 0.796060 0.148921 0.410050
Si Si4 0.826331 0.616324 0.284706
Si Si5 0.063384 0.287186 0.123355
Si Si6 0.035656 0.924257 0.997888
O O1 0.344754 0.680748 0.794550
O O2 0.499589 0.595734 0.864043
O O3 0.840962 0.305754 0.790480
O O4 0.575575 0.243170 0.903510
O O5 0.750000 0.250000 0.000000
O O6 0.747604 0.104427 0.317473
O O7 0.834342 0.224583 0.365340
O O8 0.649451 0.155458 0.532708
O O9 0.934915 0.115419 0.436700
O O10 0.714868 0.586921 0.412899
O O11 0.000000 0.586648 0.250000
O O12 0.000000 0.324688 0.250000
O O13 0.000000 0.000000 0.000000
#
# Coordination Sequence:
#
# PCOD8151207 Si02
#       6
#     4   8   8   8   8   8
#     4  12  26  42  72 106 144 182 240 296 362 418
#     4  12  21  37  63 106 146 171 220 294 363 416
#     4  11  23  40  67  98 138 183 227 280 349 416
#     4  12  24  43  71 105 138 182 228 289 362 419
#     4  11  20  35  62 101 137 170 216 281 352 414
#     4  12  28  49  71  98 140 198 243 283 339 427
#
# _framework density 20.772579
#
# number of rings (size 3 to 8) (size 9 to 14) (size 15 to 20)
#    0.000    0.364    6.364    2.727    5.091    0.000 
#    0.000    3.636    0.000    0.000    0.000    0.000 
#    0.000    0.000    0.000    0.000    0.000    0.000 
#
# Total GULP energy -272674.245122 kJ/mol
# GULP energy per Si atom -12394.283869 kJ/mol
# Density = 2.072530 g / cm^3
# Si number density = 20.772579 Si / 1000 Ang^3
#
#
#
# Elastic Constant Matrix: (Units=GPa)
#
#
# Indices 1 2 3 4 5 6 
#
# 1 114.8140 15.6769 57.3044 0.0000 -9.8321 0.0000
# 2 15.6769 88.6443 35.0883 0.0000 -10.4640 0.0000
# 3 57.3044 35.0883 165.7204 0.0000 -7.4646 0.0000
# 4 0.0000 0.0000 0.0000 22.5379 0.0000 3.3711
# 5 -9.8321 -10.4640 -7.4646 0.0000 42.5492 0.0000
# 6 0.0000 0.0000 0.0000 3.3711 0.0000 15.8463
#
#
#
# Elastic Compliance Matrix: (Units=1/GPa)
#
#
# Indices 1 2 3 4 5 6 
#
# 1 0.010672 -0.000271 -0.003553 0.000000 0.001776 0.000000
# 2 -0.000271 0.012610 -0.002459 0.000000 0.002607 0.000000
# 3 -0.003553 -0.002459 0.007781 0.000000 -0.000061 0.000000
# 4 0.000000 0.000000 0.000000 0.045828 0.000000 -0.009749
# 5 0.001776 0.002607 -0.000061 0.000000 0.024543 0.000000
# 6 0.000000 0.000000 0.000000 -0.009749 0.000000 0.065180
#
#
# Mechanical properties :
#
#
# Convention : Reuss Voigt Hill
#
# Bulk Modulus (GPa) = 54.06292 65.03533 59.54913
# Shear Modulus (GPa) = 26.97667 33.59395 30.28531
#
# Velocity S-wave (km/s) = 3.60761 4.02584 3.82245
# Velocity P-wave (km/s) = 6.59058 7.27915 6.94341
#
# Compressibility (1/GPa) = 0.01849696
#
# Stress axis : x y z
#
# Youngs Moduli (GPa) = 93.70191 79.30203 128.52400
#
# Poissons Ratio (x) = 0.02152 0.45663
# Poissons Ratio (y) = 0.02543 0.31600
# Poissons Ratio (z) = 0.33291 0.19498
#
# Static dielectric constant tensor:
#      x y z
#    x 3.721330 0.000000 0.063930 
#    y 0.000000 1.378510 0.000000 
#    z 0.063930 0.000000 4.112780 
# 
# 
# High freq. dielectric constant tensor:
#      x y z
#    x 1.827820 0.000000 -0.002090 
#    y 0.000000 1.762030 0.000000 
#    z -0.002090 0.000000 1.841830 
# 
# From -- ./inp_files/78135.got.cif
#   From: 2010.06.25/outbox.cif.g09.slc.cpg/sg15_40_cif.got.tgz:78135.got - 2010.06.28 07:06:18.
