data_PCOD8151896
_publ_section_title
;
Structure prediction by ZEFSAII (Michael W. Deem and Ramdas Pophale) SiO2 
 PCOD8151896
Probable space group: C 2/C
;
_chemical_formula_sum "Si O2"
_cell_formula_units_Z 56
_cell_length_a 14.162517
_cell_length_b 16.277600
_cell_length_c 18.948279
_cell_angle_alpha 90.000000
_cell_angle_beta 36.246508
_cell_angle_gamma 90.000000
_cell_volume 2582.732640
_symmetry_space_group_name_H-M "C 2/C"
_symmetry_group_IT_number 15
_symmetry_cell_setting 'monoclinic'
loop_
_space_group_symop_operation_xyz
x,y,z
-x,y,1/2-z
-x,-y,-z
x,-y,1/2+z
1/2+x,1/2+y,z
1/2-x,1/2+y,1/2-z
1/2-x,1/2-y,-z
1/2+x,1/2-y,1/2+z
loop_
_atom_site_type_symbol
_atom_site_label
_atom_site_fract_x
_atom_site_fract_y
_atom_site_fract_z
Si Si1 0.891921 0.772594 0.588365
Si Si2 0.333974 0.022922 0.067350
Si Si3 0.784594 0.929924 0.000132
Si Si4 0.545153 0.432478 0.034294
Si Si5 0.741706 0.268586 0.422405
Si Si6 0.640530 0.371675 0.217434
Si Si7 0.616413 0.349990 0.762163
O O1 0.770961 0.700640 0.641843
O O2 0.831893 0.807972 0.697504
O O3 0.886642 0.847507 0.536260
O O4 0.074041 0.740519 0.488065
O O5 0.349211 0.065943 0.980766
O O6 0.252973 0.083809 0.170526
O O7 0.222956 0.944216 0.124522
O O8 0.500000 0.000000 0.000000
O O9 0.944688 0.893834 0.866227
O O10 0.737222 0.868430 0.093319
O O11 0.811725 0.021626 0.011616
O O12 0.410262 0.405538 0.173696
O O13 0.500000 0.500000 0.000000
O O14 0.750000 0.250000 0.500000
O O15 0.882736 0.221400 0.297943
O O16 0.500000 0.340651 0.250000
#
# Coordination Sequence:
#
# PCOD8151896 Si02
#       7
#     8   8   8   8   8   8   8
#     4  11  26  41  66 100 135 183 227 279 339 404
#     4  12  23  41  68 100 137 176 234 283 348 409
#     4  11  23  42  71  98 133 182 225 277 344 415
#     4  12  22  47  74  97 133 182 235 278 339 412
#     4  11  22  36  67 104 137 167 222 290 347 401
#     4  12  25  45  69 102 138 188 234 281 348 419
#     4  11  21  42  67  96 135 176 223 277 347 414
#
# _framework density 21.682459999999999
#
# number of rings (size 3 to 8) (size 9 to 14) (size 15 to 20)
#    0.000    0.571    7.143    2.143    2.000    0.571 
#    2.571    0.000    0.000    0.000    0.000    0.000 
#    0.000    0.000    0.000    0.000    0.000    0.000 
#
# Total GULP energy -346918.345769 kJ/mol
# GULP energy per Si atom -12389.940920 kJ/mol
# Density = 2.163311 g / cm^3
# Si number density = 21.682460 Si / 1000 Ang^3
#
#
#
# Elastic Constant Matrix: (Units=GPa)
#
#
# Indices 1 2 3 4 5 6 
#
# 1 114.2446 37.3517 44.4739 -0.0004 -2.2205 0.0003
# 2 37.3517 127.2981 44.7895 -0.0007 1.6459 0.0005
# 3 44.4739 44.7895 57.5530 -0.0022 10.9937 0.0009
# 4 -0.0004 -0.0007 -0.0022 48.2166 0.0010 5.8767
# 5 -2.2205 1.6459 10.9937 0.0010 31.3834 -0.0004
# 6 0.0003 0.0005 0.0009 5.8767 -0.0004 43.8815
#
#
#
# Elastic Compliance Matrix: (Units=1/GPa)
#
#
# Indices 1 2 3 4 5 6 
#
# 1 0.013166 -0.000031 -0.011069 -0.000001 0.004811 0.000000
# 2 -0.000031 0.011012 -0.009040 0.000000 0.002587 0.000000
# 3 -0.011069 -0.009040 0.035391 0.000002 -0.012707 -0.000001
# 4 -0.000001 0.000000 0.000002 0.021084 -0.000001 -0.002824
# 5 0.004811 0.002587 -0.012707 -0.000001 0.036520 0.000001
# 6 0.000000 0.000000 -0.000001 -0.002824 0.000001 0.023167
#
#
# Mechanical properties :
#
#
# Convention : Reuss Voigt Hill
#
# Bulk Modulus (GPa) = 51.84195 61.36953 56.60574
# Shear Modulus (GPa) = 26.73108 36.19501 31.46305
#
# Velocity S-wave (km/s) = 3.51500 4.09017 3.81344
# Velocity P-wave (km/s) = 6.35886 7.11837 6.74931
#
# Compressibility (1/GPa) = 0.01928940
#
# Stress axis : x y z
#
# Youngs Moduli (GPa) = 75.95563 90.81056 28.25566
#
# Poissons Ratio (x) = 0.00279 0.31275
# Poissons Ratio (y) = 0.00234 0.25544
# Poissons Ratio (z) = 0.84072 0.82095
#
# Static dielectric constant tensor:
#      x y z
#    x 3.941610 -0.000010 0.178350 
#    y -0.000010 8.461920 0.000140 
#    z 0.178350 0.000140 4.075450 
# 
# 
# High freq. dielectric constant tensor:
#      x y z
#    x 1.857760 0.000000 0.012030 
#    y 0.000000 1.872860 0.000000 
#    z 0.012030 0.000000 1.830790 
# 
# From -- ./inp_files/244522.got.cif
#   From: 2010.06.25/outbox.cif.g09.slc.cpg/sg15_123_cif.got.tgz:244522.got - 2010.06.28 07:06:18.
