data_PCOD8151762
_publ_section_title
;
Structure prediction by ZEFSAII (Michael W. Deem and Ramdas Pophale) SiO2 
 PCOD8151762
Probable space group: C 2/C
;
_chemical_formula_sum "Si O2"
_cell_formula_units_Z 64
_cell_length_a 18.675345
_cell_length_b 8.799357
_cell_length_c 34.551052
_cell_angle_alpha 90.000000
_cell_angle_beta 143.649193
_cell_angle_gamma 90.000000
_cell_volume 3365.394640
_symmetry_space_group_name_H-M "C 2/C"
_symmetry_group_IT_number 15
_symmetry_cell_setting 'monoclinic'
loop_
_space_group_symop_operation_xyz
x,y,z
-x,y,1/2-z
-x,-y,-z
x,-y,1/2+z
1/2+x,1/2+y,z
1/2-x,1/2+y,1/2-z
1/2-x,1/2-y,-z
1/2+x,1/2-y,1/2+z
loop_
_atom_site_type_symbol
_atom_site_label
_atom_site_fract_x
_atom_site_fract_y
_atom_site_fract_z
Si Si1 0.629499 0.550919 0.811539
Si Si2 0.011062 0.904295 0.576601
Si Si3 0.123524 0.245707 0.194119
Si Si4 0.290128 0.044261 0.311171
Si Si5 0.940033 0.237232 0.927728
Si Si6 0.952115 0.739570 0.688853
Si Si7 0.161855 0.772308 0.574652
Si Si8 0.290638 0.396752 0.430097
O O1 0.500000 0.638243 0.750000
O O2 0.679966 0.495708 0.792060
O O3 0.597026 0.409324 0.825070
O O4 0.728186 0.655171 0.875264
O O5 0.029338 0.855534 0.628629
O O6 0.110271 0.813878 0.594362
O O7 0.877335 0.857666 0.504030
O O8 0.027759 0.085286 0.581754
O O9 0.244519 0.150552 0.256206
O O10 0.154919 0.395599 0.184171
O O11 0.064466 0.278802 0.209475
O O12 0.396921 0.129301 0.380788
O O13 0.833838 0.195625 0.911246
O O14 0.056464 0.298672 0.001930
O O15 0.846680 0.646128 0.621907
O O16 0.000000 0.667301 0.750000
O O17 0.208362 0.924100 0.575235
#
# Coordination Sequence:
#
# PCOD8151762 Si02
#       8
#     8   8   8   8   8   8   8   8
#     4  11  21  40  60  87 120 156 202 247 305 356
#     4   9  19  36  60  91 122 154 195 249 309 355
#     4  12  24  39  60  88 122 158 206 253 309 365
#     4  12  23  40  61  89 121 158 207 254 305 362
#     4   9  18  37  63  88 119 156 198 248 300 363
#     4  11  22  40  60  83 120 165 201 249 312 364
#     4   9  19  36  62  92 116 154 203 248 296 366
#     4   9  18  36  61  88 123 157 195 246 304 367
#
# _framework density 19.017085000000002
#
# number of rings (size 3 to 8) (size 9 to 14) (size 15 to 20)
#    0.000    1.750    5.000    2.250    0.000    3.500 
#    2.250    0.000    0.000    3.000    0.000    0.000 
#    0.000    0.000    0.000    0.000    0.000    0.000 
#
# Total GULP energy -396712.389261 kJ/mol
# GULP energy per Si atom -12397.262164 kJ/mol
# Density = 1.897380 g / cm^3
# Si number density = 19.017085 Si / 1000 Ang^3
#
#
#
# Elastic Constant Matrix: (Units=GPa)
#
#
# Indices 1 2 3 4 5 6 
#
# 1 68.3221 32.5213 32.9528 -0.0001 0.3061 0.0001
# 2 32.5213 76.4442 54.9886 -0.0001 1.5169 0.0002
# 3 32.9528 54.9886 142.3363 -0.0001 4.7944 0.0001
# 4 -0.0001 -0.0001 -0.0001 45.3475 0.0000 0.6932
# 5 0.3061 1.5169 4.7944 0.0000 33.6867 -0.0001
# 6 0.0001 0.0002 0.0001 0.6932 -0.0001 24.1137
#
#
#
# Elastic Compliance Matrix: (Units=1/GPa)
#
#
# Indices 1 2 3 4 5 6 
#
# 1 0.018662 -0.006689 -0.001749 0.000000 0.000381 0.000000
# 2 -0.006689 0.020514 -0.006378 0.000000 0.000045 0.000000
# 3 -0.001749 -0.006378 0.009932 0.000000 -0.001110 0.000000
# 4 0.000000 0.000000 0.000000 0.022062 0.000000 -0.000634
# 5 0.000381 0.000045 -0.001110 0.000000 0.029838 0.000000
# 6 0.000000 0.000000 0.000000 -0.000634 0.000000 0.041488
#
#
# Mechanical properties :
#
#
# Convention : Reuss Voigt Hill
#
# Bulk Modulus (GPa) = 51.34479 58.66977 55.00728
# Shear Modulus (GPa) = 27.99223 31.73889 29.86556
#
# Velocity S-wave (km/s) = 3.84076 4.08973 3.96720
# Velocity P-wave (km/s) = 6.83568 7.29515 7.06915
#
# Compressibility (1/GPa) = 0.01947617
#
# Stress axis : x y z
#
# Youngs Moduli (GPa) = 53.58374 48.74706 100.68353
#
# Poissons Ratio (x) = 0.32605 0.17614
# Poissons Ratio (y) = 0.35840 0.64218
# Poissons Ratio (z) = 0.09374 0.31092
#
# Static dielectric constant tensor:
#      x y z
#    x 3.279840 0.000000 0.091980 
#    y 0.000000 3.381980 0.000000 
#    z 0.091980 0.000000 3.736140 
# 
# 
# High freq. dielectric constant tensor:
#      x y z
#    x 1.712710 0.000000 0.006070 
#    y 0.000000 1.732410 0.000000 
#    z 0.006070 0.000000 1.758560 
# 
# From -- ./inp_files/315759.got.cif
#   From: 2010.06.25/outbox.cif.g09.slc.cpg/sg15_158_cif.got.tgz:315759.got - 2010.06.28 07:06:18.
