data_PCOD8151799
_publ_section_title
;
Structure prediction by ZEFSAII (Michael W. Deem and Ramdas Pophale) SiO2 
 PCOD8151799
Probable space group: C 2/C
;
_chemical_formula_sum "Si O2"
_cell_formula_units_Z 48
_cell_length_a 11.467408
_cell_length_b 11.843307
_cell_length_c 20.742742
_cell_angle_alpha 90.000000
_cell_angle_beta 48.419265
_cell_angle_gamma 90.000000
_cell_volume 2107.261213
_symmetry_space_group_name_H-M "C 2/C"
_symmetry_group_IT_number 15
_symmetry_cell_setting 'monoclinic'
loop_
_space_group_symop_operation_xyz
x,y,z
-x,y,1/2-z
-x,-y,-z
x,-y,1/2+z
1/2+x,1/2+y,z
1/2-x,1/2+y,1/2-z
1/2-x,1/2-y,-z
1/2+x,1/2-y,1/2+z
loop_
_atom_site_type_symbol
_atom_site_label
_atom_site_fract_x
_atom_site_fract_y
_atom_site_fract_z
Si Si1 0.188876 0.626934 0.512079
Si Si2 0.310959 0.693088 0.684713
Si Si3 0.822211 0.093688 0.332737
Si Si4 0.900722 0.744069 0.345490
Si Si5 0.161913 0.515697 0.658480
Si Si6 0.834489 0.625443 0.633071
O O1 0.250000 0.750000 0.500000
O O2 0.297641 0.570068 0.417893
O O3 0.192251 0.558280 0.576125
O O4 0.014077 0.631364 0.549634
O O5 0.232957 0.780915 0.664251
O O6 0.491057 0.733901 0.631086
O O7 0.297868 0.568816 0.654970
O O8 0.209381 0.698398 0.787475
O O9 0.000000 0.073405 0.250000
O O10 0.718582 0.002655 0.332146
O O11 0.842496 0.618595 0.348744
O O12 0.748366 0.823808 0.401103
O O13 0.000000 0.793069 0.250000
O O14 0.000000 0.558134 0.750000
#
# Coordination Sequence:
#
# PCOD8151799 Si02
#       6
#     8   8   8   8   8   8
#     4  12  24  44  68 104 137 177 240 283 349 422
#     4  11  21  40  69 102 135 185 236 282 358 417
#     4  12  25  44  70 101 136 181 233 294 349 423
#     4   9  22  41  65 101 143 187 230 288 357 421
#     4  11  21  43  72 101 138 188 233 293 354 426
#     4  11  24  44  68 100 142 180 230 295 352 422
#
# _framework density 22.778382000000001
#
# number of rings (size 3 to 8) (size 9 to 14) (size 15 to 20)
#    0.000    1.000    3.333    4.500    4.667    0.000 
#    3.000    5.833    0.000    0.000    0.000    0.000 
#    0.000    0.000    0.000    0.000    0.000    0.000 
#
# Total GULP energy -297464.147285 kJ/mol
# GULP energy per Si atom -12394.339470 kJ/mol
# Density = 2.272654 g / cm^3
# Si number density = 22.778382 Si / 1000 Ang^3
#
#
#
# Elastic Constant Matrix: (Units=GPa)
#
#
# Indices 1 2 3 4 5 6 
#
# 1 128.8010 52.3449 48.2484 0.0000 -16.0416 0.0000
# 2 52.3449 103.5929 16.2928 0.0000 -9.8696 0.0000
# 3 48.2484 16.2928 133.2013 0.0000 3.6976 0.0000
# 4 0.0000 0.0000 0.0000 -110.0416 0.0000 39.3287
# 5 -16.0416 -9.8696 3.6976 0.0000 35.3733 0.0000
# 6 0.0000 0.0000 0.0000 39.3287 0.0000 33.4101
#
#
#
# Elastic Compliance Matrix: (Units=1/GPa)
#
#
# Indices 1 2 3 4 5 6 
#
# 1 0.011708 -0.004912 -0.003760 0.000000 0.004332 0.000000
# 2 -0.004912 0.012205 0.000254 0.000000 0.001151 0.000000
# 3 -0.003760 0.000254 0.008910 0.000000 -0.002566 0.000000
# 4 0.000000 0.000000 0.000000 -0.006396 0.000000 0.007530
# 5 0.004332 0.001151 -0.002566 0.000000 0.030824 0.000000
# 6 0.000000 0.000000 0.000000 0.007530 0.000000 0.021068
#
#
# Mechanical properties :
#
#
# Convention : Reuss Voigt Hill
#
# Bulk Modulus (GPa) = 62.55170 66.59639 64.57405
# Shear Modulus (GPa) = 49.75960 8.32897 29.04428
#
# Velocity S-wave (km/s) = 4.67894 1.91428 3.57470
# Velocity P-wave (km/s) = 7.53065 5.84689 6.74154
#
# Compressibility (1/GPa) = 0.01598677
#
# Stress axis : x y z
#
# Youngs Moduli (GPa) = 85.40884 81.93472 112.23769
#
# Poissons Ratio (x) = 0.40246 0.42207
# Poissons Ratio (y) = 0.41953 -0.02856
# Poissons Ratio (z) = 0.32118 -0.02085
#
# Static dielectric constant tensor:
#      x y z
#    x 4.331850 0.000000 -0.320820 
#    y 0.000000 3.959790 0.000000 
#    z -0.320820 0.000000 11.735740 
# 
# 
# High freq. dielectric constant tensor:
#      x y z
#    x 1.900880 0.000000 0.005010 
#    y 0.000000 1.907510 0.000000 
#    z 0.005010 0.000000 1.883980 
# 
# From -- ./inp_files/237402.got.cif
#   From: 2010.06.25/outbox.cif.g09.slc.cpg/sg15_119_cif.got.tgz:237402.got - 2010.06.28 07:06:18.
