data_PCOD8151652
_publ_section_title
;
Structure prediction by ZEFSAII (Michael W. Deem and Ramdas Pophale) SiO2 
 PCOD8151652
Probable space group: C 2/C
;
_chemical_formula_sum "Si O2"
_cell_formula_units_Z 52
_cell_length_a 11.293660
_cell_length_b 28.825190
_cell_length_c 11.725222
_cell_angle_alpha 90.000000
_cell_angle_beta 38.712059
_cell_angle_gamma 90.000000
_cell_volume 2387.210025
_symmetry_space_group_name_H-M "C 2/C"
_symmetry_group_IT_number 15
_symmetry_cell_setting 'monoclinic'
loop_
_space_group_symop_operation_xyz
x,y,z
-x,y,1/2-z
-x,-y,-z
x,-y,1/2+z
1/2+x,1/2+y,z
1/2-x,1/2+y,1/2-z
1/2-x,1/2-y,-z
1/2+x,1/2-y,1/2+z
loop_
_atom_site_type_symbol
_atom_site_label
_atom_site_fract_x
_atom_site_fract_y
_atom_site_fract_z
Si Si1 0.351379 0.186722 0.759999
Si Si2 0.264750 0.374110 0.748845
Si Si3 0.784711 0.473397 0.378605
Si Si4 0.221617 0.425011 0.570107
Si Si5 0.500000 0.423649 0.750000
Si Si6 0.454419 0.285222 0.653304
Si Si7 0.145921 0.405214 0.378540
O O1 0.500000 0.172978 0.750000
O O2 0.415475 0.232492 0.641647
O O3 0.318411 0.145360 0.697283
O O4 0.141931 0.194372 0.960388
O O5 0.313466 0.384901 0.579792
O O6 0.437435 0.391334 0.694464
O O7 0.270757 0.318143 0.763580
O O8 0.078937 0.403161 0.926186
O O9 0.705294 0.526063 0.430824
O O10 0.673019 0.452505 0.569176
O O11 0.780394 0.445090 0.263337
O O12 0.000000 0.476199 0.250000
O O13 0.267962 0.415985 0.401557
O O14 0.000000 0.420989 0.750000
O O15 0.500000 0.279938 0.750000
#
# Coordination Sequence:
#
# PCOD8151652 Si02
#       7
#     8   8   8   8   4   8   8
#     4  11  22  37  63  94 125 166 208 263 320 378
#     4  11  22  40  63  95 131 166 211 267 318 385
#     4  11  23  42  65  92 125 170 219 270 323 375
#     4   9  24  42  65  89 126 174 216 264 320 384
#     4  12  24  38  64  98 124 164 218 266 328 370
#     4  11  21  38  60  96 128 160 209 262 319 375
#     4  11  22  42  66  91 129 172 214 262 327 380
#
# _framework density 21.78275
#
# number of rings (size 3 to 8) (size 9 to 14) (size 15 to 20)
#    0.000    1.231    2.308    5.077    2.154    2.462 
#    2.769    0.769    0.000    0.000    0.000    0.000 
#    0.000    0.000    0.000    0.000    0.000    0.000 
#
# Total GULP energy -322103.311918 kJ/mol
# GULP energy per Si atom -12388.588920 kJ/mol
# Density = 2.173317 g / cm^3
# Si number density = 21.782750 Si / 1000 Ang^3
#
#
#
# Elastic Constant Matrix: (Units=GPa)
#
#
# Indices 1 2 3 4 5 6 
#
# 1 88.1165 63.3804 28.6407 0.0000 28.1484 0.0000
# 2 63.3804 165.8638 36.0494 0.0000 27.3810 0.0000
# 3 28.6407 36.0494 80.8922 0.0000 16.8244 0.0000
# 4 0.0000 0.0000 0.0000 64.1563 0.0000 14.5624
# 5 28.1484 27.3810 16.8244 0.0000 35.3721 0.0000
# 6 0.0000 0.0000 0.0000 14.5624 0.0000 23.7690
#
#
#
# Elastic Compliance Matrix: (Units=1/GPa)
#
#
# Indices 1 2 3 4 5 6 
#
# 1 0.018981 -0.005080 -0.002367 0.000000 -0.010047 0.000000
# 2 -0.005080 0.008638 -0.001666 0.000000 -0.001851 0.000000
# 3 -0.002367 -0.001666 0.014741 0.000000 -0.003838 0.000000
# 4 0.000000 0.000000 0.000000 0.018105 0.000000 -0.011092
# 5 -0.010047 -0.001851 -0.003838 0.000000 0.039525 0.000000
# 6 0.000000 0.000000 0.000000 -0.011092 0.000000 0.048867
#
#
# Mechanical properties :
#
#
# Convention : Reuss Voigt Hill
#
# Bulk Modulus (GPa) = 41.43475 65.66819 53.55147
# Shear Modulus (GPa) = 28.55058 38.44628 33.49843
#
# Velocity S-wave (km/s) = 3.62428 4.20573 3.92579
# Velocity P-wave (km/s) = 6.04789 7.33461 6.72211
#
# Compressibility (1/GPa) = 0.02413433
#
# Stress axis : x y z
#
# Youngs Moduli (GPa) = 52.68292 115.76735 67.83882
#
# Poissons Ratio (x) = 0.58813 0.16057
# Poissons Ratio (y) = 0.26764 0.11300
# Poissons Ratio (z) = 0.12470 0.19283
#
# Static dielectric constant tensor:
#      x y z
#    x 3.863650 0.000000 0.084300 
#    y 0.000000 4.456290 0.000000 
#    z 0.084300 0.000000 3.942580 
# 
# 
# High freq. dielectric constant tensor:
#      x y z
#    x 1.832950 0.000000 -0.002430 
#    y 0.000000 1.865150 0.000000 
#    z -0.002430 0.000000 1.865300 
# 
# From -- ./inp_files/92566.got.cif
#   From: 2010.06.25/outbox.cif.g09.slc.cpg/sg15_47_cif.got.tgz:92566.got - 2010.06.28 07:06:18.
