data_PCOD8151732
_publ_section_title
;
Structure prediction by ZEFSAII (Michael W. Deem and Ramdas Pophale) SiO2 
 PCOD8151732
Probable space group: C 2/C
;
_chemical_formula_sum "Si O2"
_cell_formula_units_Z 48
_cell_length_a 7.971690
_cell_length_b 19.810885
_cell_length_c 16.171202
_cell_angle_alpha 90.000000
_cell_angle_beta 58.148651
_cell_angle_gamma 90.000000
_cell_volume 2169.297465
_symmetry_space_group_name_H-M "C 2/C"
_symmetry_group_IT_number 15
_symmetry_cell_setting 'monoclinic'
loop_
_space_group_symop_operation_xyz
x,y,z
-x,y,1/2-z
-x,-y,-z
x,-y,1/2+z
1/2+x,1/2+y,z
1/2-x,1/2+y,1/2-z
1/2-x,1/2-y,-z
1/2+x,1/2-y,1/2+z
loop_
_atom_site_type_symbol
_atom_site_label
_atom_site_fract_x
_atom_site_fract_y
_atom_site_fract_z
Si Si1 0.573452 0.077288 0.354895
Si Si2 0.285001 0.446128 0.270707
Si Si3 0.215929 0.375006 0.986717
Si Si4 0.434271 0.189076 0.673382
Si Si5 0.222145 0.992968 0.414687
Si Si6 0.111690 0.161980 0.307310
O O1 0.595464 0.121740 0.431780
O O2 0.693605 0.114898 0.249126
O O3 0.662960 0.003532 0.349635
O O4 0.344208 0.064164 0.388321
O O5 0.500000 0.454448 0.250000
O O6 0.213645 0.371138 0.311973
O O7 0.267261 0.460408 0.178207
O O8 0.453208 0.366888 0.914578
O O9 0.170718 0.441683 0.051136
O O10 0.125154 0.312903 0.063057
O O11 0.500000 0.180651 0.750000
O O12 0.327200 0.261189 0.686573
O O13 0.000000 0.000000 0.500000
O O14 0.000000 0.160978 0.250000
#
# Coordination Sequence:
#
# PCOD8151732 Si02
#       6
#     8   8   8   8   8   8
#     4  11  22  42  65  97 132 167 215 269 331 388
#     4  12  24  41  64  91 131 168 218 270 326 386
#     4  11  21  39  66  99 130 171 218 263 322 395
#     4  11  21  41  65  95 135 174 220 262 323 390
#     4  12  24  38  65  99 128 169 218 275 331 387
#     4   9  21  39  67  98 132 176 213 260 324 401
#
# _framework density 22.126978999999999
#
# number of rings (size 3 to 8) (size 9 to 14) (size 15 to 20)
#    0.000    1.000    3.333    5.000    2.333    0.000 
#    0.000    3.333    0.000    2.000    0.000    0.000 
#    0.000    0.000    0.000    0.000    0.000    0.000 
#
# Total GULP energy -297522.203420 kJ/mol
# GULP energy per Si atom -12396.758476 kJ/mol
# Density = 2.207662 g / cm^3
# Si number density = 22.126979 Si / 1000 Ang^3
#
#
#
# Elastic Constant Matrix: (Units=GPa)
#
#
# Indices 1 2 3 4 5 6 
#
# 1 85.5871 27.6343 53.7344 0.0000 -21.5426 0.0000
# 2 27.6343 127.7747 42.0836 0.0000 -17.4539 0.0000
# 3 53.7344 42.0836 127.5954 0.0000 -12.0251 0.0000
# 4 0.0000 0.0000 0.0000 193.2958 0.0000 -110.8793
# 5 -21.5426 -17.4539 -12.0251 0.0000 42.4729 0.0000
# 6 0.0000 0.0000 0.0000 -110.8793 0.0000 80.9337
#
#
#
# Elastic Compliance Matrix: (Units=1/GPa)
#
#
# Indices 1 2 3 4 5 6 
#
# 1 0.017793 -0.000737 -0.006604 0.000000 0.006852 0.000000
# 2 -0.000737 0.009163 -0.002458 0.000000 0.002696 0.000000
# 3 -0.006604 -0.002458 0.011320 0.000000 -0.001155 0.000000
# 4 0.000000 0.000000 0.000000 0.024160 0.000000 0.033099
# 5 0.006852 0.002696 -0.001155 0.000000 0.027801 0.000000
# 6 0.000000 0.000000 0.000000 0.033099 0.000000 0.057701
#
#
# Mechanical properties :
#
#
# Convention : Reuss Voigt Hill
#
# Bulk Modulus (GPa) = 53.53747 65.31799 59.42773
# Shear Modulus (GPa) = 28.77473 77.84081 53.30777
#
# Velocity S-wave (km/s) = 3.61007 5.93764 4.91366
# Velocity P-wave (km/s) = 6.45173 8.75163 7.68817
#
# Compressibility (1/GPa) = 0.01867851
#
# Stress axis : x y z
#
# Youngs Moduli (GPa) = 56.20154 109.12924 88.33601
#
# Poissons Ratio (x) = 0.08043 0.58341
# Poissons Ratio (y) = 0.04142 0.21712
# Poissons Ratio (z) = 0.37118 0.26822
#
# Static dielectric constant tensor:
#      x y z
#    x 3.724020 0.000000 -0.103370 
#    y 0.000000 4.343880 0.000000 
#    z -0.103370 0.000000 4.369730 
# 
# 
# High freq. dielectric constant tensor:
#      x y z
#    x 1.848080 0.000000 -0.003250 
#    y 0.000000 1.866860 0.000000 
#    z -0.003250 0.000000 1.890560 
# 
# From -- ./inp_files/191965.got.cif
#   From: 2010.06.25/outbox.cif.g09.slc.cpg/sg15_96_cif.got.tgz:191965.got - 2010.06.28 07:06:18.
