data_PCOD8151243
_publ_section_title
;
Structure prediction by ZEFSAII (Michael W. Deem and Ramdas Pophale) SiO2 
 PCOD8151243
Probable space group: C 2/C
;
_chemical_formula_sum "Si O2"
_cell_formula_units_Z 40
_cell_length_a 8.966785
_cell_length_b 11.462838
_cell_length_c 18.648363
_cell_angle_alpha 90.000000
_cell_angle_beta 97.447672
_cell_angle_gamma 90.000000
_cell_volume 1900.597818
_symmetry_space_group_name_H-M "C 2/C"
_symmetry_group_IT_number 15
_symmetry_cell_setting 'monoclinic'
loop_
_space_group_symop_operation_xyz
x,y,z
-x,y,1/2-z
-x,-y,-z
x,-y,1/2+z
1/2+x,1/2+y,z
1/2-x,1/2+y,1/2-z
1/2-x,1/2-y,-z
1/2+x,1/2-y,1/2+z
loop_
_atom_site_type_symbol
_atom_site_label
_atom_site_fract_x
_atom_site_fract_y
_atom_site_fract_z
Si Si1 0.069061 0.180110 0.914052
Si Si2 0.178267 0.140333 0.073074
Si Si3 0.757033 0.765574 0.606383
Si Si4 0.049732 0.949570 0.830469
Si Si5 0.856452 0.430288 0.022172
O O1 0.191567 0.271696 0.893609
O O2 0.900837 0.211195 0.877629
O O3 0.113043 0.055954 0.882596
O O4 0.073739 0.188919 0.001515
O O5 0.086713 0.113257 0.138063
O O6 0.243051 0.021974 0.046830
O O7 0.827876 0.845681 0.673673
O O8 0.878065 0.665976 0.587715
O O9 0.730989 0.861016 0.543598
O O10 0.000000 0.997491 0.750000
O O11 0.000000 0.500000 0.000000
#
# Coordination Sequence:
#
# PCOD8151243 Si02
#       5
#     8   8   8   8   8
#     4  11  23  42  71  98 127 160 217 272 320 375
#     4  11  22  41  69 100 125 163 213 270 328 378
#     4  11  23  38  65  94 130 163 205 264 320 371
#     4  12  27  44  61  90 134 177 214 257 317 388
#     4  11  20  36  68 103 126 154 205 273 328 369
#
# _framework density 21.046008
#
# number of rings (size 3 to 8) (size 9 to 14) (size 15 to 20)
#    0.000    0.800    6.000    3.000    2.800    1.600 
#    0.000    0.000    0.000    0.000    0.000    0.000 
#    0.000    0.000    0.000    0.000    0.000    0.000 
#
# Total GULP energy -247841.407622 kJ/mol
# GULP energy per Si atom -12392.070381 kJ/mol
# Density = 2.099811 g / cm^3
# Si number density = 21.046008 Si / 1000 Ang^3
#
#
#
# Elastic Constant Matrix: (Units=GPa)
#
#
# Indices 1 2 3 4 5 6 
#
# 1 88.1351 40.5079 14.8347 0.0000 -1.5270 0.0000
# 2 40.5079 109.3900 5.9846 0.0000 1.8081 0.0000
# 3 14.8347 5.9846 56.3638 0.0000 -2.8194 0.0000
# 4 0.0000 0.0000 0.0000 18.9112 0.0000 5.8677
# 5 -1.5270 1.8081 -2.8194 0.0000 16.5695 0.0000
# 6 0.0000 0.0000 0.0000 5.8677 0.0000 47.7328
#
#
#
# Elastic Compliance Matrix: (Units=1/GPa)
#
#
# Indices 1 2 3 4 5 6 
#
# 1 0.014255 -0.005129 -0.003140 0.000000 0.001339 0.000000
# 2 -0.005129 0.011063 0.000092 0.000000 -0.001664 0.000000
# 3 -0.003140 0.000092 0.018703 0.000000 0.002883 0.000000
# 4 0.000000 0.000000 0.000000 0.054976 0.000000 -0.006758
# 5 0.001339 -0.001664 0.002883 0.000000 0.061148 0.000000
# 6 0.000000 0.000000 0.000000 -0.006758 0.000000 0.021781
#
#
# Mechanical properties :
#
#
# Convention : Reuss Voigt Hill
#
# Bulk Modulus (GPa) = 36.14459 41.83814 38.99137
# Shear Modulus (GPa) = 24.09603 29.48013 26.78808
#
# Velocity S-wave (km/s) = 3.38734 3.74672 3.57155
# Velocity P-wave (km/s) = 5.70177 6.21608 5.96447
#
# Compressibility (1/GPa) = 0.02766666
#
# Stress axis : x y z
#
# Youngs Moduli (GPa) = 70.14859 90.38761 53.46774
#
# Poissons Ratio (x) = 0.46362 0.16791
# Poissons Ratio (y) = 0.35981 -0.00492
# Poissons Ratio (z) = 0.22029 -0.00832
#
# Static dielectric constant tensor:
#      x y z
#    x 4.977340 0.000000 0.941360 
#    y 0.000000 1.595720 0.000000 
#    z 0.941360 0.000000 4.175500 
# 
# 
# High freq. dielectric constant tensor:
#      x y z
#    x 1.827450 0.000000 -0.003820 
#    y 0.000000 1.858750 0.000000 
#    z -0.003820 0.000000 1.769460 
# 
# From -- ./inp_files/187900.got.cif
#   From: 2010.06.25/outbox.cif.g09.slc.cpg/sg15_94_cif.got.tgz:187900.got - 2010.06.28 07:06:18.
