data_PCOD8151546
_publ_section_title
;
Structure prediction by ZEFSAII (Michael W. Deem and Ramdas Pophale) SiO2 
 PCOD8151546
Probable space group: C 2/C
;
_chemical_formula_sum "Si O2"
_cell_formula_units_Z 64
_cell_length_a 22.611507
_cell_length_b 11.445703
_cell_length_c 20.897052
_cell_angle_alpha 90.000000
_cell_angle_beta 39.525156
_cell_angle_gamma 90.000000
_cell_volume 3441.903881
_symmetry_space_group_name_H-M "C 2/C"
_symmetry_group_IT_number 15
_symmetry_cell_setting 'monoclinic'
loop_
_space_group_symop_operation_xyz
x,y,z
-x,y,1/2-z
-x,-y,-z
x,-y,1/2+z
1/2+x,1/2+y,z
1/2-x,1/2+y,1/2-z
1/2-x,1/2-y,-z
1/2+x,1/2-y,1/2+z
loop_
_atom_site_type_symbol
_atom_site_label
_atom_site_fract_x
_atom_site_fract_y
_atom_site_fract_z
Si Si1 0.662885 0.138920 0.382655
Si Si2 0.197014 0.546426 0.219363
Si Si3 0.596484 0.551307 0.483257
Si Si4 0.804333 0.384507 0.098599
Si Si5 0.867731 0.252644 0.807222
Si Si6 0.578343 0.738528 0.593747
Si Si7 0.670091 0.202199 0.778360
Si Si8 0.492517 0.318292 0.962073
O O1 0.651474 0.108196 0.318125
O O2 0.744894 0.230613 0.324466
O O3 0.567219 0.200483 0.482158
O O4 0.684167 0.024056 0.407073
O O5 0.308358 0.543645 0.136556
O O6 0.170880 0.619209 0.178379
O O7 0.157339 0.415519 0.247703
O O8 0.612423 0.614300 0.537649
O O9 0.562182 0.421164 0.528332
O O10 0.521562 0.628585 0.506703
O O11 0.702432 0.349099 0.157453
O O12 0.814314 0.325420 0.159699
O O13 0.886024 0.339930 0.983700
O O14 0.873108 0.252629 0.878801
O O15 0.967271 0.236519 0.691207
O O16 0.580225 0.283357 0.845730
#
# Coordination Sequence:
#
# PCOD8151546 Si02
#       8
#     8   8   8   8   8   8   8   8
#     4  11  22  35  55  88 122 148 187 225 296 346
#     4  11  21  36  58  83 120 152 186 236 288 340
#     4  11  21  35  60  84 116 152 191 231 283 339
#     4  11  23  36  58  85 121 149 186 239 281 342
#     4  11  23  39  61  81 115 149 191 248 275 332
#     4  11  23  39  58  88 108 150 203 229 288 331
#     4  11  22  36  55  90 120 151 185 228 293 345
#     4  11  22  35  57  85 119 154 178 237 281 345
#
# _framework density 18.594360000000002
#
# number of rings (size 3 to 8) (size 9 to 14) (size 15 to 20)
#    0.000    1.000    6.250    1.125    3.500    1.000 
#    0.000    0.000    0.000    3.000    0.000    0.000 
#    0.000    0.000    0.000    0.000    0.000    0.000 
#
# Total GULP energy -396838.302178 kJ/mol
# GULP energy per Si atom -12401.196943 kJ/mol
# Density = 1.855204 g / cm^3
# Si number density = 18.594360 Si / 1000 Ang^3
#
#
#
# Elastic Constant Matrix: (Units=GPa)
#
#
# Indices 1 2 3 4 5 6 
#
# 1 68.5311 43.0919 26.2723 0.0000 2.3065 0.0000
# 2 43.0919 129.5617 26.4217 0.0000 4.2285 0.0000
# 3 26.2723 26.4217 76.4764 0.0000 -6.3293 0.0000
# 4 0.0000 0.0000 0.0000 35.8374 0.0000 -6.7023
# 5 2.3065 4.2285 -6.3293 0.0000 26.8100 0.0000
# 6 0.0000 0.0000 0.0000 -6.7023 0.0000 26.1870
#
#
#
# Elastic Compliance Matrix: (Units=1/GPa)
#
#
# Indices 1 2 3 4 5 6 
#
# 1 0.020152 -0.005581 -0.005166 0.000000 -0.002073 0.000000
# 2 -0.005581 0.009958 -0.001646 0.000000 -0.001479 0.000000
# 3 -0.005166 -0.001646 0.015786 0.000000 0.004431 0.000000
# 4 0.000000 0.000000 0.000000 0.029307 0.000000 0.007501
# 5 -0.002073 -0.001479 0.004431 0.000000 0.038757 0.000000
# 6 0.000000 0.000000 0.000000 0.007501 0.000000 0.040107
#
#
# Mechanical properties :
#
#
# Convention : Reuss Voigt Hill
#
# Bulk Modulus (GPa) = 47.37050 51.79343 49.58196
# Shear Modulus (GPa) = 26.89781 29.68577 28.29179
#
# Velocity S-wave (km/s) = 3.80749 3.99995 3.90491
# Velocity P-wave (km/s) = 6.69779 7.01767 6.85959
#
# Compressibility (1/GPa) = 0.02111018
#
# Stress axis : x y z
#
# Youngs Moduli (GPa) = 49.62396 100.41700 63.34767
#
# Poissons Ratio (x) = 0.56044 0.32726
# Poissons Ratio (y) = 0.27696 0.10425
# Poissons Ratio (z) = 0.25636 0.16525
#
# Static dielectric constant tensor:
#      x y z
#    x 3.194170 0.000000 -0.185670 
#    y 0.000000 3.616570 0.000000 
#    z -0.185670 0.000000 3.508480 
# 
# 
# High freq. dielectric constant tensor:
#      x y z
#    x 1.686880 0.000000 -0.023140 
#    y 0.000000 1.731160 0.000000 
#    z -0.023140 0.000000 1.732970 
# 
# From -- ./inp_files/252562.got.cif
#   From: 2010.06.25/outbox.cif.g09.slc.cpg/sg15_127_cif.got.tgz:252562.got - 2010.06.28 07:06:18.
