data_PCOD8151532
_publ_section_title
;
Structure prediction by ZEFSAII (Michael W. Deem and Ramdas Pophale) SiO2 
 PCOD8151532
Probable space group: C 2/C
;
_chemical_formula_sum "Si O2"
_cell_formula_units_Z 64
_cell_length_a 19.357388
_cell_length_b 19.393262
_cell_length_c 13.541439
_cell_angle_alpha 90.000000
_cell_angle_beta 135.622414
_cell_angle_gamma 90.000000
_cell_volume 3555.314284
_symmetry_space_group_name_H-M "C 2/C"
_symmetry_group_IT_number 15
_symmetry_cell_setting 'monoclinic'
loop_
_space_group_symop_operation_xyz
x,y,z
-x,y,1/2-z
-x,-y,-z
x,-y,1/2+z
1/2+x,1/2+y,z
1/2-x,1/2+y,1/2-z
1/2-x,1/2-y,-z
1/2+x,1/2-y,1/2+z
loop_
_atom_site_type_symbol
_atom_site_label
_atom_site_fract_x
_atom_site_fract_y
_atom_site_fract_z
Si Si1 0.091986 0.477378 0.905365
Si Si2 0.154563 0.425652 0.174847
Si Si3 0.024125 0.627001 0.878525
Si Si4 0.895601 0.877001 0.121475
Si Si5 0.770284 0.175652 0.674847
Si Si6 0.563379 0.227378 0.405365
Si Si7 0.111911 0.309765 0.648030
Si Si8 0.713882 0.059765 0.351970
O O1 0.084170 0.558482 0.913305
O O2 0.187113 0.460648 0.936867
O O3 0.000000 0.447759 0.750000
O O4 0.094043 0.440107 0.012737
O O5 0.246215 0.375000 0.242430
O O6 0.198731 0.496218 0.262752
O O7 0.078726 0.391160 0.172779
O O8 0.000000 0.665422 0.750000
O O9 0.099308 0.672873 0.019496
O O10 0.844053 0.858840 0.172779
O O11 0.920865 0.808483 0.086695
O O12 0.000000 0.915422 0.250000
O O13 0.829811 0.922873 0.980504
O O14 0.668693 0.190107 0.512737
O O15 0.814021 0.246218 0.762752
O O16 0.500000 0.197759 0.250000
O O17 0.499753 0.210648 0.436867
O O18 0.152737 0.375000 0.750000
#
# Coordination Sequence:
#
# PCOD8151532 Si02
#       8
#     8   8   8   8   8   8   8   8
#     4  11  21  34  59  93 128 154 190 248 313 366
#     4  12  23  38  60  92 125 166 197 249 310 363
#     4  11  22  39  59  87 131 159 198 249 311 360
#     4  11  22  39  59  87 131 159 198 249 311 360
#     4  12  23  38  60  92 125 166 197 249 310 363
#     4  11  21  34  59  93 128 154 190 248 313 366
#     4  12  23  37  63  94 126 159 205 251 308 369
#     4  12  23  37  63  94 126 159 205 251 308 369
#
# _framework density 18.001221999999999
#
# number of rings (size 3 to 8) (size 9 to 14) (size 15 to 20)
#    0.000    0.500   10.000    2.250    0.000    0.000 
#    0.000    1.250    0.000    0.750    0.000    0.000 
#    0.000    0.000    0.000    0.000    0.000    0.000 
#
# Total GULP energy -396740.715478 kJ/mol
# GULP energy per Si atom -12398.147359 kJ/mol
# Density = 1.796025 g / cm^3
# Si number density = 18.001222 Si / 1000 Ang^3
#
#
#
# Elastic Constant Matrix: (Units=GPa)
#
#
# Indices 1 2 3 4 5 6 
#
# 1 90.6085 44.2210 70.9213 0.0000 3.9635 0.0000
# 2 44.2210 89.2527 47.5964 0.0000 0.2425 0.0000
# 3 70.9213 47.5964 126.2186 0.0000 -1.4051 0.0000
# 4 0.0000 0.0000 0.0000 22.9826 0.0000 -0.4761
# 5 3.9635 0.2425 -1.4051 0.0000 37.0416 0.0000
# 6 0.0000 0.0000 0.0000 -0.4761 0.0000 29.6093
#
#
#
# Elastic Compliance Matrix: (Units=1/GPa)
#
#
# Indices 1 2 3 4 5 6 
#
# 1 0.021781 -0.005309 -0.010266 0.000000 -0.002685 0.000000
# 2 -0.005309 0.015322 -0.002790 0.000000 0.000362 0.000000
# 3 -0.010266 -0.002790 0.014762 0.000000 0.001677 0.000000
# 4 0.000000 0.000000 0.000000 0.043526 0.000000 0.000700
# 5 -0.002685 0.000362 0.001677 0.000000 0.027345 0.000000
# 6 0.000000 0.000000 0.000000 0.000700 0.000000 0.033784
#
#
# Mechanical properties :
#
#
# Convention : Reuss Voigt Hill
#
# Bulk Modulus (GPa) = 66.08215 70.17302 68.12758
# Shear Modulus (GPa) = 25.21479 27.48278 26.34878
#
# Velocity S-wave (km/s) = 3.74669 3.91156 3.83001
# Velocity P-wave (km/s) = 7.45026 7.71151 7.58201
#
# Compressibility (1/GPa) = 0.01513268
#
# Stress axis : x y z
#
# Youngs Moduli (GPa) = 45.91214 65.26639 67.74081
#
# Poissons Ratio (x) = 0.34653 0.69544
# Poissons Ratio (y) = 0.24377 0.18902
# Poissons Ratio (z) = 0.47134 0.18212
#
# Static dielectric constant tensor:
#      x y z
#    x 3.466520 0.000000 0.006380 
#    y 0.000000 3.382840 0.000000 
#    z 0.006380 0.000000 3.555270 
# 
# 
# High freq. dielectric constant tensor:
#      x y z
#    x 1.692130 0.000000 0.000170 
#    y 0.000000 1.687360 0.000000 
#    z 0.000170 0.000000 1.694490 
# 
# From -- ./inp_files/107523.got.cif
#   From: 2010.06.25/outbox.cif.g09.slc.cpg/sg15_54_cif.got.tgz:107523.got - 2010.06.28 07:06:18.
