data_PCOD8151684
_publ_section_title
;
Structure prediction by ZEFSAII (Michael W. Deem and Ramdas Pophale) SiO2 
 PCOD8151684
Probable space group: C 2/C
;
_chemical_formula_sum "Si O2"
_cell_formula_units_Z 64
_cell_length_a 26.081265
_cell_length_b 18.773438
_cell_length_c 10.670228
_cell_angle_alpha 90.000000
_cell_angle_beta 144.414777
_cell_angle_gamma 90.000000
_cell_volume 3040.215769
_symmetry_space_group_name_H-M "C 2/C"
_symmetry_group_IT_number 15
_symmetry_cell_setting 'monoclinic'
loop_
_space_group_symop_operation_xyz
x,y,z
-x,y,1/2-z
-x,-y,-z
x,-y,1/2+z
1/2+x,1/2+y,z
1/2-x,1/2+y,1/2-z
1/2-x,1/2-y,-z
1/2+x,1/2-y,1/2+z
loop_
_atom_site_type_symbol
_atom_site_label
_atom_site_fract_x
_atom_site_fract_y
_atom_site_fract_z
Si Si1 0.285691 0.204886 0.217629
Si Si2 0.727620 0.858187 0.168464
Si Si3 0.019609 0.719457 0.931438
Si Si4 0.486164 0.612049 0.081609
Si Si5 0.776643 0.190771 0.150979
Si Si6 0.425346 0.209230 0.999185
Si Si7 0.699505 0.419611 0.408644
Si Si8 0.327672 0.425854 0.583583
O O1 0.248354 0.285476 0.130536
O O2 0.379719 0.197806 0.336748
O O3 0.297784 0.191760 0.390153
O O4 0.215067 0.146416 0.032271
O O5 0.726652 0.917193 0.056099
O O6 0.808921 0.879810 0.420685
O O7 0.639239 0.853564 0.076140
O O8 0.007555 0.803381 0.913631
O O9 0.000000 0.691619 0.750000
O O10 0.960601 0.687508 0.929448
O O11 0.500000 0.584495 0.250000
O O12 0.569399 0.577598 0.175422
O O13 0.397182 0.584088 0.843449
O O14 0.872047 0.216223 0.392367
O O15 0.777006 0.111813 0.097192
O O16 0.750000 0.250000 0.000000
O O17 0.500000 0.220153 0.250000
O O18 0.708333 0.493769 0.500633
#
# Coordination Sequence:
#
# PCOD8151684 Si02
#       8
#     8   8   8   8   8   8   8   8
#     4  11  23  39  69  97 132 174 234 273 330 407
#     4  11  23  44  65  92 134 176 223 282 334 400
#     4  11  21  38  67 101 131 174 226 286 335 395
#     4  11  22  40  63  94 142 182 216 267 341 412
#     4  11  22  40  64  97 125 173 225 274 330 403
#     4  11  23  37  66 100 129 167 223 291 342 383
#     4  12  26  40  66  99 137 182 223 274 337 415
#     4  12  24  42  64  94 137 179 221 273 343 408
#
# _framework density 21.051138000000002
#
# number of rings (size 3 to 8) (size 9 to 14) (size 15 to 20)
#    0.000    0.750    6.250    3.000    5.250    0.000 
#    0.000    0.625    0.000    3.750    0.000    0.000 
#    0.000    0.000    0.000    0.000    0.000    0.000 
#
# Total GULP energy -396536.495316 kJ/mol
# GULP energy per Si atom -12391.765479 kJ/mol
# Density = 2.100322 g / cm^3
# Si number density = 21.051138 Si / 1000 Ang^3
#
#
#
# Elastic Constant Matrix: (Units=GPa)
#
#
# Indices 1 2 3 4 5 6 
#
# 1 104.8343 34.2114 15.3998 0.0000 16.9826 0.0000
# 2 34.2114 109.1943 41.2305 0.0000 2.2698 0.0000
# 3 15.3998 41.2305 93.8756 0.0000 3.4206 0.0000
# 4 0.0000 0.0000 0.0000 19.1445 0.0000 -1.7891
# 5 16.9826 2.2698 3.4206 0.0000 29.1802 0.0000
# 6 0.0000 0.0000 0.0000 -1.7891 0.0000 28.6694
#
#
#
# Elastic Compliance Matrix: (Units=1/GPa)
#
#
# Indices 1 2 3 4 5 6 
#
# 1 0.011763 -0.003489 -0.000158 0.000000 -0.006556 0.000000
# 2 -0.003489 0.012016 -0.004765 0.000000 0.001655 0.000000
# 3 -0.000158 -0.004765 0.012809 0.000000 -0.001039 0.000000
# 4 0.000000 0.000000 0.000000 0.052541 0.000000 0.003279
# 5 -0.006556 0.001655 -0.001039 0.000000 0.038078 0.000000
# 6 0.000000 0.000000 0.000000 0.003279 0.000000 0.035085
#
#
# Mechanical properties :
#
#
# Convention : Reuss Voigt Hill
#
# Bulk Modulus (GPa) = 50.60163 54.39862 52.50012
# Shear Modulus (GPa) = 26.92429 29.86965 28.39697
#
# Velocity S-wave (km/s) = 3.58018 3.77093 3.67679
# Velocity P-wave (km/s) = 6.41716 6.69755 6.55885
#
# Compressibility (1/GPa) = 0.01976221
#
# Stress axis : x y z
#
# Youngs Moduli (GPa) = 85.01352 83.22093 78.06892
#
# Poissons Ratio (x) = 0.29039 0.01235
# Poissons Ratio (y) = 0.29664 0.37203
# Poissons Ratio (z) = 0.01345 0.39658
#
# Static dielectric constant tensor:
#      x y z
#    x 4.255690 0.000000 0.018330 
#    y 0.000000 3.575450 0.000000 
#    z 0.018330 0.000000 4.081610 
# 
# 
# High freq. dielectric constant tensor:
#      x y z
#    x 1.844730 0.000000 -0.008130 
#    y 0.000000 1.779310 0.000000 
#    z -0.008130 0.000000 1.825090 
# 
# From -- ./inp_files/127308.got.cif
#   From: 2010.06.25/outbox.cif.g09.slc.cpg/sg15_64_cif.got.tgz:127308.got - 2010.06.28 07:06:18.
