data_PCOD8151723
_publ_section_title
;
Structure prediction by ZEFSAII (Michael W. Deem and Ramdas Pophale) SiO2 
 PCOD8151723
Probable space group: C 2/C
;
_chemical_formula_sum "Si O2"
_cell_formula_units_Z 64
_cell_length_a 28.572624
_cell_length_b 9.109514
_cell_length_c 17.840677
_cell_angle_alpha 90.000000
_cell_angle_beta 138.573967
_cell_angle_gamma 90.000000
_cell_volume 3072.463271
_symmetry_space_group_name_H-M "C 2/C"
_symmetry_group_IT_number 15
_symmetry_cell_setting 'monoclinic'
loop_
_space_group_symop_operation_xyz
x,y,z
-x,y,1/2-z
-x,-y,-z
x,-y,1/2+z
1/2+x,1/2+y,z
1/2-x,1/2+y,1/2-z
1/2-x,1/2-y,-z
1/2+x,1/2-y,1/2+z
loop_
_atom_site_type_symbol
_atom_site_label
_atom_site_fract_x
_atom_site_fract_y
_atom_site_fract_z
Si Si1 0.050496 0.437092 0.698160
Si Si2 0.404501 0.297584 0.571572
Si Si3 0.185550 0.298544 0.136511
Si Si4 0.328350 0.454302 0.351828
Si Si5 0.071426 0.302683 0.115379
Si Si6 0.940686 0.888137 0.773957
Si Si7 0.943193 0.843853 0.374659
Si Si8 0.101249 0.537490 0.419936
O O1 0.039265 0.561740 0.622327
O O2 0.087892 0.302574 0.699903
O O3 0.101282 0.470424 0.829347
O O4 0.972598 0.402210 0.635952
O O5 0.350602 0.388933 0.457604
O O6 0.398638 0.374959 0.645909
O O7 0.485548 0.299996 0.642541
O O8 0.380712 0.129103 0.536201
O O9 0.260903 0.369557 0.240388
O O10 0.130038 0.365328 0.129522
O O11 0.187954 0.124317 0.152173
O O12 0.160451 0.350585 0.023336
O O13 0.390746 0.427693 0.367333
O O14 0.106134 0.193554 0.218745
O O15 0.014148 0.202225 0.003276
O O16 0.958909 0.053028 0.821459
#
# Coordination Sequence:
#
# PCOD8151723 Si02
#       8
#     8   8   8   8   8   8   8   8
#     4  11  23  37  68 102 136 168 214 272 327 381
#     4  11  22  40  67  95 138 169 214 269 332 385
#     4  12  28  44  68  92 133 173 221 267 328 390
#     4  12  27  46  65  95 129 175 217 269 328 389
#     4  12  21  42  67 101 128 173 217 269 321 386
#     4  11  21  39  66 101 132 168 211 272 328 379
#     4  12  24  39  69 101 133 165 226 273 316 384
#     4  11  22  42  63 100 136 170 213 266 332 387
#
# _framework density 20.830192
#
# number of rings (size 3 to 8) (size 9 to 14) (size 15 to 20)
#    0.000    0.500    6.250    3.000    5.250    1.000 
#    0.000    2.500    0.000    0.000    0.000    0.000 
#    0.000    0.000    0.000    0.000    0.000    0.000 
#
# Total GULP energy -396643.794162 kJ/mol
# GULP energy per Si atom -12395.118568 kJ/mol
# Density = 2.078278 g / cm^3
# Si number density = 20.830192 Si / 1000 Ang^3
#
#
#
# Elastic Constant Matrix: (Units=GPa)
#
#
# Indices 1 2 3 4 5 6 
#
# 1 45.7283 18.8505 21.5945 0.0000 -14.1319 0.0000
# 2 18.8505 142.5139 35.4659 0.0000 -16.8568 0.0000
# 3 21.5945 35.4659 106.3897 0.0000 -16.2660 0.0000
# 4 0.0000 0.0000 0.0000 35.8102 0.0000 -6.7883
# 5 -14.1319 -16.8568 -16.2660 0.0000 30.9785 0.0000
# 6 0.0000 0.0000 0.0000 -6.7883 0.0000 32.4645
#
#
#
# Elastic Compliance Matrix: (Units=1/GPa)
#
#
# Indices 1 2 3 4 5 6 
#
# 1 0.027170 -0.001574 -0.003508 0.000000 0.009696 0.000000
# 2 -0.001574 0.008021 -0.001954 0.000000 0.002621 0.000000
# 3 -0.003508 -0.001954 0.011259 0.000000 0.003249 0.000000
# 4 0.000000 0.000000 0.000000 0.029078 0.000000 0.006080
# 5 0.009696 0.002621 0.003249 0.000000 0.039836 0.000000
# 6 0.000000 0.000000 0.000000 0.006080 0.000000 0.032074
#
#
# Mechanical properties :
#
#
# Convention : Reuss Voigt Hill
#
# Bulk Modulus (GPa) = 30.88344 49.60597 40.24471
# Shear Modulus (GPa) = 29.01874 34.43204 31.72539
#
# Velocity S-wave (km/s) = 3.73649 4.07011 3.90686
# Velocity P-wave (km/s) = 5.78564 6.77893 6.30188
#
# Compressibility (1/GPa) = 0.03237981
#
# Stress axis : x y z
#
# Youngs Moduli (GPa) = 36.80510 124.66861 88.81476
#
# Poissons Ratio (x) = 0.19623 0.31154
# Poissons Ratio (y) = 0.05793 0.17352
# Poissons Ratio (z) = 0.12910 0.24357
#
# Static dielectric constant tensor:
#      x y z
#    x 3.819750 0.000000 -0.417450 
#    y 0.000000 3.962860 0.000000 
#    z -0.417450 0.000000 3.837660 
# 
# 
# High freq. dielectric constant tensor:
#      x y z
#    x 1.795240 0.000000 -0.035670 
#    y 0.000000 1.835170 0.000000 
#    z -0.035670 0.000000 1.809410 
# 
# From -- ./inp_files/224653.got.cif
#   From: 2010.06.25/outbox.cif.g09.slc.cpg/sg15_113_cif.got.tgz:224653.got - 2010.06.28 07:06:18.
