data_PCOD8151244
_publ_section_title
;
Structure prediction by ZEFSAII (Michael W. Deem and Ramdas Pophale) SiO2 
 PCOD8151244
Probable space group: C 2/C
;
_chemical_formula_sum "Si O2"
_cell_formula_units_Z 40
_cell_length_a 11.423958
_cell_length_b 8.990578
_cell_length_c 18.326471
_cell_angle_alpha 90.000000
_cell_angle_beta 89.686705
_cell_angle_gamma 90.000000
_cell_volume 1882.246778
_symmetry_space_group_name_H-M "C 2/C"
_symmetry_group_IT_number 15
_symmetry_cell_setting 'monoclinic'
loop_
_space_group_symop_operation_xyz
x,y,z
-x,y,1/2-z
-x,-y,-z
x,-y,1/2+z
1/2+x,1/2+y,z
1/2-x,1/2+y,1/2-z
1/2-x,1/2-y,-z
1/2+x,1/2-y,1/2+z
loop_
_atom_site_type_symbol
_atom_site_label
_atom_site_fract_x
_atom_site_fract_y
_atom_site_fract_z
Si Si1 0.931004 0.850144 0.522585
Si Si2 0.450634 0.093063 0.329652
Si Si3 0.179606 0.590073 0.415115
Si Si4 0.233111 0.771242 0.106956
Si Si5 0.141841 0.340367 0.075004
O O1 0.862056 0.779111 0.456513
O O2 0.833593 0.854074 0.588578
O O3 0.023793 0.732081 0.548083
O O4 0.000000 0.000000 0.500000
O O5 0.500000 0.062654 0.250000
O O6 0.553037 0.138953 0.385974
O O7 0.347835 0.218049 0.325005
O O8 0.385475 0.946701 0.358077
O O9 0.212928 0.433425 0.377487
O O10 0.190552 0.571823 0.503314
O O11 0.269008 0.719642 0.392699
#
# Coordination Sequence:
#
# PCOD8151244 Si02
#       5
#     8   8   8   8   8
#     4  11  20  36  68 104 123 152 207 275 324 362
#     4  12  27  44  61  90 135 177 211 254 317 389
#     4  11  23  42  68  98 123 161 218 272 321 372
#     4  11  23  38  64  95 128 161 206 260 317 375
#     4  11  22  41  70  97 126 161 214 274 320 374
#
# _framework density 21.251197999999999
#
# number of rings (size 3 to 8) (size 9 to 14) (size 15 to 20)
#    0.000    0.800    6.000    3.000    2.800    1.600 
#    0.000    1.000    0.000    0.000    0.000    0.000 
#    0.000    0.000    0.000    0.000    0.000    0.000 
#
# Total GULP energy -247846.617807 kJ/mol
# GULP energy per Si atom -12392.330890 kJ/mol
# Density = 2.120283 g / cm^3
# Si number density = 21.251198 Si / 1000 Ang^3
#
#
#
# Elastic Constant Matrix: (Units=GPa)
#
#
# Indices 1 2 3 4 5 6 
#
# 1 113.0994 50.7476 16.3128 0.0000 -20.4300 0.0000
# 2 50.7476 102.3439 33.0100 0.0000 -19.0143 0.0000
# 3 16.3128 33.0100 80.3879 0.0000 -29.7273 0.0000
# 4 0.0000 0.0000 0.0000 18.2150 0.0000 -7.3811
# 5 -20.4300 -19.0143 -29.7273 0.0000 30.2677 0.0000
# 6 0.0000 0.0000 0.0000 -7.3811 0.0000 47.4531
#
#
#
# Elastic Compliance Matrix: (Units=1/GPa)
#
#
# Indices 1 2 3 4 5 6 
#
# 1 0.012276 -0.005537 0.002450 0.000000 0.007214 0.000000
# 2 -0.005537 0.014074 -0.004347 0.000000 0.000834 0.000000
# 3 0.002450 -0.004347 0.020931 0.000000 0.019481 0.000000
# 4 0.000000 0.000000 0.000000 0.058593 0.000000 0.009114
# 5 0.007214 0.000834 0.019481 0.000000 0.057565 0.000000
# 6 0.000000 0.000000 0.000000 0.009114 0.000000 0.022491
#
#
# Mechanical properties :
#
#
# Convention : Reuss Voigt Hill
#
# Bulk Modulus (GPa) = 30.85107 55.10801 42.97954
# Shear Modulus (GPa) = 23.62921 32.23788 27.93354
#
# Velocity S-wave (km/s) = 3.33813 3.89908 3.62946
# Velocity P-wave (km/s) = 5.42276 6.80136 6.15081
#
# Compressibility (1/GPa) = 0.03241379
#
# Stress axis : x y z
#
# Youngs Moduli (GPa) = 81.45965 71.05460 47.77499
#
# Poissons Ratio (x) = 0.39344 -0.11707
# Poissons Ratio (y) = 0.45105 0.20768
# Poissons Ratio (z) = -0.19961 0.30887
#
# Static dielectric constant tensor:
#      x y z
#    x 4.565920 0.000000 -0.487860 
#    y 0.000000 4.013950 0.000000 
#    z -0.487860 0.000000 3.562590 
# 
# 
# High freq. dielectric constant tensor:
#      x y z
#    x 1.868470 0.000000 -0.020090 
#    y 0.000000 1.835920 0.000000 
#    z -0.020090 0.000000 1.779330 
# 
# From -- ./inp_files/195088.got.cif
#   From: 2010.06.25/outbox.cif.g09.slc.cpg/sg15_98_cif.got.tgz:195088.got - 2010.06.28 07:06:18.
