data_PCOD8151270
_publ_section_title
;
Structure prediction by ZEFSAII (Michael W. Deem and Ramdas Pophale) SiO2 
 PCOD8151270
Probable space group: C 2/C
;
_chemical_formula_sum "Si O2"
_cell_formula_units_Z 48
_cell_length_a 11.939582
_cell_length_b 26.335851
_cell_length_c 8.550959
_cell_angle_alpha 90.000000
_cell_angle_beta 54.753414
_cell_angle_gamma 90.000000
_cell_volume 2195.841890
_symmetry_space_group_name_H-M "C 2/C"
_symmetry_group_IT_number 15
_symmetry_cell_setting 'monoclinic'
loop_
_space_group_symop_operation_xyz
x,y,z
-x,y,1/2-z
-x,-y,-z
x,-y,1/2+z
1/2+x,1/2+y,z
1/2-x,1/2+y,1/2-z
1/2-x,1/2-y,-z
1/2+x,1/2-y,1/2+z
loop_
_atom_site_type_symbol
_atom_site_label
_atom_site_fract_x
_atom_site_fract_y
_atom_site_fract_z
Si Si1 0.974317 0.213947 0.602837
Si Si2 0.000000 0.654516 0.750000
Si Si3 0.390972 0.003627 0.956867
Si Si4 0.234539 0.397025 0.876839
Si Si5 0.658818 0.108042 0.095472
Si Si6 0.000000 0.841856 0.750000
Si Si7 0.827724 0.700872 0.631649
O O1 0.814983 0.229960 0.721570
O O2 0.000000 0.183853 0.750000
O O3 0.012282 0.187883 0.405635
O O4 0.069831 0.263505 0.548052
O O5 0.894004 0.690309 0.745637
O O6 0.087488 0.622110 0.556801
O O7 0.500000 0.026642 0.750000
O O8 0.319025 0.949880 0.977378
O O9 0.500000 0.000000 0.000000
O O10 0.267154 0.042146 0.095756
O O11 0.245160 0.383283 0.684867
O O12 0.363010 0.375723 0.870241
O O13 0.500000 0.118300 0.250000
O O14 0.709791 0.148264 0.926237
#
# Coordination Sequence:
#
# PCOD8151270 Si02
#       7
#     8   4   8   8   8   4   8
#     4  12  28  48  71 101 144 189 243 294 357 420
#     4  12  23  38  74  96 140 180 234 289 344 424
#     4  11  20  37  67 107 131 172 230 289 338 412
#     4  12  24  44  69 104 144 182 234 289 356 422
#     4  11  22  40  71 101 138 180 237 293 346 413
#     4  12  29  48  70 104 152 192 230 291 362 424
#     4  12  26  45  69 104 134 187 238 294 355 420
#
# _framework density 21.859496
#
# number of rings (size 3 to 8) (size 9 to 14) (size 15 to 20)
#    0.000    0.333    7.500    2.500    2.333    1.333 
#    0.000    0.833    1.833    0.000    0.000    0.000 
#    0.000    0.000    0.000    0.000    0.000    0.000 
#
# Total GULP energy -297358.730812 kJ/mol
# GULP energy per Si atom -12389.947117 kJ/mol
# Density = 2.180974 g / cm^3
# Si number density = 21.859496 Si / 1000 Ang^3
#
#
#
# Elastic Constant Matrix: (Units=GPa)
#
#
# Indices 1 2 3 4 5 6 
#
# 1 132.2233 45.7001 54.8532 0.0000 8.0849 0.0000
# 2 45.7001 91.0346 40.5829 0.0000 -2.9606 0.0000
# 3 54.8532 40.5829 108.7357 0.0000 18.9394 0.0000
# 4 0.0000 0.0000 0.0000 28.1426 0.0000 -0.6770
# 5 8.0849 -2.9606 18.9394 0.0000 55.6229 0.0000
# 6 0.0000 0.0000 0.0000 -0.6770 0.0000 27.1770
#
#
#
# Elastic Compliance Matrix: (Units=1/GPa)
#
#
# Indices 1 2 3 4 5 6 
#
# 1 0.010406 -0.003510 -0.003873 0.000000 -0.000380 0.000000
# 2 -0.003510 0.014703 -0.004191 0.000000 0.002720 0.000000
# 3 -0.003873 -0.004191 0.013453 0.000000 -0.004241 0.000000
# 4 0.000000 0.000000 0.000000 0.035555 0.000000 0.000886
# 5 -0.000380 0.002720 -0.004241 0.000000 0.019622 0.000000
# 6 0.000000 0.000000 0.000000 0.000886 0.000000 0.036818
#
#
# Mechanical properties :
#
#
# Convention : Reuss Voigt Hill
#
# Bulk Modulus (GPa) = 64.87120 68.25178 66.56149
# Shear Modulus (GPa) = 31.47744 34.91234 33.19489
#
# Velocity S-wave (km/s) = 3.79884 4.00074 3.90109
# Velocity P-wave (km/s) = 6.99874 7.25479 7.12792
#
# Compressibility (1/GPa) = 0.01541516
#
# Stress axis : x y z
#
# Youngs Moduli (GPa) = 96.09729 68.01135 74.33051
#
# Poissons Ratio (x) = 0.23869 0.28791
# Poissons Ratio (y) = 0.33726 0.31152
# Poissons Ratio (z) = 0.37222 0.28503
#
# Static dielectric constant tensor:
#      x y z
#    x 3.992040 0.000000 0.216860 
#    y 0.000000 3.710110 0.000000 
#    z 0.216860 0.000000 4.024300 
# 
# 
# High freq. dielectric constant tensor:
#      x y z
#    x 1.865740 0.000000 0.023750 
#    y 0.000000 1.847280 0.000000 
#    z 0.023750 0.000000 1.864250 
# 
# From -- ./inp_files/33458.got.cif
#   From: 2010.06.25/outbox.cif.g09.slc.cpg/sg15_17_cif.got.tgz:33458.got - 2010.06.28 07:06:18.
