data_PCOD8151856
_publ_section_title
;
Structure prediction by ZEFSAII (Michael W. Deem and Ramdas Pophale) SiO2 
 PCOD8151856
Probable space group: C 2/C
;
_chemical_formula_sum "Si O2"
_cell_formula_units_Z 48
_cell_length_a 17.955045
_cell_length_b 9.351039
_cell_length_c 30.287856
_cell_angle_alpha 90.000000
_cell_angle_beta 153.002781
_cell_angle_gamma 90.000000
_cell_volume 2308.449027
_symmetry_space_group_name_H-M "C 2/C"
_symmetry_group_IT_number 15
_symmetry_cell_setting 'monoclinic'
loop_
_space_group_symop_operation_xyz
x,y,z
-x,y,1/2-z
-x,-y,-z
x,-y,1/2+z
1/2+x,1/2+y,z
1/2-x,1/2+y,1/2-z
1/2-x,1/2-y,-z
1/2+x,1/2-y,1/2+z
loop_
_atom_site_type_symbol
_atom_site_label
_atom_site_fract_x
_atom_site_fract_y
_atom_site_fract_z
Si Si1 0.767763 0.759404 0.810061
Si Si2 0.002645 0.832809 0.490707
Si Si3 0.137251 0.257072 0.285280
Si Si4 0.379712 0.474955 0.795470
Si Si5 0.329093 0.630619 0.511453
Si Si6 0.999912 0.542565 0.301982
O O1 0.751957 0.603819 0.779279
O O2 0.842921 0.873407 0.816718
O O3 0.584869 0.814739 0.724186
O O4 0.877933 0.750795 0.912308
O O5 0.821370 0.768399 0.401470
O O6 0.064400 0.805010 0.473108
O O7 0.000000 0.000000 0.500000
O O8 0.121671 0.112735 0.250055
O O9 0.000000 0.248501 0.250000
O O10 0.099812 0.399531 0.236346
O O11 0.560714 0.534825 0.898593
O O12 0.250000 0.750000 0.500000
O O13 0.185722 0.530222 0.416698
O O14 0.000000 0.555760 0.250000
#
# Coordination Sequence:
#
# PCOD8151856 Si02
#       6
#     8   8   8   8   8   8
#     4  12  24  44  73 100 140 185 229 292 350 424
#     4  12  22  46  74  99 141 192 235 278 362 435
#     4  11  26  46  67 101 140 181 241 291 351 426
#     4  12  27  45  67 105 140 177 238 300 350 416
#     4  12  24  40  72 109 139 183 238 289 348 430
#     4  11  21  41  70 100 132 185 231 275 350 421
#
# _framework density 20.793182000000002
#
# number of rings (size 3 to 8) (size 9 to 14) (size 15 to 20)
#    0.000    0.333    6.667    3.000    0.000    3.333 
#    3.000    0.000    0.000    0.000    0.000    0.000 
#    0.000    0.000    0.000    0.000    0.000    0.000 
#
# Total GULP energy -297638.217795 kJ/mol
# GULP energy per Si atom -12401.592408 kJ/mol
# Density = 2.074586 g / cm^3
# Si number density = 20.793182 Si / 1000 Ang^3
#
#
#
# Elastic Constant Matrix: (Units=GPa)
#
#
# Indices 1 2 3 4 5 6 
#
# 1 108.1724 50.7037 36.6003 0.0000 8.1548 0.0000
# 2 50.7037 106.7331 41.8868 0.0001 -3.9371 0.0001
# 3 36.6003 41.8868 161.1680 0.0008 11.0483 0.0000
# 4 0.0000 0.0001 0.0008 24.3733 0.0002 2.6288
# 5 8.1548 -3.9371 11.0483 0.0002 32.5422 0.0000
# 6 0.0000 0.0001 0.0000 2.6288 0.0000 33.9312
#
#
#
# Elastic Compliance Matrix: (Units=1/GPa)
#
#
# Indices 1 2 3 4 5 6 
#
# 1 0.012530 -0.005629 -0.001147 0.000000 -0.003431 0.000000
# 2 -0.005629 0.013123 -0.002394 0.000000 0.003811 0.000000
# 3 -0.001147 -0.002394 0.007256 0.000000 -0.002466 0.000000
# 4 0.000000 0.000000 0.000000 0.041374 0.000000 -0.003205
# 5 -0.003431 0.003811 -0.002466 0.000000 0.032887 0.000000
# 6 0.000000 0.000000 0.000000 -0.003205 0.000000 0.029720
#
#
# Mechanical properties :
#
#
# Convention : Reuss Voigt Hill
#
# Bulk Modulus (GPa) = 68.63443 70.49504 69.56473
# Shear Modulus (GPa) = 31.23323 34.62818 32.93071
#
# Velocity S-wave (km/s) = 3.87989 4.08531 3.98392
# Velocity P-wave (km/s) = 7.29048 7.49864 7.39529
#
# Compressibility (1/GPa) = 0.01456995
#
# Stress axis : x y z
#
# Youngs Moduli (GPa) = 79.81071 76.20247 137.80973
#
# Poissons Ratio (x) = 0.42891 0.15812
# Poissons Ratio (y) = 0.44922 0.32986
# Poissons Ratio (z) = 0.09157 0.18240
#
# Static dielectric constant tensor:
#      x y z
#    x 3.835740 0.000000 -0.024300 
#    y 0.000000 4.423310 0.000000 
#    z -0.024300 0.000000 3.829670 
# 
# 
# High freq. dielectric constant tensor:
#      x y z
#    x 1.819230 0.000000 0.002230 
#    y 0.000000 1.805440 0.000000 
#    z 0.002230 0.000000 1.831760 
# 
# From -- ./inp_files/213540.got.cif
#   From: 2010.06.25/outbox.cif.g09.slc.cpg/sg15_107_cif.got.tgz:213540.got - 2010.06.28 07:06:18.
