data_PCOD8151902
_publ_section_title
;
Structure prediction by ZEFSAII (Michael W. Deem and Ramdas Pophale) SiO2 
 PCOD8151902
Probable space group: C 2/C
;
_chemical_formula_sum "Si O2"
_cell_formula_units_Z 40
_cell_length_a 25.884080
_cell_length_b 11.824744
_cell_length_c 11.491887
_cell_angle_alpha 90.000000
_cell_angle_beta 30.955082
_cell_angle_gamma 90.000000
_cell_volume 1809.205997
_symmetry_space_group_name_H-M "C 2/C"
_symmetry_group_IT_number 15
_symmetry_cell_setting 'monoclinic'
loop_
_space_group_symop_operation_xyz
x,y,z
-x,y,1/2-z
-x,-y,-z
x,-y,1/2+z
1/2+x,1/2+y,z
1/2-x,1/2+y,1/2-z
1/2-x,1/2-y,-z
1/2+x,1/2-y,1/2+z
loop_
_atom_site_type_symbol
_atom_site_label
_atom_site_fract_x
_atom_site_fract_y
_atom_site_fract_z
Si Si1 0.133310 0.644895 0.006934
Si Si2 0.714416 0.449555 0.118171
Si Si3 0.406522 0.035082 0.099609
Si Si4 0.339879 0.304419 0.754930
Si Si5 0.557562 0.741427 0.875774
O O1 0.237954 0.617009 0.866642
O O2 0.089109 0.530770 0.031493
O O3 0.156808 0.745192 0.874938
O O4 0.055986 0.690121 0.254874
O O5 0.665601 0.563046 0.260774
O O6 0.630796 0.366505 0.224103
O O7 0.798610 0.493244 0.864978
O O8 0.408519 0.172351 0.086378
O O9 0.500000 0.000000 0.000000
O O10 0.443686 0.290529 0.624987
O O11 0.250000 0.250000 0.000000
#
# Coordination Sequence:
#
# PCOD8151902 Si02
#       5
#     8   8   8   8   8
#     4  11  24  42  71 102 134 186 232 277 357 416
#     4  11  26  42  71  99 146 180 233 295 353 422
#     4  11  21  42  68 102 134 179 233 289 338 416
#     4  12  24  45  68 102 140 181 230 295 349 416
#     4  11  25  46  70 101 144 184 237 284 362 424
#
# _framework density 22.109145999999999
#
# number of rings (size 3 to 8) (size 9 to 14) (size 15 to 20)
#    0.000    0.800    4.000    3.600    8.400    0.000 
#    0.000    1.000    0.000    0.000    0.000    0.000 
#    0.000    0.000    0.000    0.000    0.000    0.000 
#
# Total GULP energy -247905.471528 kJ/mol
# GULP energy per Si atom -12395.273576 kJ/mol
# Density = 2.205882 g / cm^3
# Si number density = 22.109146 Si / 1000 Ang^3
#
#
#
# Elastic Constant Matrix: (Units=GPa)
#
#
# Indices 1 2 3 4 5 6 
#
# 1 82.5083 25.0578 53.1730 0.0000 -6.8227 0.0000
# 2 25.0578 137.5126 62.9042 0.0000 -0.0199 0.0000
# 3 53.1730 62.9042 127.1625 0.0000 -30.1285 0.0000
# 4 0.0000 0.0000 0.0000 26.6903 0.0000 -5.8256
# 5 -6.8227 -0.0199 -30.1285 0.0000 24.5368 0.0000
# 6 0.0000 0.0000 0.0000 -5.8256 0.0000 51.3406
#
#
#
# Elastic Compliance Matrix: (Units=1/GPa)
#
#
# Indices 1 2 3 4 5 6 
#
# 1 0.017257 0.001140 -0.009368 0.000000 -0.006704 0.000000
# 2 0.001140 0.010752 -0.008064 0.000000 -0.009576 0.000000
# 3 -0.009368 -0.008064 0.021368 0.000000 0.023626 0.000000
# 4 0.000000 0.000000 0.000000 0.038418 0.000000 0.004359
# 5 -0.006704 -0.009576 0.023626 0.000000 0.067894 0.000000
# 6 0.000000 0.000000 0.000000 0.004359 0.000000 0.019972
#
#
# Mechanical properties :
#
#
# Convention : Reuss Voigt Hill
#
# Bulk Modulus (GPa) = 59.55244 69.93926 64.74585
# Shear Modulus (GPa) = 23.38157 34.25009 28.81583
#
# Velocity S-wave (km/s) = 3.25553 3.94018 3.61410
# Velocity P-wave (km/s) = 6.41291 7.23894 6.83841
#
# Compressibility (1/GPa) = 0.01679192
#
# Stress axis : x y z
#
# Youngs Moduli (GPa) = 57.94809 93.00687 46.79866
#
# Poissons Ratio (x) = -0.10601 0.43841
# Poissons Ratio (y) = -0.06605 0.37739
# Poissons Ratio (z) = 0.54286 0.75003
#
# Static dielectric constant tensor:
#      x y z
#    x 3.902930 0.000000 -0.085800 
#    y 0.000000 4.388200 0.000000 
#    z -0.085800 0.000000 4.233240 
# 
# 
# High freq. dielectric constant tensor:
#      x y z
#    x 1.856180 0.000000 -0.022340 
#    y 0.000000 1.888080 0.000000 
#    z -0.022340 0.000000 1.875170 
# 
# From -- ./inp_files/122795.got.cif
#   From: 2010.06.25/outbox.cif.g09.slc.cpg/sg15_62_cif.got.tgz:122795.got - 2010.06.28 07:06:18.
