data_PCOD8151701
_publ_section_title
;
Structure prediction by ZEFSAII (Michael W. Deem and Ramdas Pophale) SiO2 
 PCOD8151701
Probable space group: C 2/C
;
_chemical_formula_sum "Si O2"
_cell_formula_units_Z 56
_cell_length_a 22.652622
_cell_length_b 13.730221
_cell_length_c 9.295426
_cell_angle_alpha 90.000000
_cell_angle_beta 84.916799
_cell_angle_gamma 90.000000
_cell_volume 2879.744073
_symmetry_space_group_name_H-M "C 2/C"
_symmetry_group_IT_number 15
_symmetry_cell_setting 'monoclinic'
loop_
_space_group_symop_operation_xyz
x,y,z
-x,y,1/2-z
-x,-y,-z
x,-y,1/2+z
1/2+x,1/2+y,z
1/2-x,1/2+y,1/2-z
1/2-x,1/2-y,-z
1/2+x,1/2-y,1/2+z
loop_
_atom_site_type_symbol
_atom_site_label
_atom_site_fract_x
_atom_site_fract_y
_atom_site_fract_z
Si Si1 0.500352 0.104115 0.420396
Si Si2 0.201148 0.277363 0.724857
Si Si3 0.157345 0.440312 0.256519
Si Si4 0.788030 0.946258 0.313294
Si Si5 0.374276 0.109997 0.054801
Si Si6 0.816468 0.891196 0.615449
Si Si7 0.118417 0.287236 0.478179
O O1 0.500000 0.088879 0.250000
O O2 0.560605 0.159408 0.460341
O O3 0.448248 0.177632 0.479875
O O4 0.500000 0.000000 0.500000
O O5 0.198015 0.161776 0.743669
O O6 0.176970 0.317235 0.881727
O O7 0.267367 0.312821 0.677660
O O8 0.158315 0.315039 0.607178
O O9 0.223510 0.478775 0.272111
O O10 0.115125 0.520789 0.336440
O O11 0.145569 0.336874 0.331080
O O12 0.144775 0.435072 0.091588
O O13 0.792569 0.951671 0.483734
O O14 0.831558 0.028110 0.233751
O O15 0.875156 0.828977 0.557720
#
# Coordination Sequence:
#
# PCOD8151701 Si02
#       7
#     8   8   8   8   8   8   8
#     4  12  24  38  61  88 120 158 194 240 299 358
#     4  11  21  39  59  87 120 159 200 243 298 357
#     4  12  21  35  57  89 126 158 191 243 292 358
#     4  11  22  36  59  87 122 159 199 238 299 354
#     4  12  24  34  56  89 122 156 198 240 294 356
#     4  11  22  38  61  87 119 164 197 247 298 352
#     4  11  22  40  58  83 124 159 197 241 300 358
#
# _framework density 19.446171
#
# number of rings (size 3 to 8) (size 9 to 14) (size 15 to 20)
#    0.000    0.571    7.143    3.429    0.000    1.714 
#    0.000    0.000    0.000    0.857    0.000    0.000 
#    0.000    0.000    0.000    0.000    0.000    0.000 
#
# Total GULP energy -347154.918204 kJ/mol
# GULP energy per Si atom -12398.389936 kJ/mol
# Density = 1.940191 g / cm^3
# Si number density = 19.446171 Si / 1000 Ang^3
#
#
#
# Elastic Constant Matrix: (Units=GPa)
#
#
# Indices 1 2 3 4 5 6 
#
# 1 91.9806 34.0997 28.3496 0.0000 -11.3374 0.0000
# 2 34.0997 101.0924 45.4716 0.0000 -11.6894 0.0000
# 3 28.3496 45.4716 88.9815 0.0000 -23.4935 0.0000
# 4 0.0000 0.0000 0.0000 35.0588 0.0000 -8.3096
# 5 -11.3374 -11.6894 -23.4935 0.0000 14.1278 0.0000
# 6 0.0000 0.0000 0.0000 -8.3096 0.0000 27.7445
#
#
#
# Elastic Compliance Matrix: (Units=1/GPa)
#
#
# Indices 1 2 3 4 5 6 
#
# 1 0.013148 -0.003339 -0.000760 0.000000 0.006525 0.000000
# 2 -0.003339 0.013694 -0.006507 0.000000 -0.002170 0.000000
# 3 -0.000760 -0.006507 0.023573 0.000000 0.033207 0.000000
# 4 0.000000 0.000000 0.000000 0.030703 0.000000 0.009196
# 5 0.006525 -0.002170 0.033207 0.000000 0.129444 0.000000
# 6 0.000000 0.000000 0.000000 0.009196 0.000000 0.038797
#
#
# Mechanical properties :
#
#
# Convention : Reuss Voigt Hill
#
# Bulk Modulus (GPa) = 34.24243 55.32178 44.78211
# Shear Modulus (GPa) = 17.83765 26.99512 22.41639
#
# Velocity S-wave (km/s) = 3.03195 3.72989 3.39889
# Velocity P-wave (km/s) = 5.46846 6.86002 6.20338
#
# Compressibility (1/GPa) = 0.02920353
#
# Stress axis : x y z
#
# Youngs Moduli (GPa) = 76.05665 73.02376 42.42096
#
# Poissons Ratio (x) = 0.24380 0.03225
# Poissons Ratio (y) = 0.25392 0.27604
# Poissons Ratio (z) = 0.05782 0.47518
#
# Static dielectric constant tensor:
#      x y z
#    x 3.576420 0.000000 -0.130160 
#    y 0.000000 3.454860 0.000000 
#    z -0.130160 0.000000 3.664660 
# 
# 
# High freq. dielectric constant tensor:
#      x y z
#    x 1.734300 0.000000 -0.009390 
#    y 0.000000 1.745880 0.000000 
#    z -0.009390 0.000000 1.769510 
# 
# From -- ./inp_files/55602.got.cif
#   From: 2010.06.25/outbox.cif.g09.slc.cpg/sg15_28_cif.got.tgz:55602.got - 2010.06.28 07:06:18.
