data_PCOD8151804
_publ_section_title
;
Structure prediction by ZEFSAII (Michael W. Deem and Ramdas Pophale) SiO2 
 PCOD8151804
Probable space group: C 2/C
;
_chemical_formula_sum "Si O2"
_cell_formula_units_Z 48
_cell_length_a 26.650561
_cell_length_b 9.630320
_cell_length_c 19.342722
_cell_angle_alpha 90.000000
_cell_angle_beta 152.188594
_cell_angle_gamma 90.000000
_cell_volume 2316.192783
_symmetry_space_group_name_H-M "C 2/C"
_symmetry_group_IT_number 15
_symmetry_cell_setting 'monoclinic'
loop_
_space_group_symop_operation_xyz
x,y,z
-x,y,1/2-z
-x,-y,-z
x,-y,1/2+z
1/2+x,1/2+y,z
1/2-x,1/2+y,1/2-z
1/2-x,1/2-y,-z
1/2+x,1/2-y,1/2+z
loop_
_atom_site_type_symbol
_atom_site_label
_atom_site_fract_x
_atom_site_fract_y
_atom_site_fract_z
Si Si1 0.465883 0.662189 0.538949
Si Si2 0.426675 0.112742 0.099227
Si Si3 0.675632 0.403479 0.115677
Si Si4 0.512298 0.202793 0.843397
Si Si5 0.143435 0.243786 0.229554
Si Si6 0.303225 0.559129 0.701025
O O1 0.456302 0.804808 0.567016
O O2 0.373943 0.557016 0.455415
O O3 0.450458 0.696619 0.438874
O O4 0.583087 0.595748 0.695830
O O5 0.500000 0.172371 0.250000
O O6 0.453213 0.955317 0.115087
O O7 0.299539 0.127241 0.963018
O O8 0.789576 0.377233 0.216214
O O9 0.696336 0.378537 0.221499
O O10 0.596714 0.290415 0.988838
O O11 0.500000 0.259934 0.750000
O O12 0.400576 0.214785 0.748929
O O13 0.217279 0.106693 0.327008
#
# Coordination Sequence:
#
# PCOD8151804 Si02
#       6
#     8   8   8   8   8   8
#     4  11  23  41  69 100 131 177 221 274 333 390
#     4  11  26  44  61  95 139 171 218 281 332 394
#     4  11  21  40  70 100 123 170 225 268 327 390
#     4  11  24  43  64  96 135 173 224 270 327 394
#     4  11  21  41  71 100 131 170 224 278 323 390
#     4  11  21  42  70  95 134 172 216 282 327 383
#
# _framework density 20.723662999999998
#
# number of rings (size 3 to 8) (size 9 to 14) (size 15 to 20)
#    0.000    1.000    6.667    1.000    0.000    4.000 
#    0.000    0.000    0.000    0.000    0.000    0.000 
#    0.000    0.000    0.000    0.000    0.000    0.000 
#
# Total GULP energy -297535.845494 kJ/mol
# GULP energy per Si atom -12397.326896 kJ/mol
# Density = 2.067650 g / cm^3
# Si number density = 20.723663 Si / 1000 Ang^3
#
#
#
# Elastic Constant Matrix: (Units=GPa)
#
#
# Indices 1 2 3 4 5 6 
#
# 1 111.8344 41.0799 47.4814 0.0000 15.6407 0.0000
# 2 41.0799 52.2224 32.3878 0.0000 -5.5142 0.0000
# 3 47.4814 32.3878 130.0006 0.0000 11.1713 0.0000
# 4 0.0000 0.0000 0.0000 28.0067 0.0000 -1.9362
# 5 15.6407 -5.5142 11.1713 0.0000 24.0954 0.0000
# 6 0.0000 0.0000 0.0000 -1.9362 0.0000 16.2963
#
#
#
# Elastic Compliance Matrix: (Units=1/GPa)
#
#
# Indices 1 2 3 4 5 6 
#
# 1 0.016226 -0.013160 -0.001545 0.000000 -0.012828 0.000000
# 2 -0.013160 0.034958 -0.005545 0.000000 0.019113 0.000000
# 3 -0.001545 -0.005545 0.010062 0.000000 -0.004931 0.000000
# 4 0.000000 0.000000 0.000000 0.036001 0.000000 0.004277
# 5 -0.012828 0.019113 -0.004931 0.000000 0.056489 0.000000
# 6 0.000000 0.000000 0.000000 0.004277 0.000000 0.061872
#
#
# Mechanical properties :
#
#
# Convention : Reuss Voigt Hill
#
# Bulk Modulus (GPa) = 48.20464 59.55061 53.87762
# Shear Modulus (GPa) = 19.00965 25.22023 22.11494
#
# Velocity S-wave (km/s) = 3.03197 3.49230 3.27025
# Velocity P-wave (km/s) = 5.96392 6.71264 6.34932
#
# Compressibility (1/GPa) = 0.02074489
#
# Stress axis : x y z
#
# Youngs Moduli (GPa) = 61.62961 28.60561 99.38409
#
# Poissons Ratio (x) = 0.37645 0.15359
# Poissons Ratio (y) = 0.81104 0.55111
# Poissons Ratio (z) = 0.09525 0.15863
#
# Static dielectric constant tensor:
#      x y z
#    x 3.784390 0.000000 0.042370 
#    y 0.000000 3.731580 0.000000 
#    z 0.042370 0.000000 4.050790 
# 
# 
# High freq. dielectric constant tensor:
#      x y z
#    x 1.795640 0.000000 0.009110 
#    y 0.000000 1.807460 0.000000 
#    z 0.009110 0.000000 1.820220 
# 
# From -- ./inp_files/257115.got.cif
#   From: 2010.06.25/outbox.cif.g09.slc.cpg/sg15_129_cif.got.tgz:257115.got - 2010.06.28 07:06:18.
