data_PCOD8151408
_publ_section_title
;
Structure prediction by ZEFSAII (Michael W. Deem and Ramdas Pophale) SiO2 
 PCOD8151408
Probable space group: C 2/C
;
_chemical_formula_sum "Si O2"
_cell_formula_units_Z 56
_cell_length_a 16.124421
_cell_length_b 17.609460
_cell_length_c 10.151532
_cell_angle_alpha 90.000000
_cell_angle_beta 116.050105
_cell_angle_gamma 90.000000
_cell_volume 2589.622745
_symmetry_space_group_name_H-M "C 2/C"
_symmetry_group_IT_number 15
_symmetry_cell_setting 'monoclinic'
loop_
_space_group_symop_operation_xyz
x,y,z
-x,y,1/2-z
-x,-y,-z
x,-y,1/2+z
1/2+x,1/2+y,z
1/2-x,1/2+y,1/2-z
1/2-x,1/2-y,-z
1/2+x,1/2-y,1/2+z
loop_
_atom_site_type_symbol
_atom_site_label
_atom_site_fract_x
_atom_site_fract_y
_atom_site_fract_z
Si Si1 0.302741 0.771529 0.328876
Si Si2 0.464772 0.274897 0.079976
Si Si3 0.471037 0.563990 0.878714
Si Si4 0.265991 0.930785 0.950529
Si Si5 0.255176 0.562357 0.761758
Si Si6 0.393852 0.678566 0.176459
Si Si7 0.866829 0.712183 0.427201
O O1 0.356123 0.749401 0.502190
O O2 0.297027 0.861052 0.312634
O O3 0.379195 0.740828 0.279019
O O4 0.206114 0.727605 0.242414
O O5 0.500000 0.282053 0.250000
O O6 0.479147 0.359754 0.031542
O O7 0.528600 0.211509 0.052452
O O8 0.500000 0.542910 0.750000
O O9 0.362111 0.576169 0.808909
O O10 0.500000 0.500000 0.000000
O O11 0.165274 0.897531 0.843552
O O12 0.344797 0.866795 0.984626
O O13 0.286246 0.998583 0.863646
O O14 0.266169 0.960180 0.101471
O O15 0.500000 0.655148 0.250000
O O16 0.354445 0.716216 0.015689
#
# Coordination Sequence:
#
# PCOD8151408 Si02
#       7
#     8   8   8   8   8   8   8
#     4  11  22  41  70  94 133 177 229 283 334 403
#     4  11  25  43  67  99 136 176 231 288 348 411
#     4  11  25  44  62  99 145 179 220 281 349 420
#     4  11  25  40  68 101 141 176 224 284 344 413
#     4  12  24  44  63 103 142 178 225 280 350 414
#     4  11  20  40  77 101 125 174 239 286 325 395
#     4  11  21  44  69 100 127 174 243 280 328 412
#
# _framework density 21.624773000000001
#
# number of rings (size 3 to 8) (size 9 to 14) (size 15 to 20)
#    0.000    0.857    5.714    1.714    4.000    2.286 
#    0.000    0.714    0.000    0.000    0.000    0.000 
#    0.000    0.000    0.000    0.000    0.000    0.000 
#
# Total GULP energy -347193.223004 kJ/mol
# GULP energy per Si atom -12399.757964 kJ/mol
# Density = 2.157555 g / cm^3
# Si number density = 21.624773 Si / 1000 Ang^3
#
#
#
# Elastic Constant Matrix: (Units=GPa)
#
#
# Indices 1 2 3 4 5 6 
#
# 1 58.5164 38.4692 26.2284 0.0000 -2.8264 0.0000
# 2 38.4692 113.7151 57.7958 0.0000 -16.0745 0.0000
# 3 26.2284 57.7958 111.3310 0.0000 7.3767 0.0000
# 4 0.0000 0.0000 0.0000 33.1569 0.0000 -5.3964
# 5 -2.8264 -16.0745 7.3767 0.0000 34.6439 0.0000
# 6 0.0000 0.0000 0.0000 -5.3964 0.0000 21.2919
#
#
#
# Elastic Compliance Matrix: (Units=1/GPa)
#
#
# Indices 1 2 3 4 5 6 
#
# 1 0.022273 -0.006855 -0.001621 0.000000 -0.001018 0.000000
# 2 -0.006855 0.015977 -0.007235 0.000000 0.008395 0.000000
# 3 -0.001621 -0.007235 0.013543 0.000000 -0.006373 0.000000
# 4 0.000000 0.000000 0.000000 0.031457 0.000000 0.007973
# 5 -0.001018 0.008395 -0.006373 0.000000 0.034034 0.000000
# 6 0.000000 0.000000 0.000000 0.007973 0.000000 0.048987
#
#
# Mechanical properties :
#
#
# Convention : Reuss Voigt Hill
#
# Bulk Modulus (GPa) = 49.09277 58.72770 53.91024
# Shear Modulus (GPa) = 24.45178 28.55646 26.50412
#
# Velocity S-wave (km/s) = 3.36628 3.63787 3.50471
# Velocity P-wave (km/s) = 6.15309 6.69791 6.43127
#
# Compressibility (1/GPa) = 0.02036960
#
# Stress axis : x y z
#
# Youngs Moduli (GPa) = 44.89709 62.59020 73.84076
#
# Poissons Ratio (x) = 0.42904 0.11972
# Poissons Ratio (y) = 0.30776 0.53427
# Poissons Ratio (z) = 0.07279 0.45287
#
# Static dielectric constant tensor:
#      x y z
#    x 4.076490 0.000000 -0.046240 
#    y 0.000000 3.890830 0.000000 
#    z -0.046240 0.000000 4.184090 
# 
# 
# High freq. dielectric constant tensor:
#      x y z
#    x 1.841400 0.000000 -0.005340 
#    y 0.000000 1.839860 0.000000 
#    z -0.005340 0.000000 1.860160 
# 
# From -- ./inp_files/105814.got.cif
#   From: 2010.06.25/outbox.cif.g09.slc.cpg/sg15_53_cif.got.tgz:105814.got - 2010.06.28 07:06:18.
