data_PCOD8151254
_publ_section_title
;
Structure prediction by ZEFSAII (Michael W. Deem and Ramdas Pophale) SiO2 
 PCOD8151254
Probable space group: C 2/C
;
_chemical_formula_sum "Si O2"
_cell_formula_units_Z 48
_cell_length_a 19.186165
_cell_length_b 14.957241
_cell_length_c 9.698088
_cell_angle_alpha 90.000000
_cell_angle_beta 117.938496
_cell_angle_gamma 90.000000
_cell_volume 2458.715459
_symmetry_space_group_name_H-M "C 2/C"
_symmetry_group_IT_number 15
_symmetry_cell_setting 'monoclinic'
loop_
_space_group_symop_operation_xyz
x,y,z
-x,y,1/2-z
-x,-y,-z
x,-y,1/2+z
1/2+x,1/2+y,z
1/2-x,1/2+y,1/2-z
1/2-x,1/2-y,-z
1/2+x,1/2-y,1/2+z
loop_
_atom_site_type_symbol
_atom_site_label
_atom_site_fract_x
_atom_site_fract_y
_atom_site_fract_z
Si Si1 0.379909 0.973327 0.829217
Si Si2 0.551132 0.152576 0.661446
Si Si3 0.267594 0.827831 0.117397
Si Si4 0.801809 0.812760 0.147552
Si Si5 0.545038 0.205496 0.156166
Si Si6 0.272102 0.007751 0.983047
O O1 0.415342 0.876318 0.892063
O O2 0.305907 0.991732 0.861240
O O3 0.445844 0.051533 0.899412
O O4 0.346523 0.962646 0.643367
O O5 0.500000 0.155735 0.750000
O O6 0.639615 0.173205 0.782554
O O7 0.520630 0.228093 0.522150
O O8 0.229516 0.807151 0.227727
O O9 0.250000 0.750000 0.000000
O O10 0.234504 0.919291 0.017589
O O11 0.893774 0.783001 0.242586
O O12 0.794579 0.914470 0.085147
O O13 0.750000 0.750000 0.000000
O O14 0.500000 0.172402 0.250000
#
# Coordination Sequence:
#
# PCOD8151254 Si02
#       6
#     8   8   8   8   8   8
#     4  11  20  37  60  91 132 164 205 261 320 378
#     4  11  21  36  56  91 129 161 204 255 325 377
#     4  11  24  41  64  91 121 168 220 268 316 371
#     4  12  23  41  63  89 130 171 213 261 310 392
#     4  12  23  37  61  94 129 165 207 263 328 383
#     4  11  21  39  61  94 122 167 216 254 311 372
#
# _framework density 19.522389
#
# number of rings (size 3 to 8) (size 9 to 14) (size 15 to 20)
#    0.000    0.667    5.000    7.000    0.000    0.000 
#    0.000    0.000    0.000    5.000    0.000    0.000 
#    0.000    0.000    0.000    0.000    0.000    0.000 
#
# Total GULP energy -297424.109888 kJ/mol
# GULP energy per Si atom -12392.671245 kJ/mol
# Density = 1.947796 g / cm^3
# Si number density = 19.522389 Si / 1000 Ang^3
#
#
#
# Elastic Constant Matrix: (Units=GPa)
#
#
# Indices 1 2 3 4 5 6 
#
# 1 66.1397 36.4712 35.3478 0.0000 -2.9906 0.0000
# 2 36.4712 112.5320 63.2861 0.0000 8.9960 0.0000
# 3 35.3478 63.2861 115.9964 0.0000 -3.9913 0.0000
# 4 0.0000 0.0000 0.0000 40.6242 0.0000 7.5650
# 5 -2.9906 8.9960 -3.9913 0.0000 38.9448 0.0000
# 6 0.0000 0.0000 0.0000 7.5650 0.0000 25.3185
#
#
#
# Elastic Compliance Matrix: (Units=1/GPa)
#
#
# Indices 1 2 3 4 5 6 
#
# 1 0.019570 -0.004631 -0.003360 0.000000 0.002228 0.000000
# 2 -0.004631 0.014467 -0.006633 0.000000 -0.004377 0.000000
# 3 -0.003360 -0.006633 0.013355 0.000000 0.002643 0.000000
# 4 0.000000 0.000000 0.000000 0.026066 0.000000 -0.007788
# 5 0.002228 -0.004377 0.002643 0.000000 0.027130 0.000000
# 6 0.000000 0.000000 0.000000 -0.007788 0.000000 0.041824
#
#
# Mechanical properties :
#
#
# Convention : Reuss Voigt Hill
#
# Bulk Modulus (GPa) = 55.11462 62.76425 58.93943
# Shear Modulus (GPa) = 28.13617 31.61504 29.87560
#
# Velocity S-wave (km/s) = 3.80047 4.02857 3.91618
# Velocity P-wave (km/s) = 6.89571 7.33886 7.12073
#
# Compressibility (1/GPa) = 0.01814401
#
# Stress axis : x y z
#
# Youngs Moduli (GPa) = 51.09942 69.12225 74.88104
#
# Poissons Ratio (x) = 0.32009 0.25163
# Poissons Ratio (y) = 0.23663 0.49665
# Poissons Ratio (z) = 0.17171 0.45846
#
# Static dielectric constant tensor:
#      x y z
#    x 3.577900 0.000000 0.009060 
#    y 0.000000 3.420450 0.000000 
#    z 0.009060 0.000000 3.808770 
# 
# 
# High freq. dielectric constant tensor:
#      x y z
#    x 1.744090 0.000000 -0.009850 
#    y 0.000000 1.739820 0.000000 
#    z -0.009850 0.000000 1.790200 
# 
# From -- ./inp_files/55441.got.cif
#   From: 2010.06.25/outbox.cif.g09.slc.cpg/sg15_28_cif.got.tgz:55441.got - 2010.06.28 07:06:18.
