data_PCOD8151414
_publ_section_title
;
Structure prediction by ZEFSAII (Michael W. Deem and Ramdas Pophale) SiO2 
 PCOD8151414
Probable space group: C 2/C
;
_chemical_formula_sum "Si O2"
_cell_formula_units_Z 40
_cell_length_a 20.772637
_cell_length_b 12.684864
_cell_length_c 11.938568
_cell_angle_alpha 90.000000
_cell_angle_beta 35.741400
_cell_angle_gamma 90.000000
_cell_volume 1837.543346
_symmetry_space_group_name_H-M "C 2/C"
_symmetry_group_IT_number 15
_symmetry_cell_setting 'monoclinic'
loop_
_space_group_symop_operation_xyz
x,y,z
-x,y,1/2-z
-x,-y,-z
x,-y,1/2+z
1/2+x,1/2+y,z
1/2-x,1/2+y,1/2-z
1/2-x,1/2-y,-z
1/2+x,1/2-y,1/2+z
loop_
_atom_site_type_symbol
_atom_site_label
_atom_site_fract_x
_atom_site_fract_y
_atom_site_fract_z
Si Si1 0.361953 0.072191 0.635907
Si Si2 0.000000 0.978013 0.250000
Si Si3 0.878918 0.863146 0.061503
Si Si4 0.860323 0.816459 0.333963
Si Si5 0.467145 0.129723 0.921456
Si Si6 0.500000 0.159994 0.250000
O O1 0.237432 0.109410 0.831816
O O2 0.425717 0.125940 0.649760
O O3 0.404209 0.098070 0.449844
O O4 0.376892 0.944952 0.612190
O O5 0.971842 0.054016 0.393350
O O6 0.109975 0.906836 0.116498
O O7 0.865931 0.878090 0.210990
O O8 0.915161 0.744893 0.981010
O O9 0.750000 0.750000 0.500000
O O10 0.954285 0.728575 0.211183
O O11 0.500000 0.089804 0.750000
#
# Coordination Sequence:
#
# PCOD8151414 Si02
#       6
#     8   4   8   8   8   4
#     4  11  25  41  73  98 138 184 230 280 350 413
#     4  11  28  45  66 104 146 179 230 293 340 410
#     4  12  25  45  70 104 137 183 230 289 352 408
#     4  11  24  43  72  98 139 183 231 281 348 411
#     4  11  25  46  67 100 142 180 229 286 346 418
#     4  11  20  41  66 102 128 179 234 279 326 424
#
# _framework density 21.768194999999999
#
# number of rings (size 3 to 8) (size 9 to 14) (size 15 to 20)
#    0.000    0.800    6.000    0.600    2.800    2.400 
#    3.600    0.000    0.000    0.000    0.000    0.000 
#    0.000    0.000    0.000    0.000    0.000    0.000 
#
# Total GULP energy -247789.601020 kJ/mol
# GULP energy per Si atom -12389.480051 kJ/mol
# Density = 2.171865 g / cm^3
# Si number density = 21.768195 Si / 1000 Ang^3
#
#
#
# Elastic Constant Matrix: (Units=GPa)
#
#
# Indices 1 2 3 4 5 6 
#
# 1 123.0320 50.8255 41.7596 0.0000 -7.3403 0.0000
# 2 50.8255 142.0533 48.0898 0.0000 -19.3668 0.0000
# 3 41.7596 48.0898 88.2795 0.0000 -3.6362 0.0000
# 4 0.0000 0.0000 0.0000 28.5479 0.0000 -2.6936
# 5 -7.3403 -19.3668 -3.6362 0.0000 40.6986 0.0000
# 6 0.0000 0.0000 0.0000 -2.6936 0.0000 24.5334
#
#
#
# Elastic Compliance Matrix: (Units=1/GPa)
#
#
# Indices 1 2 3 4 5 6 
#
# 1 0.010371 -0.002456 -0.003552 0.000000 0.000385 0.000000
# 2 -0.002456 0.009806 -0.004021 0.000000 0.003864 0.000000
# 3 -0.003552 -0.004021 0.015149 0.000000 -0.001201 0.000000
# 4 0.000000 0.000000 0.000000 0.035395 0.000000 0.003886
# 5 0.000385 0.003864 -0.001201 0.000000 0.026372 0.000000
# 6 0.000000 0.000000 0.000000 0.003886 0.000000 0.041187
#
#
# Mechanical properties :
#
#
# Convention : Reuss Voigt Hill
#
# Bulk Modulus (GPa) = 65.49577 70.52383 68.00980
# Shear Modulus (GPa) = 30.59430 32.93532 31.76481
#
# Velocity S-wave (km/s) = 3.75301 3.89395 3.82413
# Velocity P-wave (km/s) = 6.99523 7.25845 7.12806
#
# Compressibility (1/GPa) = 0.01526816
#
# Stress axis : x y z
#
# Youngs Moduli (GPa) = 96.42159 101.97458 66.01043
#
# Poissons Ratio (x) = 0.25042 0.23449
# Poissons Ratio (y) = 0.23678 0.26544
# Poissons Ratio (z) = 0.34253 0.41006
#
# Static dielectric constant tensor:
#      x y z
#    x 3.866690 0.000000 -0.191160 
#    y 0.000000 4.076370 0.000000 
#    z -0.191160 0.000000 3.621740 
# 
# 
# High freq. dielectric constant tensor:
#      x y z
#    x 1.861320 0.000000 0.006090 
#    y 0.000000 1.870420 0.000000 
#    z 0.006090 0.000000 1.839380 
# 
# From -- ./inp_files/111409.got.cif
#   From: 2010.06.25/outbox.cif.g09.slc.cpg/sg15_56_cif.got.tgz:111409.got - 2010.06.28 07:06:18.
