data_PCOD8151960
_publ_section_title
;
Structure prediction by ZEFSAII (Michael W. Deem and Ramdas Pophale) SiO2 
 PCOD8151960
Probable space group: C 2/C
;
_chemical_formula_sum "Si O2"
_cell_formula_units_Z 56
_cell_length_a 9.612858
_cell_length_b 26.586322
_cell_length_c 10.920938
_cell_angle_alpha 90.000000
_cell_angle_beta 64.262716
_cell_angle_gamma 90.000000
_cell_volume 2514.180887
_symmetry_space_group_name_H-M "C 2/C"
_symmetry_group_IT_number 15
_symmetry_cell_setting 'monoclinic'
loop_
_space_group_symop_operation_xyz
x,y,z
-x,y,1/2-z
-x,-y,-z
x,-y,1/2+z
1/2+x,1/2+y,z
1/2-x,1/2+y,1/2-z
1/2-x,1/2-y,-z
1/2+x,1/2-y,1/2+z
loop_
_atom_site_type_symbol
_atom_site_label
_atom_site_fract_x
_atom_site_fract_y
_atom_site_fract_z
Si Si1 0.132466 0.617380 0.554774
Si Si2 0.918257 0.150924 0.593226
Si Si3 0.788897 0.091568 0.036431
Si Si4 0.351068 0.154699 0.225421
Si Si5 0.097353 0.504752 0.586961
Si Si6 0.832057 0.656496 0.628871
Si Si7 0.150376 0.234178 0.422586
O O1 0.269988 0.647976 0.561990
O O2 0.110041 0.641603 0.428415
O O3 0.176379 0.559120 0.551327
O O4 0.951938 0.624182 0.668837
O O5 0.844430 0.155462 0.755692
O O6 0.027305 0.101136 0.548921
O O7 0.006912 0.201307 0.523100
O O8 0.688890 0.132163 0.997025
O O9 0.741427 0.105111 0.193128
O O10 0.739009 0.034809 0.025242
O O11 0.500000 0.165252 0.250000
O O12 0.243017 0.203978 0.282079
O O13 0.000000 0.496337 0.750000
O O14 0.000000 0.500000 0.500000
O O15 0.905380 0.712402 0.607896
O O16 0.250000 0.250000 0.500000
#
# Coordination Sequence:
#
# PCOD8151960 Si02
#       7
#     8   8   8   8   8   8   8
#     4  12  26  46  71 103 146 189 231 310 362 419
#     4  11  27  45  65 105 148 176 243 301 360 433
#     4  11  23  41  72 102 136 186 234 294 352 425
#     4  11  21  43  70  99 138 179 244 287 355 440
#     4  12  24  45  77 110 144 197 252 300 370 448
#     4  12  23  44  69 100 138 186 232 289 357 428
#     4  11  24  41  71 100 133 189 235 292 362 427
#
# _framework density 22.273655000000002
#
# number of rings (size 3 to 8) (size 9 to 14) (size 15 to 20)
#    0.000    0.571    5.714    3.000    4.000    3.429 
#    2.571    0.000    6.286    0.000    0.000    0.000 
#    0.000    0.000    0.000    0.000    0.000    0.000 
#
# Total GULP energy -346978.236290 kJ/mol
# GULP energy per Si atom -12392.079868 kJ/mol
# Density = 2.222296 g / cm^3
# Si number density = 22.273655 Si / 1000 Ang^3
#
#
#
# Elastic Constant Matrix: (Units=GPa)
#
#
# Indices 1 2 3 4 5 6 
#
# 1 116.4076 35.3888 21.1189 0.0000 -22.3830 0.0000
# 2 35.3888 144.1815 23.8521 0.0000 -23.0600 0.0000
# 3 21.1189 23.8521 57.7655 0.0000 -16.7206 0.0000
# 4 0.0000 0.0000 0.0000 26.5746 0.0000 -4.2932
# 5 -22.3830 -23.0600 -16.7206 0.0000 35.6882 0.0000
# 6 0.0000 0.0000 0.0000 -4.2932 0.0000 41.5643
#
#
#
# Elastic Compliance Matrix: (Units=1/GPa)
#
#
# Indices 1 2 3 4 5 6 
#
# 1 0.010258 -0.001479 -0.001798 0.000000 0.004635 0.000000
# 2 -0.001479 0.008158 -0.001817 0.000000 0.003492 0.000000
# 3 -0.001798 -0.001817 0.020885 0.000000 0.007484 0.000000
# 4 0.000000 0.000000 0.000000 0.038268 0.000000 0.003953
# 5 0.004635 0.003492 0.007484 0.000000 0.036691 0.000000
# 6 0.000000 0.000000 0.000000 0.003953 0.000000 0.024467
#
#
# Mechanical properties :
#
#
# Convention : Reuss Voigt Hill
#
# Bulk Modulus (GPa) = 34.34846 53.23048 43.78947
# Shear Modulus (GPa) = 31.52224 36.63176 34.07700
#
# Velocity S-wave (km/s) = 3.76603 4.05979 3.91567
# Velocity P-wave (km/s) = 5.86219 6.77689 6.33606
#
# Compressibility (1/GPa) = 0.02911339
#
# Stress axis : x y z
#
# Youngs Moduli (GPa) = 97.48909 122.58168 47.88125
#
# Poissons Ratio (x) = 0.18129 0.08608
# Poissons Ratio (y) = 0.14418 0.08700
# Poissons Ratio (z) = 0.17526 0.22272
#
# Static dielectric constant tensor:
#      x y z
#    x 3.991240 0.000000 -0.078230 
#    y 0.000000 4.490530 0.000000 
#    z -0.078230 0.000000 4.333650 
# 
# 
# High freq. dielectric constant tensor:
#      x y z
#    x 1.874220 0.000000 -0.006450 
#    y 0.000000 1.875360 0.000000 
#    z -0.006450 0.000000 1.891430 
# 
# From -- ./inp_files/81279.got.cif
#   From: 2010.06.25/outbox.cif.g09.slc.cpg/sg15_41_cif.got.tgz:81279.got - 2010.06.28 07:06:18.
