data_PCOD8151156
_publ_section_title
;
Structure prediction by ZEFSAII (Michael W. Deem and Ramdas Pophale) SiO2 
 PCOD8151156
Probable space group: C 2/C
;
_chemical_formula_sum "Si O2"
_cell_formula_units_Z 40
_cell_length_a 20.585644
_cell_length_b 14.801712
_cell_length_c 9.222784
_cell_angle_alpha 90.000000
_cell_angle_beta 49.743941
_cell_angle_gamma 90.000000
_cell_volume 2144.649865
_symmetry_space_group_name_H-M "C 2/C"
_symmetry_group_IT_number 15
_symmetry_cell_setting 'monoclinic'
loop_
_space_group_symop_operation_xyz
x,y,z
-x,y,1/2-z
-x,-y,-z
x,-y,1/2+z
1/2+x,1/2+y,z
1/2-x,1/2+y,1/2-z
1/2-x,1/2-y,-z
1/2+x,1/2-y,1/2+z
loop_
_atom_site_type_symbol
_atom_site_label
_atom_site_fract_x
_atom_site_fract_y
_atom_site_fract_z
Si Si1 0.920849 0.561092 0.574345
Si Si2 0.830088 0.423684 0.506906
Si Si3 0.320562 0.675898 0.354956
Si Si4 0.469566 0.741691 0.947483
Si Si5 0.419309 0.751414 0.453319
O O1 0.855737 0.514132 0.554718
O O2 0.956806 0.651049 0.449365
O O3 0.000000 0.500000 0.500000
O O4 0.872951 0.585041 0.789455
O O5 0.728092 0.416435 0.622017
O O6 0.856181 0.336427 0.565672
O O7 0.250000 0.750000 0.500000
O O8 0.378107 0.669060 0.418444
O O9 0.380369 0.701009 0.132223
O O10 0.500000 0.701287 0.750000
O O11 0.548477 0.715782 0.938784
O O12 0.500000 0.791769 0.250000
#
# Coordination Sequence:
#
# PCOD8151156 Si02
#       5
#     8   8   8   8   8
#     4  12  20  31  51  81 118 143 168 213 276 341
#     4  11  20  33  50  77 113 147 178 213 269 329
#     4   9  18  36  53  70 110 151 186 208 261 335
#     4  11  20  32  54  86 108 137 181 228 269 314
#     4   9  15  32  52  72 103 144 180 207 257 327
#
# _framework density 18.651063000000001
#
# number of rings (size 3 to 8) (size 9 to 14) (size 15 to 20)
#    0.000    1.600    8.000    1.800    0.000    0.000 
#    0.000    6.000    0.000    0.000    0.000   18.200 
#    0.000    0.000    0.000    0.000    0.000    0.000 
#
# Total GULP energy -247795.322616 kJ/mol
# GULP energy per Si atom -12389.766131 kJ/mol
# Density = 1.860861 g / cm^3
# Si number density = 18.651063 Si / 1000 Ang^3
#
#
#
# Elastic Constant Matrix: (Units=GPa)
#
#
# Indices 1 2 3 4 5 6 
#
# 1 143.8301 40.2654 51.6649 0.0000 3.0114 0.0000
# 2 40.2654 31.1248 7.0873 0.0000 -6.9980 0.0000
# 3 51.6649 7.0873 119.8861 0.0000 7.1917 0.0000
# 4 0.0000 0.0000 0.0000 11.4397 0.0000 -3.1694
# 5 3.0114 -6.9980 7.1917 0.0000 30.8952 0.0000
# 6 0.0000 0.0000 0.0000 -3.1694 0.0000 33.8018
#
#
#
# Elastic Compliance Matrix: (Units=1/GPa)
#
#
# Indices 1 2 3 4 5 6 
#
# 1 0.013568 -0.017462 -0.004562 0.000000 -0.004216 0.000000
# 2 -0.017462 0.057078 0.003320 0.000000 0.013858 0.000000
# 3 -0.004562 0.003320 0.010181 0.000000 -0.001173 0.000000
# 4 0.000000 0.000000 0.000000 0.089746 0.000000 0.008415
# 5 -0.004216 0.013858 -0.001173 0.000000 0.036191 0.000000
# 6 0.000000 0.000000 0.000000 0.008415 0.000000 0.030373
#
#
# Mechanical properties :
#
#
# Convention : Reuss Voigt Hill
#
# Bulk Modulus (GPa) = 23.03114 54.76405 38.89759
# Shear Modulus (GPa) = 17.29990 28.28224 22.79107
#
# Velocity S-wave (km/s) = 3.04888 3.89831 3.49946
# Velocity P-wave (km/s) = 4.97690 7.04901 6.10156
#
# Compressibility (1/GPa) = 0.04341948
#
# Stress axis : x y z
#
# Youngs Moduli (GPa) = 73.70259 17.51976 98.21842
#
# Poissons Ratio (x) = 0.30593 0.44807
# Poissons Ratio (y) = 1.28697 -0.32604
# Poissons Ratio (z) = 0.33623 -0.05816
#
# Static dielectric constant tensor:
#      x y z
#    x 4.299310 0.000000 -0.321580 
#    y 0.000000 3.233900 0.000000 
#    z -0.321580 0.000000 3.781040 
# 
# 
# High freq. dielectric constant tensor:
#      x y z
#    x 1.740740 0.000000 -0.000050 
#    y 0.000000 1.666540 0.000000 
#    z -0.000050 0.000000 1.713660 
# 
# From -- ./inp_files/38582.got.cif
#   From: 2010.06.25/outbox.cif.g09.slc.cpg/sg15_20_cif.got.tgz:38582.got - 2010.06.28 07:06:18.
