data_PCOD8151008
_publ_section_title
;
Structure prediction by ZEFSAII (Michael W. Deem and Ramdas Pophale) SiO2 
 PCOD8151008
Probable space group: C 2/C
;
_chemical_formula_sum "Si O2"
_cell_formula_units_Z 56
_cell_length_a 13.088639
_cell_length_b 17.941311
_cell_length_c 12.791088
_cell_angle_alpha 90.000000
_cell_angle_beta 114.109354
_cell_angle_gamma 90.000000
_cell_volume 2741.677196
_symmetry_space_group_name_H-M "C 2/C"
_symmetry_group_IT_number 15
_symmetry_cell_setting 'monoclinic'
loop_
_space_group_symop_operation_xyz
x,y,z
-x,y,1/2-z
-x,-y,-z
x,-y,1/2+z
1/2+x,1/2+y,z
1/2-x,1/2+y,1/2-z
1/2-x,1/2-y,-z
1/2+x,1/2-y,1/2+z
loop_
_atom_site_type_symbol
_atom_site_label
_atom_site_fract_x
_atom_site_fract_y
_atom_site_fract_z
Si Si1 0.259891 0.609141 0.141371
Si Si2 0.524537 0.721140 0.085299
Si Si3 0.869027 0.438066 0.716393
Si Si4 0.212329 0.589170 0.891519
Si Si5 0.734843 0.792924 0.886668
Si Si6 0.825487 0.234400 0.852522
Si Si7 0.500000 0.616481 0.250000
Si Si8 0.000000 0.331673 0.250000
O O1 0.158636 0.585497 0.175799
O O2 0.256204 0.700655 0.134889
O O3 0.382444 0.576977 0.231425
O O4 0.246383 0.572578 0.023730
O O5 0.640868 0.685264 0.098016
O O6 0.458236 0.662433 0.130150
O O7 0.558532 0.787268 0.179353
O O8 0.448809 0.745970 0.955250
O O9 0.789966 0.509660 0.666467
O O10 0.832407 0.370077 0.624814
O O11 0.000000 0.454550 0.750000
O O12 0.288206 0.650460 0.864837
O O13 0.087404 0.618108 0.846218
O O14 0.670250 0.742926 0.772026
O O15 0.750000 0.750000 0.000000
#
# Coordination Sequence:
#
# PCOD8151008 Si02
#       8
#     8   8   8   8   8   8   4   4
#     4  11  23  41  67  97 129 170 222 274 322 382
#     4  11  20  36  67 100 128 158 225 281 321 369
#     4  11  27  45  60  96 140 176 206 259 341 403
#     4  12  22  40  66 100 130 163 214 278 338 380
#     4  11  26  42  63  91 137 182 219 253 320 411
#     4  11  21  38  66 100 123 164 224 278 321 376
#     4  11  18  38  66  96 120 161 220 280 327 346
#     4  11  20  34  66 104 126 155 210 288 335 366
#
# _framework density 20.425453000000001
#
# number of rings (size 3 to 8) (size 9 to 14) (size 15 to 20)
#    0.000    0.857    7.857    1.286    4.000    1.714 
#    0.000    2.857    0.000    0.000    0.000    0.000 
#    0.000    0.000    0.000    0.000    0.000    0.000 
#
# Total GULP energy -346883.891032 kJ/mol
# GULP energy per Si atom -12388.710394 kJ/mol
# Density = 2.037896 g / cm^3
# Si number density = 20.425453 Si / 1000 Ang^3
#
#
#
# Elastic Constant Matrix: (Units=GPa)
#
#
# Indices 1 2 3 4 5 6 
#
# 1 86.2338 20.9597 32.4351 0.0000 9.9056 0.0000
# 2 20.9597 108.8881 37.4599 0.0000 -5.9930 0.0000
# 3 32.4351 37.4599 138.0687 0.0000 2.9817 0.0000
# 4 0.0000 0.0000 0.0000 23.6742 0.0000 3.5004
# 5 9.9056 -5.9930 2.9817 0.0000 33.0829 0.0000
# 6 0.0000 0.0000 0.0000 3.5004 0.0000 -41.3785
#
#
#
# Elastic Compliance Matrix: (Units=1/GPa)
#
#
# Indices 1 2 3 4 5 6 
#
# 1 0.013510 -0.001951 -0.002554 0.000000 -0.004168 0.000000
# 2 -0.001951 0.010557 -0.002465 0.000000 0.002719 0.000000
# 3 -0.002554 -0.002465 0.008521 0.000000 -0.000450 0.000000
# 4 0.000000 0.000000 0.000000 0.041718 0.000000 0.003529
# 5 -0.004168 0.002719 -0.000450 0.000000 0.032008 0.000000
# 6 0.000000 0.000000 0.000000 0.003529 0.000000 -0.023869
#
#
# Mechanical properties :
#
#
# Convention : Reuss Voigt Hill
#
# Bulk Modulus (GPa) = 53.62518 57.21110 55.41814
# Shear Modulus (GPa) = 48.73175 19.23145 33.98160
#
# Velocity S-wave (km/s) = 4.88980 3.07179 4.08326
# Velocity P-wave (km/s) = 7.62832 6.37587 7.03004
#
# Compressibility (1/GPa) = 0.01864795
#
# Stress axis : x y z
#
# Youngs Moduli (GPa) = 74.01789 94.72556 117.35394
#
# Poissons Ratio (x) = 0.18483 0.29977
# Poissons Ratio (y) = 0.14442 0.28922
# Poissons Ratio (z) = 0.18907 0.23345
#
# Static dielectric constant tensor:
#      x y z
#    x 3.587040 0.000000 -0.018240 
#    y 0.000000 3.536020 0.000000 
#    z -0.018240 0.000000 3.653350 
# 
# 
# High freq. dielectric constant tensor:
#      x y z
#    x 1.795440 0.000000 0.013670 
#    y 0.000000 1.765250 0.000000 
#    z 0.013670 0.000000 1.809010 
# 
# From -- ./inp_files/89679.got.cif
#   From: 2010.06.25/outbox.cif.g09.slc.cpg/sg15_45_cif.got.tgz:89679.got - 2010.06.28 07:06:18.
