data_PCOD8151797
_publ_section_title
;
Structure prediction by ZEFSAII (Michael W. Deem and Ramdas Pophale) SiO2 
 PCOD8151797
Probable space group: C 2/C
;
_chemical_formula_sum "Si O2"
_cell_formula_units_Z 64
_cell_length_a 30.910468
_cell_length_b 14.237130
_cell_length_c 9.341737
_cell_angle_alpha 90.000000
_cell_angle_beta 135.504214
_cell_angle_gamma 90.000000
_cell_volume 2881.276662
_symmetry_space_group_name_H-M "C 2/C"
_symmetry_group_IT_number 15
_symmetry_cell_setting 'monoclinic'
loop_
_space_group_symop_operation_xyz
x,y,z
-x,y,1/2-z
-x,-y,-z
x,-y,1/2+z
1/2+x,1/2+y,z
1/2-x,1/2+y,1/2-z
1/2-x,1/2-y,-z
1/2+x,1/2-y,1/2+z
loop_
_atom_site_type_symbol
_atom_site_label
_atom_site_fract_x
_atom_site_fract_y
_atom_site_fract_z
Si Si1 0.160257 0.539586 0.669649
Si Si2 0.534458 0.933083 0.975945
Si Si3 0.819214 0.753029 0.715271
Si Si4 0.502342 0.735923 0.589804
Si Si5 0.354630 0.269919 0.111258
Si Si6 0.145640 0.936229 0.165440
Si Si7 0.901597 0.107946 0.251908
Si Si8 0.215409 0.418619 0.017696
O O1 0.094247 0.507120 0.571119
O O2 0.161420 0.646391 0.722203
O O3 0.211524 0.472517 0.858619
O O4 0.168923 0.531589 0.520532
O O5 0.500000 0.910618 0.750000
O O6 0.539320 0.827324 0.052621
O O7 0.500000 0.000000 0.000000
O O8 0.750000 0.750000 0.500000
O O9 0.857368 0.804292 0.681729
O O10 0.831971 0.803284 0.899464
O O11 0.500000 0.710022 0.750000
O O12 0.573250 0.758756 0.716058
O O13 0.472423 0.644069 0.441390
O O14 0.349167 0.352643 0.210103
O O15 0.307336 0.188536 0.051704
O O16 0.215134 0.939104 0.265203
O O17 0.118595 0.025016 0.187453
O O18 0.102857 0.920244 0.925502
#
# Coordination Sequence:
#
# PCOD8151797 Si02
#       8
#     8   8   8   8   8   8   8   8
#     4  11  22  39  64  99 131 181 217 266 355 406
#     4  11  21  41  67 102 138 178 221 272 338 416
#     4  11  21  40  68  98 134 178 229 284 346 422
#     4  11  22  46  72  96 143 184 229 286 350 431
#     4  11  24  45  67  99 135 184 226 288 362 401
#     4  12  27  45  70 101 135 185 238 300 351 416
#     4  12  25  46  69 101 137 180 243 289 354 425
#     4  11  23  43  67 100 141 176 229 286 347 419
#
# _framework density 22.212378000000001
#
# number of rings (size 3 to 8) (size 9 to 14) (size 15 to 20)
#    0.000    0.750    2.500    7.875    0.000    3.000 
#    4.500    0.000    0.000    0.000    0.000    0.000 
#    0.000    0.000    0.000    0.000    0.000    0.000 
#
# Total GULP energy -396514.703787 kJ/mol
# GULP energy per Si atom -12391.084493 kJ/mol
# Density = 2.216182 g / cm^3
# Si number density = 22.212378 Si / 1000 Ang^3
#
#
#
# Elastic Constant Matrix: (Units=GPa)
#
#
# Indices 1 2 3 4 5 6 
#
# 1 73.0453 27.6663 26.1990 0.0000 12.3652 0.0000
# 2 27.6663 85.1398 40.7926 0.0000 -17.0936 0.0000
# 3 26.1990 40.7926 111.7115 0.0000 9.5489 0.0000
# 4 0.0000 0.0000 0.0000 46.0724 0.0000 -23.6252
# 5 12.3652 -17.0936 9.5489 0.0000 18.9353 0.0000
# 6 0.0000 0.0000 0.0000 -23.6252 0.0000 69.8196
#
#
#
# Elastic Compliance Matrix: (Units=1/GPa)
#
#
# Indices 1 2 3 4 5 6 
#
# 1 0.023503 -0.014844 0.002472 0.000000 -0.029996 0.000000
# 2 -0.014844 0.030712 -0.011424 0.000000 0.043180 0.000000
# 3 0.002472 -0.011424 0.014174 0.000000 -0.019076 0.000000
# 4 0.000000 0.000000 0.000000 0.026262 0.000000 0.008886
# 5 -0.029996 0.043180 -0.019076 0.000000 0.120999 0.000000
# 6 0.000000 0.000000 0.000000 0.008886 0.000000 0.017330
#
#
# Mechanical properties :
#
#
# Convention : Reuss Voigt Hill
#
# Bulk Modulus (GPa) = 48.08401 51.02359 49.55380
# Shear Modulus (GPa) = 17.39102 38.64805 28.01954
#
# Velocity S-wave (km/s) = 2.80115 4.17578 3.55553
# Velocity P-wave (km/s) = 5.67065 6.80222 6.26205
#
# Compressibility (1/GPa) = 0.02079693
#
# Stress axis : x y z
#
# Youngs Moduli (GPa) = 42.54701 32.56053 70.55135
#
# Poissons Ratio (x) = 0.48334 -0.17443
# Poissons Ratio (y) = 0.63158 0.80601
# Poissons Ratio (z) = -0.10519 0.37198
#
# Static dielectric constant tensor:
#      x y z
#    x 4.264970 0.000000 0.189340 
#    y 0.000000 4.127630 0.000000 
#    z 0.189340 0.000000 4.083430 
# 
# 
# High freq. dielectric constant tensor:
#      x y z
#    x 1.882010 0.000000 0.006590 
#    y 0.000000 1.875360 0.000000 
#    z 0.006590 0.000000 1.875290 
# 
# From -- ./inp_files/70166.got.cif
#   From: 2010.06.25/outbox.cif.g09.slc.cpg/sg15_36_cif.got.tgz:70166.got - 2010.06.28 07:06:18.
