data_PCOD8151803
_publ_section_title
;
Structure prediction by ZEFSAII (Michael W. Deem and Ramdas Pophale) SiO2 
 PCOD8151803
Probable space group: C 2/C
;
_chemical_formula_sum "Si O2"
_cell_formula_units_Z 52
_cell_length_a 17.303635
_cell_length_b 18.190121
_cell_length_c 9.341598
_cell_angle_alpha 90.000000
_cell_angle_beta 123.631703
_cell_angle_gamma 90.000000
_cell_volume 2448.151508
_symmetry_space_group_name_H-M "C 2/C"
_symmetry_group_IT_number 15
_symmetry_cell_setting 'monoclinic'
loop_
_space_group_symop_operation_xyz
x,y,z
-x,y,1/2-z
-x,-y,-z
x,-y,1/2+z
1/2+x,1/2+y,z
1/2-x,1/2+y,1/2-z
1/2-x,1/2-y,-z
1/2+x,1/2-y,1/2+z
loop_
_atom_site_type_symbol
_atom_site_label
_atom_site_fract_x
_atom_site_fract_y
_atom_site_fract_z
Si Si1 0.000000 0.082906 0.750000
Si Si2 0.759094 0.481873 0.592649
Si Si3 0.222030 0.687604 0.356528
Si Si4 0.130734 0.021458 0.222762
Si Si5 0.594594 0.333319 0.579747
Si Si6 0.984901 0.303369 0.906191
Si Si7 0.049154 0.558856 0.646623
O O1 0.922714 0.133387 0.597316
O O2 0.050223 0.035894 0.677828
O O3 0.785752 0.396403 0.592624
O O4 0.724644 0.515926 0.409441
O O5 0.668258 0.489757 0.600250
O O6 0.844795 0.532477 0.729440
O O7 0.250000 0.750000 0.500000
O O8 0.299081 0.694277 0.311761
O O9 0.124485 0.701788 0.179069
O O10 0.085149 0.103100 0.189703
O O11 0.522809 0.268179 0.526914
O O12 0.000000 0.307274 0.750000
O O13 0.039752 0.367377 0.044157
O O14 0.000000 0.567296 0.750000
O O15 0.000000 0.500000 0.500000
#
# Coordination Sequence:
#
# PCOD8151803 Si02
#       7
#     4   8   8   8   8   8   8
#     4  12  20  44  68 104 134 178 232 282 336 426
#     4  11  25  42  69 102 137 173 227 285 346 404
#     4  11  21  40  69  98 130 175 231 282 335 409
#     4  11  24  42  67 102 136 177 224 283 342 413
#     4  11  24  42  66  99 138 177 233 280 343 411
#     4  12  25  44  70  97 136 182 231 282 341 408
#     4  12  26  45  71 103 138 178 231 283 342 407
#
# _framework density 21.240517000000001
#
# number of rings (size 3 to 8) (size 9 to 14) (size 15 to 20)
#    0.000    0.615    6.923    1.846    4.308    0.000 
#    1.385    0.769    0.000    0.000    0.000    0.000 
#    0.000    0.000    0.000    0.000    0.000    0.000 
#
# Total GULP energy -322214.112550 kJ/mol
# GULP energy per Si atom -12392.850483 kJ/mol
# Density = 2.119217 g / cm^3
# Si number density = 21.240517 Si / 1000 Ang^3
#
#
#
# Elastic Constant Matrix: (Units=GPa)
#
#
# Indices 1 2 3 4 5 6 
#
# 1 92.9108 34.7369 9.1559 0.0000 22.6595 0.0000
# 2 34.7369 160.4868 47.1198 0.0000 16.7691 0.0000
# 3 9.1559 47.1198 62.1825 0.0000 16.8303 0.0000
# 4 0.0000 0.0000 0.0000 49.7474 0.0000 6.2746
# 5 22.6595 16.7691 16.8303 0.0000 41.1208 0.0000
# 6 0.0000 0.0000 0.0000 6.2746 0.0000 31.1461
#
#
#
# Elastic Compliance Matrix: (Units=1/GPa)
#
#
# Indices 1 2 3 4 5 6 
#
# 1 0.013305 -0.002737 0.002021 0.000000 -0.007043 0.000000
# 2 -0.002737 0.008606 -0.006271 0.000000 0.000566 0.000000
# 3 0.002021 -0.006271 0.022655 0.000000 -0.007829 0.000000
# 4 0.000000 0.000000 0.000000 0.020626 0.000000 -0.004155
# 5 -0.007043 0.000566 -0.007829 0.000000 0.031173 0.000000
# 6 0.000000 0.000000 0.000000 -0.004155 0.000000 0.032944
#
#
# Mechanical properties :
#
#
# Convention : Reuss Voigt Hill
#
# Bulk Modulus (GPa) = 32.68895 55.28948 43.98922
# Shear Modulus (GPa) = 32.57761 39.37401 35.97581
#
# Velocity S-wave (km/s) = 3.92056 4.31016 4.11997
# Velocity P-wave (km/s) = 5.99314 7.13139 6.58689
#
# Compressibility (1/GPa) = 0.03059138
#
# Stress axis : x y z
#
# Youngs Moduli (GPa) = 75.16056 116.20229 44.14013
#
# Poissons Ratio (x) = 0.31810 -0.08923
# Poissons Ratio (y) = 0.20575 0.27681
# Poissons Ratio (z) = -0.15193 0.72872
#
# Static dielectric constant tensor:
#      x y z
#    x 4.241860 0.000000 -0.225650 
#    y 0.000000 3.845980 0.000000 
#    z -0.225650 0.000000 4.446550 
# 
# 
# High freq. dielectric constant tensor:
#      x y z
#    x 1.832250 0.000000 0.030570 
#    y 0.000000 1.843850 0.000000 
#    z 0.030570 0.000000 1.832290 
# 
# From -- ./inp_files/49237.got.cif
#   From: 2010.06.25/outbox.cif.g09.slc.cpg/sg15_25_cif.got.tgz:49237.got - 2010.06.28 07:06:18.
