data_PCOD8151382
_publ_section_title
;
Structure prediction by ZEFSAII (Michael W. Deem and Ramdas Pophale) SiO2 
 PCOD8151382
Probable space group: C 2/C
;
_chemical_formula_sum "Si O2"
_cell_formula_units_Z 52
_cell_length_a 6.705988
_cell_length_b 21.751681
_cell_length_c 19.403997
_cell_angle_alpha 90.000000
_cell_angle_beta 117.169757
_cell_angle_gamma 90.000000
_cell_volume 2518.080745
_symmetry_space_group_name_H-M "C 2/C"
_symmetry_group_IT_number 15
_symmetry_cell_setting 'monoclinic'
loop_
_space_group_symop_operation_xyz
x,y,z
-x,y,1/2-z
-x,-y,-z
x,-y,1/2+z
1/2+x,1/2+y,z
1/2-x,1/2+y,1/2-z
1/2-x,1/2-y,-z
1/2+x,1/2-y,1/2+z
loop_
_atom_site_type_symbol
_atom_site_label
_atom_site_fract_x
_atom_site_fract_y
_atom_site_fract_z
Si Si1 0.117004 0.563966 0.652834
Si Si2 0.285440 0.358056 0.061642
Si Si3 0.914318 0.950227 0.662228
Si Si4 0.795903 0.337182 0.952982
Si Si5 0.794242 0.796879 0.408248
Si Si6 0.500000 0.864873 0.250000
Si Si7 0.105062 0.968806 0.081278
O O1 0.198872 0.623263 0.623165
O O2 0.220234 0.499564 0.647125
O O3 0.173756 0.587717 0.739275
O O4 0.850805 0.555892 0.604005
O O5 0.450027 0.298963 0.081429
O O6 0.440440 0.412274 0.061000
O O7 0.061588 0.346456 0.981954
O O8 0.828224 0.893158 0.604168
O O9 0.000000 0.926454 0.750000
O O10 0.103633 0.985440 0.647420
O O11 0.722150 0.273689 0.905751
O O12 0.727333 0.333537 0.022645
O O13 0.627469 0.824245 0.325369
O O14 0.000000 0.000000 0.000000
#
# Coordination Sequence:
#
# PCOD8151382 Si02
#       7
#     8   8   8   8   8   4   8
#     4  11  23  39  66  97 130 167 214 273 325 386
#     4  11  20  40  66  97 122 168 215 271 319 384
#     4  11  25  40  64  96 134 174 215 267 331 394
#     4  11  24  46  64  96 130 174 221 260 333 386
#     4  11  25  42  70  92 132 172 217 277 314 393
#     4  12  22  44  66  96 126 168 218 268 328 378
#     4  11  21  38  65  93 128 171 214 270 328 385
#
# _framework density 20.650646999999999
#
# number of rings (size 3 to 8) (size 9 to 14) (size 15 to 20)
#    0.000    0.923    3.077    4.154    3.231    2.462 
#    0.000    0.000    0.000    1.846    0.000    0.000 
#    0.000    0.000    0.000    0.000    0.000    0.000 
#
# Total GULP energy -322103.663794 kJ/mol
# GULP energy per Si atom -12388.602454 kJ/mol
# Density = 2.060365 g / cm^3
# Si number density = 20.650647 Si / 1000 Ang^3
#
#
#
# Elastic Constant Matrix: (Units=GPa)
#
#
# Indices 1 2 3 4 5 6 
#
# 1 130.6592 42.3140 47.3541 0.0000 -6.2088 0.0000
# 2 42.3140 120.8590 65.0118 0.0000 -8.5367 0.0000
# 3 47.3541 65.0118 125.8816 0.0000 -9.3623 0.0000
# 4 0.0000 0.0000 0.0000 42.7284 0.0000 -2.8818
# 5 -6.2088 -8.5367 -9.3623 0.0000 27.6114 0.0000
# 6 0.0000 0.0000 0.0000 -2.8818 0.0000 15.3044
#
#
#
# Elastic Compliance Matrix: (Units=1/GPa)
#
#
# Indices 1 2 3 4 5 6 
#
# 1 0.009170 -0.001848 -0.002446 0.000000 0.000661 0.000000
# 2 -0.001848 0.011897 -0.005341 0.000000 0.001452 0.000000
# 3 -0.002446 -0.005341 0.011755 0.000000 0.001785 0.000000
# 4 0.000000 0.000000 0.000000 0.023705 0.000000 0.004463
# 5 0.000661 0.001452 0.001785 0.000000 0.037420 0.000000
# 6 0.000000 0.000000 0.000000 0.004463 0.000000 0.066181
#
#
# Mechanical properties :
#
#
# Convention : Reuss Voigt Hill
#
# Bulk Modulus (GPa) = 73.79031 76.30660 75.04846
# Shear Modulus (GPa) = 27.18666 31.97683 29.58174
#
# Velocity S-wave (km/s) = 3.63230 3.93932 3.78892
# Velocity P-wave (km/s) = 7.30765 7.59753 7.45400
#
# Compressibility (1/GPa) = 0.01355191
#
# Stress axis : x y z
#
# Youngs Moduli (GPa) = 109.05275 84.05772 85.06961
#
# Poissons Ratio (x) = 0.15535 0.20807
# Poissons Ratio (y) = 0.20154 0.45434
# Poissons Ratio (z) = 0.26673 0.44894
#
# Static dielectric constant tensor:
#      x y z
#    x 4.261130 0.000000 -0.088260 
#    y 0.000000 4.013620 0.000000 
#    z -0.088260 0.000000 3.763920 
# 
# 
# High freq. dielectric constant tensor:
#      x y z
#    x 1.822380 0.000000 -0.012120 
#    y 0.000000 1.813450 0.000000 
#    z -0.012120 0.000000 1.804140 
# 
# From -- ./inp_files/227960.got.cif
#   From: 2010.06.25/outbox.cif.g09.slc.cpg/sg15_114_cif.got.tgz:227960.got - 2010.06.28 07:06:18.
