data_PCOD8151616
_publ_section_title
;
Structure prediction by ZEFSAII (Michael W. Deem and Ramdas Pophale) SiO2 
 PCOD8151616
Probable space group: C 2/C
;
_chemical_formula_sum "Si O2"
_cell_formula_units_Z 48
_cell_length_a 20.379270
_cell_length_b 5.951939
_cell_length_c 19.594801
_cell_angle_alpha 90.000000
_cell_angle_beta 70.045214
_cell_angle_gamma 90.000000
_cell_volume 2234.078113
_symmetry_space_group_name_H-M "C 2/C"
_symmetry_group_IT_number 15
_symmetry_cell_setting 'monoclinic'
loop_
_space_group_symop_operation_xyz
x,y,z
-x,y,1/2-z
-x,-y,-z
x,-y,1/2+z
1/2+x,1/2+y,z
1/2-x,1/2+y,1/2-z
1/2-x,1/2-y,-z
1/2+x,1/2-y,1/2+z
loop_
_atom_site_type_symbol
_atom_site_label
_atom_site_fract_x
_atom_site_fract_y
_atom_site_fract_z
Si Si1 0.985762 0.013647 0.393566
Si Si2 0.568963 0.173451 0.690061
Si Si3 0.163903 0.567021 0.845818
Si Si4 0.414213 0.776209 0.729333
Si Si5 0.189560 0.899782 0.724190
Si Si6 0.944279 0.300554 0.019814
O O1 0.026888 0.896860 0.316509
O O2 0.939650 0.822478 0.448079
O O3 0.039900 0.113699 0.428283
O O4 0.937492 0.223247 0.384078
O O5 0.500000 0.279683 0.750000
O O6 0.644128 0.244651 0.690922
O O7 0.565006 0.902494 0.705903
O O8 0.100112 0.462333 0.823815
O O9 0.230514 0.403746 0.829866
O O10 0.132445 0.607080 0.932564
O O11 0.188153 0.798092 0.801036
O O12 0.341723 0.648748 0.767294
O O13 0.000000 0.500000 0.000000
#
# Coordination Sequence:
#
# PCOD8151616 Si02
#       6
#     8   8   8   8   8   8
#     4  11  23  42  62  96 135 166 217 263 323 388
#     4  11  24  37  60  95 127 165 211 267 331 371
#     4  11  21  39  62  97 126 164 221 261 331 376
#     4  11  21  37  64  90 128 165 209 273 319 377
#     4  11  22  37  63  94 127 166 207 279 321 378
#     4  11  23  39  68  96 128 175 213 264 319 393
#
# _framework density 21.48537
#
# number of rings (size 3 to 8) (size 9 to 14) (size 15 to 20)
#    0.000    1.000    6.667    1.000    2.333    0.000 
#    0.000    0.833    0.000    2.000    0.000    0.000 
#    0.000    0.000    0.000    0.000    0.000    0.000 
#
# Total GULP energy -297349.108596 kJ/mol
# GULP energy per Si atom -12389.546191 kJ/mol
# Density = 2.143647 g / cm^3
# Si number density = 21.485370 Si / 1000 Ang^3
#
#
#
# Elastic Constant Matrix: (Units=GPa)
#
#
# Indices 1 2 3 4 5 6 
#
# 1 84.5616 24.9792 36.0541 -0.0013 -17.4824 -0.0035
# 2 24.9792 100.4637 31.1714 -0.0068 -2.8001 -0.0169
# 3 36.0541 31.1714 70.4003 -0.0027 -14.2019 -0.0019
# 4 -0.0013 -0.0068 -0.0027 40.3204 -0.0007 2.6468
# 5 -17.4824 -2.8001 -14.2019 -0.0007 36.9087 -0.0011
# 6 -0.0035 -0.0169 -0.0019 2.6468 -0.0011 39.3931
#
#
#
# Elastic Compliance Matrix: (Units=1/GPa)
#
#
# Indices 1 2 3 4 5 6 
#
# 1 0.016165 -0.001885 -0.006427 0.000000 0.005041 0.000000
# 2 -0.001885 0.011807 -0.004621 0.000001 -0.001775 0.000005
# 3 -0.006427 -0.004621 0.020444 0.000001 0.004472 -0.000002
# 4 0.000000 0.000001 0.000001 0.024911 0.000001 -0.001674
# 5 0.005041 -0.001775 0.004472 0.000001 0.031067 0.000001
# 6 0.000000 0.000005 -0.000002 -0.001674 0.000001 0.025498
#
#
# Mechanical properties :
#
#
# Convention : Reuss Voigt Hill
#
# Bulk Modulus (GPa) = 44.34435 48.87057 46.60746
# Shear Modulus (GPa) = 30.62350 34.20583 32.41467
#
# Velocity S-wave (km/s) = 3.77944 3.99438 3.88839
# Velocity P-wave (km/s) = 6.30315 6.63843 6.47296
#
# Compressibility (1/GPa) = 0.02255079
#
# Stress axis : x y z
#
# Youngs Moduli (GPa) = 61.86258 84.69850 48.91415
#
# Poissons Ratio (x) = 0.15962 0.31438
# Poissons Ratio (y) = 0.11658 0.22601
# Poissons Ratio (z) = 0.39761 0.39135
#
# Static dielectric constant tensor:
#      x y z
#    x 3.813910 0.000000 -0.032960 
#    y 0.000000 4.203460 0.000000 
#    z -0.032960 0.000000 3.786200 
# 
# 
# High freq. dielectric constant tensor:
#      x y z
#    x 1.825680 0.000000 -0.002910 
#    y 0.000000 1.863710 0.000000 
#    z -0.002910 0.000000 1.808040 
# 
# From -- ./inp_files/250793.got.cif
#   From: 2010.06.25/outbox.cif.g09.slc.cpg/sg15_126_cif.got.tgz:250793.got - 2010.06.28 07:06:18.
