data_PCOD8151274
_publ_section_title
;
Structure prediction by ZEFSAII (Michael W. Deem and Ramdas Pophale) SiO2 
 PCOD8151274
Probable space group: C 2/C
;
_chemical_formula_sum "Si O2"
_cell_formula_units_Z 56
_cell_length_a 8.638629
_cell_length_b 19.016108
_cell_length_c 16.788018
_cell_angle_alpha 90.000000
_cell_angle_beta 104.643546
_cell_angle_gamma 90.000000
_cell_volume 2668.238397
_symmetry_space_group_name_H-M "C 2/C"
_symmetry_group_IT_number 15
_symmetry_cell_setting 'monoclinic'
loop_
_space_group_symop_operation_xyz
x,y,z
-x,y,1/2-z
-x,-y,-z
x,-y,1/2+z
1/2+x,1/2+y,z
1/2-x,1/2+y,1/2-z
1/2-x,1/2-y,-z
1/2+x,1/2-y,1/2+z
loop_
_atom_site_type_symbol
_atom_site_label
_atom_site_fract_x
_atom_site_fract_y
_atom_site_fract_z
Si Si1 0.537190 0.441310 0.568275
Si Si2 0.825423 0.015422 0.258267
Si Si3 0.978794 0.694595 0.987347
Si Si4 0.259740 0.884298 0.880730
Si Si5 0.889554 0.863866 0.302573
Si Si6 0.624370 0.234898 0.834860
Si Si7 0.874449 0.162357 0.542339
O O1 0.500000 0.500000 0.500000
O O2 0.673368 0.463728 0.649130
O O3 0.362375 0.423145 0.577692
O O4 0.623958 0.373017 0.543544
O O5 0.700782 0.061069 0.187852
O O6 0.000000 0.035702 0.250000
O O7 0.797908 0.930920 0.251592
O O8 0.804121 0.663952 0.944492
O O9 0.064101 0.716269 0.915821
O O10 0.953141 0.760369 0.043381
O O11 0.082566 0.636445 0.048430
O O12 0.175122 0.815412 0.834622
O O13 0.774280 0.812221 0.332987
O O14 0.000000 0.825266 0.250000
O O15 0.018737 0.887199 0.386261
O O16 0.500000 0.217763 0.750000
#
# Coordination Sequence:
#
# PCOD8151274 Si02
#       7
#     8   8   8   8   8   8   8
#     4  11  20  37  68  92 126 175 224 265 326 404
#     4   9  21  38  63  91 128 172 217 265 327 404
#     4  11  24  41  66  99 136 168 220 285 333 396
#     4  11  22  42  64  98 131 175 221 276 335 394
#     4  11  22  41  65  93 130 173 221 274 329 404
#     4  12  23  40  67  98 130 172 222 277 334 397
#     4  11  22  41  64  98 131 170 224 273 334 401
#
# _framework density 20.987628000000001
#
# number of rings (size 3 to 8) (size 9 to 14) (size 15 to 20)
#    0.000    1.143    4.286    3.429    0.000    0.000 
#    0.000    2.857    0.000    0.000    0.000    0.000 
#    0.000    0.000    0.000    0.000    0.000    0.000 
#
# Total GULP energy -346993.133017 kJ/mol
# GULP energy per Si atom -12392.611893 kJ/mol
# Density = 2.093986 g / cm^3
# Si number density = 20.987628 Si / 1000 Ang^3
#
#
#
# Elastic Constant Matrix: (Units=GPa)
#
#
# Indices 1 2 3 4 5 6 
#
# 1 99.4636 43.1098 46.0503 0.0000 -6.9648 0.0000
# 2 43.1098 102.0933 45.4414 0.0000 1.1427 0.0000
# 3 46.0503 45.4414 110.9725 0.0000 -1.7156 0.0000
# 4 0.0000 0.0000 0.0000 45.1575 0.0000 -3.8291
# 5 -6.9648 1.1427 -1.7156 0.0000 29.0468 0.0000
# 6 0.0000 0.0000 0.0000 -3.8291 0.0000 25.6748
#
#
#
# Elastic Compliance Matrix: (Units=1/GPa)
#
#
# Indices 1 2 3 4 5 6 
#
# 1 0.013943 -0.004123 -0.004047 0.000000 0.003266 0.000000
# 2 -0.004123 0.013214 -0.003727 0.000000 -0.001729 0.000000
# 3 -0.004047 -0.003727 0.012215 0.000000 -0.000102 0.000000
# 4 0.000000 0.000000 0.000000 0.022428 0.000000 0.003345
# 5 0.003266 -0.001729 -0.000102 0.000000 0.035272 0.000000
# 6 0.000000 0.000000 0.000000 0.003345 0.000000 0.039448
#
#
# Mechanical properties :
#
#
# Convention : Reuss Voigt Hill
#
# Bulk Modulus (GPa) = 64.19014 64.63691 64.41353
# Shear Modulus (GPa) = 30.21004 31.83769 31.02386
#
# Velocity S-wave (km/s) = 3.79809 3.89906 3.84890
# Velocity P-wave (km/s) = 7.06294 7.15085 7.10703
#
# Compressibility (1/GPa) = 0.01557872
#
# Stress axis : x y z
#
# Youngs Moduli (GPa) = 71.71808 75.67742 81.86480
#
# Poissons Ratio (x) = 0.31201 0.33134
# Poissons Ratio (y) = 0.29568 0.30509
# Poissons Ratio (z) = 0.29027 0.28203
#
# Static dielectric constant tensor:
#      x y z
#    x 3.657570 0.000000 -0.104000 
#    y 0.000000 3.835210 0.000000 
#    z -0.104000 0.000000 4.127690 
# 
# 
# High freq. dielectric constant tensor:
#      x y z
#    x 1.799490 0.000000 -0.010440 
#    y 0.000000 1.823810 0.000000 
#    z -0.010440 0.000000 1.838300 
# 
# From -- ./inp_files/191060.got.cif
#   From: 2010.06.25/outbox.cif.g09.slc.cpg/sg15_96_cif.got.tgz:191060.got - 2010.06.28 07:06:18.
