data_PCOD8151195
_publ_section_title
;
Structure prediction by ZEFSAII (Michael W. Deem and Ramdas Pophale) SiO2 
 PCOD8151195
Probable space group: C 2/C
;
_chemical_formula_sum "Si O2"
_cell_formula_units_Z 60
_cell_length_a 25.627330
_cell_length_b 22.109227
_cell_length_c 12.168714
_cell_angle_alpha 90.000000
_cell_angle_beta 27.535817
_cell_angle_gamma 90.000000
_cell_volume 3187.486324
_symmetry_space_group_name_H-M "C 2/C"
_symmetry_group_IT_number 15
_symmetry_cell_setting 'monoclinic'
loop_
_space_group_symop_operation_xyz
x,y,z
-x,y,1/2-z
-x,-y,-z
x,-y,1/2+z
1/2+x,1/2+y,z
1/2-x,1/2+y,1/2-z
1/2-x,1/2-y,-z
1/2+x,1/2-y,1/2+z
loop_
_atom_site_type_symbol
_atom_site_label
_atom_site_fract_x
_atom_site_fract_y
_atom_site_fract_z
Si Si1 0.119346 0.575539 0.786352
Si Si2 0.132660 0.558515 0.325695
Si Si3 0.810291 0.375012 0.563605
Si Si4 0.875155 0.661742 0.524228
Si Si5 0.070310 0.238301 0.887572
Si Si6 0.219480 0.343853 0.520987
Si Si7 0.500000 0.219000 0.750000
Si Si8 0.094678 0.204581 0.486609
O O1 0.155291 0.512543 0.774240
O O2 0.196679 0.588105 0.536511
O O3 0.146795 0.628233 0.821123
O O4 0.989986 0.575692 0.990857
O O5 0.147893 0.577803 0.422987
O O6 0.223965 0.595045 0.083471
O O7 0.899787 0.320921 0.386838
O O8 0.686887 0.348114 0.816103
O O9 0.793072 0.637111 0.582543
O O10 0.847697 0.732925 0.583100
O O11 0.000000 0.648461 0.250000
O O12 0.113284 0.303241 0.762322
O O13 0.163296 0.189472 0.681135
O O14 0.956895 0.217386 0.037616
O O15 0.046828 0.240356 0.062100
O O16 0.000000 0.184463 0.750000
#
# Coordination Sequence:
#
# PCOD8151195 Si02
#       8
#     8   8   8   8   8   8   4   8
#     4  11  24  37  60  90 121 155 198 253 302 356
#     4  11  22  38  60  86 120 159 202 241 303 362
#     4  12  23  39  61  90 128 155 197 254 300 361
#     4  11  20  35  56  89 121 152 193 240 299 361
#     4  11  22  36  59  88 122 161 200 236 302 355
#     4  11  20  38  60  84 121 163 198 242 286 369
#     4  12  22  36  58  96 126 158 186 256 308 352
#     4  11  22  38  62  90 121 162 202 238 298 368
#
# _framework density 18.823609999999999
#
# number of rings (size 3 to 8) (size 9 to 14) (size 15 to 20)
#    0.000    0.800    6.667    2.400    1.867    3.200 
#    0.000    0.000    0.000    3.200    0.000    0.000 
#    0.000    0.000    0.000    0.000    0.000    0.000 
#
# Total GULP energy -372086.318707 kJ/mol
# GULP energy per Si atom -12402.877290 kJ/mol
# Density = 1.878077 g / cm^3
# Si number density = 18.823610 Si / 1000 Ang^3
#
#
#
# Elastic Constant Matrix: (Units=GPa)
#
#
# Indices 1 2 3 4 5 6 
#
# 1 84.5392 17.2576 23.0454 0.0001 28.2083 0.0000
# 2 17.2576 76.2886 44.0472 0.0000 10.2865 0.0000
# 3 23.0454 44.0472 72.3193 0.0002 16.3175 -0.0001
# 4 0.0001 0.0000 0.0002 22.0048 -0.0001 5.5977
# 5 28.2083 10.2865 16.3175 -0.0001 33.2188 0.0000
# 6 0.0000 0.0000 -0.0001 5.5977 0.0000 25.0290
#
#
#
# Elastic Compliance Matrix: (Units=1/GPa)
#
#
# Indices 1 2 3 4 5 6 
#
# 1 0.016921 -0.001009 -0.001806 0.000000 -0.013169 0.000000
# 2 -0.001009 0.020280 -0.012154 0.000000 0.000547 0.000000
# 3 -0.001806 -0.012154 0.023179 0.000000 -0.006089 0.000000
# 4 0.000000 0.000000 0.000000 0.048186 0.000000 -0.010777
# 5 -0.013169 0.000547 -0.006089 0.000000 0.044108 0.000000
# 6 0.000000 0.000000 0.000000 -0.010777 0.000000 0.042364
#
#
# Mechanical properties :
#
#
# Convention : Reuss Voigt Hill
#
# Bulk Modulus (GPa) = 32.84875 44.64974 38.74925
# Shear Modulus (GPa) = 21.26538 25.97030 23.61784
#
# Velocity S-wave (km/s) = 3.36477 3.71842 3.54601
# Velocity P-wave (km/s) = 5.70827 6.49670 6.11520
#
# Compressibility (1/GPa) = 0.03044256
#
# Stress axis : x y z
#
# Youngs Moduli (GPa) = 59.09655 49.31004 43.14204
#
# Poissons Ratio (x) = 0.04978 0.07791
# Poissons Ratio (y) = 0.05965 0.52433
# Poissons Ratio (z) = 0.10673 0.59929
#
# Static dielectric constant tensor:
#      x y z
#    x 3.611290 0.000000 0.147850 
#    y 0.000000 3.338360 0.000000 
#    z 0.147850 0.000000 3.302990 
# 
# 
# High freq. dielectric constant tensor:
#      x y z
#    x 1.747730 0.000000 0.016710 
#    y 0.000000 1.710090 0.000000 
#    z 0.016710 0.000000 1.709180 
# 
# From -- ./inp_files/119918.got.cif
#   From: 2010.06.25/outbox.cif.g09.slc.cpg/sg15_60_cif.got.tgz:119918.got - 2010.06.28 07:06:18.
