data_PCOD8151754
_publ_section_title
;
Structure prediction by ZEFSAII (Michael W. Deem and Ramdas Pophale) SiO2 
 PCOD8151754
Probable space group: C 2/C
;
_chemical_formula_sum "Si O2"
_cell_formula_units_Z 64
_cell_length_a 20.485937
_cell_length_b 9.802392
_cell_length_c 14.234036
_cell_angle_alpha 90.000000
_cell_angle_beta 89.825687
_cell_angle_gamma 90.000000
_cell_volume 2858.340408
_symmetry_space_group_name_H-M "C 2/C"
_symmetry_group_IT_number 15
_symmetry_cell_setting 'monoclinic'
loop_
_space_group_symop_operation_xyz
x,y,z
-x,y,1/2-z
-x,-y,-z
x,-y,1/2+z
1/2+x,1/2+y,z
1/2-x,1/2+y,1/2-z
1/2-x,1/2-y,-z
1/2+x,1/2-y,1/2+z
loop_
_atom_site_type_symbol
_atom_site_label
_atom_site_fract_x
_atom_site_fract_y
_atom_site_fract_z
Si Si1 0.930267 0.940068 0.718248
Si Si2 0.438357 0.315313 0.525186
Si Si3 0.354327 0.064117 0.478451
Si Si4 0.419630 0.208356 0.999855
Si Si5 0.068762 0.742605 0.291305
Si Si6 0.259553 0.060818 0.647258
Si Si7 0.371429 0.539553 0.413838
Si Si8 0.203460 0.339184 0.701682
O O1 0.907531 0.855940 0.626367
O O2 0.881332 0.919271 0.804843
O O3 0.000000 0.883689 0.750000
O O4 0.934150 0.097158 0.688965
O O5 0.402444 0.190608 0.477949
O O6 0.513133 0.271430 0.539589
O O7 0.429835 0.441319 0.451818
O O8 0.322495 0.053293 0.581167
O O9 0.299028 0.087159 0.399614
O O10 0.397055 0.931240 0.450350
O O11 0.365997 0.324219 0.976689
O O12 0.422332 0.170634 0.108974
O O13 0.129145 0.704000 0.225208
O O14 0.000000 0.690113 0.250000
O O15 0.250764 0.207431 0.697514
O O16 0.197426 0.037071 0.579649
O O17 0.265729 0.943276 0.724706
#
# Coordination Sequence:
#
# PCOD8151754 Si02
#       8
#     8   8   8   8   8   8   8   8
#     4  11  21  39  70 108 139 180 235 292 350 414
#     4  12  24  45  74 106 145 187 231 297 361 419
#     4  12  28  48  71 103 147 187 233 290 363 422
#     4  12  25  45  71 108 143 181 235 293 357 424
#     4  11  22  43  75 104 141 180 233 294 361 418
#     4  12  29  48  73 103 140 193 241 289 351 419
#     4  12  25  44  72 108 140 188 242 293 345 418
#     4  12  27  50  73 104 142 189 240 296 351 425
#
# _framework density 22.390615
#
# number of rings (size 3 to 8) (size 9 to 14) (size 15 to 20)
#    0.000    0.250    6.250    3.375    3.500    1.500 
#    0.000    0.625    0.000    0.000    0.000    0.000 
#    0.000    0.000    0.000    0.000    0.000    0.000 
#
# Total GULP energy -396914.170681 kJ/mol
# GULP energy per Si atom -12403.567834 kJ/mol
# Density = 2.233965 g / cm^3
# Si number density = 22.390615 Si / 1000 Ang^3
#
#
#
# Elastic Constant Matrix: (Units=GPa)
#
#
# Indices 1 2 3 4 5 6 
#
# 1 68.9323 34.6367 20.8709 0.0000 0.0734 0.0000
# 2 34.6367 140.8358 52.0987 0.0000 12.1366 0.0000
# 3 20.8709 52.0987 103.7576 0.0000 -0.5384 0.0000
# 4 0.0000 0.0000 0.0000 35.8136 0.0000 4.5356
# 5 0.0734 12.1366 -0.5384 0.0000 32.4673 0.0000
# 6 0.0000 0.0000 0.0000 4.5356 0.0000 28.2918
#
#
#
# Elastic Compliance Matrix: (Units=1/GPa)
#
#
# Indices 1 2 3 4 5 6 
#
# 1 0.016819 -0.003685 -0.001526 0.000000 0.001314 0.000000
# 2 -0.003685 0.009904 -0.004251 0.000000 -0.003764 0.000000
# 3 -0.001526 -0.004251 0.012089 0.000000 0.001793 0.000000
# 4 0.000000 0.000000 0.000000 0.028501 0.000000 -0.004569
# 5 0.001314 -0.003764 0.001793 0.000000 0.032234 0.000000
# 6 0.000000 0.000000 0.000000 -0.004569 0.000000 0.036078
#
#
# Mechanical properties :
#
#
# Convention : Reuss Voigt Hill
#
# Bulk Modulus (GPa) = 50.28381 58.74872 54.51626
# Shear Modulus (GPa) = 31.02137 33.04249 32.03193
#
# Velocity S-wave (km/s) = 3.72622 3.84569 3.78643
# Velocity P-wave (km/s) = 6.40463 6.78337 6.59672
#
# Compressibility (1/GPa) = 0.01988712
#
# Stress axis : x y z
#
# Youngs Moduli (GPa) = 59.45524 100.97133 82.72202
#
# Poissons Ratio (x) = 0.37211 0.12623
# Poissons Ratio (y) = 0.21911 0.35166
# Poissons Ratio (z) = 0.09073 0.42924
#
# Static dielectric constant tensor:
#      x y z
#    x 3.978160 0.000000 0.113540 
#    y 0.000000 3.958610 0.000000 
#    z 0.113540 0.000000 4.041880 
# 
# 
# High freq. dielectric constant tensor:
#      x y z
#    x 1.875050 0.000000 0.007090 
#    y 0.000000 1.880900 0.000000 
#    z 0.007090 0.000000 1.890770 
# 
# From -- ./inp_files/172388.got.cif
#   From: 2010.06.25/outbox.cif.g09.slc.cpg/sg15_87_cif.got.tgz:172388.got - 2010.06.28 07:06:18.
