data_PCOD8151434
_publ_section_title
;
Structure prediction by ZEFSAII (Michael W. Deem and Ramdas Pophale) SiO2 
 PCOD8151434
Probable space group: C 2/C
;
_chemical_formula_sum "Si O2"
_cell_formula_units_Z 44
_cell_length_a 21.355761
_cell_length_b 18.952479
_cell_length_c 5.332936
_cell_angle_alpha 90.000000
_cell_angle_beta 68.823566
_cell_angle_gamma 90.000000
_cell_volume 2012.720462
_symmetry_space_group_name_H-M "C 2/C"
_symmetry_group_IT_number 15
_symmetry_cell_setting 'monoclinic'
loop_
_space_group_symop_operation_xyz
x,y,z
-x,y,1/2-z
-x,-y,-z
x,-y,1/2+z
1/2+x,1/2+y,z
1/2-x,1/2+y,1/2-z
1/2-x,1/2-y,-z
1/2+x,1/2-y,1/2+z
loop_
_atom_site_type_symbol
_atom_site_label
_atom_site_fract_x
_atom_site_fract_y
_atom_site_fract_z
Si Si1 0.880720 0.142716 0.499276
Si Si2 0.000000 0.956735 0.750000
Si Si3 0.709411 0.291789 0.758917
Si Si4 0.762262 0.046657 0.814668
Si Si5 0.455503 0.777923 0.563564
Si Si6 0.324887 0.842130 0.882163
O O1 0.854050 0.172088 0.275254
O O2 0.821972 0.105502 0.746912
O O3 0.916983 0.203219 0.608797
O O4 0.933288 0.087094 0.330663
O O5 0.000000 0.000000 0.500000
O O6 0.750000 0.250000 0.500000
O O7 0.763037 0.350111 0.776269
O O8 0.681598 0.236645 0.999787
O O9 0.767627 0.005352 0.544487
O O10 0.690595 0.090186 0.916575
O O11 0.500000 0.779953 0.750000
O O12 0.400086 0.841943 0.656524
O O13 0.500000 0.790123 0.250000
#
# Coordination Sequence:
#
# PCOD8151434 Si02
#       6
#     8   4   8   8   8   8
#     4  12  24  46  70 100 144 182 243 283 342 420
#     4  12  30  46  64  94 152 210 232 266 320 420
#     4  11  20  41  72 104 130 179 232 316 367 397
#     4  12  27  44  70 100 137 188 236 284 340 425
#     4  12  27  43  72 106 138 180 227 295 358 422
#     4  11  24  42  70 102 142 175 237 307 369 405
#
# _framework density 21.860959000000001
#
# number of rings (size 3 to 8) (size 9 to 14) (size 15 to 20)
#    0.000    0.364    4.545    4.364    1.273    2.909 
#    0.000    0.000    0.000    3.273    0.000    0.000 
#    0.000    0.000    0.000    0.000    0.000    0.000 
#
# Total GULP energy -272649.403760 kJ/mol
# GULP energy per Si atom -12393.154716 kJ/mol
# Density = 2.181120 g / cm^3
# Si number density = 21.860959 Si / 1000 Ang^3
#
#
#
# Elastic Constant Matrix: (Units=GPa)
#
#
# Indices 1 2 3 4 5 6 
#
# 1 145.3061 49.1970 61.9014 0.0000 -3.4217 0.0000
# 2 49.1970 59.0240 32.5571 0.0000 -19.3200 0.0000
# 3 61.9014 32.5571 138.6721 0.0000 -14.7214 0.0000
# 4 0.0000 0.0000 0.0000 50.5175 0.0000 -6.6184
# 5 -3.4217 -19.3200 -14.7214 0.0000 50.1224 0.0000
# 6 0.0000 0.0000 0.0000 -6.6184 0.0000 53.2208
#
#
#
# Elastic Compliance Matrix: (Units=1/GPa)
#
#
# Indices 1 2 3 4 5 6 
#
# 1 0.011124 -0.008595 -0.003323 0.000000 -0.003529 0.000000
# 2 -0.008595 0.028286 -0.001764 0.000000 0.009798 0.000000
# 3 -0.003323 -0.001764 0.009302 0.000000 0.001825 0.000000
# 4 0.000000 0.000000 0.000000 0.020123 0.000000 0.002502
# 5 -0.003529 0.009798 0.001825 0.000000 0.024023 0.000000
# 6 0.000000 0.000000 0.000000 0.002502 0.000000 0.019101
#
#
# Mechanical properties :
#
#
# Convention : Reuss Voigt Hill
#
# Bulk Modulus (GPa) = 46.83843 70.03480 58.43661
# Shear Modulus (GPa) = 34.14367 44.06191 39.10279
#
# Velocity S-wave (km/s) = 3.95632 4.49436 4.23390
# Velocity P-wave (km/s) = 6.50708 7.68364 7.11971
#
# Compressibility (1/GPa) = 0.02134999
#
# Stress axis : x y z
#
# Youngs Moduli (GPa) = 89.89308 35.35259 107.49924
#
# Poissons Ratio (x) = 0.30385 0.35717
# Poissons Ratio (y) = 0.77261 0.18966
# Poissons Ratio (z) = 0.29868 0.06237
#
# Static dielectric constant tensor:
#      x y z
#    x 4.169760 0.000000 -0.255440 
#    y 0.000000 3.709360 0.000000 
#    z -0.255440 0.000000 3.958860 
# 
# 
# High freq. dielectric constant tensor:
#      x y z
#    x 1.860340 0.000000 -0.006800 
#    y 0.000000 1.845960 0.000000 
#    z -0.006800 0.000000 1.881380 
# 
# From -- ./inp_files/12865.got.cif
#   From: 2010.06.25/outbox.cif.g09.slc.cpg/sg15_7_cif.got.tgz:12865.got - 2010.06.28 07:06:18.
