data_PCOD8151402
_publ_section_title
;
Structure prediction by ZEFSAII (Michael W. Deem and Ramdas Pophale) SiO2 
 PCOD8151402
Probable space group: C 2/C
;
_chemical_formula_sum "Si O2"
_cell_formula_units_Z 60
_cell_length_a 21.442429
_cell_length_b 11.585511
_cell_length_c 16.399830
_cell_angle_alpha 90.000000
_cell_angle_beta 40.698555
_cell_angle_gamma 90.000000
_cell_volume 2656.616855
_symmetry_space_group_name_H-M "C 2/C"
_symmetry_group_IT_number 15
_symmetry_cell_setting 'monoclinic'
loop_
_space_group_symop_operation_xyz
x,y,z
-x,y,1/2-z
-x,-y,-z
x,-y,1/2+z
1/2+x,1/2+y,z
1/2-x,1/2+y,1/2-z
1/2-x,1/2-y,-z
1/2+x,1/2-y,1/2+z
loop_
_atom_site_type_symbol
_atom_site_label
_atom_site_fract_x
_atom_site_fract_y
_atom_site_fract_z
Si Si1 0.124231 0.794609 0.410190
Si Si2 0.640531 0.478060 0.977485
Si Si3 0.566696 0.783346 0.790826
Si Si4 0.337778 0.993668 0.358615
Si Si5 0.983132 0.634537 0.608450
Si Si6 0.175382 0.739090 0.848957
Si Si7 0.000000 0.097808 0.750000
Si Si8 0.390740 0.064491 0.478398
O O1 0.075026 0.760332 0.374461
O O2 0.234258 0.748816 0.300400
O O3 0.065559 0.731319 0.541792
O O4 0.115349 0.931364 0.431455
O O5 0.731775 0.533827 0.933295
O O6 0.654719 0.356238 0.918437
O O7 0.556004 0.477148 0.127565
O O8 0.579476 0.675139 0.717851
O O9 0.461718 0.835390 0.875911
O O10 0.645915 0.879462 0.695034
O O11 0.415003 0.898307 0.251871
O O12 0.346605 0.992709 0.447345
O O13 0.918707 0.689196 0.601444
O O14 0.046475 0.519473 0.524266
O O15 0.196481 0.631969 0.890504
#
# Coordination Sequence:
#
# PCOD8151402 Si02
#       8
#     8   8   8   8   8   8   4   8
#     4  12  27  43  70 107 143 187 230 286 353 422
#     4  12  27  46  70 103 146 184 229 291 355 420
#     4  11  20  40  72 104 135 177 232 293 344 397
#     4  11  23  44  74 105 134 181 240 293 343 407
#     4  11  24  46  72 101 142 185 232 289 339 423
#     4  12  24  43  74 108 139 178 238 295 348 412
#     4  12  24  44  66 106 144 184 224 290 366 406
#     4  11  23  43  76 104 132 183 244 290 338 402
#
# _framework density 22.585114999999998
#
# number of rings (size 3 to 8) (size 9 to 14) (size 15 to 20)
#    0.000    0.533    6.667    1.600    5.600    3.200 
#    2.400    2.000    0.000    0.000    0.000    0.000 
#    0.000    0.000    0.000    0.000    0.000    0.000 
#
# Total GULP energy -371714.936087 kJ/mol
# GULP energy per Si atom -12390.497870 kJ/mol
# Density = 2.253371 g / cm^3
# Si number density = 22.585115 Si / 1000 Ang^3
#
#
#
# Elastic Constant Matrix: (Units=GPa)
#
#
# Indices 1 2 3 4 5 6 
#
# 1 81.4082 46.2241 31.3563 0.0000 3.2474 0.0000
# 2 46.2241 104.6778 60.2658 0.0000 -0.1807 0.0000
# 3 31.3563 60.2658 124.2566 0.0000 -8.3598 0.0000
# 4 0.0000 0.0000 0.0000 27.5763 0.0000 -2.4691
# 5 3.2474 -0.1807 -8.3598 0.0000 25.3958 0.0000
# 6 0.0000 0.0000 0.0000 -2.4691 0.0000 28.0178
#
#
#
# Elastic Compliance Matrix: (Units=1/GPa)
#
#
# Indices 1 2 3 4 5 6 
#
# 1 0.016620 -0.006702 -0.001114 0.000000 -0.002540 0.000000
# 2 -0.006702 0.016064 -0.006171 0.000000 -0.001060 0.000000
# 3 -0.001114 -0.006171 0.011585 0.000000 0.003912 0.000000
# 4 0.000000 0.000000 0.000000 0.036551 0.000000 0.003221
# 5 -0.002540 -0.001060 0.003912 0.000000 0.040982 0.000000
# 6 0.000000 0.000000 0.000000 0.003221 0.000000 0.035975
#
#
# Mechanical properties :
#
#
# Convention : Reuss Voigt Hill
#
# Bulk Modulus (GPa) = 61.37254 65.11502 63.24378
# Shear Modulus (GPa) = 26.15296 27.69774 26.92535
#
# Velocity S-wave (km/s) = 3.40659 3.50576 3.45653
# Velocity P-wave (km/s) = 6.53499 6.72909 6.63275
#
# Compressibility (1/GPa) = 0.01629393
#
# Stress axis : x y z
#
# Youngs Moduli (GPa) = 60.16988 62.25276 86.31585
#
# Poissons Ratio (x) = 0.41720 0.09619
# Poissons Ratio (y) = 0.40324 0.53267
# Poissons Ratio (z) = 0.06706 0.38417
#
# Static dielectric constant tensor:
#      x y z
#    x 3.914680 0.000000 -0.058050 
#    y 0.000000 4.068450 0.000000 
#    z -0.058050 0.000000 4.162890 
# 
# 
# High freq. dielectric constant tensor:
#      x y z
#    x 1.882120 0.000000 -0.005670 
#    y 0.000000 1.880760 0.000000 
#    z -0.005670 0.000000 1.888230 
# 
# From -- ./inp_files/219300.got.cif
#   From: 2010.06.25/outbox.cif.g09.slc.cpg/sg15_110_cif.got.tgz:219300.got - 2010.06.28 07:06:18.
