data_PCOD8151373
_publ_section_title
;
Structure prediction by ZEFSAII (Michael W. Deem and Ramdas Pophale) SiO2 
 PCOD8151373
Probable space group: C 2/C
;
_chemical_formula_sum "Si O2"
_cell_formula_units_Z 64
_cell_length_a 14.023935
_cell_length_b 19.813797
_cell_length_c 22.915314
_cell_angle_alpha 90.000000
_cell_angle_beta 149.038645
_cell_angle_gamma 90.000000
_cell_volume 3275.781062
_symmetry_space_group_name_H-M "C 2/C"
_symmetry_group_IT_number 15
_symmetry_cell_setting 'monoclinic'
loop_
_space_group_symop_operation_xyz
x,y,z
-x,y,1/2-z
-x,-y,-z
x,-y,1/2+z
1/2+x,1/2+y,z
1/2-x,1/2+y,1/2-z
1/2-x,1/2-y,-z
1/2+x,1/2-y,1/2+z
loop_
_atom_site_type_symbol
_atom_site_label
_atom_site_fract_x
_atom_site_fract_y
_atom_site_fract_z
Si Si1 0.928536 0.201558 0.029900
Si Si2 0.206327 0.173624 0.370151
Si Si3 0.004062 0.836905 0.440507
Si Si4 0.416734 0.150536 0.145983
Si Si5 0.934241 0.010407 0.899435
Si Si6 0.513907 0.999624 0.693336
Si Si7 0.216378 0.918174 0.979814
Si Si8 0.698035 0.207818 0.203084
O O1 0.785157 0.149594 0.982936
O O2 0.002647 0.169106 0.009387
O O3 0.100767 0.210253 0.163269
O O4 0.822354 0.271832 0.967596
O O5 0.199887 0.102865 0.402707
O O6 0.300920 0.165004 0.356533
O O7 0.000000 0.201377 0.250000
O O8 0.211869 0.819968 0.528229
O O9 0.944241 0.911017 0.388317
O O10 0.860224 0.785232 0.336799
O O11 0.500000 0.179313 0.250000
O O12 0.546545 0.170828 0.161609
O O13 0.399542 0.069708 0.139275
O O14 0.722945 0.985614 0.782972
O O15 0.049713 0.967137 0.913043
O O16 0.000000 0.000000 0.000000
O O17 0.500000 0.035080 0.750000
O O18 0.413904 0.046305 0.593141
#
# Coordination Sequence:
#
# PCOD8151373 Si02
#       8
#     8   8   8   8   8   8   8   8
#     4  11  22  40  65  95 124 163 211 265 313 379
#     4  11  26  41  61  88 128 174 209 250 320 387
#     4  11  22  38  64  97 126 158 210 264 321 369
#     4  11  20  40  65  94 121 162 207 261 327 369
#     4  12  21  39  62  97 126 160 210 270 318 365
#     4  11  22  35  64  95 124 159 203 267 323 365
#     4  12  23  40  63  92 131 164 207 261 319 385
#     4  11  24  40  64  92 126 165 208 262 317 386
#
# _framework density 19.537324000000002
#
# number of rings (size 3 to 8) (size 9 to 14) (size 15 to 20)
#    0.000    0.750    6.250    2.250    1.750    1.500 
#    0.000    0.625    0.000    0.750    0.000    0.000 
#    0.000    0.000    0.000    0.000    0.000    0.000 
#
# Total GULP energy -396884.348512 kJ/mol
# GULP energy per Si atom -12402.635891 kJ/mol
# Density = 1.949286 g / cm^3
# Si number density = 19.537324 Si / 1000 Ang^3
#
#
#
# Elastic Constant Matrix: (Units=GPa)
#
#
# Indices 1 2 3 4 5 6 
#
# 1 118.4339 55.4148 40.0336 0.0004 -2.1110 -0.0006
# 2 55.4148 56.7197 23.9149 0.0034 -18.0986 -0.0007
# 3 40.0336 23.9149 89.4316 0.0053 -0.2533 -0.0018
# 4 0.0004 0.0034 0.0053 26.5934 0.0023 3.3722
# 5 -2.1110 -18.0986 -0.2533 0.0023 28.3873 -0.0005
# 6 -0.0006 -0.0007 -0.0018 3.3722 -0.0005 31.9541
#
#
#
# Elastic Compliance Matrix: (Units=1/GPa)
#
#
# Indices 1 2 3 4 5 6 
#
# 1 0.019295 -0.021563 -0.002906 0.000004 -0.012339 -0.000001
# 2 -0.021563 0.049824 -0.003585 -0.000008 0.030130 0.000002
# 3 -0.002906 -0.003585 0.013435 -0.000002 -0.002382 0.000001
# 4 0.000004 -0.000008 -0.000002 0.038113 -0.000008 -0.004022
# 5 -0.012339 0.030130 -0.002382 -0.000008 0.053498 0.000002
# 6 -0.000001 0.000002 0.000001 -0.004022 0.000002 0.031719
#
#
# Mechanical properties :
#
#
# Convention : Reuss Voigt Hill
#
# Bulk Modulus (GPa) = 37.81569 55.92353 46.86961
# Shear Modulus (GPa) = 18.46324 27.06842 22.76583
#
# Velocity S-wave (km/s) = 3.07746 3.72623 3.41728
# Velocity P-wave (km/s) = 5.65909 6.87016 6.29382
#
# Compressibility (1/GPa) = 0.02644405
#
# Stress axis : x y z
#
# Youngs Moduli (GPa) = 51.82587 20.07081 74.43436
#
# Poissons Ratio (x) = 0.43279 0.21632
# Poissons Ratio (y) = 1.11754 0.26687
# Poissons Ratio (z) = 0.15062 0.07196
#
# Static dielectric constant tensor:
#      x y z
#    x 3.683840 0.000000 0.044750 
#    y 0.000000 3.648400 -0.000010 
#    z 0.044750 -0.000010 3.571850 
# 
# 
# High freq. dielectric constant tensor:
#      x y z
#    x 1.763280 0.000000 0.014470 
#    y 0.000000 1.753280 0.000000 
#    z 0.014470 0.000000 1.762530 
# 
# From -- ./inp_files/155485.got.cif
#   From: 2010.06.25/outbox.cif.g09.slc.cpg/sg15_78_cif.got.tgz:155485.got - 2010.06.28 07:06:18.
