data_PCOD8151406
_publ_section_title
;
Structure prediction by ZEFSAII (Michael W. Deem and Ramdas Pophale) SiO2 
 PCOD8151406
Probable space group: C 2/C
;
_chemical_formula_sum "Si O2"
_cell_formula_units_Z 48
_cell_length_a 30.727705
_cell_length_b 13.732267
_cell_length_c 14.681747
_cell_angle_alpha 90.000000
_cell_angle_beta 20.823839
_cell_angle_gamma 90.000000
_cell_volume 2202.341568
_symmetry_space_group_name_H-M "C 2/C"
_symmetry_group_IT_number 15
_symmetry_cell_setting 'monoclinic'
loop_
_space_group_symop_operation_xyz
x,y,z
-x,y,1/2-z
-x,-y,-z
x,-y,1/2+z
1/2+x,1/2+y,z
1/2-x,1/2+y,1/2-z
1/2-x,1/2-y,-z
1/2+x,1/2-y,1/2+z
loop_
_atom_site_type_symbol
_atom_site_label
_atom_site_fract_x
_atom_site_fract_y
_atom_site_fract_z
Si Si1 0.725196 0.002821 0.492313
Si Si2 0.378983 0.802989 0.754745
Si Si3 0.002813 0.397659 0.349513
Si Si4 0.803478 0.450253 0.254779
Si Si5 0.929597 0.740258 0.473660
Si Si6 0.874791 0.959071 0.539947
O O1 0.646157 0.904932 0.646729
O O2 0.642207 0.088497 0.610470
O O3 0.766455 0.031830 0.513225
O O4 0.848785 0.992990 0.189864
O O5 0.435588 0.816195 0.542950
O O6 0.476836 0.744214 0.624829
O O7 0.250000 0.750000 0.000000
O O8 0.937530 0.501600 0.493958
O O9 0.000000 0.363329 0.250000
O O10 0.733427 0.505128 0.312438
O O11 0.819291 0.334214 0.211914
O O12 0.872424 0.842781 0.555096
O O13 0.000000 0.694645 0.250000
O O14 0.000000 0.997196 0.250000
#
# Coordination Sequence:
#
# PCOD8151406 Si02
#       6
#     8   8   8   8   8   8
#     4  11  22  43  70  95 133 181 222 279 337 407
#     4  11  24  42  69 108 136 172 227 285 339 410
#     4  11  20  40  74 100 126 176 230 279 331 398
#     4  11  21  43  69  98 133 173 233 278 336 406
#     4  11  23  41  70  99 132 180 230 273 341 406
#     4  11  27  43  64  98 136 183 225 283 348 398
#
# _framework density 21.794983999999999
#
# number of rings (size 3 to 8) (size 9 to 14) (size 15 to 20)
#    0.000    1.000    5.000    2.500    9.333    1.333 
#    0.000    0.833    0.000    0.000    0.000    0.000 
#    0.000    0.000    0.000    0.000    0.000    0.000 
#
# Total GULP energy -297588.200214 kJ/mol
# GULP energy per Si atom -12399.508342 kJ/mol
# Density = 2.174538 g / cm^3
# Si number density = 21.794984 Si / 1000 Ang^3
#
#
#
# Elastic Constant Matrix: (Units=GPa)
#
#
# Indices 1 2 3 4 5 6 
#
# 1 139.0983 50.7671 52.4269 0.0000 28.4725 0.0000
# 2 50.7671 58.7998 33.1940 0.0000 -13.4401 0.0000
# 3 52.4269 33.1940 107.6013 0.0000 25.3282 0.0000
# 4 0.0000 0.0000 0.0000 28.8461 0.0000 -4.0055
# 5 28.4725 -13.4401 25.3282 0.0000 50.6089 0.0000
# 6 0.0000 0.0000 0.0000 -4.0055 0.0000 24.1627
#
#
#
# Elastic Compliance Matrix: (Units=1/GPa)
#
#
# Indices 1 2 3 4 5 6 
#
# 1 0.016329 -0.017957 0.000984 0.000000 -0.014448 0.000000
# 2 -0.017957 0.045759 -0.012022 0.000000 0.028271 0.000000
# 3 0.000984 -0.012022 0.015195 0.000000 -0.011351 0.000000
# 4 0.000000 0.000000 0.000000 0.035484 0.000000 0.005882
# 5 -0.014448 0.028271 -0.011351 0.000000 0.041077 0.000000
# 6 0.000000 0.000000 0.000000 0.005882 0.000000 0.042361
#
#
# Mechanical properties :
#
#
# Convention : Reuss Voigt Hill
#
# Bulk Modulus (GPa) = 51.82880 64.25280 58.04080
# Shear Modulus (GPa) = 19.18464 31.99763 25.59114
#
# Velocity S-wave (km/s) = 2.97009 3.83576 3.43034
# Velocity P-wave (km/s) = 5.96604 7.01156 6.50983
#
# Compressibility (1/GPa) = 0.01929429
#
# Stress axis : x y z
#
# Youngs Moduli (GPa) = 61.23944 21.85346 65.81299
#
# Poissons Ratio (x) = 0.39242 -0.06478
# Poissons Ratio (y) = 1.09966 0.79121
# Poissons Ratio (z) = -0.06027 0.26272
#
# Static dielectric constant tensor:
#      x y z
#    x 4.075190 0.000000 0.321050 
#    y 0.000000 3.642490 0.000000 
#    z 0.321050 0.000000 4.018170 
# 
# 
# High freq. dielectric constant tensor:
#      x y z
#    x 1.870910 0.000000 0.017300 
#    y 0.000000 1.830380 0.000000 
#    z 0.017300 0.000000 1.851900 
# 
# From -- ./inp_files/182456.got.cif
#   From: 2010.06.25/outbox.cif.g09.slc.cpg/sg15_92_cif.got.tgz:182456.got - 2010.06.28 07:06:18.
