data_PCOD8151421
_publ_section_title
;
Structure prediction by ZEFSAII (Michael W. Deem and Ramdas Pophale) SiO2 
 PCOD8151421
Probable space group: C 2/C
;
_chemical_formula_sum "Si O2"
_cell_formula_units_Z 60
_cell_length_a 11.113611
_cell_length_b 15.524349
_cell_length_c 18.301194
_cell_angle_alpha 90.000000
_cell_angle_beta 74.924665
_cell_angle_gamma 90.000000
_cell_volume 3048.866318
_symmetry_space_group_name_H-M "C 2/C"
_symmetry_group_IT_number 15
_symmetry_cell_setting 'monoclinic'
loop_
_space_group_symop_operation_xyz
x,y,z
-x,y,1/2-z
-x,-y,-z
x,-y,1/2+z
1/2+x,1/2+y,z
1/2-x,1/2+y,1/2-z
1/2-x,1/2-y,-z
1/2+x,1/2-y,1/2+z
loop_
_atom_site_type_symbol
_atom_site_label
_atom_site_fract_x
_atom_site_fract_y
_atom_site_fract_z
Si Si1 0.090511 0.138570 0.668786
Si Si2 0.099215 0.336543 0.670332
Si Si3 0.136500 0.119800 0.305923
Si Si4 0.442829 0.469962 0.084414
Si Si5 0.500000 0.766209 0.250000
Si Si6 0.269663 0.991405 0.200300
Si Si7 0.991347 0.478662 0.916418
Si Si8 0.330336 0.911762 0.339598
O O1 0.097478 0.237767 0.646881
O O2 0.000000 0.121059 0.750000
O O3 0.044717 0.091804 0.603606
O O4 0.221690 0.098514 0.673981
O O5 0.234256 0.354908 0.678771
O O6 0.000000 0.357610 0.750000
O O7 0.076949 0.390898 0.598979
O O8 0.161586 0.063427 0.227974
O O9 0.058627 0.205668 0.302954
O O10 0.061949 0.059384 0.372240
O O11 0.310997 0.416023 0.105114
O O12 0.500000 0.500000 0.000000
O O13 0.385092 0.819789 0.304135
O O14 0.367052 0.031894 0.130070
O O15 0.333951 0.974755 0.269094
O O16 0.924755 0.558140 0.887098
O O17 0.000000 0.500000 0.000000
#
# Coordination Sequence:
#
# PCOD8151421 Si02
#       8
#     8   8   8   8   4   8   8   8
#     4  11  22  38  68 101 122 165 223 268 318 392
#     4  11  22  41  67  98 126 165 225 279 322 382
#     4  11  22  40  70  95 131 169 225 272 330 394
#     4  11  25  45  66  93 143 182 209 264 348 403
#     4  12  24  40  70 104 126 166 234 280 328 384
#     4  11  20  41  68  93 127 169 220 271 325 396
#     4  12  24  41  64  95 130 176 218 269 340 406
#     4  11  22  43  67  90 130 175 218 273 326 388
#
# _framework density 19.679445999999999
#
# number of rings (size 3 to 8) (size 9 to 14) (size 15 to 20)
#    0.000    0.800    8.000    1.600    3.733    0.000 
#    2.400    2.000    0.000    0.000    0.000    0.000 
#    0.000    0.000    0.000    0.000    0.000    0.000 
#
# Total GULP energy -371822.700819 kJ/mol
# GULP energy per Si atom -12394.090027 kJ/mol
# Density = 1.963465 g / cm^3
# Si number density = 19.679446 Si / 1000 Ang^3
#
#
#
# Elastic Constant Matrix: (Units=GPa)
#
#
# Indices 1 2 3 4 5 6 
#
# 1 84.9370 54.9176 45.4703 0.0000 1.8050 0.0000
# 2 54.9176 125.2542 57.9930 0.0000 6.5819 0.0000
# 3 45.4703 57.9930 124.9626 0.0000 0.0804 0.0000
# 4 0.0000 0.0000 0.0000 -50.8488 0.0000 1.7440
# 5 1.8050 6.5819 0.0804 0.0000 32.5192 0.0000
# 6 0.0000 0.0000 0.0000 1.7440 0.0000 45.9505
#
#
#
# Elastic Compliance Matrix: (Units=1/GPa)
#
#
# Indices 1 2 3 4 5 6 
#
# 1 0.017619 -0.006076 -0.003592 0.000000 0.000261 0.000000
# 2 -0.006076 0.012402 -0.003543 0.000000 -0.002164 0.000000
# 3 -0.003592 -0.003543 0.010953 0.000000 0.000889 0.000000
# 4 0.000000 0.000000 0.000000 -0.019641 0.000000 0.000745
# 5 0.000261 -0.002164 0.000889 0.000000 0.031172 0.000000
# 6 0.000000 0.000000 0.000000 0.000745 0.000000 0.021734
#
#
# Mechanical properties :
#
#
# Convention : Reuss Voigt Hill
#
# Bulk Modulus (GPa) = 68.71586 72.43506 70.57546
# Shear Modulus (GPa) = 47.38773 17.30906 32.34840
#
# Velocity S-wave (km/s) = 4.91244 2.96894 4.05874
# Velocity P-wave (km/s) = 8.19570 6.97425 7.60952
#
# Compressibility (1/GPa) = 0.01455268
#
# Stress axis : x y z
#
# Youngs Moduli (GPa) = 56.75674 80.63203 91.29856
#
# Poissons Ratio (x) = 0.48991 0.32790
# Poissons Ratio (y) = 0.34485 0.32350
# Poissons Ratio (z) = 0.20384 0.28571
#
# Static dielectric constant tensor:
#      x y z
#    x 2.630680 0.000000 -0.607560 
#    y 0.000000 4.235710 0.000000 
#    z -0.607560 0.000000 3.169190 
# 
# 
# High freq. dielectric constant tensor:
#      x y z
#    x 1.782340 0.000000 0.003750 
#    y 0.000000 1.773550 0.000000 
#    z 0.003750 0.000000 1.740570 
# 
# From -- ./inp_files/197833.got.cif
#   From: 2010.06.25/outbox.cif.g09.slc.cpg/sg15_99_cif.got.tgz:197833.got - 2010.06.28 07:06:18.
