data_PCOD8151594
_publ_section_title
;
Structure prediction by ZEFSAII (Michael W. Deem and Ramdas Pophale) SiO2 
 PCOD8151594
Probable space group: C 2/C
;
_chemical_formula_sum "Si O2"
_cell_formula_units_Z 64
_cell_length_a 14.928759
_cell_length_b 19.888239
_cell_length_c 11.611902
_cell_angle_alpha 90.000000
_cell_angle_beta 88.836781
_cell_angle_gamma 90.000000
_cell_volume 3446.941330
_symmetry_space_group_name_H-M "C 2/C"
_symmetry_group_IT_number 15
_symmetry_cell_setting 'monoclinic'
loop_
_space_group_symop_operation_xyz
x,y,z
-x,y,1/2-z
-x,-y,-z
x,-y,1/2+z
1/2+x,1/2+y,z
1/2-x,1/2+y,1/2-z
1/2-x,1/2-y,-z
1/2+x,1/2-y,1/2+z
loop_
_atom_site_type_symbol
_atom_site_label
_atom_site_fract_x
_atom_site_fract_y
_atom_site_fract_z
Si Si1 0.396473 0.881460 0.758217
Si Si2 0.101834 0.772626 0.219748
Si Si3 0.188383 0.184250 0.495785
Si Si4 0.525367 0.887649 0.375887
Si Si5 0.760091 0.707677 0.884996
Si Si6 0.818547 0.561243 0.481534
Si Si7 0.589245 0.255191 0.798452
Si Si8 0.342459 0.088696 0.007146
O O1 0.500000 0.900960 0.750000
O O2 0.384231 0.806147 0.806340
O O3 0.355096 0.931513 0.851864
O O4 0.343044 0.887775 0.639901
O O5 0.123143 0.815183 0.106125
O O6 0.165964 0.794733 0.321909
O O7 0.000000 0.789542 0.250000
O O8 0.250000 0.250000 0.500000
O O9 0.237261 0.112753 0.500883
O O10 0.133170 0.189135 0.379092
O O11 0.500000 0.914245 0.250000
O O12 0.609574 0.927816 0.419996
O O13 0.553291 0.809168 0.371792
O O14 0.444934 0.904083 0.464228
O O15 0.840304 0.734081 0.801695
O O16 0.750000 0.750000 0.000000
O O17 0.781701 0.633083 0.925436
O O18 0.794301 0.483378 0.497446
O O19 0.500000 0.289923 0.750000
#
# Coordination Sequence:
#
# PCOD8151594 Si02
#       8
#     8   8   8   8   8   8   8   8
#     4  11  22  37  56  91 127 159 207 249 310 381
#     4  11  24  40  66  91 121 164 216 271 310 361
#     4  12  22  41  63  90 125 170 214 254 305 374
#     4  11  21  37  59  90 129 167 199 240 314 389
#     4  12  23  40  60  91 128 162 209 263 320 365
#     4  12  25  39  59  88 131 175 202 246 307 389
#     4  11  22  38  67  93 127 165 210 264 313 374
#     4  12  26  37  59  92 129 166 201 255 317 384
#
# _framework density 18.567186
#
# number of rings (size 3 to 8) (size 9 to 14) (size 15 to 20)
#    0.000    0.500    8.750    0.375    5.250    0.000 
#    0.000    0.000    0.000    1.500    0.000    0.000 
#    0.000    0.000    0.000    0.000    0.000    0.000 
#
# Total GULP energy -396791.129132 kJ/mol
# GULP energy per Si atom -12399.722785 kJ/mol
# Density = 1.852493 g / cm^3
# Si number density = 18.567186 Si / 1000 Ang^3
#
#
#
# Elastic Constant Matrix: (Units=GPa)
#
#
# Indices 1 2 3 4 5 6 
#
# 1 115.5957 55.3513 52.3114 0.0000 16.2053 0.0000
# 2 55.3513 100.0994 39.9494 0.0000 -6.1006 0.0000
# 3 52.3114 39.9494 133.8271 0.0000 9.2673 0.0000
# 4 0.0000 0.0000 0.0000 22.7312 0.0000 0.0940
# 5 16.2053 -6.1006 9.2673 0.0000 34.2657 0.0000
# 6 0.0000 0.0000 0.0000 0.0940 0.0000 24.3495
#
#
#
# Elastic Compliance Matrix: (Units=1/GPa)
#
#
# Indices 1 2 3 4 5 6 
#
# 1 0.014526 -0.007286 -0.002993 0.000000 -0.007357 0.000000
# 2 -0.007286 0.015305 -0.002189 0.000000 0.006763 0.000000
# 3 -0.002993 -0.002189 0.009401 0.000000 -0.001517 0.000000
# 4 0.000000 0.000000 0.000000 0.043993 0.000000 -0.000170
# 5 -0.007357 0.006763 -0.001517 0.000000 0.034277 0.000000
# 6 0.000000 0.000000 0.000000 -0.000170 0.000000 0.041069
#
#
# Mechanical properties :
#
#
# Convention : Reuss Voigt Hill
#
# Bulk Modulus (GPa) = 69.95693 71.63850 70.79771
# Shear Modulus (GPa) = 26.55728 29.72996 28.14362
#
# Velocity S-wave (km/s) = 3.78608 4.00585 3.89752
# Velocity P-wave (km/s) = 7.54136 7.75003 7.64640
#
# Compressibility (1/GPa) = 0.01429451
#
# Stress axis : x y z
#
# Youngs Moduli (GPa) = 68.84391 65.33966 106.37255
#
# Poissons Ratio (x) = 0.47605 0.31842
# Poissons Ratio (y) = 0.50158 0.23285
# Poissons Ratio (z) = 0.20608 0.14303
#
# Static dielectric constant tensor:
#      x y z
#    x 3.294880 0.000000 0.093210 
#    y 0.000000 3.321580 0.000000 
#    z 0.093210 0.000000 3.608560 
# 
# 
# High freq. dielectric constant tensor:
#      x y z
#    x 1.710930 0.000000 0.005740 
#    y 0.000000 1.694600 0.000000 
#    z 0.005740 0.000000 1.745660 
# 
# From -- ./inp_files/98791.got.cif
#   From: 2010.06.25/outbox.cif.g09.slc.cpg/sg15_50_cif.got.tgz:98791.got - 2010.06.28 07:06:18.
