data_PCOD8151061
_publ_section_title
;
Structure prediction by ZEFSAII (Michael W. Deem and Ramdas Pophale) SiO2 
 PCOD8151061
Probable space group: C 2/C
;
_chemical_formula_sum "Si O2"
_cell_formula_units_Z 56
_cell_length_a 25.693492
_cell_length_b 8.901444
_cell_length_c 13.973901
_cell_angle_alpha 90.000000
_cell_angle_beta 58.532306
_cell_angle_gamma 90.000000
_cell_volume 2725.944508
_symmetry_space_group_name_H-M "C 2/C"
_symmetry_group_IT_number 15
_symmetry_cell_setting 'monoclinic'
loop_
_space_group_symop_operation_xyz
x,y,z
-x,y,1/2-z
-x,-y,-z
x,-y,1/2+z
1/2+x,1/2+y,z
1/2-x,1/2+y,1/2-z
1/2-x,1/2-y,-z
1/2+x,1/2-y,1/2+z
loop_
_atom_site_type_symbol
_atom_site_label
_atom_site_fract_x
_atom_site_fract_y
_atom_site_fract_z
Si Si1 0.431707 0.515045 0.609191
Si Si2 0.375210 0.920990 0.982224
Si Si3 0.914483 0.113047 0.431837
Si Si4 0.991539 0.604254 0.865376
Si Si5 0.565402 0.683653 0.700316
Si Si6 0.115127 0.685902 0.823873
Si Si7 0.182905 0.314878 0.070152
O O1 0.500000 0.500000 0.500000
O O2 0.390168 0.576940 0.561914
O O3 0.424223 0.639651 0.699360
O O4 0.404230 0.358397 0.670507
O O5 0.383696 0.797228 0.890134
O O6 0.437260 0.001914 0.957834
O O7 0.325604 0.040057 0.990502
O O8 0.354037 0.843777 0.102004
O O9 0.973022 0.221017 0.383286
O O10 0.861078 0.182525 0.420849
O O11 0.938739 0.962934 0.360752
O O12 0.000000 0.548227 0.750000
O O13 0.054473 0.584207 0.863499
O O14 0.500000 0.765135 0.750000
O O15 0.165561 0.643394 0.695775
O O16 0.250000 0.250000 0.000000
#
# Coordination Sequence:
#
# PCOD8151061 Si02
#       7
#     8   8   8   8   8   8   8
#     4  12  21  34  65 103 137 175 209 258 335 429
#     4  11  25  38  65 104 132 166 222 279 339 392
#     4  11  21  39  64  92 129 179 222 251 340 400
#     4  11  19  36  61  95 138 177 198 262 341 417
#     4  12  21  35  60 102 144 168 208 264 332 409
#     4  12  21  41  66  94 135 172 217 270 340 401
#     4  11  27  51  68  84 129 185 235 282 324 377
#
# _framework density 20.543337000000001
#
# number of rings (size 3 to 8) (size 9 to 14) (size 15 to 20)
#    0.000    0.571    8.571    1.286    0.000    2.286 
#    2.571    0.714    0.000    0.000    0.000    0.000 
#    0.000    0.000    0.000    0.000    0.000    0.000 
#
# Total GULP energy -347111.902507 kJ/mol
# GULP energy per Si atom -12396.853661 kJ/mol
# Density = 2.049658 g / cm^3
# Si number density = 20.543337 Si / 1000 Ang^3
#
#
#
# Elastic Constant Matrix: (Units=GPa)
#
#
# Indices 1 2 3 4 5 6 
#
# 1 72.0260 27.4739 65.1384 0.0000 6.2859 0.0000
# 2 27.4739 79.0760 33.1804 0.0000 2.8008 0.0000
# 3 65.1384 33.1804 120.0819 0.0000 22.6006 0.0000
# 4 0.0000 0.0000 0.0000 19.5582 0.0000 16.5769
# 5 6.2859 2.8008 22.6006 0.0000 35.6084 0.0000
# 6 0.0000 0.0000 0.0000 16.5769 0.0000 12.4693
#
#
#
# Elastic Compliance Matrix: (Units=1/GPa)
#
#
# Indices 1 2 3 4 5 6 
#
# 1 0.029040 -0.003683 -0.015700 0.000000 0.005128 0.000000
# 2 -0.003683 0.014850 -0.002280 0.000000 0.000929 0.000000
# 3 -0.015700 -0.002280 0.019214 0.000000 -0.009244 0.000000
# 4 0.000000 0.000000 0.000000 -0.403317 0.000000 0.536176
# 5 0.005128 0.000929 -0.009244 0.000000 0.032972 0.000000
# 6 0.000000 0.000000 0.000000 0.536176 0.000000 -0.632604
#
#
# Mechanical properties :
#
#
# Convention : Reuss Voigt Hill
#
# Bulk Modulus (GPa) = 50.56489 58.08549 54.32519
# Shear Modulus (GPa) = -5.61845 23.21992 8.80074
#
# Velocity S-wave (km/s) = -1.65556 3.36563 2.07202
# Velocity P-wave (km/s) = 4.58396 6.59085 5.67679
#
# Compressibility (1/GPa) = 0.01977657
#
# Stress axis : x y z
#
# Youngs Moduli (GPa) = 34.43492 67.34192 52.04498
#
# Poissons Ratio (x) = 0.24805 0.81712
# Poissons Ratio (y) = 0.12684 0.11866
# Poissons Ratio (z) = 0.54064 0.15354
#
# Static dielectric constant tensor:
#      x y z
#    x 3.458960 0.000000 0.345050 
#    y 0.000000 3.835860 0.000000 
#    z 0.345050 0.000000 3.899380 
# 
# 
# High freq. dielectric constant tensor:
#      x y z
#    x 1.762120 0.000000 0.038140 
#    y 0.000000 1.813140 0.000000 
#    z 0.038140 0.000000 1.804760 
# 
# From -- ./inp_files/176529.got.cif
#   From: 2010.06.25/outbox.cif.g09.slc.cpg/sg15_89_cif.got.tgz:176529.got - 2010.06.28 07:06:18.
