data_PCOD8151513
_publ_section_title
;
Structure prediction by ZEFSAII (Michael W. Deem and Ramdas Pophale) SiO2 
 PCOD8151513
Probable space group: C 2/C
;
_chemical_formula_sum "Si O2"
_cell_formula_units_Z 64
_cell_length_a 18.330859
_cell_length_b 16.204797
_cell_length_c 20.232234
_cell_angle_alpha 90.000000
_cell_angle_beta 146.482372
_cell_angle_gamma 90.000000
_cell_volume 3318.650789
_symmetry_space_group_name_H-M "C 2/C"
_symmetry_group_IT_number 15
_symmetry_cell_setting 'monoclinic'
loop_
_space_group_symop_operation_xyz
x,y,z
-x,y,1/2-z
-x,-y,-z
x,-y,1/2+z
1/2+x,1/2+y,z
1/2-x,1/2+y,1/2-z
1/2-x,1/2-y,-z
1/2+x,1/2-y,1/2+z
loop_
_atom_site_type_symbol
_atom_site_label
_atom_site_fract_x
_atom_site_fract_y
_atom_site_fract_z
Si Si1 0.572378 0.930661 0.367355
Si Si2 0.981609 0.275787 0.916017
Si Si3 0.044847 0.619928 0.985083
Si Si4 0.935887 0.118725 0.804347
Si Si5 0.727868 0.445488 0.513231
Si Si6 0.371157 0.926463 0.753150
Si Si7 0.752247 0.689136 0.938965
Si Si8 0.799472 0.516175 0.823799
O O1 0.500000 0.887874 0.250000
O O2 0.573241 0.864872 0.428480
O O3 0.721318 0.959759 0.458379
O O4 0.491128 0.012790 0.325844
O O5 0.929966 0.298720 0.951024
O O6 0.945379 0.181654 0.873168
O O7 0.922723 0.338519 0.817449
O O8 0.140489 0.282289 0.033338
O O9 0.138843 0.544581 0.075602
O O10 0.893664 0.594831 0.884213
O O11 0.886574 0.173362 0.704224
O O12 0.837986 0.046110 0.750823
O O13 0.071074 0.070344 0.890365
O O14 0.779694 0.408338 0.621342
O O15 0.795229 0.397782 0.503125
O O16 0.279355 0.968438 0.739695
O O17 0.750000 0.750000 0.000000
#
# Coordination Sequence:
#
# PCOD8151513 Si02
#       8
#     8   8   8   8   8   8   8   8
#     4   9  17  31  54  80 102 135 187 232 272 317
#     4  11  21  33  53  74 105 152 185 222 256 319
#     4   9  17  35  57  72  99 147 192 231 253 311
#     4  12  24  33  50  80 115 148 177 223 284 328
#     4  11  21  31  49  78 113 144 172 222 280 330
#     4   9  19  34  53  73 102 146 187 224 263 318
#     4  12  22  34  45  72 115 152 181 206 260 339
#     4   9  18  34  53  73 102 142 187 226 263 321
#
# _framework density 19.284946000000001
#
# number of rings (size 3 to 8) (size 9 to 14) (size 15 to 20)
#    0.000    1.750    3.750    2.625    0.000    1.500 
#    0.000    0.000    0.000    0.000    0.000    7.875 
#    0.000    8.000    0.000    2.875    0.000    0.000 
#
# Total GULP energy -396513.451590 kJ/mol
# GULP energy per Si atom -12391.045362 kJ/mol
# Density = 1.924105 g / cm^3
# Si number density = 19.284946 Si / 1000 Ang^3
#
#
#
# Elastic Constant Matrix: (Units=GPa)
#
#
# Indices 1 2 3 4 5 6 
#
# 1 100.7983 27.4359 49.6884 0.0005 -13.4702 0.0000
# 2 27.4359 28.3642 16.4848 0.0017 3.2975 0.0007
# 3 49.6884 16.4848 103.5607 0.0029 -1.8714 0.0012
# 4 0.0005 0.0017 0.0029 14.7277 0.0014 -4.8451
# 5 -13.4702 3.2975 -1.8714 0.0014 36.8165 0.0004
# 6 0.0000 0.0007 0.0012 -4.8451 0.0004 31.2373
#
#
#
# Elastic Compliance Matrix: (Units=1/GPa)
#
#
# Indices 1 2 3 4 5 6 
#
# 1 0.017956 -0.014679 -0.006142 0.000002 0.007572 0.000001
# 2 -0.014679 0.051387 -0.001318 -0.000005 -0.010040 -0.000002
# 3 -0.006142 -0.001318 0.012786 -0.000002 -0.001479 -0.000001
# 4 0.000002 -0.000005 -0.000002 0.071550 -0.000002 0.011098
# 5 0.007572 -0.010040 -0.001479 -0.000002 0.030756 0.000000
# 6 0.000001 -0.000002 -0.000001 0.011098 0.000000 0.033734
#
#
# Mechanical properties :
#
#
# Convention : Reuss Voigt Hill
#
# Bulk Modulus (GPa) = 26.41912 46.66016 36.53964
# Shear Modulus (GPa) = 18.17754 25.83057 22.00406
#
# Velocity S-wave (km/s) = 3.07347 3.66377 3.38153
# Velocity P-wave (km/s) = 5.13070 6.49194 5.85104
#
# Compressibility (1/GPa) = 0.03785137
#
# Stress axis : x y z
#
# Youngs Moduli (GPa) = 55.69311 19.46001 78.20993
#
# Poissons Ratio (x) = 0.28565 0.48034
# Poissons Ratio (y) = 0.81750 0.10312
# Poissons Ratio (z) = 0.34205 0.02566
#
# Static dielectric constant tensor:
#      x y z
#    x 3.689100 0.000000 -0.258810 
#    y 0.000000 3.102170 0.000000 
#    z -0.258810 0.000000 3.611070 
# 
# 
# High freq. dielectric constant tensor:
#      x y z
#    x 1.748190 0.000000 -0.014140 
#    y 0.000000 1.698870 0.000000 
#    z -0.014140 0.000000 1.751230 
# 
# From -- ./inp_files/249664.got.cif
#   From: 2010.06.25/outbox.cif.g09.slc.cpg/sg15_125_cif.got.tgz:249664.got - 2010.06.28 07:06:18.
