data_PCOD8151906
_publ_section_title
;
Structure prediction by ZEFSAII (Michael W. Deem and Ramdas Pophale) SiO2 
 PCOD8151906
Probable space group: C 2/C
;
_chemical_formula_sum "Si O2"
_cell_formula_units_Z 64
_cell_length_a 25.766912
_cell_length_b 14.208994
_cell_length_c 12.180216
_cell_angle_alpha 90.000000
_cell_angle_beta 138.609798
_cell_angle_gamma 90.000000
_cell_volume 2948.511022
_symmetry_space_group_name_H-M "C 2/C"
_symmetry_group_IT_number 15
_symmetry_cell_setting 'monoclinic'
loop_
_space_group_symop_operation_xyz
x,y,z
-x,y,1/2-z
-x,-y,-z
x,-y,1/2+z
1/2+x,1/2+y,z
1/2-x,1/2+y,1/2-z
1/2-x,1/2-y,-z
1/2+x,1/2-y,1/2+z
loop_
_atom_site_type_symbol
_atom_site_label
_atom_site_fract_x
_atom_site_fract_y
_atom_site_fract_z
Si Si1 0.157310 0.305276 0.021272
Si Si2 0.394184 0.217315 0.298295
Si Si3 0.731260 0.869100 0.760273
Si Si4 0.309403 0.451686 0.484946
Si Si5 0.312091 0.393055 0.268127
Si Si6 0.083679 0.046708 0.156090
Si Si7 0.427000 0.768333 0.391753
Si Si8 0.701218 0.160057 0.959532
O O1 0.213523 0.216955 0.123204
O O2 0.217562 0.393001 0.098226
O O3 0.103457 0.315311 0.043376
O O4 0.103182 0.296967 0.828499
O O5 0.344864 0.136810 0.281639
O O6 0.357794 0.319791 0.264510
O O7 0.482071 0.212030 0.481320
O O8 0.701157 0.862049 0.587893
O O9 0.780239 0.961181 0.866135
O O10 0.324386 0.369436 0.417965
O O11 0.392717 0.467833 0.678395
O O12 0.241540 0.428175 0.463704
O O13 0.348260 0.496023 0.304942
O O14 0.088380 0.156016 0.130245
O O15 0.000000 0.000000 0.000000
O O16 0.386335 0.820500 0.224303
O O17 0.750000 0.250000 0.000000
#
# Coordination Sequence:
#
# PCOD8151906 Si02
#       8
#     8   8   8   8   8   8   8   8
#     4  11  21  42  68  93 134 184 233 277 338 413
#     4  11  24  41  64  98 140 173 233 279 355 406
#     4  11  24  41  70  99 130 188 235 289 331 411
#     4  12  23  42  70  97 136 176 240 286 335 416
#     4  11  22  41  64  98 129 179 230 282 338 410
#     4  12  25  41  62 104 145 176 222 286 359 412
#     4  12  24  43  69  99 142 187 220 285 356 422
#     4  12  22  46  69  98 137 187 238 278 349 428
#
# _framework density 21.705871999999999
#
# number of rings (size 3 to 8) (size 9 to 14) (size 15 to 20)
#    0.000    0.500    5.000    5.625    0.000    1.000 
#    2.250    0.625    0.000    0.000    0.000    0.000 
#    0.000    0.000    0.000    0.000    0.000    0.000 
#
# Total GULP energy -396681.060694 kJ/mol
# GULP energy per Si atom -12396.283147 kJ/mol
# Density = 2.165647 g / cm^3
# Si number density = 21.705872 Si / 1000 Ang^3
#
#
#
# Elastic Constant Matrix: (Units=GPa)
#
#
# Indices 1 2 3 4 5 6 
#
# 1 74.6520 9.1866 31.1358 0.0000 -15.6772 0.0000
# 2 9.1866 43.5044 21.0338 0.0000 -5.6966 0.0000
# 3 31.1358 21.0338 154.7336 0.0000 -22.5289 0.0000
# 4 0.0000 0.0000 0.0000 32.4240 0.0000 -4.1809
# 5 -15.6772 -5.6966 -22.5289 0.0000 42.5980 0.0000
# 6 0.0000 0.0000 0.0000 -4.1809 0.0000 26.6393
#
#
#
# Elastic Compliance Matrix: (Units=1/GPa)
#
#
# Indices 1 2 3 4 5 6 
#
# 1 0.015434 -0.001605 -0.002266 0.000000 0.004267 0.000000
# 2 -0.001605 0.024877 -0.002882 0.000000 0.001212 0.000000
# 3 -0.002266 -0.002882 0.007728 0.000000 0.002868 0.000000
# 4 0.000000 0.000000 0.000000 0.031478 0.000000 0.004940
# 5 0.004267 0.001212 0.002868 0.000000 0.026724 0.000000
# 6 0.000000 0.000000 0.000000 0.004940 0.000000 0.038314
#
#
# Mechanical properties :
#
#
# Convention : Reuss Voigt Hill
#
# Bulk Modulus (GPa) = 28.95785 43.95581 36.45683
# Shear Modulus (GPa) = 29.48566 34.43454 31.96010
#
# Velocity S-wave (km/s) = 3.68967 3.98730 3.84137
# Velocity P-wave (km/s) = 5.61441 6.44149 6.04211
#
# Compressibility (1/GPa) = 0.03453295
#
# Stress axis : x y z
#
# Youngs Moduli (GPa) = 64.79082 40.19725 129.39799
#
# Poissons Ratio (x) = 0.06450 0.29326
# Poissons Ratio (y) = 0.10397 0.37297
# Poissons Ratio (z) = 0.14684 0.11586
#
# Static dielectric constant tensor:
#      x y z
#    x 4.155780 0.000000 -0.141950 
#    y 0.000000 4.123230 0.000000 
#    z -0.141950 0.000000 4.318270 
# 
# 
# High freq. dielectric constant tensor:
#      x y z
#    x 1.855000 0.000000 -0.015420 
#    y 0.000000 1.840130 0.000000 
#    z -0.015420 0.000000 1.863840 
# 
# From -- ./inp_files/123528.got.cif
#   From: 2010.06.25/outbox.cif.g09.slc.cpg/sg15_62_cif.got.tgz:123528.got - 2010.06.28 07:06:18.
