data_PCOD8151433
_publ_section_title
;
Structure prediction by ZEFSAII (Michael W. Deem and Ramdas Pophale) SiO2 
 PCOD8151433
Probable space group: C 2/C
;
_chemical_formula_sum "Si O2"
_cell_formula_units_Z 56
_cell_length_a 17.958325
_cell_length_b 17.117748
_cell_length_c 9.312541
_cell_angle_alpha 90.000000
_cell_angle_beta 64.166409
_cell_angle_gamma 90.000000
_cell_volume 2576.640213
_symmetry_space_group_name_H-M "C 2/C"
_symmetry_group_IT_number 15
_symmetry_cell_setting 'monoclinic'
loop_
_space_group_symop_operation_xyz
x,y,z
-x,y,1/2-z
-x,-y,-z
x,-y,1/2+z
1/2+x,1/2+y,z
1/2-x,1/2+y,1/2-z
1/2-x,1/2-y,-z
1/2+x,1/2-y,1/2+z
loop_
_atom_site_type_symbol
_atom_site_label
_atom_site_fract_x
_atom_site_fract_y
_atom_site_fract_z
Si Si1 0.203104 0.196729 0.431462
Si Si2 0.828048 0.021833 0.391781
Si Si3 0.656138 0.197361 0.723855
Si Si4 0.085352 0.122882 0.752036
Si Si5 0.847939 0.821922 0.007937
Si Si6 0.940787 0.462671 0.168021
Si Si7 0.775349 0.451684 0.778925
O O1 0.250000 0.250000 0.500000
O O2 0.147780 0.242932 0.363062
O O3 0.149952 0.142729 0.576273
O O4 0.270238 0.142487 0.293423
O O5 0.868237 0.107335 0.381582
O O6 0.743484 0.025137 0.369256
O O7 0.898286 0.970610 0.249165
O O8 0.798809 0.990409 0.569381
O O9 0.751562 0.170932 0.632738
O O10 0.630722 0.240970 0.594923
O O11 0.597709 0.124537 0.816800
O O12 0.097456 0.169442 0.892306
O O13 0.000000 0.144736 0.750000
O O14 0.865598 0.522351 0.253122
O O15 0.000000 0.458464 0.250000
O O16 0.000000 0.500000 0.000000
#
# Coordination Sequence:
#
# PCOD8151433 Si02
#       7
#     8   8   8   8   8   8   8
#     4  11  24  44  72  98 129 176 238 292 334 417
#     4  11  20  41  71  99 128 178 231 285 341 420
#     4  11  24  45  71 102 131 182 245 281 344 409
#     4  11  25  43  65 102 138 175 220 288 364 410
#     4  11  22  42  73  99 133 178 232 298 333 414
#     4  12  28  45  66 103 149 189 224 288 354 425
#     4  11  23  43  73  97 128 183 242 276 344 424
#
# _framework density 21.733729
#
# number of rings (size 3 to 8) (size 9 to 14) (size 15 to 20)
#    0.000    0.857    5.714    0.857    4.000    1.714 
#    2.571    0.714    0.000    0.000    0.000    0.000 
#    0.000    0.000    0.000    0.000    0.000    0.000 
#
# Total GULP energy -346948.515252 kJ/mol
# GULP energy per Si atom -12391.018402 kJ/mol
# Density = 2.168426 g / cm^3
# Si number density = 21.733729 Si / 1000 Ang^3
#
#
#
# Elastic Constant Matrix: (Units=GPa)
#
#
# Indices 1 2 3 4 5 6 
#
# 1 114.9582 53.4870 20.0077 0.0000 25.6665 0.0000
# 2 53.4870 134.3522 50.3514 0.0000 7.2307 0.0000
# 3 20.0077 50.3514 70.7515 0.0000 17.1275 0.0000
# 4 0.0000 0.0000 0.0000 33.4974 0.0000 1.7199
# 5 25.6665 7.2307 17.1275 0.0000 35.6350 0.0000
# 6 0.0000 0.0000 0.0000 1.7199 0.0000 34.6719
#
#
#
# Elastic Compliance Matrix: (Units=1/GPa)
#
#
# Indices 1 2 3 4 5 6 
#
# 1 0.012983 -0.005649 0.002642 0.000000 -0.009475 0.000000
# 2 -0.005649 0.012689 -0.008821 0.000000 0.005734 0.000000
# 3 0.002642 -0.008821 0.022285 0.000000 -0.010824 0.000000
# 4 0.000000 0.000000 0.000000 0.029929 0.000000 -0.001485
# 5 -0.009475 0.005734 -0.010824 0.000000 0.038926 0.000000
# 6 0.000000 0.000000 0.000000 -0.001485 0.000000 0.028915
#
#
# Mechanical properties :
#
#
# Convention : Reuss Voigt Hill
#
# Bulk Modulus (GPa) = 41.14971 63.08379 52.11675
# Shear Modulus (GPa) = 28.17175 33.84192 31.00683
#
# Velocity S-wave (km/s) = 3.60421 3.95031 3.78122
# Velocity P-wave (km/s) = 6.02455 7.06367 6.56470
#
# Compressibility (1/GPa) = 0.02430151
#
# Stress axis : x y z
#
# Youngs Moduli (GPa) = 77.02616 78.80631 44.87374
#
# Poissons Ratio (x) = 0.44517 -0.11858
# Poissons Ratio (y) = 0.43511 0.39584
# Poissons Ratio (z) = -0.20354 0.69516
#
# Static dielectric constant tensor:
#      x y z
#    x 3.720080 0.000000 0.205460 
#    y 0.000000 4.008750 0.000000 
#    z 0.205460 0.000000 3.900420 
# 
# 
# High freq. dielectric constant tensor:
#      x y z
#    x 1.836830 0.000000 0.024100 
#    y 0.000000 1.869150 0.000000 
#    z 0.024100 0.000000 1.855240 
# 
# From -- ./inp_files/48994.got.cif
#   From: 2010.06.25/outbox.cif.g09.slc.cpg/sg15_25_cif.got.tgz:48994.got - 2010.06.28 07:06:18.
