data_PCOD8151696
_publ_section_title
;
Structure prediction by ZEFSAII (Michael W. Deem and Ramdas Pophale) SiO2 
 PCOD8151696
Probable space group: C 2/C
;
_chemical_formula_sum "Si O2"
_cell_formula_units_Z 40
_cell_length_a 11.811109
_cell_length_b 8.024157
_cell_length_c 22.154566
_cell_angle_alpha 90.000000
_cell_angle_beta 128.635640
_cell_angle_gamma 90.000000
_cell_volume 1640.128624
_symmetry_space_group_name_H-M "C 2/C"
_symmetry_group_IT_number 15
_symmetry_cell_setting 'monoclinic'
loop_
_space_group_symop_operation_xyz
x,y,z
-x,y,1/2-z
-x,-y,-z
x,-y,1/2+z
1/2+x,1/2+y,z
1/2-x,1/2+y,1/2-z
1/2-x,1/2-y,-z
1/2+x,1/2-y,1/2+z
loop_
_atom_site_type_symbol
_atom_site_label
_atom_site_fract_x
_atom_site_fract_y
_atom_site_fract_z
Si Si1 0.292657 0.095850 0.086318
Si Si2 0.058332 0.209048 0.630734
Si Si3 0.160403 0.280358 0.325370
Si Si4 0.612573 0.593794 0.425841
Si Si5 0.972262 0.693172 0.977306
O O1 0.455377 0.150432 0.123486
O O2 0.199225 0.256042 0.077840
O O3 0.314590 0.972613 0.149255
O O4 0.223270 0.013385 0.003345
O O5 0.229012 0.256700 0.694121
O O6 0.044963 0.194050 0.553238
O O7 0.015916 0.026593 0.641266
O O8 0.197005 0.165357 0.395933
O O9 0.000000 0.243101 0.250000
O O10 0.544787 0.752571 0.438205
O O11 0.000000 0.500000 0.000000
#
# Coordination Sequence:
#
# PCOD8151696 Si02
#       5
#     8   8   8   8   8
#     4  11  23  44  70 100 139 174 222 289 338 399
#     4  11  24  41  70 104 134 169 231 278 336 402
#     4  12  27  45  66  95 140 185 227 273 337 408
#     4  11  22  44  70 100 139 170 224 289 335 395
#     4  11  21  38  73 109 132 168 220 288 345 392
#
# _framework density 24.388331999999998
#
# number of rings (size 3 to 8) (size 9 to 14) (size 15 to 20)
#    0.000    0.800    4.000    5.400    5.600    1.600 
#    0.000    1.000    0.000    0.000    0.000    0.000 
#    0.000    0.000    0.000    0.000    0.000    0.000 
#
# Total GULP energy -247931.176495 kJ/mol
# GULP energy per Si atom -12396.558825 kJ/mol
# Density = 2.433282 g / cm^3
# Si number density = 24.388332 Si / 1000 Ang^3
#
#
#
# Elastic Constant Matrix: (Units=GPa)
#
#
# Indices 1 2 3 4 5 6 
#
# 1 181.8100 73.1863 14.9616 0.0000 35.6320 0.0000
# 2 73.1863 148.0524 22.1988 0.0000 11.3377 0.0000
# 3 14.9616 22.1988 32.9270 0.0000 17.4052 0.0000
# 4 0.0000 0.0000 0.0000 13.0437 0.0000 9.1451
# 5 35.6320 11.3377 17.4052 0.0000 37.6070 0.0000
# 6 0.0000 0.0000 0.0000 9.1451 0.0000 40.8092
#
#
#
# Elastic Compliance Matrix: (Units=1/GPa)
#
#
# Indices 1 2 3 4 5 6 
#
# 1 0.008498 -0.004054 0.003286 0.000000 -0.008351 0.000000
# 2 -0.004054 0.009448 -0.006689 0.000000 0.004089 0.000000
# 3 0.003286 -0.006689 0.044968 0.000000 -0.021909 0.000000
# 4 0.000000 0.000000 0.000000 0.090956 0.000000 -0.020383
# 5 -0.008351 0.004089 -0.021909 0.000000 0.043410 0.000000
# 6 0.000000 0.000000 0.000000 -0.020383 0.000000 0.029072
#
#
# Mechanical properties :
#
#
# Convention : Reuss Voigt Hill
#
# Bulk Modulus (GPa) = 20.83344 64.83144 42.83244
# Shear Modulus (GPa) = 19.43504 35.12148 27.27826
#
# Velocity S-wave (km/s) = 2.82600 3.79897 3.34802
# Velocity P-wave (km/s) = 4.38284 6.77374 5.70495
#
# Compressibility (1/GPa) = 0.04799974
#
# Stress axis : x y z
#
# Youngs Moduli (GPa) = 117.66886 105.83924 22.23821
#
# Poissons Ratio (x) = 0.42909 -0.07307
# Poissons Ratio (y) = 0.47705 0.14875
# Poissons Ratio (z) = -0.38664 0.70795
#
# Static dielectric constant tensor:
#      x y z
#    x 4.986640 0.000000 0.275070 
#    y 0.000000 4.383620 0.000000 
#    z 0.275070 0.000000 3.861270 
# 
# 
# High freq. dielectric constant tensor:
#      x y z
#    x 2.004710 0.000000 0.020990 
#    y 0.000000 1.975460 0.000000 
#    z 0.020990 0.000000 1.902610 
# 
# From -- ./inp_files/290904.got.cif
#   From: 2010.06.25/outbox.cif.g09.slc.cpg/sg15_146_cif.got.tgz:290904.got - 2010.06.28 07:06:18.
