data_PCOD8151267
_publ_section_title
;
Structure prediction by ZEFSAII (Michael W. Deem and Ramdas Pophale) SiO2 
 PCOD8151267
Probable space group: C 2/C
;
_chemical_formula_sum "Si O2"
_cell_formula_units_Z 64
_cell_length_a 8.846466
_cell_length_b 20.975560
_cell_length_c 16.974991
_cell_angle_alpha 90.000000
_cell_angle_beta 93.910610
_cell_angle_gamma 90.000000
_cell_volume 3142.538221
_symmetry_space_group_name_H-M "C 2/C"
_symmetry_group_IT_number 15
_symmetry_cell_setting 'monoclinic'
loop_
_space_group_symop_operation_xyz
x,y,z
-x,y,1/2-z
-x,-y,-z
x,-y,1/2+z
1/2+x,1/2+y,z
1/2-x,1/2+y,1/2-z
1/2-x,1/2-y,-z
1/2+x,1/2-y,1/2+z
loop_
_atom_site_type_symbol
_atom_site_label
_atom_site_fract_x
_atom_site_fract_y
_atom_site_fract_z
Si Si1 0.534516 0.930084 0.480214
Si Si2 0.232450 0.929556 0.136572
Si Si3 0.288220 0.632118 0.095472
Si Si4 0.040649 0.993203 0.843473
Si Si5 0.944826 0.820047 0.455609
Si Si6 0.272540 0.612582 0.584205
Si Si7 0.324292 0.160132 0.760834
Si Si8 0.878009 0.730967 0.315837
O O1 0.603367 0.937869 0.395454
O O2 0.648505 0.897916 0.544360
O O3 0.374448 0.894894 0.474915
O O4 0.500000 0.000000 0.500000
O O5 0.157625 0.869743 0.092780
O O6 0.261890 0.908418 0.227463
O O7 0.123378 0.991088 0.122562
O O8 0.402471 0.576354 0.128063
O O9 0.216712 0.666646 0.169247
O O10 0.377573 0.683827 0.042762
O O11 0.000000 0.996160 0.750000
O O12 0.160181 0.046698 0.877193
O O13 0.947147 0.754961 0.403202
O O14 0.112202 0.849357 0.467065
O O15 0.219729 0.661044 0.650040
O O16 0.500000 0.168818 0.750000
O O17 0.241867 0.218392 0.717305
O O18 0.000000 0.718687 0.250000
#
# Coordination Sequence:
#
# PCOD8151267 Si02
#       8
#     8   8   8   8   8   8   8   8
#     4  11  22  38  59  95 132 169 205 261 329 396
#     4   9  20  33  60  92 122 158 208 262 314 374
#     4  11  25  43  60  93 135 175 209 265 346 401
#     4  11  22  38  62  93 131 170 215 263 329 398
#     4   9  21  39  67  89 120 167 219 264 317 391
#     4  11  20  37  66  99 124 162 225 269 313 383
#     4  11  20  37  65  97 122 158 219 283 317 363
#     4  11  23  45  68  90 124 174 228 276 324 385
#
# _framework density 20.365703
#
# number of rings (size 3 to 8) (size 9 to 14) (size 15 to 20)
#    0.000    1.500    5.000    0.375    1.750    2.000 
#    2.250    2.500    0.000    0.000    0.000    0.000 
#    0.000    0.000    0.000    0.000    0.000    0.000 
#
# Total GULP energy -396426.928733 kJ/mol
# GULP energy per Si atom -12388.341523 kJ/mol
# Density = 2.031935 g / cm^3
# Si number density = 20.365703 Si / 1000 Ang^3
#
#
#
# Elastic Constant Matrix: (Units=GPa)
#
#
# Indices 1 2 3 4 5 6 
#
# 1 132.5711 31.9358 36.0902 0.0000 -14.2043 0.0000
# 2 31.9358 77.2837 21.0221 0.0000 -9.8164 0.0000
# 3 36.0902 21.0221 60.7011 0.0000 -11.8955 0.0000
# 4 0.0000 0.0000 0.0000 39.3560 0.0000 -18.6956
# 5 -14.2043 -9.8164 -11.8955 0.0000 38.8737 0.0000
# 6 0.0000 0.0000 0.0000 -18.6956 0.0000 39.8301
#
#
#
# Elastic Compliance Matrix: (Units=1/GPa)
#
#
# Indices 1 2 3 4 5 6 
#
# 1 0.009536 -0.002528 -0.004507 0.000000 0.001467 0.000000
# 2 -0.002528 0.015139 -0.003374 0.000000 0.001867 0.000000
# 3 -0.004507 -0.003374 0.021098 0.000000 0.003957 0.000000
# 4 0.000000 0.000000 0.000000 0.032700 0.000000 0.015349
# 5 0.001467 0.001867 0.003957 0.000000 0.027943 0.000000
# 6 0.000000 0.000000 0.000000 0.015349 0.000000 0.032311
#
#
# Mechanical properties :
#
#
# Convention : Reuss Voigt Hill
#
# Bulk Modulus (GPa) = 40.07243 49.85024 44.96134
# Shear Modulus (GPa) = 29.78610 35.71247 32.74928
#
# Velocity S-wave (km/s) = 3.82849 4.19210 4.01441
# Velocity P-wave (km/s) = 6.26596 6.92548 6.60396
#
# Compressibility (1/GPa) = 0.02495481
#
# Stress axis : x y z
#
# Youngs Moduli (GPa) = 104.86287 66.05462 47.39874
#
# Poissons Ratio (x) = 0.16702 0.21361
# Poissons Ratio (y) = 0.26514 0.15992
# Poissons Ratio (z) = 0.47259 0.22286
#
# Static dielectric constant tensor:
#      x y z
#    x 3.906860 0.000000 -0.146190 
#    y 0.000000 3.538120 0.000000 
#    z -0.146190 0.000000 3.699430 
# 
# 
# High freq. dielectric constant tensor:
#      x y z
#    x 1.810740 0.000000 -0.009170 
#    y 0.000000 1.774590 0.000000 
#    z -0.009170 0.000000 1.789750 
# 
# From -- ./inp_files/192141.got.cif
#   From: 2010.06.25/outbox.cif.g09.slc.cpg/sg15_97_cif.got.tgz:192141.got - 2010.06.28 07:06:18.
