data_PCOD8151562
_publ_section_title
;
Structure prediction by ZEFSAII (Michael W. Deem and Ramdas Pophale) SiO2 
 PCOD8151562
Probable space group: C 2/C
;
_chemical_formula_sum "Si O2"
_cell_formula_units_Z 48
_cell_length_a 14.528779
_cell_length_b 8.658855
_cell_length_c 18.291929
_cell_angle_alpha 90.000000
_cell_angle_beta 99.597585
_cell_angle_gamma 90.000000
_cell_volume 2268.962702
_symmetry_space_group_name_H-M "C 2/C"
_symmetry_group_IT_number 15
_symmetry_cell_setting 'monoclinic'
loop_
_space_group_symop_operation_xyz
x,y,z
-x,y,1/2-z
-x,-y,-z
x,-y,1/2+z
1/2+x,1/2+y,z
1/2-x,1/2+y,1/2-z
1/2-x,1/2-y,-z
1/2+x,1/2-y,1/2+z
loop_
_atom_site_type_symbol
_atom_site_label
_atom_site_fract_x
_atom_site_fract_y
_atom_site_fract_z
Si Si1 0.270679 0.068297 0.001461
Si Si2 0.343894 0.055058 0.736042
Si Si3 0.042930 0.827458 0.681084
Si Si4 0.355291 0.085369 0.382484
Si Si5 0.663389 0.569475 0.613637
Si Si6 0.948270 0.447461 0.110704
O O1 0.187119 0.998720 0.037534
O O2 0.368363 0.006788 0.046768
O O3 0.250000 0.250000 0.000000
O O4 0.275044 0.002878 0.919371
O O5 0.375727 0.205847 0.786218
O O6 0.323962 0.922812 0.793388
O O7 0.251625 0.086388 0.678085
O O8 0.424325 0.997230 0.690554
O O9 0.082923 0.967713 0.639419
O O10 0.000000 0.897190 0.750000
O O11 0.963212 0.739315 0.621709
O O12 0.371739 0.260290 0.408388
O O13 0.456157 0.012039 0.407865
#
# Coordination Sequence:
#
# PCOD8151562 Si02
#       6
#     8   8   8   8   8   8
#     4  11  23  40  59  78 110 154 193 229 284 345
#     4   9  19  37  59  81 112 151 186 225 276 336
#     4   9  18  36  59  82 112 150 187 229 284 338
#     4  11  21  36  58  86 114 145 189 237 280 333
#     4  11  22  36  56  87 116 143 185 236 281 333
#     4   9  20  39  59  80 110 149 189 230 279 339
#
# _framework density 21.155042000000002
#
# number of rings (size 3 to 8) (size 9 to 14) (size 15 to 20)
#    0.000    2.000    0.000    5.500    0.000    2.667 
#    0.000    8.333    0.000    0.000    0.000    0.000 
#    0.000    0.000    0.000    0.000    0.000    0.000 
#
# Total GULP energy -297396.902881 kJ/mol
# GULP energy per Si atom -12391.537620 kJ/mol
# Density = 2.110689 g / cm^3
# Si number density = 21.155042 Si / 1000 Ang^3
#
#
#
# Elastic Constant Matrix: (Units=GPa)
#
#
# Indices 1 2 3 4 5 6 
#
# 1 80.3411 41.6947 34.5450 0.0000 -34.7524 0.0000
# 2 41.6947 135.9828 40.0855 0.0000 -41.0219 0.0000
# 3 34.5450 40.0855 79.9519 0.0000 -35.8667 0.0000
# 4 0.0000 0.0000 0.0000 26.0387 0.0000 -11.2211
# 5 -34.7524 -41.0219 -35.8667 0.0000 48.5937 0.0000
# 6 0.0000 0.0000 0.0000 -11.2211 0.0000 33.0977
#
#
#
# Elastic Compliance Matrix: (Units=1/GPa)
#
#
# Indices 1 2 3 4 5 6 
#
# 1 0.018921 -0.002039 -0.002773 0.000000 0.009764 0.000000
# 2 -0.002039 0.010264 -0.001543 0.000000 0.006068 0.000000
# 3 -0.002773 -0.001543 0.019443 0.000000 0.011065 0.000000
# 4 0.000000 0.000000 0.000000 0.044975 0.000000 0.015248
# 5 0.009764 0.006068 0.011065 0.000000 0.040851 0.000000
# 6 0.000000 0.000000 0.000000 0.015248 0.000000 0.035383
#
#
# Mechanical properties :
#
#
# Convention : Reuss Voigt Hill
#
# Bulk Modulus (GPa) = 27.84084 58.76957 43.30521
# Shear Modulus (GPa) = 25.70429 33.54273 29.62351
#
# Velocity S-wave (km/s) = 3.48953 3.98624 3.74612
# Velocity P-wave (km/s) = 5.42445 7.00196 6.26307
#
# Compressibility (1/GPa) = 0.03591846
#
# Stress axis : x y z
#
# Youngs Moduli (GPa) = 52.85256 97.42402 51.43186
#
# Poissons Ratio (x) = 0.19860 0.14262
# Poissons Ratio (y) = 0.10774 0.07938
# Poissons Ratio (z) = 0.14656 0.15036
#
# Static dielectric constant tensor:
#      x y z
#    x 3.824320 0.000000 -0.284220 
#    y 0.000000 3.676400 0.000000 
#    z -0.284220 0.000000 4.091720 
# 
# 
# High freq. dielectric constant tensor:
#      x y z
#    x 1.826170 0.000000 -0.024550 
#    y 0.000000 1.811730 0.000000 
#    z -0.024550 0.000000 1.838610 
# 
# From -- ./inp_files/208668.got.cif
#   From: 2010.06.25/outbox.cif.g09.slc.cpg/sg15_105_cif.got.tgz:208668.got - 2010.06.28 07:06:18.
