data_PCOD8151344
_publ_section_title
;
Structure prediction by ZEFSAII (Michael W. Deem and Ramdas Pophale) SiO2 
 PCOD8151344
Probable space group: C 2/C
;
_chemical_formula_sum "Si O2"
_cell_formula_units_Z 64
_cell_length_a 12.709757
_cell_length_b 21.820855
_cell_length_c 11.518271
_cell_angle_alpha 90.000000
_cell_angle_beta 73.137609
_cell_angle_gamma 90.000000
_cell_volume 3057.103516
_symmetry_space_group_name_H-M "C 2/C"
_symmetry_group_IT_number 15
_symmetry_cell_setting 'monoclinic'
loop_
_space_group_symop_operation_xyz
x,y,z
-x,y,1/2-z
-x,-y,-z
x,-y,1/2+z
1/2+x,1/2+y,z
1/2-x,1/2+y,1/2-z
1/2-x,1/2-y,-z
1/2+x,1/2-y,1/2+z
loop_
_atom_site_type_symbol
_atom_site_label
_atom_site_fract_x
_atom_site_fract_y
_atom_site_fract_z
Si Si1 0.474276 0.354651 0.624029
Si Si2 0.375759 0.729330 0.978395
Si Si3 0.314160 0.055704 0.495616
Si Si4 0.683546 0.928637 0.931533
Si Si5 0.878742 0.882641 0.312064
Si Si6 0.831239 0.900047 0.088033
Si Si7 0.006558 0.648424 0.111407
Si Si8 0.820532 0.035381 0.174479
O O1 0.500000 0.341105 0.750000
O O2 0.397683 0.299045 0.599722
O O3 0.584725 0.361431 0.515967
O O4 0.418688 0.419268 0.614377
O O5 0.401386 0.677540 0.877870
O O6 0.466452 0.781761 0.927540
O O7 0.250000 0.750000 0.000000
O O8 0.198831 0.068773 0.597408
O O9 0.397193 0.111226 0.482793
O O10 0.287540 0.047334 0.368481
O O11 0.373639 0.994802 0.527851
O O12 0.607941 0.875241 0.904603
O O13 0.786587 0.946332 0.816665
O O14 0.722941 0.905003 0.044868
O O15 0.816845 0.862043 0.212139
O O16 0.000000 0.912171 0.250000
O O17 0.864616 0.967007 0.132258
O O18 0.000000 0.637386 0.250000
#
# Coordination Sequence:
#
# PCOD8151344 Si02
#       8
#     8   8   8   8   8   8   8   8
#     4  12  24  43  65  99 140 180 226 286 351 408
#     4  12  26  47  72  97 133 184 242 292 337 412
#     4  11  22  43  68 102 138 174 228 283 338 417
#     4  11  24  42  66 103 142 175 222 281 353 416
#     4  12  22  42  69 100 135 173 232 282 345 405
#     4  11  24  39  66 102 140 175 221 283 351 419
#     4  12  25  45  73  97 132 188 238 281 338 412
#     4  11  20  39  65  99 138 177 219 276 353 414
#
# _framework density 20.934849
#
# number of rings (size 3 to 8) (size 9 to 14) (size 15 to 20)
#    0.000    0.500    7.500    1.125    0.000    1.500 
#    2.250    1.250    0.000    0.000    0.000    0.000 
#    0.000    0.000    0.000    0.000    0.000    0.000 
#
# Total GULP energy -396523.580453 kJ/mol
# GULP energy per Si atom -12391.361889 kJ/mol
# Density = 2.088720 g / cm^3
# Si number density = 20.934849 Si / 1000 Ang^3
#
#
#
# Elastic Constant Matrix: (Units=GPa)
#
#
# Indices 1 2 3 4 5 6 
#
# 1 93.6062 52.7831 41.2856 0.0000 15.5646 0.0000
# 2 52.7831 97.6892 26.3779 0.0000 11.7672 0.0000
# 3 41.2856 26.3779 97.7213 0.0000 24.5426 0.0000
# 4 0.0000 0.0000 0.0000 19.2403 0.0000 2.9064
# 5 15.5646 11.7672 24.5426 0.0000 41.3858 0.0000
# 6 0.0000 0.0000 0.0000 2.9064 0.0000 36.8981
#
#
#
# Elastic Compliance Matrix: (Units=1/GPa)
#
#
# Indices 1 2 3 4 5 6 
#
# 1 0.017608 -0.008014 -0.004917 0.000000 -0.001427 0.000000
# 2 -0.008014 0.014781 -0.000359 0.000000 -0.000976 0.000000
# 3 -0.004917 -0.000359 0.014003 0.000000 -0.006353 0.000000
# 4 0.000000 0.000000 0.000000 0.052600 0.000000 -0.004143
# 5 -0.001427 -0.000976 -0.006353 0.000000 0.028744 0.000000
# 6 0.000000 0.000000 0.000000 -0.004143 0.000000 0.027428
#
#
# Mechanical properties :
#
#
# Convention : Reuss Voigt Hill
#
# Bulk Modulus (GPa) = 50.47612 58.87886 54.67749
# Shear Modulus (GPa) = 26.54623 30.74285 28.64454
#
# Velocity S-wave (km/s) = 3.56482 3.83626 3.70303
# Velocity P-wave (km/s) = 6.41150 6.91436 6.66767
#
# Compressibility (1/GPa) = 0.01981135
#
# Stress axis : x y z
#
# Youngs Moduli (GPa) = 56.79082 67.65297 71.41292
#
# Poissons Ratio (x) = 0.54220 0.35117
# Poissons Ratio (y) = 0.45515 0.02563
# Poissons Ratio (z) = 0.27927 0.02428
#
# Static dielectric constant tensor:
#      x y z
#    x 3.791900 0.000000 0.290590 
#    y 0.000000 3.832750 0.000000 
#    z 0.290590 0.000000 4.010200 
# 
# 
# High freq. dielectric constant tensor:
#      x y z
#    x 1.810630 0.000000 0.014240 
#    y 0.000000 1.812350 0.000000 
#    z 0.014240 0.000000 1.831440 
# 
# From -- ./inp_files/91236.got.cif
#   From: 2010.06.25/outbox.cif.g09.slc.cpg/sg15_46_cif.got.tgz:91236.got - 2010.06.28 07:06:18.
