data_PCOD8151925
_publ_section_title
;
Structure prediction by ZEFSAII (Michael W. Deem and Ramdas Pophale) SiO2 
 PCOD8151925
Probable space group: C 2/C
;
_chemical_formula_sum "Si O2"
_cell_formula_units_Z 60
_cell_length_a 16.334948
_cell_length_b 16.443035
_cell_length_c 10.427638
_cell_angle_alpha 90.000000
_cell_angle_beta 90.266810
_cell_angle_gamma 90.000000
_cell_volume 2800.792757
_symmetry_space_group_name_H-M "C 2/C"
_symmetry_group_IT_number 15
_symmetry_cell_setting 'monoclinic'
loop_
_space_group_symop_operation_xyz
x,y,z
-x,y,1/2-z
-x,-y,-z
x,-y,1/2+z
1/2+x,1/2+y,z
1/2-x,1/2+y,1/2-z
1/2-x,1/2-y,-z
1/2+x,1/2-y,1/2+z
loop_
_atom_site_type_symbol
_atom_site_label
_atom_site_fract_x
_atom_site_fract_y
_atom_site_fract_z
Si Si1 0.147915 0.562954 0.599193
Si Si2 0.703831 0.188136 0.409345
Si Si3 0.812676 0.946263 0.258214
Si Si4 0.000000 0.370754 0.250000
Si Si5 0.899043 0.734656 0.580583
Si Si6 0.291612 0.908211 0.014144
Si Si7 0.180056 0.877143 0.786481
Si Si8 0.092732 0.785539 0.213810
O O1 0.142149 0.631462 0.489641
O O2 0.237225 0.571751 0.663132
O O3 0.140156 0.473655 0.533226
O O4 0.075925 0.572947 0.704184
O O5 0.750000 0.250000 0.500000
O O6 0.777974 0.136909 0.349840
O O7 0.651186 0.227788 0.295752
O O8 0.776386 0.953391 0.401049
O O9 0.881925 0.877720 0.253934
O O10 0.856409 0.031229 0.218598
O O11 0.020204 0.312879 0.371847
O O12 0.828148 0.666794 0.595390
O O13 0.887414 0.809245 0.680071
O O14 0.901574 0.767105 0.436738
O O15 0.250324 0.867544 0.892033
O O16 0.000000 0.770883 0.250000
#
# Coordination Sequence:
#
# PCOD8151925 Si02
#       8
#     8   8   8   4   8   8   8   8
#     4  11  24  41  66 102 137 177 223 281 342 404
#     4  12  22  40  69 100 135 174 233 285 335 400
#     4  11  22  45  70  98 132 175 228 284 339 400
#     4  12  26  44  64 102 146 182 224 282 344 412
#     4  12  24  45  67  97 140 183 227 276 345 413
#     4  11  21  42  72  96 130 178 229 283 334 412
#     4  11  23  40  74 100 124 179 232 278 336 410
#     4  12  26  45  69 101 139 182 230 281 343 408
#
# _framework density 21.422505999999998
#
# number of rings (size 3 to 8) (size 9 to 14) (size 15 to 20)
#    0.000    0.533    6.667    2.800    0.000    0.533 
#    2.400    0.667    0.000    0.000    0.000    0.000 
#    0.000    0.000    0.000    0.000    0.000    0.000 
#
# Total GULP energy -371933.546574 kJ/mol
# GULP energy per Si atom -12397.784886 kJ/mol
# Density = 2.137375 g / cm^3
# Si number density = 21.422506 Si / 1000 Ang^3
#
#
#
# Elastic Constant Matrix: (Units=GPa)
#
#
# Indices 1 2 3 4 5 6 
#
# 1 41.8583 15.6531 0.8089 0.0000 -10.5849 0.0000
# 2 15.6531 107.8795 15.5636 0.0000 -6.2637 0.0000
# 3 0.8089 15.5636 76.4719 0.0000 -10.4370 0.0000
# 4 0.0000 0.0000 0.0000 38.2754 0.0000 -3.6588
# 5 -10.5849 -6.2637 -10.4370 0.0000 35.2193 0.0000
# 6 0.0000 0.0000 0.0000 -3.6588 0.0000 23.6523
#
#
#
# Elastic Compliance Matrix: (Units=1/GPa)
#
#
# Indices 1 2 3 4 5 6 
#
# 1 0.027273 -0.003718 0.001560 0.000000 0.007998 0.000000
# 2 -0.003718 0.010103 -0.002005 0.000000 0.000085 0.000000
# 3 0.001560 -0.002005 0.014052 0.000000 0.004276 0.000000
# 4 0.000000 0.000000 0.000000 0.026519 0.000000 0.004102
# 5 0.007998 0.000085 0.004276 0.000000 0.032080 0.000000
# 6 0.000000 0.000000 0.000000 0.004102 0.000000 0.042914
#
#
# Mechanical properties :
#
#
# Convention : Reuss Voigt Hill
#
# Bulk Modulus (GPa) = 23.20131 32.25124 27.72628
# Shear Modulus (GPa) = 28.46834 32.37502 30.42168
#
# Velocity S-wave (km/s) = 3.64936 3.89171 3.77248
# Velocity P-wave (km/s) = 5.34892 5.93982 5.65210
#
# Compressibility (1/GPa) = 0.04310101
#
# Stress axis : x y z
#
# Youngs Moduli (GPa) = 36.66675 98.97754 71.16450
#
# Poissons Ratio (x) = 0.36799 -0.11100
# Poissons Ratio (y) = 0.13632 0.14270
# Poissons Ratio (z) = -0.05719 0.19848
#
# Static dielectric constant tensor:
#      x y z
#    x 3.528310 0.000000 0.019090 
#    y 0.000000 4.132470 0.000000 
#    z 0.019090 0.000000 4.164250 
# 
# 
# High freq. dielectric constant tensor:
#      x y z
#    x 1.802600 0.000000 0.001380 
#    y 0.000000 1.855840 0.000000 
#    z 0.001380 0.000000 1.859840 
# 
# From -- ./inp_files/105360.got.cif
#   From: 2010.06.25/outbox.cif.g09.slc.cpg/sg15_53_cif.got.tgz:105360.got - 2010.06.28 07:06:18.
