data_PCOD8151884
_publ_section_title
;
Structure prediction by ZEFSAII (Michael W. Deem and Ramdas Pophale) SiO2 
 PCOD8151884
Probable space group: C 2/C
;
_chemical_formula_sum "Si O2"
_cell_formula_units_Z 48
_cell_length_a 8.967566
_cell_length_b 13.636488
_cell_length_c 26.955008
_cell_angle_alpha 90.000000
_cell_angle_beta 139.239466
_cell_angle_gamma 90.000000
_cell_volume 2152.100753
_symmetry_space_group_name_H-M "C 2/C"
_symmetry_group_IT_number 15
_symmetry_cell_setting 'monoclinic'
loop_
_space_group_symop_operation_xyz
x,y,z
-x,y,1/2-z
-x,-y,-z
x,-y,1/2+z
1/2+x,1/2+y,z
1/2-x,1/2+y,1/2-z
1/2-x,1/2-y,-z
1/2+x,1/2-y,1/2+z
loop_
_atom_site_type_symbol
_atom_site_label
_atom_site_fract_x
_atom_site_fract_y
_atom_site_fract_z
Si Si1 0.890316 0.358835 0.672313
Si Si2 0.261477 0.923413 0.168463
Si Si3 0.052513 0.939340 0.319103
Si Si4 0.705690 0.776500 0.409343
Si Si5 0.389194 0.346072 0.770012
Si Si6 0.046839 0.688276 0.559603
O O1 0.765659 0.462799 0.651721
O O2 0.709779 0.283892 0.604738
O O3 0.000000 0.316043 0.750000
O O4 0.118341 0.367552 0.695031
O O5 0.500000 0.891381 0.250000
O O6 0.103816 0.897915 0.175898
O O7 0.199223 0.855759 0.105848
O O8 0.000000 0.896753 0.250000
O O9 0.306011 0.910383 0.400298
O O10 0.030526 0.054801 0.312790
O O11 0.466583 0.723485 0.334558
O O12 0.642676 0.827319 0.445364
O O13 0.912324 0.699999 0.473345
O O14 0.500000 0.293914 0.750000
#
# Coordination Sequence:
#
# PCOD8151884 Si02
#       6
#     8   8   8   8   8   8
#     4  11  21  42  65  91 125 165 209 260 315 366
#     4  11  22  40  66  93 123 159 212 262 305 373
#     4  11  23  40  66  94 121 161 211 260 314 364
#     4  11  25  43  61  94 131 169 207 250 319 372
#     4  11  24  41  65  94 123 163 213 264 308 368
#     4  11  25  41  64  91 132 171 202 256 313 379
#
# _framework density 22.303789999999999
#
# number of rings (size 3 to 8) (size 9 to 14) (size 15 to 20)
#    0.000    1.000    5.000    2.000    7.000    2.000 
#    0.000    0.000    0.000    0.000    0.000    0.000 
#    0.000    0.000    0.000    0.000    0.000    0.000 
#
# Total GULP energy -297336.168274 kJ/mol
# GULP energy per Si atom -12389.007011 kJ/mol
# Density = 2.225303 g / cm^3
# Si number density = 22.303790 Si / 1000 Ang^3
#
#
#
# Elastic Constant Matrix: (Units=GPa)
#
#
# Indices 1 2 3 4 5 6 
#
# 1 133.1191 9.5511 20.5497 0.0000 -5.8738 0.0000
# 2 9.5511 62.5363 13.6739 0.0000 -5.6812 0.0000
# 3 20.5497 13.6739 69.8038 0.0000 0.2499 0.0000
# 4 0.0000 0.0000 0.0000 2.3991 0.0000 19.0000
# 5 -5.8738 -5.6812 0.2499 0.0000 31.4683 0.0000
# 6 0.0000 0.0000 0.0000 19.0000 0.0000 22.9815
#
#
#
# Elastic Compliance Matrix: (Units=1/GPa)
#
#
# Indices 1 2 3 4 5 6 
#
# 1 0.007961 -0.000601 -0.002231 0.000000 0.001395 0.000000
# 2 -0.000601 0.017048 -0.003173 0.000000 0.002991 0.000000
# 3 -0.002231 -0.003173 0.015608 0.000000 -0.001113 0.000000
# 4 0.000000 0.000000 0.000000 -0.075136 0.000000 0.062119
# 5 0.001395 0.002991 -0.001113 0.000000 0.032587 0.000000
# 6 0.000000 0.000000 0.000000 0.062119 0.000000 -0.007844
#
#
# Mechanical properties :
#
#
# Convention : Reuss Voigt Hill
#
# Bulk Modulus (GPa) = 34.95706 39.22316 37.09011
# Shear Modulus (GPa) = 424.76409 26.14876 225.45643
#
# Velocity S-wave (km/s) = 13.81515 3.42773 10.06498
# Velocity P-wave (km/s) = 16.43730 5.76974 12.31817
#
# Compressibility (1/GPa) = 0.02860653
#
# Stress axis : x y z
#
# Youngs Moduli (GPa) = 125.60982 58.65757 64.06879
#
# Poissons Ratio (x) = 0.03527 0.14293
# Poissons Ratio (y) = 0.07554 0.20330
# Poissons Ratio (z) = 0.28022 0.18613
#
# Static dielectric constant tensor:
#      x y z
#    x 4.878020 0.000000 -0.088590 
#    y 0.000000 3.847210 0.000000 
#    z -0.088590 0.000000 4.183830 
# 
# 
# High freq. dielectric constant tensor:
#      x y z
#    x 1.892230 0.000000 0.001540 
#    y 0.000000 1.873510 0.000000 
#    z 0.001540 0.000000 1.859990 
# 
# From -- ./inp_files/289124.got.cif
#   From: 2010.06.25/outbox.cif.g09.slc.cpg/sg15_145_cif.got.tgz:289124.got - 2010.06.28 07:06:18.
