data_PCOD8151871
_publ_section_title
;
Structure prediction by ZEFSAII (Michael W. Deem and Ramdas Pophale) SiO2 
 PCOD8151871
Probable space group: C 2/C
;
_chemical_formula_sum "Si O2"
_cell_formula_units_Z 52
_cell_length_a 6.570660
_cell_length_b 24.791451
_cell_length_c 23.689650
_cell_angle_alpha 90.000000
_cell_angle_beta 134.963969
_cell_angle_gamma 90.000000
_cell_volume 2730.407865
_symmetry_space_group_name_H-M "C 2/C"
_symmetry_group_IT_number 15
_symmetry_cell_setting 'monoclinic'
loop_
_space_group_symop_operation_xyz
x,y,z
-x,y,1/2-z
-x,-y,-z
x,-y,1/2+z
1/2+x,1/2+y,z
1/2-x,1/2+y,1/2-z
1/2-x,1/2-y,-z
1/2+x,1/2-y,1/2+z
loop_
_atom_site_type_symbol
_atom_site_label
_atom_site_fract_x
_atom_site_fract_y
_atom_site_fract_z
Si Si1 0.288893 0.050001 0.463349
Si Si2 0.000000 0.759646 0.250000
Si Si3 0.076021 0.307965 0.328171
Si Si4 0.289144 0.589842 0.932610
Si Si5 0.320638 0.204570 0.326258
Si Si6 0.357856 0.986664 0.661478
Si Si7 0.443747 0.096522 0.087016
O O1 0.344953 0.084537 0.531112
O O2 0.330367 0.089160 0.418764
O O3 0.969727 0.029044 0.397463
O O4 0.500000 0.000000 0.500000
O O5 0.285522 0.796440 0.306421
O O6 0.011868 0.722778 0.196908
O O7 0.246155 0.351794 0.397181
O O8 0.277091 0.254628 0.361193
O O9 0.000000 0.328595 0.250000
O O10 0.126739 0.545820 0.862770
O O11 0.629880 0.580178 0.002676
O O12 0.528909 0.159027 0.391546
O O13 0.000000 0.181716 0.250000
O O14 0.500000 0.988245 0.750000
O O15 0.521870 0.942732 0.654679
#
# Coordination Sequence:
#
# PCOD8151871 Si02
#       7
#     8   4   8   8   8   8   8
#     4  11  21  42  59  81 123 163 192 233 306 355
#     4   8  18  40  60  84 122 152 192 246 292 344
#     4   9  20  39  61  88 118 153 200 243 294 345
#     4  11  22  40  60  85 124 156 192 251 292 351
#     4   9  21  37  60  87 118 152 196 246 290 347
#     4  11  24  38  60  91 118 152 200 252 292 352
#     4  11  23  39  60  88 120 155 196 242 298 355
#
# _framework density 19.044772999999999
#
# number of rings (size 3 to 8) (size 9 to 14) (size 15 to 20)
#    0.000    2.154    3.077    1.385    3.231    6.769 
#    2.769    1.538    0.000    0.000    0.000    0.000 
#    0.000    0.000    0.000    0.000    0.000    0.000 
#
# Total GULP energy -322340.523268 kJ/mol
# GULP energy per Si atom -12397.712433 kJ/mol
# Density = 1.900143 g / cm^3
# Si number density = 19.044773 Si / 1000 Ang^3
#
#
#
# Elastic Constant Matrix: (Units=GPa)
#
#
# Indices 1 2 3 4 5 6 
#
# 1 116.2190 37.1570 34.2001 0.0000 -27.9566 0.0000
# 2 37.1570 119.7057 54.5118 0.0000 -16.2040 0.0000
# 3 34.2001 54.5118 106.3200 0.0000 -23.1417 0.0000
# 4 0.0000 0.0000 0.0000 43.3441 0.0000 -1.1835
# 5 -27.9566 -16.2040 -23.1417 0.0000 23.1255 0.0000
# 6 0.0000 0.0000 0.0000 -1.1835 0.0000 24.6938
#
#
#
# Elastic Compliance Matrix: (Units=1/GPa)
#
#
# Indices 1 2 3 4 5 6 
#
# 1 0.012567 -0.002037 -0.000003 0.000000 0.013763 0.000000
# 2 -0.002037 0.011353 -0.005076 0.000000 0.000414 0.000000
# 3 -0.000003 -0.005076 0.014362 0.000000 0.010813 0.000000
# 4 0.000000 0.000000 0.000000 0.023101 0.000000 0.001107
# 5 0.013763 0.000414 0.010813 0.000000 0.070990 0.000000
# 6 0.000000 0.000000 0.000000 0.001107 0.000000 0.040549
#
#
# Mechanical properties :
#
#
# Convention : Reuss Voigt Hill
#
# Bulk Modulus (GPa) = 41.57572 65.99804 53.78688
# Shear Modulus (GPa) = 25.61854 32.65776 29.13815
#
# Velocity S-wave (km/s) = 3.67164 4.14549 3.91574
# Velocity P-wave (km/s) = 6.31288 7.59229 6.98195
#
# Compressibility (1/GPa) = 0.02405250
#
# Stress axis : x y z
#
# Youngs Moduli (GPa) = 79.57358 88.07875 69.62640
#
# Poissons Ratio (x) = 0.17939 0.00018
# Poissons Ratio (y) = 0.16206 0.35342
# Poissons Ratio (z) = 0.00021 0.44708
#
# Static dielectric constant tensor:
#      x y z
#    x 3.778920 0.000000 -0.199570 
#    y 0.000000 3.567680 0.000000 
#    z -0.199570 0.000000 3.238980 
# 
# 
# High freq. dielectric constant tensor:
#      x y z
#    x 1.753440 0.000000 -0.012530 
#    y 0.000000 1.740860 0.000000 
#    z -0.012530 0.000000 1.728430 
# 
# From -- ./inp_files/185784.got.cif
#   From: 2010.06.25/outbox.cif.g09.slc.cpg/sg15_93_cif.got.tgz:185784.got - 2010.06.28 07:06:18.
