data_PCOD8151046
_publ_section_title
;
Structure prediction by ZEFSAII (Michael W. Deem and Ramdas Pophale) SiO2 
 PCOD8151046
Probable space group: C 2/C
;
_chemical_formula_sum "Si O2"
_cell_formula_units_Z 56
_cell_length_a 26.949940
_cell_length_b 10.007921
_cell_length_c 17.671809
_cell_angle_alpha 90.000000
_cell_angle_beta 37.568141
_cell_angle_gamma 90.000000
_cell_volume 2906.043398
_symmetry_space_group_name_H-M "C 2/C"
_symmetry_group_IT_number 15
_symmetry_cell_setting 'monoclinic'
loop_
_space_group_symop_operation_xyz
x,y,z
-x,y,1/2-z
-x,-y,-z
x,-y,1/2+z
1/2+x,1/2+y,z
1/2-x,1/2+y,1/2-z
1/2-x,1/2-y,-z
1/2+x,1/2-y,1/2+z
loop_
_atom_site_type_symbol
_atom_site_label
_atom_site_fract_x
_atom_site_fract_y
_atom_site_fract_z
Si Si1 0.658648 0.651142 0.554461
Si Si2 0.056831 0.624710 0.245861
Si Si3 0.032048 0.874106 0.084348
Si Si4 0.860232 0.030356 0.768772
Si Si5 0.342810 0.706250 0.187939
Si Si6 0.086989 0.489356 0.356383
Si Si7 0.708830 0.215654 0.227199
O O1 0.633268 0.797700 0.616619
O O2 0.583622 0.588368 0.597208
O O3 0.678231 0.555048 0.601645
O O4 0.738109 0.666700 0.408030
O O5 0.084676 0.508279 0.268310
O O6 0.000000 0.560325 0.250000
O O7 0.005409 0.727460 0.359135
O O8 0.958687 0.977643 0.158562
O O9 0.090985 0.872896 0.941485
O O10 0.836123 0.147151 0.739225
O O11 0.824791 0.890553 0.780836
O O12 0.375445 0.845319 0.177733
O O13 0.262128 0.737164 0.237562
O O14 0.143175 0.602620 0.326241
O O15 0.000000 0.500000 0.500000
#
# Coordination Sequence:
#
# PCOD8151046 Si02
#       7
#     8   8   8   8   8   8   8
#     4   9  19  35  62  86 105 146 208 249 274 342
#     4   9  17  34  60  87 108 146 202 244 277 336
#     4   9  17  35  59  83 107 145 198 239 279 342
#     4  11  19  35  57  84 109 150 194 244 289 336
#     4  11  23  35  53  88 123 149 184 244 300 355
#     4  12  22  39  60  89 120 156 194 240 302 361
#     4  11  22  38  59  82 115 157 202 239 288 345
#
# _framework density 19.270188000000001
#
# number of rings (size 3 to 8) (size 9 to 14) (size 15 to 20)
#    0.000    1.714    4.286    3.000    0.000    0.000 
#    0.000    2.143    0.000    0.000    0.000    0.000 
#    0.000    0.000    0.000    0.000    0.000    0.000 
#
# Total GULP energy -347181.771062 kJ/mol
# GULP energy per Si atom -12399.348967 kJ/mol
# Density = 1.922633 g / cm^3
# Si number density = 19.270188 Si / 1000 Ang^3
#
#
#
# Elastic Constant Matrix: (Units=GPa)
#
#
# Indices 1 2 3 4 5 6 
#
# 1 143.9660 63.8157 32.6447 0.0016 7.1123 0.0000
# 2 63.8157 111.1214 30.5089 0.0028 5.3720 0.0007
# 3 32.6447 30.5089 76.5922 0.0007 -7.2897 0.0002
# 4 0.0016 0.0028 0.0007 16.7644 -0.0010 0.2488
# 5 7.1123 5.3720 -7.2897 -0.0010 29.2370 -0.0002
# 6 0.0000 0.0007 0.0002 0.2488 -0.0002 25.6513
#
#
#
# Elastic Compliance Matrix: (Units=1/GPa)
#
#
# Indices 1 2 3 4 5 6 
#
# 1 0.009739 -0.004825 -0.002427 0.000000 -0.002088 0.000000
# 2 -0.004825 0.012746 -0.003208 -0.000002 -0.001968 0.000000
# 3 -0.002427 -0.003208 0.015857 0.000000 0.005134 0.000000
# 4 0.000000 -0.000002 0.000000 0.059659 0.000003 -0.000579
# 5 -0.002088 -0.001968 0.005134 0.000003 0.036353 0.000000
# 6 0.000000 0.000000 0.000000 -0.000579 0.000000 0.038990
#
#
# Mechanical properties :
#
#
# Convention : Reuss Voigt Hill
#
# Bulk Modulus (GPa) = 57.40274 65.06868 61.23571
# Shear Modulus (GPa) = 24.99112 27.97791 26.48452
#
# Velocity S-wave (km/s) = 3.60513 3.81448 3.71128
# Velocity P-wave (km/s) = 6.86894 7.29659 7.08599
#
# Compressibility (1/GPa) = 0.01742077
#
# Stress axis : x y z
#
# Youngs Moduli (GPa) = 102.68454 78.45481 63.06332
#
# Poissons Ratio (x) = 0.37858 0.15307
# Poissons Ratio (y) = 0.49549 0.20230
# Poissons Ratio (z) = 0.24925 0.25167
#
# Static dielectric constant tensor:
#      x y z
#    x 3.962110 0.000000 -0.078660 
#    y 0.000000 3.158990 0.000010 
#    z -0.078660 0.000010 3.549800 
# 
# 
# High freq. dielectric constant tensor:
#      x y z
#    x 1.775960 0.000000 -0.006060 
#    y 0.000000 1.707130 0.000000 
#    z -0.006060 0.000000 1.742990 
# 
# From -- ./inp_files/222011.got.cif
#   From: 2010.06.25/outbox.cif.g09.slc.cpg/sg15_112_cif.got.tgz:222011.got - 2010.06.28 07:06:18.
