data_PCOD8151632
_publ_section_title
;
Structure prediction by ZEFSAII (Michael W. Deem and Ramdas Pophale) SiO2 
 PCOD8151632
Probable space group: C 2/C
;
_chemical_formula_sum "Si O2"
_cell_formula_units_Z 64
_cell_length_a 9.063018
_cell_length_b 25.571336
_cell_length_c 14.097272
_cell_angle_alpha 90.000000
_cell_angle_beta 101.469226
_cell_angle_gamma 90.000000
_cell_volume 3201.853374
_symmetry_space_group_name_H-M "C 2/C"
_symmetry_group_IT_number 15
_symmetry_cell_setting 'monoclinic'
loop_
_space_group_symop_operation_xyz
x,y,z
-x,y,1/2-z
-x,-y,-z
x,-y,1/2+z
1/2+x,1/2+y,z
1/2-x,1/2+y,1/2-z
1/2-x,1/2-y,-z
1/2+x,1/2-y,1/2+z
loop_
_atom_site_type_symbol
_atom_site_label
_atom_site_fract_x
_atom_site_fract_y
_atom_site_fract_z
Si Si1 0.854870 0.355869 0.586553
Si Si2 0.049063 0.557237 0.040595
Si Si3 0.054867 0.013329 0.157232
Si Si4 0.276884 0.095342 0.265116
Si Si5 0.364404 0.694346 0.164986
Si Si6 0.049143 0.259988 0.648878
Si Si7 0.654439 0.563976 0.520254
Si Si8 0.985210 0.169620 0.505259
O O1 0.870353 0.372022 0.699240
O O2 0.688251 0.337790 0.542383
O O3 0.905901 0.403530 0.523581
O O4 0.970147 0.308287 0.584328
O O5 0.116304 0.558263 0.156986
O O6 0.173653 0.578361 0.982473
O O7 0.000000 0.500000 0.000000
O O8 0.156219 0.063552 0.189593
O O9 0.000000 0.988784 0.250000
O O10 0.154692 0.971802 0.113750
O O11 0.911520 0.031832 0.077758
O O12 0.188865 0.134829 0.323521
O O13 0.500000 0.711219 0.250000
O O14 0.228932 0.734820 0.162759
O O15 0.425371 0.698660 0.066573
O O16 0.000000 0.258559 0.750000
O O17 0.996556 0.205230 0.598932
O O18 0.557167 0.613773 0.535653
#
# Coordination Sequence:
#
# PCOD8151632 Si02
#       8
#     8   8   8   8   8   8   8   8
#     4  12  23  41  67  96 132 172 224 283 332 394
#     4  12  25  39  61  99 138 167 208 277 341 393
#     4  11  21  37  67  93 122 169 220 270 334 388
#     4  12  20  39  68  93 126 163 215 280 325 384
#     4  12  21  40  69  97 127 159 223 285 330 390
#     4  12  24  43  63  97 135 174 222 278 337 400
#     4  11  23  41  61  95 132 165 222 276 327 406
#     4  12  24  40  67  96 131 178 222 273 340 403
#
# _framework density 19.988423000000001
#
# number of rings (size 3 to 8) (size 9 to 14) (size 15 to 20)
#    0.000    0.250    7.500    2.250    1.750    0.500 
#    0.000    0.000    0.000    0.000    0.000    0.000 
#    0.000    0.000    0.000    0.000    0.000    0.000 
#
# Total GULP energy -396909.652579 kJ/mol
# GULP energy per Si atom -12403.426643 kJ/mol
# Density = 1.994293 g / cm^3
# Si number density = 19.988423 Si / 1000 Ang^3
#
#
#
# Elastic Constant Matrix: (Units=GPa)
#
#
# Indices 1 2 3 4 5 6 
#
# 1 134.3112 44.5007 39.7788 0.0000 -4.7689 0.0000
# 2 44.5007 87.0133 52.8803 0.0000 -0.5184 0.0000
# 3 39.7788 52.8803 87.3690 0.0000 -5.4594 0.0000
# 4 0.0000 0.0000 0.0000 37.9250 0.0000 5.3363
# 5 -4.7689 -0.5184 -5.4594 0.0000 29.4131 0.0000
# 6 0.0000 0.0000 0.0000 5.3363 0.0000 22.3315
#
#
#
# Elastic Compliance Matrix: (Units=1/GPa)
#
#
# Indices 1 2 3 4 5 6 
#
# 1 0.009239 -0.003484 -0.002032 0.000000 0.001059 0.000000
# 2 -0.003484 0.019582 -0.010400 0.000000 -0.002150 0.000000
# 3 -0.002032 -0.010400 0.018852 0.000000 0.002986 0.000000
# 4 0.000000 0.000000 0.000000 0.027285 0.000000 -0.006520
# 5 0.001059 -0.002150 0.002986 0.000000 0.034687 0.000000
# 6 0.000000 0.000000 0.000000 -0.006520 0.000000 0.046338
#
#
# Mechanical properties :
#
#
# Convention : Reuss Voigt Hill
#
# Bulk Modulus (GPa) = 63.12537 64.77921 63.95229
# Shear Modulus (GPa) = 25.89405 29.36951 27.63178
#
# Velocity S-wave (km/s) = 3.60314 3.83734 3.72208
# Velocity P-wave (km/s) = 6.99712 7.21888 7.10887
#
# Compressibility (1/GPa) = 0.01584149
#
# Stress axis : x y z
#
# Youngs Moduli (GPa) = 108.23594 51.06741 53.04504
#
# Poissons Ratio (x) = 0.17793 0.10776
# Poissons Ratio (y) = 0.37711 0.55167
# Poissons Ratio (z) = 0.21988 0.53110
#
# Static dielectric constant tensor:
#      x y z
#    x 3.895560 0.000000 -0.124460 
#    y 0.000000 3.533140 0.000000 
#    z -0.124460 0.000000 3.653940 
# 
# 
# High freq. dielectric constant tensor:
#      x y z
#    x 1.801550 0.000000 -0.010720 
#    y 0.000000 1.763900 0.000000 
#    z -0.010720 0.000000 1.769840 
# 
# From -- ./inp_files/137842.got.cif
#   From: 2010.06.25/outbox.cif.g09.slc.cpg/sg15_69_cif.got.tgz:137842.got - 2010.06.28 07:06:18.
