data_PCOD8151986
_publ_section_title
;
Structure prediction by ZEFSAII (Michael W. Deem and Ramdas Pophale) SiO2 
 PCOD8151986
Probable space group: C 2/C
;
_chemical_formula_sum "Si O2"
_cell_formula_units_Z 48
_cell_length_a 23.411040
_cell_length_b 8.744683
_cell_length_c 18.999471
_cell_angle_alpha 90.000000
_cell_angle_beta 144.013662
_cell_angle_gamma 90.000000
_cell_volume 2285.506199
_symmetry_space_group_name_H-M "C 2/C"
_symmetry_group_IT_number 15
_symmetry_cell_setting 'monoclinic'
loop_
_space_group_symop_operation_xyz
x,y,z
-x,y,1/2-z
-x,-y,-z
x,-y,1/2+z
1/2+x,1/2+y,z
1/2-x,1/2+y,1/2-z
1/2-x,1/2-y,-z
1/2+x,1/2-y,1/2+z
loop_
_atom_site_type_symbol
_atom_site_label
_atom_site_fract_x
_atom_site_fract_y
_atom_site_fract_z
Si Si1 0.493459 0.238273 0.542426
Si Si2 0.016179 0.404921 0.612203
Si Si3 0.795992 0.860017 0.373400
Si Si4 0.198151 0.612087 0.539819
Si Si5 0.823548 0.076140 0.272770
Si Si6 0.200607 0.575432 0.383775
O O1 0.466298 0.219424 0.432381
O O2 0.397812 0.276543 0.492920
O O3 0.563952 0.381656 0.627924
O O4 0.540370 0.077203 0.611458
O O5 0.905885 0.394703 0.527169
O O6 0.094062 0.371903 0.750812
O O7 0.729223 0.736729 0.268841
O O8 0.813241 0.995979 0.336791
O O9 0.743893 0.923355 0.391059
O O10 0.279503 0.521706 0.665108
O O11 0.192328 0.534252 0.457538
O O12 0.224678 0.788597 0.557107
#
# Coordination Sequence:
#
# PCOD8151986 Si02
#       6
#     8   8   8   8   8   8
#     4  11  23  38  65  99 129 167 218 266 328 379
#     4  11  21  44  65  95 129 171 215 268 326 390
#     4  12  23  40  65  98 132 169 216 274 324 385
#     4  11  25  44  67  94 131 176 219 269 329 395
#     4  12  23  40  65  98 132 169 216 274 324 385
#     4  11  25  44  67  94 131 176 219 269 329 395
#
# _framework density 21.001911
#
# number of rings (size 3 to 8) (size 9 to 14) (size 15 to 20)
#    0.000    0.667    3.333    6.000    0.000    2.000 
#    0.000    2.500    0.000    0.000    0.000    0.000 
#    0.000    0.000    0.000    0.000    0.000    0.000 
#
# Total GULP energy -297683.907276 kJ/mol
# GULP energy per Si atom -12403.496137 kJ/mol
# Density = 2.095411 g / cm^3
# Si number density = 21.001911 Si / 1000 Ang^3
#
#
#
# Elastic Constant Matrix: (Units=GPa)
#
#
# Indices 1 2 3 4 5 6 
#
# 1 67.2006 5.7974 23.8836 0.0000 1.8634 0.0000
# 2 5.7974 51.7118 -3.9244 0.0000 6.5954 0.0000
# 3 23.8836 -3.9244 87.1077 0.0000 0.6675 0.0000
# 4 0.0000 0.0000 0.0000 37.0264 0.0000 6.8147
# 5 1.8634 6.5954 0.6675 0.0000 29.7371 0.0000
# 6 0.0000 0.0000 0.0000 6.8147 0.0000 31.2167
#
#
#
# Elastic Compliance Matrix: (Units=1/GPa)
#
#
# Indices 1 2 3 4 5 6 
#
# 1 0.016747 -0.002174 -0.004686 0.000000 -0.000462 0.000000
# 2 -0.002174 0.020259 0.001542 0.000000 -0.004392 0.000000
# 3 -0.004686 0.001542 0.012837 0.000000 -0.000337 0.000000
# 4 0.000000 0.000000 0.000000 0.028138 0.000000 -0.006143
# 5 -0.000462 -0.004392 -0.000337 0.000000 0.034639 0.000000
# 6 0.000000 0.000000 0.000000 -0.006143 0.000000 0.033375
#
#
# Mechanical properties :
#
#
# Convention : Reuss Voigt Hill
#
# Bulk Modulus (GPa) = 25.50569 28.61482 27.06026
# Shear Modulus (GPa) = 29.46393 31.61361 30.53877
#
# Velocity S-wave (km/s) = 3.74962 3.88399 3.81740
# Velocity P-wave (km/s) = 5.56031 5.81105 5.68706
#
# Compressibility (1/GPa) = 0.03920694
#
# Stress axis : x y z
#
# Youngs Moduli (GPa) = 59.71334 49.36108 77.90000
#
# Poissons Ratio (x) = 0.10732 0.36505
# Poissons Ratio (y) = 0.12983 -0.12016
# Poissons Ratio (z) = 0.27982 -0.07614
#
# Static dielectric constant tensor:
#      x y z
#    x 3.758650 0.000000 0.070950 
#    y 0.000000 3.861620 0.000000 
#    z 0.070950 0.000000 3.883760 
# 
# 
# High freq. dielectric constant tensor:
#      x y z
#    x 1.816020 0.000000 0.014950 
#    y 0.000000 1.831630 0.000000 
#    z 0.014950 0.000000 1.830350 
# 
# From -- ./inp_files/257254.got.cif
#   From: 2010.06.25/outbox.cif.g09.slc.cpg/sg15_129_cif.got.tgz:257254.got - 2010.06.28 07:06:18.
