data_PCOD8151384
_publ_section_title
;
Structure prediction by ZEFSAII (Michael W. Deem and Ramdas Pophale) SiO2 
 PCOD8151384
Probable space group: C 2/C
;
_chemical_formula_sum "Si O2"
_cell_formula_units_Z 48
_cell_length_a 17.434451
_cell_length_b 14.398167
_cell_length_c 8.615727
_cell_angle_alpha 90.000000
_cell_angle_beta 93.845585
_cell_angle_gamma 90.000000
_cell_volume 2157.885828
_symmetry_space_group_name_H-M "C 2/C"
_symmetry_group_IT_number 15
_symmetry_cell_setting 'monoclinic'
loop_
_space_group_symop_operation_xyz
x,y,z
-x,y,1/2-z
-x,-y,-z
x,-y,1/2+z
1/2+x,1/2+y,z
1/2-x,1/2+y,1/2-z
1/2-x,1/2-y,-z
1/2+x,1/2-y,1/2+z
loop_
_atom_site_type_symbol
_atom_site_label
_atom_site_fract_x
_atom_site_fract_y
_atom_site_fract_z
Si Si1 0.282188 0.690763 0.301789
Si Si2 0.160797 0.435492 0.657427
Si Si3 0.770479 0.113281 0.623143
Si Si4 0.076898 0.078234 0.684792
Si Si5 0.924930 0.879301 0.674460
Si Si6 0.555907 0.960592 0.378184
O O1 0.202934 0.658867 0.211152
O O2 0.282768 0.797981 0.350454
O O3 0.296944 0.620763 0.448082
O O4 0.350622 0.683689 0.188036
O O5 0.221911 0.519589 0.643797
O O6 0.121382 0.407720 0.486130
O O7 0.098205 0.460096 0.781086
O O8 0.845219 0.123212 0.740427
O O9 0.069789 0.092541 0.501988
O O10 0.000000 0.123332 0.750000
O O11 0.081111 0.969755 0.719114
O O12 0.000000 0.824735 0.750000
O O13 0.500000 0.902960 0.250000
O O14 0.500000 0.000000 0.500000
#
# Coordination Sequence:
#
# PCOD8151384 Si02
#       6
#     8   8   8   8   8   8
#     4  11  24  41  65  97 131 170 217 267 328 391
#     4  11  20  40  67  92 122 172 209 269 326 384
#     4  11  24  41  65  97 131 169 216 269 327 389
#     4  11  22  39  65  94 128 171 215 266 325 383
#     4  11  22  39  65  94 128 170 217 265 325 384
#     4   9  20  38  64  92 121 165 219 258 318 388
#
# _framework density 22.243994000000001
#
# number of rings (size 3 to 8) (size 9 to 14) (size 15 to 20)
#    0.000    1.333    3.333    4.000    2.333    0.667 
#    0.000    5.000    3.667    0.000    0.000    0.000 
#    0.000    0.000    0.000    0.000    0.000    0.000 
#
# Total GULP energy -297398.403448 kJ/mol
# GULP energy per Si atom -12391.600144 kJ/mol
# Density = 2.219337 g / cm^3
# Si number density = 22.243994 Si / 1000 Ang^3
#
#
#
# Elastic Constant Matrix: (Units=GPa)
#
#
# Indices 1 2 3 4 5 6 
#
# 1 132.8673 11.6500 66.2828 0.0000 8.7834 0.0000
# 2 11.6500 44.4615 10.1320 0.0000 -3.2564 0.0000
# 3 66.2828 10.1320 153.2173 0.0000 23.5913 0.0000
# 4 0.0000 0.0000 0.0000 17.6336 0.0000 0.3624
# 5 8.7834 -3.2564 23.5913 0.0000 57.8049 0.0000
# 6 0.0000 0.0000 0.0000 0.3624 0.0000 11.4282
#
#
#
# Elastic Compliance Matrix: (Units=1/GPa)
#
#
# Indices 1 2 3 4 5 6 
#
# 1 0.009711 -0.001599 -0.004113 0.000000 0.000113 0.000000
# 2 -0.001599 0.023324 -0.001163 0.000000 0.002032 0.000000
# 3 -0.004113 -0.001163 0.008853 0.000000 -0.003054 0.000000
# 4 0.000000 0.000000 0.000000 0.056747 0.000000 -0.001800
# 5 0.000113 0.002032 -0.003054 0.000000 0.018643 0.000000
# 6 0.000000 0.000000 0.000000 -0.001800 0.000000 0.087560
#
#
# Mechanical properties :
#
#
# Convention : Reuss Voigt Hill
#
# Bulk Modulus (GPa) = 35.53936 56.29728 45.91832
# Shear Modulus (GPa) = 21.93300 33.53877 27.73589
#
# Velocity S-wave (km/s) = 3.14350 3.88721 3.53497
# Velocity P-wave (km/s) = 5.40252 6.74619 6.11140
#
# Compressibility (1/GPa) = 0.02813782
#
# Stress axis : x y z
#
# Youngs Moduli (GPa) = 102.97983 42.87379 112.95735
#
# Poissons Ratio (x) = 0.06855 0.46454
# Poissons Ratio (y) = 0.16466 0.13143
# Poissons Ratio (z) = 0.42351 0.04988
#
# Static dielectric constant tensor:
#      x y z
#    x 4.750290 0.000000 0.292760 
#    y 0.000000 3.418190 0.000000 
#    z 0.292760 0.000000 4.489020 
# 
# 
# High freq. dielectric constant tensor:
#      x y z
#    x 1.901580 0.000000 0.005190 
#    y 0.000000 1.820400 0.000000 
#    z 0.005190 0.000000 1.902010 
# 
# From -- ./inp_files/47484.got.cif
#   From: 2010.06.25/outbox.cif.g09.slc.cpg/sg15_24_cif.got.tgz:47484.got - 2010.06.28 07:06:18.
