data_PCOD8151945
_publ_section_title
;
Structure prediction by ZEFSAII (Michael W. Deem and Ramdas Pophale) SiO2 
 PCOD8151945
Probable space group: C 2/C
;
_chemical_formula_sum "Si O2"
_cell_formula_units_Z 48
_cell_length_a 24.290434
_cell_length_b 13.470038
_cell_length_c 19.791267
_cell_angle_alpha 90.000000
_cell_angle_beta 21.134749
_cell_angle_gamma 90.000000
_cell_volume 2334.846458
_symmetry_space_group_name_H-M "C 2/C"
_symmetry_group_IT_number 15
_symmetry_cell_setting 'monoclinic'
loop_
_space_group_symop_operation_xyz
x,y,z
-x,y,1/2-z
-x,-y,-z
x,-y,1/2+z
1/2+x,1/2+y,z
1/2-x,1/2+y,1/2-z
1/2-x,1/2-y,-z
1/2+x,1/2-y,1/2+z
loop_
_atom_site_type_symbol
_atom_site_label
_atom_site_fract_x
_atom_site_fract_y
_atom_site_fract_z
Si Si1 0.161364 0.644184 0.420744
Si Si2 0.983108 0.670541 0.122157
Si Si3 0.943302 0.873207 0.239200
Si Si4 0.356554 0.968351 0.961451
Si Si5 0.354529 0.168787 0.700877
Si Si6 0.232422 0.950568 0.838140
O O1 0.188845 0.570843 0.451304
O O2 0.231492 0.749242 0.362855
O O3 0.245853 0.602805 0.258055
O O4 0.980673 0.656483 0.614813
O O5 0.917975 0.765042 0.236052
O O6 0.844063 0.596517 0.266197
O O7 0.109439 0.615038 0.021779
O O8 0.063815 0.704913 0.961038
O O9 0.783876 0.931317 0.423212
O O10 0.000000 0.860029 0.250000
O O11 0.060218 0.936819 0.060160
O O12 0.500000 0.987043 0.750000
O O13 0.267380 0.066006 0.788845
#
# Coordination Sequence:
#
# PCOD8151945 Si02
#       6
#     8   8   8   8   8   8
#     4  11  24  43  70 100 132 180 221 282 325 399
#     4  11  21  43  68 101 137 176 212 274 345 401
#     4  12  27  41  68 104 136 174 226 280 328 407
#     4  12  26  45  66  93 138 182 224 268 345 392
#     4  11  23  41  70 103 137 170 226 273 336 393
#     4  11  22  43  68 101 141 170 220 276 338 393
#
# _framework density 20.558098000000001
#
# number of rings (size 3 to 8) (size 9 to 14) (size 15 to 20)
#    0.000    0.667    5.000    3.500    4.667    2.667 
#    0.000    1.667    0.000    0.000    0.000    0.000 
#    0.000    0.000    0.000    0.000    0.000    0.000 
#
# Total GULP energy -297775.929628 kJ/mol
# GULP energy per Si atom -12407.330401 kJ/mol
# Density = 2.051131 g / cm^3
# Si number density = 20.558098 Si / 1000 Ang^3
#
#
#
# Elastic Constant Matrix: (Units=GPa)
#
#
# Indices 1 2 3 4 5 6 
#
# 1 94.5637 45.2609 25.6481 -0.0013 -0.7614 -0.0002
# 2 45.2609 144.2730 42.6129 -0.0023 -2.6531 0.0003
# 3 25.6481 42.6129 97.0807 -0.0023 -6.0511 0.0016
# 4 -0.0013 -0.0023 -0.0023 34.7441 0.0025 -6.9427
# 5 -0.7614 -2.6531 -6.0511 0.0025 18.1687 -0.0014
# 6 -0.0002 0.0003 0.0016 -6.9427 -0.0014 25.2858
#
#
#
# Elastic Compliance Matrix: (Units=1/GPa)
#
#
# Indices 1 2 3 4 5 6 
#
# 1 0.012732 -0.003448 -0.001888 0.000000 -0.000599 0.000000
# 2 -0.003448 0.008897 -0.002985 0.000000 0.000161 0.000000
# 3 -0.001888 -0.002985 0.012333 0.000000 0.003593 -0.000001
# 4 0.000000 0.000000 0.000000 0.030453 -0.000003 0.008361
# 5 -0.000599 0.000161 0.003593 -0.000003 0.056235 0.000002
# 6 0.000000 0.000000 -0.000001 0.008361 0.000002 0.041844
#
#
# Mechanical properties :
#
#
# Convention : Reuss Voigt Hill
#
# Bulk Modulus (GPa) = 57.72675 62.55126 60.13900
# Shear Modulus (GPa) = 27.04038 30.46607 28.75322
#
# Velocity S-wave (km/s) = 3.63066 3.85379 3.74389
# Velocity P-wave (km/s) = 6.76139 7.09189 6.92861
#
# Compressibility (1/GPa) = 0.01732299
#
# Stress axis : x y z
#
# Youngs Moduli (GPa) = 78.54056 112.39214 81.08051
#
# Poissons Ratio (x) = 0.38750 0.15306
# Poissons Ratio (y) = 0.27079 0.24199
# Poissons Ratio (z) = 0.14826 0.33544
#
# Static dielectric constant tensor:
#      x y z
#    x 3.763140 0.000000 -0.093600 
#    y 0.000000 3.751100 0.000000 
#    z -0.093600 0.000000 3.734030 
# 
# 
# High freq. dielectric constant tensor:
#      x y z
#    x 1.803220 0.000000 -0.007470 
#    y 0.000000 1.809070 0.000000 
#    z -0.007470 0.000000 1.803280 
# 
# From -- ./inp_files/66428.got.cif
#   From: 2010.06.25/outbox.cif.g09.slc.cpg/sg15_34_cif.got.tgz:66428.got - 2010.06.28 07:06:18.
