data_PCOD8151147
_publ_section_title
;
Structure prediction by ZEFSAII (Michael W. Deem and Ramdas Pophale) SiO2 
 PCOD8151147
Probable space group: C 2/C
;
_chemical_formula_sum "Si O2"
_cell_formula_units_Z 56
_cell_length_a 16.355616
_cell_length_b 20.069333
_cell_length_c 23.214525
_cell_angle_alpha 90.000000
_cell_angle_beta 21.161262
_cell_angle_gamma 90.000000
_cell_volume 2750.804944
_symmetry_space_group_name_H-M "C 2/C"
_symmetry_group_IT_number 15
_symmetry_cell_setting 'monoclinic'
loop_
_space_group_symop_operation_xyz
x,y,z
-x,y,1/2-z
-x,-y,-z
x,-y,1/2+z
1/2+x,1/2+y,z
1/2-x,1/2+y,1/2-z
1/2-x,1/2-y,-z
1/2+x,1/2-y,1/2+z
loop_
_atom_site_type_symbol
_atom_site_label
_atom_site_fract_x
_atom_site_fract_y
_atom_site_fract_z
Si Si1 0.000000 0.761617 0.750000
Si Si2 0.394803 0.340893 0.005893
Si Si3 0.259832 0.869123 0.275404
Si Si4 0.341948 0.763204 0.722840
Si Si5 0.000000 0.018383 0.250000
Si Si6 0.768308 0.871990 0.969048
Si Si7 0.756290 0.816076 0.387762
Si Si8 0.303826 0.053568 0.636227
O O1 0.785586 0.719281 0.869780
O O2 0.927169 0.808993 0.850512
O O3 0.382974 0.384311 0.072564
O O4 0.646316 0.313116 0.830644
O O5 0.325084 0.388577 0.998359
O O6 0.153381 0.805040 0.315391
O O7 0.248795 0.933016 0.239863
O O8 0.511850 0.850349 0.129441
O O9 0.588001 0.796742 0.550522
O O10 0.302271 0.747302 0.816214
O O11 0.085184 0.974282 0.247016
O O12 0.197237 0.064725 0.094774
O O13 0.630880 0.875515 0.435195
O O14 0.000000 0.841201 0.250000
O O15 0.500000 0.000000 0.500000
#
# Coordination Sequence:
#
# PCOD8151147 Si02
#       8
#     4   8   8   8   4   8   8   8
#     4  11  20  30  54  92 138 170 195 248 316 394
#     4  12  21  34  56  95 138 168 204 252 328 390
#     4  11  21  38  59  93 129 174 206 263 322 387
#     4  11  23  37  63  94 131 168 209 265 322 389
#     4  11  24  44  64  90 114 166 227 274 310 380
#     4  11  22  33  61  91 130 168 209 254 320 384
#     4  11  24  43  66  92 125 169 217 270 327 381
#     4  11  24  43  67  91 123 165 228 276 316 380
#
# _framework density 20.357676999999999
#
# number of rings (size 3 to 8) (size 9 to 14) (size 15 to 20)
#    0.000    0.857    6.429    1.714    2.000    0.000 
#    0.000    0.714    0.000    0.000    0.000    0.000 
#    0.000    0.000    0.000    0.000    0.000    0.000 
#
# Total GULP energy -347180.032165 kJ/mol
# GULP energy per Si atom -12399.286863 kJ/mol
# Density = 2.031134 g / cm^3
# Si number density = 20.357677 Si / 1000 Ang^3
#
#
#
# Elastic Constant Matrix: (Units=GPa)
#
#
# Indices 1 2 3 4 5 6 
#
# 1 116.6285 31.5478 31.6522 -0.1457 13.9850 0.0598
# 2 31.5478 67.8146 31.8744 -0.2890 10.2554 0.1157
# 3 31.6522 31.8744 110.6627 -0.5762 2.2761 0.2275
# 4 -0.1457 -0.2890 -0.5762 15.2179 0.2104 -4.1702
# 5 13.9850 10.2554 2.2761 0.2104 36.8911 -0.0811
# 6 0.0598 0.1157 0.2275 -4.1702 -0.0811 32.9639
#
#
#
# Elastic Compliance Matrix: (Units=1/GPa)
#
#
# Indices 1 2 3 4 5 6 
#
# 1 0.010379 -0.003505 -0.001901 0.000000 -0.002843 0.000000
# 2 -0.003505 0.018999 -0.004393 0.000208 -0.003683 -0.000013
# 3 -0.001901 -0.004393 0.010821 0.000286 0.001272 -0.000017
# 4 0.000000 0.000208 0.000286 0.068093 -0.000445 0.008611
# 5 -0.002843 -0.003683 0.001272 -0.000445 0.029132 0.000025
# 6 0.000000 -0.000013 -0.000017 0.008611 0.000025 0.031426
#
#
# Mechanical properties :
#
#
# Convention : Reuss Voigt Hill
#
# Bulk Modulus (GPa) = 48.53964 53.91719 51.22842
# Shear Modulus (GPa) = 25.59967 30.35000 27.97484
#
# Velocity S-wave (km/s) = 3.54996 3.86533 3.71100
# Velocity P-wave (km/s) = 6.37951 6.81641 6.60158
#
# Compressibility (1/GPa) = 0.02060172
#
# Stress axis : x y z
#
# Youngs Moduli (GPa) = 96.34767 52.63314 92.41492
#
# Poissons Ratio (x) = 0.18449 0.17564
# Poissons Ratio (y) = 0.33771 0.40598
# Poissons Ratio (z) = 0.18312 0.23122
#
# Static dielectric constant tensor:
#      x y z
#    x 3.937050 0.000340 0.131160 
#    y 0.000340 3.518830 -0.000170 
#    z 0.131160 -0.000170 3.656650 
# 
# 
# High freq. dielectric constant tensor:
#      x y z
#    x 1.806780 0.000010 0.004250 
#    y 0.000010 1.765790 0.000040 
#    z 0.004250 0.000040 1.790970 
# 
# From -- ./inp_files/299335.got.cif
#   From: 2010.06.25/outbox.cif.g09.slc.cpg/sg15_150_cif.got.tgz:299335.got - 2010.06.28 07:06:18.
