data_PCOD8151697
_publ_section_title
;
Structure prediction by ZEFSAII (Michael W. Deem and Ramdas Pophale) SiO2 
 PCOD8151697
Probable space group: C 2/C
;
_chemical_formula_sum "Si O2"
_cell_formula_units_Z 40
_cell_length_a 7.945703
_cell_length_b 11.945665
_cell_length_c 19.827443
_cell_angle_alpha 90.000000
_cell_angle_beta 112.559512
_cell_angle_gamma 90.000000
_cell_volume 1737.951255
_symmetry_space_group_name_H-M "C 2/C"
_symmetry_group_IT_number 15
_symmetry_cell_setting 'monoclinic'
loop_
_space_group_symop_operation_xyz
x,y,z
-x,y,1/2-z
-x,-y,-z
x,-y,1/2+z
1/2+x,1/2+y,z
1/2-x,1/2+y,1/2-z
1/2-x,1/2-y,-z
1/2+x,1/2-y,1/2+z
loop_
_atom_site_type_symbol
_atom_site_label
_atom_site_fract_x
_atom_site_fract_y
_atom_site_fract_z
Si Si1 0.834897 0.304580 0.420258
Si Si2 0.102645 0.589781 0.379956
Si Si3 0.668839 0.505496 0.974829
Si Si4 0.444154 0.136203 0.669743
Si Si5 0.832182 0.692072 0.425201
O O1 0.755240 0.182524 0.390538
O O2 0.675055 0.382540 0.428312
O O3 0.889139 0.357079 0.357077
O O4 0.003544 0.284607 0.497334
O O5 0.146620 0.514735 0.453363
O O6 0.097688 0.495770 0.320820
O O7 0.907231 0.644648 0.365674
O O8 0.681556 0.392728 0.932619
O O9 0.500000 0.500000 0.000000
O O10 0.500000 0.191521 0.750000
O O11 0.268433 0.193187 0.608510
#
# Coordination Sequence:
#
# PCOD8151697 Si02
#       5
#     8   8   8   8   8
#     4  11  23  44  69 107 136 171 233 291 338 406
#     4  11  24  41  72 102 135 169 225 287 348 398
#     4  11  21  38  73 109 133 168 220 289 351 395
#     4  12  27  45  66  95 142 190 228 272 345 417
#     4  11  22  44  72  98 140 171 227 296 337 395
#
# _framework density 23.015606999999999
#
# number of rings (size 3 to 8) (size 9 to 14) (size 15 to 20)
#    0.000    0.800    4.000    5.400    5.600    1.600 
#    0.000    0.000    0.000    0.000    0.000    0.000 
#    0.000    0.000    0.000    0.000    0.000    0.000 
#
# Total GULP energy -247876.535961 kJ/mol
# GULP energy per Si atom -12393.826798 kJ/mol
# Density = 2.296322 g / cm^3
# Si number density = 23.015607 Si / 1000 Ang^3
#
#
#
# Elastic Constant Matrix: (Units=GPa)
#
#
# Indices 1 2 3 4 5 6 
#
# 1 139.9423 68.4044 42.9992 0.0000 -13.3922 0.0000
# 2 68.4044 166.6116 40.1799 0.0000 -1.7239 0.0000
# 3 42.9992 40.1799 81.8039 0.0000 -14.9418 0.0000
# 4 0.0000 0.0000 0.0000 20.2626 0.0000 -2.5500
# 5 -13.3922 -1.7239 -14.9418 0.0000 14.5954 0.0000
# 6 0.0000 0.0000 0.0000 -2.5500 0.0000 35.8710
#
#
#
# Elastic Compliance Matrix: (Units=1/GPa)
#
#
# Indices 1 2 3 4 5 6 
#
# 1 0.010258 -0.003550 -0.002467 0.000000 0.006467 0.000000
# 2 -0.003550 0.008162 -0.003151 0.000000 -0.005519 0.000000
# 3 -0.002467 -0.003151 0.017943 0.000000 0.015732 0.000000
# 4 0.000000 0.000000 0.000000 0.049798 0.000000 0.003540
# 5 0.006467 -0.005519 0.015732 0.000000 0.089903 0.000000
# 6 0.000000 0.000000 0.000000 0.003540 0.000000 0.028129
#
#
# Mechanical properties :
#
#
# Convention : Reuss Voigt Hill
#
# Bulk Modulus (GPa) = 55.47397 76.83611 66.15504
# Shear Modulus (GPa) = 21.87826 29.93074 25.90450
#
# Velocity S-wave (km/s) = 3.08650 3.61009 3.35851
# Velocity P-wave (km/s) = 6.07100 7.12979 6.62159
#
# Compressibility (1/GPa) = 0.01802647
#
# Stress axis : x y z
#
# Youngs Moduli (GPa) = 97.48648 122.51637 55.73320
#
# Poissons Ratio (x) = 0.43488 0.13750
# Poissons Ratio (y) = 0.34604 0.17563
# Poissons Ratio (z) = 0.24052 0.38609
#
# Static dielectric constant tensor:
#      x y z
#    x 4.165720 0.000000 -0.290250 
#    y 0.000000 4.572860 0.000000 
#    z -0.290250 0.000000 3.812270 
# 
# 
# High freq. dielectric constant tensor:
#      x y z
#    x 1.911940 0.000000 -0.020870 
#    y 0.000000 1.937680 0.000000 
#    z -0.020870 0.000000 1.853600 
# 
# From -- ./inp_files/230004.got.cif
#   From: 2010.06.25/outbox.cif.g09.slc.cpg/sg15_116_cif.got.tgz:230004.got - 2010.06.28 07:06:18.
