data_PCOD8151671
_publ_section_title
;
Structure prediction by ZEFSAII (Michael W. Deem and Ramdas Pophale) SiO2 
 PCOD8151671
Probable space group: C 2/C
;
_chemical_formula_sum "Si O2"
_cell_formula_units_Z 40
_cell_length_a 4.983928
_cell_length_b 14.046253
_cell_length_c 29.128642
_cell_angle_alpha 90.000000
_cell_angle_beta 122.355740
_cell_angle_gamma 90.000000
_cell_volume 1722.567945
_symmetry_space_group_name_H-M "C 2/C"
_symmetry_group_IT_number 15
_symmetry_cell_setting 'monoclinic'
loop_
_space_group_symop_operation_xyz
x,y,z
-x,y,1/2-z
-x,-y,-z
x,-y,1/2+z
1/2+x,1/2+y,z
1/2-x,1/2+y,1/2-z
1/2-x,1/2-y,-z
1/2+x,1/2-y,1/2+z
loop_
_atom_site_type_symbol
_atom_site_label
_atom_site_fract_x
_atom_site_fract_y
_atom_site_fract_z
Si Si1 0.846000 0.583675 0.284587
Si Si2 0.276801 0.526278 0.059771
Si Si3 0.626005 0.136141 0.403920
Si Si4 0.789613 0.364786 0.305243
Si Si5 0.496932 0.338583 0.375283
O O1 0.500000 0.631003 0.250000
O O2 0.818671 0.473006 0.292725
O O3 0.000000 0.601879 0.250000
O O4 0.053583 0.633396 0.342834
O O5 0.521269 0.595382 0.055529
O O6 0.477120 0.432545 0.091171
O O7 0.135453 0.577677 0.091636
O O8 0.000000 0.500000 0.000000
O O9 0.619211 0.248085 0.416207
O O10 0.500000 0.315779 0.250000
O O11 0.721417 0.355393 0.352555
O O12 0.132722 0.318207 0.326738
#
# Coordination Sequence:
#
# PCOD8151671 Si02
#       5
#     8   8   8   8   8
#     4  11  21  38  64  95 132 174 216 262 322 403
#     4  12  26  48  71  97 135 177 230 295 348 392
#     4  12  26  44  70 102 134 177 229 275 342 410
#     4  11  22  40  68  97 138 182 218 263 334 403
#     4  12  24  44  69  99 137 177 223 280 335 408
#
# _framework density 23.221146999999998
#
# number of rings (size 3 to 8) (size 9 to 14) (size 15 to 20)
#    0.000    0.400    4.000    6.000    0.000    4.000 
#    0.000    0.000    0.000    0.000    0.000    0.000 
#    0.000    0.000    0.000    0.000    0.000    0.000 
#
# Total GULP energy -248082.379551 kJ/mol
# GULP energy per Si atom -12404.118978 kJ/mol
# Density = 2.316829 g / cm^3
# Si number density = 23.221147 Si / 1000 Ang^3
#
#
#
# Elastic Constant Matrix: (Units=GPa)
#
#
# Indices 1 2 3 4 5 6 
#
# 1 142.6536 40.6608 13.4184 0.0003 15.7378 0.0002
# 2 40.6608 100.9564 17.2525 0.0002 4.3372 0.0001
# 3 13.4184 17.2525 69.9931 0.0004 13.1251 0.0002
# 4 0.0003 0.0002 0.0004 17.6587 0.0003 8.4414
# 5 15.7378 4.3372 13.1251 0.0003 42.4018 0.0001
# 6 0.0002 0.0001 0.0002 8.4414 0.0001 16.1562
#
#
#
# Elastic Compliance Matrix: (Units=1/GPa)
#
#
# Indices 1 2 3 4 5 6 
#
# 1 0.008227 -0.003148 -0.000307 0.000000 -0.002637 0.000000
# 2 -0.003148 0.011548 -0.002379 0.000000 0.000723 0.000000
# 3 -0.000307 -0.002379 0.015781 0.000000 -0.004528 0.000000
# 4 0.000000 0.000000 0.000000 0.075482 0.000000 -0.039438
# 5 -0.002637 0.000723 -0.004528 0.000000 0.025890 0.000000
# 6 0.000000 0.000000 0.000000 -0.039438 0.000000 0.082502
#
#
# Mechanical properties :
#
#
# Convention : Reuss Voigt Hill
#
# Bulk Modulus (GPa) = 41.85863 50.69628 46.27745
# Shear Modulus (GPa) = 20.91520 31.39476 26.15498
#
# Velocity S-wave (km/s) = 3.00442 3.68093 3.35974
# Velocity P-wave (km/s) = 5.48640 6.32021 5.91801
#
# Compressibility (1/GPa) = 0.02388994
#
# Stress axis : x y z
#
# Youngs Moduli (GPa) = 121.55215 86.59163 63.36595
#
# Poissons Ratio (x) = 0.27257 0.01945
# Poissons Ratio (y) = 0.38261 0.15073
# Poissons Ratio (z) = 0.03730 0.20598
#
# Static dielectric constant tensor:
#      x y z
#    x 4.443060 0.000000 0.306970 
#    y 0.000000 4.367040 0.000000 
#    z 0.306970 0.000000 4.214790 
# 
# 
# High freq. dielectric constant tensor:
#      x y z
#    x 1.935730 0.000000 0.010180 
#    y 0.000000 1.922840 0.000000 
#    z 0.010180 0.000000 1.900920 
# 
# From -- ./inp_files/260100.got.cif
#   From: 2010.06.25/outbox.cif.g09.slc.cpg/sg15_131_cif.got.tgz:260100.got - 2010.06.28 07:06:18.
