data_PCOD8151549
_publ_section_title
;
Structure prediction by ZEFSAII (Michael W. Deem and Ramdas Pophale) SiO2 
 PCOD8151549
Probable space group: C 2/C
;
_chemical_formula_sum "Si O2"
_cell_formula_units_Z 60
_cell_length_a 15.106292
_cell_length_b 20.910996
_cell_length_c 11.784366
_cell_angle_alpha 90.000000
_cell_angle_beta 55.996416
_cell_angle_gamma 90.000000
_cell_volume 3085.991354
_symmetry_space_group_name_H-M "C 2/C"
_symmetry_group_IT_number 15
_symmetry_cell_setting 'monoclinic'
loop_
_space_group_symop_operation_xyz
x,y,z
-x,y,1/2-z
-x,-y,-z
x,-y,1/2+z
1/2+x,1/2+y,z
1/2-x,1/2+y,1/2-z
1/2-x,1/2-y,-z
1/2+x,1/2-y,1/2+z
loop_
_atom_site_type_symbol
_atom_site_label
_atom_site_fract_x
_atom_site_fract_y
_atom_site_fract_z
Si Si1 0.624162 0.435034 0.639042
Si Si2 0.078789 0.273376 0.918352
Si Si3 0.319955 0.693116 0.999898
Si Si4 0.294100 0.325514 0.783009
Si Si5 0.088048 0.296863 0.277484
Si Si6 0.000000 0.256937 0.750000
Si Si7 0.313077 0.362863 0.133991
Si Si8 0.626911 0.422208 0.177020
O O1 0.500000 0.434544 0.750000
O O2 0.675160 0.396979 0.707543
O O3 0.655147 0.400156 0.501551
O O4 0.666017 0.507438 0.611733
O O5 0.171544 0.315768 0.908721
O O6 0.113933 0.199534 0.903489
O O7 0.073345 0.295763 0.787279
O O8 0.967952 0.289137 0.059834
O O9 0.441000 0.712020 0.883721
O O10 0.301463 0.625685 0.950610
O O11 0.250000 0.750000 0.000000
O O12 0.304961 0.686537 0.142689
O O13 0.367575 0.272652 0.794497
O O14 0.186754 0.345814 0.220082
O O15 0.000000 0.320934 0.250000
O O16 0.340101 0.410769 0.216680
O O17 0.500000 0.414101 0.250000
#
# Coordination Sequence:
#
# PCOD8151549 Si02
#       8
#     8   8   8   8   8   4   8   8
#     4  11  26  39  62  90 124 167 204 248 312 379
#     4  11  21  35  61  92 125 158 204 259 313 358
#     4  12  21  37  60  92 123 160 202 254 310 360
#     4  11  22  36  59  93 125 160 210 253 307 373
#     4  11  22  37  64  91 125 163 199 257 314 360
#     4  12  20  34  56  92 124 154 196 254 304 362
#     4  11  23  42  61  93 128 161 211 254 312 375
#     4  11  25  41  62  91 124 165 202 253 315 371
#
# _framework density 19.442698
#
# number of rings (size 3 to 8) (size 9 to 14) (size 15 to 20)
#    0.000    0.800    4.667    3.600    3.733    3.200 
#    0.000    0.000    0.000    3.200    5.200    0.000 
#    0.000    0.000    0.000    0.000    0.000    0.000 
#
# Total GULP energy -371867.007947 kJ/mol
# GULP energy per Si atom -12395.566932 kJ/mol
# Density = 1.939845 g / cm^3
# Si number density = 19.442698 Si / 1000 Ang^3
#
#
#
# Elastic Constant Matrix: (Units=GPa)
#
#
# Indices 1 2 3 4 5 6 
#
# 1 119.4570 54.8068 43.2022 0.0001 6.2472 0.0000
# 2 54.8068 124.2106 32.0631 0.0000 -0.3242 0.0000
# 3 43.2022 32.0631 84.7897 0.0000 -0.7832 0.0000
# 4 0.0001 0.0000 0.0000 757.9931 0.0000 164.3516
# 5 6.2472 -0.3242 -0.7832 0.0000 35.7419 0.0000
# 6 0.0000 0.0000 0.0000 164.3516 0.0000 59.7523
#
#
#
# Elastic Compliance Matrix: (Units=1/GPa)
#
#
# Indices 1 2 3 4 5 6 
#
# 1 0.012048 -0.004136 -0.004596 0.000000 -0.002244 0.000000
# 2 -0.004136 0.010341 -0.001796 0.000000 0.000777 0.000000
# 3 -0.004596 -0.001796 0.014825 0.000000 0.001112 0.000000
# 4 0.000000 0.000000 0.000000 0.003269 0.000000 -0.008991
# 5 -0.002244 0.000777 0.001112 0.000000 0.028402 0.000000
# 6 0.000000 0.000000 0.000000 -0.008991 0.000000 0.041465
#
#
# Mechanical properties :
#
#
# Convention : Reuss Voigt Hill
#
# Bulk Modulus (GPa) = 61.88320 65.40020 63.64170
# Shear Modulus (GPa) = 36.55211 183.92316 110.23763
#
# Velocity S-wave (km/s) = 4.34059 9.73668 7.53802
# Velocity P-wave (km/s) = 7.55106 12.65363 10.41952
#
# Compressibility (1/GPa) = 0.01615947
#
# Stress axis : x y z
#
# Youngs Moduli (GPa) = 83.00115 96.69916 67.45402
#
# Poissons Ratio (x) = 0.39992 0.30999
# Poissons Ratio (y) = 0.34326 0.12116
# Poissons Ratio (z) = 0.38144 0.17369
#
# Static dielectric constant tensor:
#      x y z
#    x 3.804480 0.000000 -0.018430 
#    y 0.000000 3.578440 0.000000 
#    z -0.018430 0.000000 3.772580 
# 
# 
# High freq. dielectric constant tensor:
#      x y z
#    x 1.771080 0.000000 0.006540 
#    y 0.000000 1.725230 0.000000 
#    z 0.006540 0.000000 1.770820 
# 
# From -- ./inp_files/99751.got.cif
#   From: 2010.06.25/outbox.cif.g09.slc.cpg/sg15_50_cif.got.tgz:99751.got - 2010.06.28 07:06:18.
