data_PCOD8151750
_publ_section_title
;
Structure prediction by ZEFSAII (Michael W. Deem and Ramdas Pophale) SiO2 
 PCOD8151750
Probable space group: C 2/C
;
_chemical_formula_sum "Si O2"
_cell_formula_units_Z 56
_cell_length_a 9.398783
_cell_length_b 10.115270
_cell_length_c 30.528125
_cell_angle_alpha 90.000000
_cell_angle_beta 58.709300
_cell_angle_gamma 90.000000
_cell_volume 2480.180155
_symmetry_space_group_name_H-M "C 2/C"
_symmetry_group_IT_number 15
_symmetry_cell_setting 'monoclinic'
loop_
_space_group_symop_operation_xyz
x,y,z
-x,y,1/2-z
-x,-y,-z
x,-y,1/2+z
1/2+x,1/2+y,z
1/2-x,1/2+y,1/2-z
1/2-x,1/2-y,-z
1/2+x,1/2-y,1/2+z
loop_
_atom_site_type_symbol
_atom_site_label
_atom_site_fract_x
_atom_site_fract_y
_atom_site_fract_z
Si Si1 0.795104 0.573541 0.872380
Si Si2 0.205385 0.785257 0.916813
Si Si3 0.890558 0.635494 0.725151
Si Si4 0.982027 0.907087 0.376526
Si Si5 0.647969 0.434311 0.004859
Si Si6 0.907990 0.932922 0.718453
Si Si7 0.860677 0.338603 0.451917
O O1 0.714709 0.430094 0.894305
O O2 0.675705 0.634805 0.853538
O O3 0.786847 0.672692 0.914726
O O4 0.988701 0.564469 0.829086
O O5 0.376314 0.714976 0.874952
O O6 0.053577 0.700231 0.921721
O O7 0.182760 0.794427 0.973907
O O8 0.838217 0.785383 0.719342
O O9 0.735508 0.541724 0.756915
O O10 0.000000 0.652588 0.750000
O O11 0.900464 0.939758 0.436681
O O12 0.973549 0.024899 0.341660
O O13 0.500000 0.500000 0.000000
O O14 0.825475 0.510892 0.972631
O O15 0.000000 0.939075 0.750000
O O16 0.750000 0.250000 0.500000
#
# Coordination Sequence:
#
# PCOD8151750 Si02
#       7
#     8   8   8   8   8   8   8
#     4  11  25  43  70 100 138 181 229 281 350 424
#     4  11  25  42  67 107 138 184 232 283 352 417
#     4  11  26  49  74 101 137 184 233 295 363 415
#     4  12  24  46  72  98 141 188 229 290 358 411
#     4  11  21  43  65 100 142 180 234 281 342 427
#     4  11  29  48  70 108 139 176 242 299 349 426
#     4  11  21  39  68  98 140 180 225 280 337 419
#
# _framework density 22.579004000000001
#
# number of rings (size 3 to 8) (size 9 to 14) (size 15 to 20)
#    0.000    0.857    5.714    0.429    8.000    1.143 
#    2.571    0.000    0.000    0.000    0.000    0.000 
#    0.000    0.000    0.000    0.000    0.000    0.000 
#
# Total GULP energy -346877.081470 kJ/mol
# GULP energy per Si atom -12388.467195 kJ/mol
# Density = 2.252761 g / cm^3
# Si number density = 22.579004 Si / 1000 Ang^3
#
#
#
# Elastic Constant Matrix: (Units=GPa)
#
#
# Indices 1 2 3 4 5 6 
#
# 1 113.7583 62.1199 30.3000 0.0000 -8.4775 0.0000
# 2 62.1199 116.6273 38.9990 0.0000 -20.3515 0.0000
# 3 30.3000 38.9990 100.4420 0.0000 -2.6509 0.0000
# 4 0.0000 0.0000 0.0000 22.5193 0.0000 -4.1582
# 5 -8.4775 -20.3515 -2.6509 0.0000 37.7418 0.0000
# 6 0.0000 0.0000 0.0000 -4.1582 0.0000 33.6448
#
#
#
# Elastic Compliance Matrix: (Units=1/GPa)
#
#
# Indices 1 2 3 4 5 6 
#
# 1 0.012575 -0.006374 -0.001337 0.000000 -0.000706 0.000000
# 2 -0.006374 0.014151 -0.003414 0.000000 0.005959 0.000000
# 3 -0.001337 -0.003414 0.011650 0.000000 -0.001323 0.000000
# 4 0.000000 0.000000 0.000000 0.045443 0.000000 0.005616
# 5 -0.000706 0.005959 -0.001323 0.000000 0.029458 0.000000
# 6 0.000000 0.000000 0.000000 0.005616 0.000000 0.030416
#
#
# Mechanical properties :
#
#
# Convention : Reuss Voigt Hill
#
# Bulk Modulus (GPa) = 62.01599 65.96282 63.98940
# Shear Modulus (GPa) = 29.18537 32.07511 30.63024
#
# Velocity S-wave (km/s) = 3.59916 3.77314 3.68717
# Velocity P-wave (km/s) = 6.69311 6.94692 6.82120
#
# Compressibility (1/GPa) = 0.01612487
#
# Stress axis : x y z
#
# Youngs Moduli (GPa) = 79.52512 70.66726 85.83574
#
# Poissons Ratio (x) = 0.45042 0.11478
# Poissons Ratio (y) = 0.50688 0.29307
# Poissons Ratio (z) = 0.10634 0.24128
#
# Static dielectric constant tensor:
#      x y z
#    x 9.215760 0.000000 -2.978430 
#    y 0.000000 4.740220 0.000000 
#    z -2.978430 0.000000 6.490270 
# 
# 
# High freq. dielectric constant tensor:
#      x y z
#    x 1.886190 0.000000 0.003040 
#    y 0.000000 1.877490 0.000000 
#    z 0.003040 0.000000 1.909570 
# 
# From -- ./inp_files/307387.got.cif
#   From: 2010.06.25/outbox.cif.g09.slc.cpg/sg15_154_cif.got.tgz:307387.got - 2010.06.28 07:06:18.
