data_PCOD8151085
_publ_section_title
;
Structure prediction by ZEFSAII (Michael W. Deem and Ramdas Pophale) SiO2 
 PCOD8151085
Probable space group: C 2/C
;
_chemical_formula_sum "Si O2"
_cell_formula_units_Z 48
_cell_length_a 19.040622
_cell_length_b 15.075666
_cell_length_c 19.285327
_cell_angle_alpha 90.000000
_cell_angle_beta 27.606557
_cell_angle_gamma 90.000000
_cell_volume 2565.300735
_symmetry_space_group_name_H-M "C 2/C"
_symmetry_group_IT_number 15
_symmetry_cell_setting 'monoclinic'
loop_
_space_group_symop_operation_xyz
x,y,z
-x,y,1/2-z
-x,-y,-z
x,-y,1/2+z
1/2+x,1/2+y,z
1/2-x,1/2+y,1/2-z
1/2-x,1/2-y,-z
1/2+x,1/2-y,1/2+z
loop_
_atom_site_type_symbol
_atom_site_label
_atom_site_fract_x
_atom_site_fract_y
_atom_site_fract_z
Si Si1 0.887184 0.791065 0.736900
Si Si2 0.073790 0.254517 0.953396
Si Si3 0.097704 0.425622 0.380141
Si Si4 0.437443 0.428697 0.107994
Si Si5 0.039144 0.964755 0.641351
Si Si6 0.132475 0.391468 0.186120
O O1 0.750027 0.784079 0.800326
O O2 0.866223 0.716289 0.814509
O O3 0.043315 0.776075 0.558809
O O4 0.907572 0.889009 0.749789
O O5 0.033581 0.173558 0.937392
O O6 0.964404 0.335452 0.031484
O O7 0.260589 0.443785 0.268224
O O8 0.099654 0.424230 0.294031
O O9 0.000000 0.500000 0.500000
O O10 0.515697 0.451215 0.112047
O O11 0.500000 0.500000 0.000000
O O12 0.208981 0.928084 0.481771
O O13 0.000000 0.005194 0.750000
O O14 0.000000 0.424500 0.250000
#
# Coordination Sequence:
#
# PCOD8151085 Si02
#       6
#     8   8   8   8   8   8
#     4  11  19  38  58  90 126 164 204 248 319 377
#     4  11  21  37  63  92 122 162 206 261 314 361
#     4  11  24  39  64  95 119 166 216 262 318 368
#     4  12  21  43  62  87 130 164 213 262 304 373
#     4  12  26  38  63  90 129 177 204 257 323 375
#     4  11  24  39  54  91 135 162 205 258 316 390
#
# _framework density 18.711255999999999
#
# number of rings (size 3 to 8) (size 9 to 14) (size 15 to 20)
#    0.000    0.667    8.333    1.500    7.000    1.333 
#    0.000    0.000    0.000    2.000    0.000    0.000 
#    0.000    0.000    0.000    0.000    0.000    0.000 
#
# Total GULP energy -297392.575184 kJ/mol
# GULP energy per Si atom -12391.357299 kJ/mol
# Density = 1.866867 g / cm^3
# Si number density = 18.711256 Si / 1000 Ang^3
#
#
#
# Elastic Constant Matrix: (Units=GPa)
#
#
# Indices 1 2 3 4 5 6 
#
# 1 101.7051 54.0454 48.7816 0.0007 -1.1085 -0.0004
# 2 54.0454 95.7554 61.8292 -0.0004 1.0285 -0.0003
# 3 48.7816 61.8292 115.4071 -0.0011 -3.5494 -0.0003
# 4 0.0007 -0.0004 -0.0011 30.5476 -0.0001 -3.6427
# 5 -1.1085 1.0285 -3.5494 -0.0001 36.0705 0.0003
# 6 -0.0004 -0.0003 -0.0003 -3.6427 0.0003 27.1392
#
#
#
# Elastic Compliance Matrix: (Units=1/GPa)
#
#
# Indices 1 2 3 4 5 6 
#
# 1 0.014572 -0.006511 -0.002660 -0.000001 0.000372 0.000000
# 2 -0.006511 0.018937 -0.007439 0.000000 -0.001472 0.000000
# 3 -0.002660 -0.007439 0.013820 0.000000 0.001490 0.000000
# 4 -0.000001 0.000000 0.000000 0.033268 0.000000 0.004465
# 5 0.000372 -0.001472 0.001490 0.000000 0.027924 0.000000
# 6 0.000000 0.000000 0.000000 0.004465 0.000000 0.037446
#
#
# Mechanical properties :
#
#
# Convention : Reuss Voigt Hill
#
# Bulk Modulus (GPa) = 70.86932 71.35334 71.11133
# Shear Modulus (GPa) = 27.19009 28.63223 27.91116
#
# Velocity S-wave (km/s) = 3.81614 3.91604 3.86641
# Velocity P-wave (km/s) = 7.57461 7.65923 7.61704
#
# Compressibility (1/GPa) = 0.01411048
#
# Stress axis : x y z
#
# Youngs Moduli (GPa) = 68.62407 52.80594 72.35761
#
# Poissons Ratio (x) = 0.34384 0.19245
# Poissons Ratio (y) = 0.44683 0.53824
# Poissons Ratio (z) = 0.18252 0.39280
#
# Static dielectric constant tensor:
#      x y z
#    x 3.369090 0.000000 -0.036900 
#    y 0.000000 3.515460 0.000010 
#    z -0.036900 0.000010 3.692490 
# 
# 
# High freq. dielectric constant tensor:
#      x y z
#    x 1.703470 0.000000 -0.012650 
#    y 0.000000 1.712240 0.000000 
#    z -0.012650 0.000000 1.750000 
# 
# From -- ./inp_files/66421.got.cif
#   From: 2010.06.25/outbox.cif.g09.slc.cpg/sg15_34_cif.got.tgz:66421.got - 2010.06.28 07:06:18.
