data_PCOD8151463
_publ_section_title
;
Structure prediction by ZEFSAII (Michael W. Deem and Ramdas Pophale) SiO2 
 PCOD8151463
Probable space group: C 2/C
;
_chemical_formula_sum "Si O2"
_cell_formula_units_Z 36
_cell_length_a 6.514056
_cell_length_b 13.625558
_cell_length_c 20.874163
_cell_angle_alpha 90.000000
_cell_angle_beta 120.822372
_cell_angle_gamma 90.000000
_cell_volume 1591.060192
_symmetry_space_group_name_H-M "C 2/C"
_symmetry_group_IT_number 15
_symmetry_cell_setting 'monoclinic'
loop_
_space_group_symop_operation_xyz
x,y,z
-x,y,1/2-z
-x,-y,-z
x,-y,1/2+z
1/2+x,1/2+y,z
1/2-x,1/2+y,1/2-z
1/2-x,1/2-y,-z
1/2+x,1/2-y,1/2+z
loop_
_atom_site_type_symbol
_atom_site_label
_atom_site_fract_x
_atom_site_fract_y
_atom_site_fract_z
Si Si1 0.040572 0.272662 0.417869
Si Si2 0.829521 0.591584 0.983228
Si Si3 0.153050 0.138199 0.642414
Si Si4 0.405799 0.169140 0.135689
Si Si5 0.500000 0.011001 0.250000
O O1 0.250000 0.250000 0.500000
O O2 0.134866 0.320386 0.368343
O O3 0.862262 0.344556 0.425496
O O4 0.864546 0.179176 0.378004
O O5 0.540693 0.579331 0.933613
O O6 0.902305 0.646809 0.059429
O O7 0.000000 0.500000 0.000000
O O8 0.056962 0.230556 0.668237
O O9 0.265807 0.057661 0.707768
O O10 0.532268 0.079598 0.192591
#
# Coordination Sequence:
#
# PCOD8151463 Si02
#       5
#     8   8   8   8   4
#     4  11  20  42  78  99 130 177 236 308 348 399
#     4  11  23  42  73 108 134 178 245 299 352 414
#     4  11  25  48  70 104 143 185 240 292 359 420
#     4  11  25  47  68 105 141 183 240 295 352 422
#     4  12  30  44  70 104 148 200 226 272 366 450
#
# _framework density 22.626422999999999
#
# number of rings (size 3 to 8) (size 9 to 14) (size 15 to 20)
#    0.000    0.889    4.444    2.667    6.222    1.778 
#    0.000    4.444    0.000    0.000    0.000    0.000 
#    0.000    0.000    0.000    0.000    0.000    0.000 
#
# Total GULP energy -223073.630988 kJ/mol
# GULP energy per Si atom -12392.979499 kJ/mol
# Density = 2.257492 g / cm^3
# Si number density = 22.626423 Si / 1000 Ang^3
#
#
#
# Elastic Constant Matrix: (Units=GPa)
#
#
# Indices 1 2 3 4 5 6 
#
# 1 114.3682 48.4859 36.8833 0.0000 7.9109 0.0000
# 2 48.4859 141.5819 74.1132 0.0000 20.9085 0.0000
# 3 36.8833 74.1132 110.5701 0.0000 19.5193 0.0000
# 4 0.0000 0.0000 0.0000 54.1067 0.0000 7.0831
# 5 7.9109 20.9085 19.5193 0.0000 19.5180 0.0000
# 6 0.0000 0.0000 0.0000 7.0831 0.0000 36.6382
#
#
#
# Elastic Compliance Matrix: (Units=1/GPa)
#
#
# Indices 1 2 3 4 5 6 
#
# 1 0.010428 -0.002732 -0.001722 0.000000 0.000422 0.000000
# 2 -0.002732 0.012067 -0.006182 0.000000 -0.005637 0.000000
# 3 -0.001722 -0.006182 0.015143 0.000000 -0.007824 0.000000
# 4 0.000000 0.000000 0.000000 0.018962 0.000000 -0.003666
# 5 0.000422 -0.005637 -0.007824 0.000000 0.064927 0.000000
# 6 0.000000 0.000000 0.000000 -0.003666 0.000000 0.028003
#
#
# Mechanical properties :
#
#
# Convention : Reuss Voigt Hill
#
# Bulk Modulus (GPa) = 61.09920 76.16498 68.63209
# Shear Modulus (GPa) = 28.36766 35.85511 32.11139
#
# Velocity S-wave (km/s) = 3.54466 3.98509 3.77131
# Velocity P-wave (km/s) = 6.61928 7.41011 7.02583
#
# Compressibility (1/GPa) = 0.01636683
#
# Stress axis : x y z
#
# Youngs Moduli (GPa) = 95.89512 82.86894 66.03655
#
# Poissons Ratio (x) = 0.22642 0.11369
# Poissons Ratio (y) = 0.26201 0.40823
# Poissons Ratio (z) = 0.16510 0.51229
#
# Static dielectric constant tensor:
#      x y z
#    x 4.745420 0.000000 0.346020 
#    y 0.000000 4.038500 0.000000 
#    z 0.346020 0.000000 3.796210 
# 
# 
# High freq. dielectric constant tensor:
#      x y z
#    x 1.893060 0.000000 0.016170 
#    y 0.000000 1.894620 0.000000 
#    z 0.016170 0.000000 1.890990 
# 
# From -- ./inp_files/226500.got.cif
#   From: 2010.06.25/outbox.cif.g09.slc.cpg/sg15_114_cif.got.tgz:226500.got - 2010.06.28 07:06:18.
