data_PCOD8151242
_publ_section_title
;
Structure prediction by ZEFSAII (Michael W. Deem and Ramdas Pophale) SiO2 
 PCOD8151242
Probable space group: C 2/C
;
_chemical_formula_sum "Si O2"
_cell_formula_units_Z 44
_cell_length_a 21.426020
_cell_length_b 19.835348
_cell_length_c 12.831745
_cell_angle_alpha 90.000000
_cell_angle_beta 156.705745
_cell_angle_gamma 90.000000
_cell_volume 2156.564114
_symmetry_space_group_name_H-M "C 2/C"
_symmetry_group_IT_number 15
_symmetry_cell_setting 'monoclinic'
loop_
_space_group_symop_operation_xyz
x,y,z
-x,y,1/2-z
-x,-y,-z
x,-y,1/2+z
1/2+x,1/2+y,z
1/2-x,1/2+y,1/2-z
1/2-x,1/2-y,-z
1/2+x,1/2-y,1/2+z
loop_
_atom_site_type_symbol
_atom_site_label
_atom_site_fract_x
_atom_site_fract_y
_atom_site_fract_z
Si Si1 0.965174 0.836402 0.393059
Si Si2 0.895428 0.241331 0.988250
Si Si3 0.500000 0.991219 0.250000
Si Si4 0.279454 0.891545 0.792609
Si Si5 0.669860 0.907118 0.858249
Si Si6 0.456765 0.203072 0.071247
O O1 0.111727 0.884489 0.593150
O O2 0.960423 0.776480 0.300702
O O3 0.987167 0.797091 0.536331
O O4 0.804801 0.878732 0.142418
O O5 0.000000 0.229279 0.250000
O O6 0.871626 0.320364 0.930275
O O7 0.725492 0.205966 0.740044
O O8 0.631910 0.945346 0.502475
O O9 0.417451 0.032557 0.216664
O O10 0.255234 0.924446 0.639992
O O11 0.542885 0.850079 0.628572
O O12 0.500000 0.171809 0.250000
#
# Coordination Sequence:
#
# PCOD8151242 Si02
#       6
#     8   8   4   8   8   8
#     4  11  22  40  68  98 128 160 214 279 334 377
#     4  11  22  38  63  98 139 165 205 267 338 387
#     4  12  26  44  62  88 134 182 222 260 314 386
#     4  11  25  41  63  97 131 171 217 264 325 390
#     4  12  22  43  68  92 127 171 223 267 318 386
#     4  11  20  36  66  99 125 162 211 270 328 387
#
# _framework density 20.402825
#
# number of rings (size 3 to 8) (size 9 to 14) (size 15 to 20)
#    0.000    0.727    5.455    3.818    0.000    5.091 
#    0.000    1.818    0.000    0.000    0.000    0.000 
#    0.000    0.000    0.000    0.000    0.000    0.000 
#
# Total GULP energy -272707.500523 kJ/mol
# GULP energy per Si atom -12395.795478 kJ/mol
# Density = 2.035639 g / cm^3
# Si number density = 20.402825 Si / 1000 Ang^3
#
#
#
# Elastic Constant Matrix: (Units=GPa)
#
#
# Indices 1 2 3 4 5 6 
#
# 1 107.3645 40.4678 60.8101 0.0000 9.2331 0.0000
# 2 40.4678 97.9257 65.4983 0.0000 15.4639 0.0000
# 3 60.8101 65.4983 133.0437 0.0000 2.5970 0.0000
# 4 0.0000 0.0000 0.0000 72.0221 0.0000 29.6473
# 5 9.2331 15.4639 2.5970 0.0000 36.1040 0.0000
# 6 0.0000 0.0000 0.0000 29.6473 0.0000 25.7400
#
#
#
# Elastic Compliance Matrix: (Units=1/GPa)
#
#
# Indices 1 2 3 4 5 6 
#
# 1 0.013009 -0.001594 -0.005117 0.000000 -0.002276 0.000000
# 2 -0.001594 0.016835 -0.007437 0.000000 -0.006268 0.000000
# 3 -0.005117 -0.007437 0.013447 0.000000 0.003527 0.000000
# 4 0.000000 0.000000 0.000000 0.026403 0.000000 -0.030411
# 5 -0.002276 -0.006268 0.003527 0.000000 0.030711 0.000000
# 6 0.000000 0.000000 0.000000 -0.030411 0.000000 0.073878
#
#
# Mechanical properties :
#
#
# Convention : Reuss Voigt Hill
#
# Bulk Modulus (GPa) = 66.68696 74.65404 70.67050
# Shear Modulus (GPa) = 24.08760 38.21039 31.14900
#
# Velocity S-wave (km/s) = 3.43972 4.33228 3.91154
# Velocity P-wave (km/s) = 6.96647 7.85457 7.42381
#
# Compressibility (1/GPa) = 0.01499543
#
# Stress axis : x y z
#
# Youngs Moduli (GPa) = 76.87193 59.40169 74.36432
#
# Poissons Ratio (x) = 0.09469 0.38049
# Poissons Ratio (y) = 0.12254 0.55303
# Poissons Ratio (z) = 0.39332 0.44176
#
# Static dielectric constant tensor:
#      x y z
#    x 3.915620 0.000000 0.204050 
#    y 0.000000 3.554020 0.000000 
#    z 0.204050 0.000000 3.606690 
# 
# 
# High freq. dielectric constant tensor:
#      x y z
#    x 1.813860 0.000000 0.010800 
#    y 0.000000 1.779890 0.000000 
#    z 0.010800 0.000000 1.793990 
# 
# From -- ./inp_files/78294.got.cif
#   From: 2010.06.25/outbox.cif.g09.slc.cpg/sg15_40_cif.got.tgz:78294.got - 2010.06.28 07:06:18.
