data_PCOD8151294
_publ_section_title
;
Structure prediction by ZEFSAII (Michael W. Deem and Ramdas Pophale) SiO2 
 PCOD8151294
Probable space group: C 2/C
;
_chemical_formula_sum "Si O2"
_cell_formula_units_Z 40
_cell_length_a 20.209411
_cell_length_b 12.032079
_cell_length_c 8.821589
_cell_angle_alpha 90.000000
_cell_angle_beta 114.928319
_cell_angle_gamma 90.000000
_cell_volume 1945.224850
_symmetry_space_group_name_H-M "C 2/C"
_symmetry_group_IT_number 15
_symmetry_cell_setting 'monoclinic'
loop_
_space_group_symop_operation_xyz
x,y,z
-x,y,1/2-z
-x,-y,-z
x,-y,1/2+z
1/2+x,1/2+y,z
1/2-x,1/2+y,1/2-z
1/2-x,1/2-y,-z
1/2+x,1/2-y,1/2+z
loop_
_atom_site_type_symbol
_atom_site_label
_atom_site_fract_x
_atom_site_fract_y
_atom_site_fract_z
Si Si1 0.194802 0.438883 0.289378
Si Si2 0.196855 0.760695 0.595145
Si Si3 0.822259 0.349267 0.899383
Si Si4 0.417941 0.581345 0.647337
Si Si5 0.361178 0.394520 0.415576
O O1 0.171145 0.360258 0.126564
O O2 0.165280 0.400822 0.423380
O O3 0.160176 0.559274 0.214033
O O4 0.282443 0.442114 0.387646
O O5 0.250000 0.750000 0.500000
O O6 0.239465 0.810473 0.782979
O O7 0.124324 0.831092 0.498986
O O8 0.872276 0.238746 0.938509
O O9 0.500000 0.624583 0.750000
O O10 0.420605 0.458753 0.574697
O O11 0.372626 0.570046 0.755418
#
# Coordination Sequence:
#
# PCOD8151294 Si02
#       5
#     8   8   8   8   8
#     4  11  21  36  64  93 126 155 210 267 309 354
#     4  11  20  38  62  90 125 164 205 261 305 363
#     4  11  22  36  63  94 123 160 206 266 310 359
#     4  12  25  40  61  89 130 167 203 248 310 373
#     4  11  23  39  58  90 128 161 209 247 310 365
#
# _framework density 20.563174
#
# number of rings (size 3 to 8) (size 9 to 14) (size 15 to 20)
#    0.000    0.800    6.000    5.400    2.800    0.000 
#    0.000    0.000    0.000    2.400    0.000    0.000 
#    0.000    0.000    0.000    0.000    0.000    0.000 
#
# Total GULP energy -247910.328807 kJ/mol
# GULP energy per Si atom -12395.516440 kJ/mol
# Density = 2.051637 g / cm^3
# Si number density = 20.563174 Si / 1000 Ang^3
#
#
#
# Elastic Constant Matrix: (Units=GPa)
#
#
# Indices 1 2 3 4 5 6 
#
# 1 34.0451 19.1904 23.1227 0.0000 16.0908 0.0000
# 2 19.1904 141.7944 44.2835 0.0000 11.8554 0.0000
# 3 23.1227 44.2835 84.3707 0.0000 -1.2366 0.0000
# 4 0.0000 0.0000 0.0000 39.3748 0.0000 4.0038
# 5 16.0908 11.8554 -1.2366 0.0000 29.3600 0.0000
# 6 0.0000 0.0000 0.0000 4.0038 0.0000 17.0348
#
#
#
# Elastic Compliance Matrix: (Units=1/GPa)
#
#
# Indices 1 2 3 4 5 6 
#
# 1 0.054030 -0.000025 -0.015238 0.000000 -0.030243 0.000000
# 2 -0.000025 0.008832 -0.004684 0.000000 -0.003750 0.000000
# 3 -0.015238 -0.004684 0.018649 0.000000 0.011028 0.000000
# 4 0.000000 0.000000 0.000000 0.026019 0.000000 -0.006115
# 5 -0.030243 -0.003750 0.011028 0.000000 0.052613 0.000000
# 6 0.000000 0.000000 0.000000 -0.006115 0.000000 0.060141
#
#
# Mechanical properties :
#
#
# Convention : Reuss Voigt Hill
#
# Bulk Modulus (GPa) = 24.02833 48.15593 36.09213
# Shear Modulus (GPa) = 18.24497 28.72816 23.48657
#
# Velocity S-wave (km/s) = 2.98193 3.74179 3.38326
# Velocity P-wave (km/s) = 4.85452 6.49133 5.73166
#
# Compressibility (1/GPa) = 0.04161754
#
# Stress axis : x y z
#
# Youngs Moduli (GPa) = 18.50838 113.22235 53.62360
#
# Poissons Ratio (x) = 0.00282 0.81709
# Poissons Ratio (y) = 0.00046 0.25116
# Poissons Ratio (z) = 0.28202 0.53032
#
# Static dielectric constant tensor:
#      x y z
#    x 3.115860 0.000000 -0.131230 
#    y 0.000000 4.267140 0.000000 
#    z -0.131230 0.000000 3.844890 
# 
# 
# High freq. dielectric constant tensor:
#      x y z
#    x 1.735220 0.000000 -0.023630 
#    y 0.000000 1.825670 0.000000 
#    z -0.023630 0.000000 1.818870 
# 
# From -- ./inp_files/54057.got.cif
#   From: 2010.06.25/outbox.cif.g09.slc.cpg/sg15_28_cif.got.tgz:54057.got - 2010.06.28 07:06:18.
