data_PCOD8151955
_publ_section_title
;
Structure prediction by ZEFSAII (Michael W. Deem and Ramdas Pophale) SiO2 
 PCOD8151955
Probable space group: C 2/C
;
_chemical_formula_sum "Si O2"
_cell_formula_units_Z 56
_cell_length_a 17.050749
_cell_length_b 15.813178
_cell_length_c 20.514820
_cell_angle_alpha 90.000000
_cell_angle_beta 28.898704
_cell_angle_gamma 90.000000
_cell_volume 2673.089502
_symmetry_space_group_name_H-M "C 2/C"
_symmetry_group_IT_number 15
_symmetry_cell_setting 'monoclinic'
loop_
_space_group_symop_operation_xyz
x,y,z
-x,y,1/2-z
-x,-y,-z
x,-y,1/2+z
1/2+x,1/2+y,z
1/2-x,1/2+y,1/2-z
1/2-x,1/2-y,-z
1/2+x,1/2-y,1/2+z
loop_
_atom_site_type_symbol
_atom_site_label
_atom_site_fract_x
_atom_site_fract_y
_atom_site_fract_z
Si Si1 0.354804 0.396160 0.570276
Si Si2 0.895954 0.701687 0.763870
Si Si3 0.255288 0.441934 0.418529
Si Si4 0.462089 0.331720 0.937011
Si Si5 0.951529 0.506879 0.711610
Si Si6 0.508806 0.493602 0.141361
Si Si7 0.189592 0.755137 0.116130
O O1 0.436714 0.368865 0.577169
O O2 0.222143 0.468594 0.680062
O O3 0.492085 0.437565 0.423830
O O4 0.270982 0.314618 0.601505
O O5 0.945785 0.607210 0.708510
O O6 0.000000 0.733186 0.750000
O O7 0.932226 0.761349 0.676291
O O8 0.706353 0.709578 0.918337
O O9 0.329803 0.496558 0.304414
O O10 0.366165 0.447706 0.401767
O O11 0.258904 0.345255 0.391332
O O12 0.076199 0.472292 0.566913
O O13 0.426817 0.411141 0.915403
O O14 0.000000 0.479965 0.750000
O O15 0.000000 0.739273 0.250000
O O16 0.250000 0.750000 0.000000
#
# Coordination Sequence:
#
# PCOD8151955 Si02
#       7
#     8   8   8   8   8   8   8
#     4  12  24  44  69  95 145 184 217 275 350 413
#     4  11  26  47  74  99 131 173 235 288 338 406
#     4  11  22  38  70 104 132 176 238 282 322 398
#     4  12  28  46  71 102 135 179 223 287 354 403
#     4  11  21  43  70 101 134 183 228 275 334 402
#     4  11  22  42  66  97 136 182 224 276 339 403
#     4  12  21  38  63 101 135 175 224 269 322 393
#
# _framework density 20.949542999999998
#
# number of rings (size 3 to 8) (size 9 to 14) (size 15 to 20)
#    0.000    0.571    5.714    3.000    4.000    3.429 
#    0.000    0.714    0.000    0.000    0.000    0.000 
#    0.000    0.000    0.000    0.000    0.000    0.000 
#
# Total GULP energy -347327.606614 kJ/mol
# GULP energy per Si atom -12404.557379 kJ/mol
# Density = 2.090186 g / cm^3
# Si number density = 20.949543 Si / 1000 Ang^3
#
#
#
# Elastic Constant Matrix: (Units=GPa)
#
#
# Indices 1 2 3 4 5 6 
#
# 1 87.8589 35.8920 51.4377 -0.0007 5.8974 0.0038
# 2 35.8920 108.6809 38.5126 0.0058 3.0759 0.0005
# 3 51.4377 38.5126 160.6240 0.0076 1.0083 0.0018
# 4 -0.0007 0.0058 0.0076 39.7408 0.0082 3.6384
# 5 5.8974 3.0759 1.0083 0.0082 16.2540 -0.0110
# 6 0.0038 0.0005 0.0018 3.6384 -0.0110 19.2958
#
#
#
# Elastic Compliance Matrix: (Units=1/GPa)
#
#
# Indices 1 2 3 4 5 6 
#
# 1 0.015548 -0.003549 -0.004098 0.000003 -0.004715 -0.000006
# 2 -0.003549 0.010916 -0.001477 -0.000001 -0.000687 0.000000
# 3 -0.004098 -0.001477 0.007884 -0.000002 0.001277 0.000001
# 4 0.000003 -0.000001 -0.000002 0.025605 -0.000017 -0.004828
# 5 -0.004715 -0.000687 0.001277 -0.000017 0.063285 0.000040
# 6 -0.000006 0.000000 0.000001 -0.004828 0.000040 0.052735
#
#
# Mechanical properties :
#
#
# Convention : Reuss Voigt Hill
#
# Bulk Modulus (GPa) = 62.11110 67.64981 64.88046
# Shear Modulus (GPa) = 25.05175 30.47957 27.76566
#
# Velocity S-wave (km/s) = 3.46181 3.81846 3.64450
# Velocity P-wave (km/s) = 6.75952 7.19741 6.98190
#
# Compressibility (1/GPa) = 0.01610018
#
# Stress axis : x y z
#
# Youngs Moduli (GPa) = 64.31855 91.60943 126.83611
#
# Poissons Ratio (x) = 0.32511 0.51983
# Poissons Ratio (y) = 0.22826 0.18728
# Poissons Ratio (z) = 0.26360 0.13526
#
# Static dielectric constant tensor:
#      x y z
#    x 3.645810 -0.000010 0.148480 
#    y -0.000010 3.884650 0.000020 
#    z 0.148480 0.000020 4.109050 
# 
# 
# High freq. dielectric constant tensor:
#      x y z
#    x 1.794820 0.000000 0.006150 
#    y 0.000000 1.836510 0.000000 
#    z 0.006150 0.000000 1.838250 
# 
# From -- ./inp_files/249231.got.cif
#   From: 2010.06.25/outbox.cif.g09.slc.cpg/sg15_125_cif.got.tgz:249231.got - 2010.06.28 07:06:18.
