data_PCOD8151139
_publ_section_title
;
Structure prediction by ZEFSAII (Michael W. Deem and Ramdas Pophale) SiO2 
 PCOD8151139
Probable space group: C 2/C
;
_chemical_formula_sum "Si O2"
_cell_formula_units_Z 56
_cell_length_a 14.378402
_cell_length_b 13.075951
_cell_length_c 13.719256
_cell_angle_alpha 90.000000
_cell_angle_beta 95.634203
_cell_angle_gamma 90.000000
_cell_volume 2566.913844
_symmetry_space_group_name_H-M "C 2/C"
_symmetry_group_IT_number 15
_symmetry_cell_setting 'monoclinic'
loop_
_space_group_symop_operation_xyz
x,y,z
-x,y,1/2-z
-x,-y,-z
x,-y,1/2+z
1/2+x,1/2+y,z
1/2-x,1/2+y,1/2-z
1/2-x,1/2-y,-z
1/2+x,1/2-y,1/2+z
loop_
_atom_site_type_symbol
_atom_site_label
_atom_site_fract_x
_atom_site_fract_y
_atom_site_fract_z
Si Si1 0.831331 0.304118 0.287344
Si Si2 0.421020 0.461762 0.562660
Si Si3 0.000000 0.162988 0.250000
Si Si4 0.226317 0.526793 0.574250
Si Si5 0.143952 0.759474 0.020173
Si Si6 0.676310 0.844432 0.707285
Si Si7 0.612972 0.919809 0.393257
Si Si8 0.000000 0.542894 0.250000
O O1 0.926069 0.238306 0.294411
O O2 0.819891 0.371153 0.384685
O O3 0.749156 0.219388 0.278829
O O4 0.826836 0.383958 0.195626
O O5 0.500000 0.500000 0.500000
O O6 0.455913 0.414201 0.667339
O O7 0.337757 0.545427 0.568183
O O8 0.378172 0.375403 0.491816
O O9 0.226056 0.432222 0.649496
O O10 0.172236 0.496270 0.468793
O O11 0.125144 0.733845 0.130029
O O12 0.250000 0.750000 0.000000
O O13 0.082476 0.682875 0.946927
O O14 0.594401 0.891941 0.763639
O O15 0.514674 0.971725 0.347667
#
# Coordination Sequence:
#
# PCOD8151139 Si02
#       8
#     8   8   4   8   8   8   8   4
#     4  12  23  44  75  98 142 187 237 294 351 423
#     4  12  26  43  68 103 139 182 238 293 350 422
#     4  12  25  46  71 106 132 190 243 282 357 436
#     4  11  24  44  72 104 137 190 233 291 354 418
#     4  11  19  42  70  91 130 188 229 270 351 428
#     4  11  23  42  67  98 138 179 232 280 350 421
#     4  11  22  43  70 101 134 181 241 280 355 419
#     4  12  27  40  69 108 138 174 231 308 349 402
#
# _framework density 21.816081000000001
#
# number of rings (size 3 to 8) (size 9 to 14) (size 15 to 20)
#    0.000    0.571    8.571    0.429    0.000    8.000 
#    0.000    1.429    0.000    0.000    0.000    0.000 
#    0.000    0.000    0.000    0.000    0.000    0.000 
#
# Total GULP energy -346970.179603 kJ/mol
# GULP energy per Si atom -12391.792129 kJ/mol
# Density = 2.176643 g / cm^3
# Si number density = 21.816081 Si / 1000 Ang^3
#
#
#
# Elastic Constant Matrix: (Units=GPa)
#
#
# Indices 1 2 3 4 5 6 
#
# 1 126.9351 52.1982 35.2311 0.0000 -0.0095 0.0000
# 2 52.1982 79.0052 26.6938 0.0000 7.3696 0.0000
# 3 35.2311 26.6938 65.6650 0.0000 11.5252 0.0000
# 4 0.0000 0.0000 0.0000 26.2815 0.0000 -8.3302
# 5 -0.0095 7.3696 11.5252 0.0000 31.1025 0.0000
# 6 0.0000 0.0000 0.0000 -8.3302 0.0000 41.9621
#
#
#
# Elastic Compliance Matrix: (Units=1/GPa)
#
#
# Indices 1 2 3 4 5 6 
#
# 1 0.011772 -0.006665 -0.004155 0.000000 0.003122 0.000000
# 2 -0.006665 0.018500 -0.003395 0.000000 -0.003127 0.000000
# 3 -0.004155 -0.003395 0.019998 0.000000 -0.006607 0.000000
# 4 0.000000 0.000000 0.000000 0.040604 0.000000 0.008061
# 5 0.003122 -0.003127 -0.006607 0.000000 0.035342 0.000000
# 6 0.000000 0.000000 0.000000 0.008061 0.000000 0.025431
#
#
# Mechanical properties :
#
#
# Convention : Reuss Voigt Hill
#
# Bulk Modulus (GPa) = 45.78917 55.53906 50.66412
# Shear Modulus (GPa) = 26.68674 30.36805 28.52739
#
# Velocity S-wave (km/s) = 3.50131 3.73500 3.62004
# Velocity P-wave (km/s) = 6.11390 6.64180 6.38331
#
# Compressibility (1/GPa) = 0.02183923
#
# Stress axis : x y z
#
# Youngs Moduli (GPa) = 84.94458 54.05352 50.00540
#
# Poissons Ratio (x) = 0.36029 0.20776
# Poissons Ratio (y) = 0.56619 0.16979
# Poissons Ratio (z) = 0.35292 0.18354
#
# Static dielectric constant tensor:
#      x y z
#    x -5.185180 0.000000 12.296580 
#    y 0.000000 4.247720 0.000000 
#    z 12.296580 0.000000 -12.316960 
# 
# 
# High freq. dielectric constant tensor:
#      x y z
#    x 1.853050 0.000000 0.014240 
#    y 0.000000 1.857040 0.000000 
#    z 0.014240 0.000000 1.850400 
# 
# From -- ./inp_files/152661.got.cif
#   From: 2010.06.25/outbox.cif.g09.slc.cpg/sg15_77_cif.got.tgz:152661.got - 2010.06.28 07:06:18.
