data_PCOD8151773
_publ_section_title
;
Structure prediction by ZEFSAII (Michael W. Deem and Ramdas Pophale) SiO2 
 PCOD8151773
Probable space group: C 2/C
;
_chemical_formula_sum "Si O2"
_cell_formula_units_Z 52
_cell_length_a 17.355728
_cell_length_b 9.258512
_cell_length_c 17.825157
_cell_angle_alpha 90.000000
_cell_angle_beta 122.966527
_cell_angle_gamma 90.000000
_cell_volume 2403.108934
_symmetry_space_group_name_H-M "C 2/C"
_symmetry_group_IT_number 15
_symmetry_cell_setting 'monoclinic'
loop_
_space_group_symop_operation_xyz
x,y,z
-x,y,1/2-z
-x,-y,-z
x,-y,1/2+z
1/2+x,1/2+y,z
1/2-x,1/2+y,1/2-z
1/2-x,1/2-y,-z
1/2+x,1/2-y,1/2+z
loop_
_atom_site_type_symbol
_atom_site_label
_atom_site_fract_x
_atom_site_fract_y
_atom_site_fract_z
Si Si1 0.903468 0.762868 0.432561
Si Si2 0.000000 0.127648 0.750000
Si Si3 0.725575 0.799684 0.760706
Si Si4 0.826306 0.457243 0.996955
Si Si5 0.721634 0.486329 0.579277
Si Si6 0.417251 0.735275 0.556623
Si Si7 0.816548 0.995573 0.704238
O O1 0.863950 0.675785 0.339308
O O2 0.895402 0.667166 0.503913
O O3 0.008325 0.800022 0.468901
O O4 0.845289 0.908967 0.410570
O O5 0.042916 0.226822 0.837956
O O6 0.076946 0.026850 0.753627
O O7 0.715932 0.892063 0.831453
O O8 0.736694 0.631811 0.786834
O O9 0.812774 0.859312 0.759437
O O10 0.734343 0.455446 0.898887
O O11 0.792173 0.424741 0.063705
O O12 0.879788 0.606646 0.021600
O O13 0.664060 0.379809 0.495061
#
# Coordination Sequence:
#
# PCOD8151773 Si02
#       7
#     8   4   8   8   8   8   8
#     4  11  25  41  62  92 130 159 200 255 309 362
#     4  12  22  40  62  96 118 160 212 260 292 360
#     4  11  21  40  64  90 121 167 202 246 308 369
#     4  11  24  41  63  92 124 161 202 257 306 363
#     4  12  22  41  66  91 119 167 208 247 305 365
#     4  12  23  39  66  90 124 162 210 252 300 362
#     4  11  22  41  63  89 125 161 205 252 306 362
#
# _framework density 21.638636999999999
#
# number of rings (size 3 to 8) (size 9 to 14) (size 15 to 20)
#    0.000    0.615    6.154    2.769    0.000    0.000 
#    0.000    0.000    0.000    1.846    0.000    0.000 
#    0.000    0.000    0.000    0.000    0.000    0.000 
#
# Total GULP energy -322409.953021 kJ/mol
# GULP energy per Si atom -12400.382809 kJ/mol
# Density = 2.158939 g / cm^3
# Si number density = 21.638637 Si / 1000 Ang^3
#
#
#
# Elastic Constant Matrix: (Units=GPa)
#
#
# Indices 1 2 3 4 5 6 
#
# 1 98.6185 25.4919 8.6811 0.0000 -14.0344 0.0000
# 2 25.4919 71.8916 10.7838 0.0000 -4.9006 0.0000
# 3 8.6811 10.7838 82.8947 0.0000 -17.1858 0.0000
# 4 0.0000 0.0000 0.0000 24.3297 0.0000 -6.4749
# 5 -14.0344 -4.9006 -17.1858 0.0000 23.2493 0.0000
# 6 0.0000 0.0000 0.0000 -6.4749 0.0000 35.4263
#
#
#
# Elastic Compliance Matrix: (Units=1/GPa)
#
#
# Indices 1 2 3 4 5 6 
#
# 1 0.012084 -0.003913 0.000691 0.000000 0.006980 0.000000
# 2 -0.003913 0.015526 -0.001678 0.000000 -0.000330 0.000000
# 3 0.000691 -0.001678 0.014435 0.000000 0.010733 0.000000
# 4 0.000000 0.000000 0.000000 0.043203 0.000000 0.007896
# 5 0.006980 -0.000330 0.010733 0.000000 0.055090 0.000000
# 6 0.000000 0.000000 0.000000 0.007896 0.000000 0.029671
#
#
# Mechanical properties :
#
#
# Convention : Reuss Voigt Hill
#
# Bulk Modulus (GPa) = 31.01318 38.14650 34.57984
# Shear Modulus (GPa) = 26.23865 30.49761 28.36813
#
# Velocity S-wave (km/s) = 3.48599 3.75828 3.62469
# Velocity P-wave (km/s) = 5.52868 6.04152 5.79078
#
# Compressibility (1/GPa) = 0.03224435
#
# Stress axis : x y z
#
# Youngs Moduli (GPa) = 82.75386 64.40606 69.27732
#
# Poissons Ratio (x) = 0.25200 -0.04785
# Poissons Ratio (y) = 0.32379 0.11628
# Poissons Ratio (z) = -0.05716 0.10810
#
# Static dielectric constant tensor:
#      x y z
#    x 3.985790 0.000000 -0.205010 
#    y 0.000000 3.828160 0.000000 
#    z -0.205010 0.000000 4.026410 
# 
# 
# High freq. dielectric constant tensor:
#      x y z
#    x 1.850750 0.000000 -0.021290 
#    y 0.000000 1.840370 0.000000 
#    z -0.021290 0.000000 1.852420 
# 
# From -- ./inp_files/209446.got.cif
#   From: 2010.06.25/outbox.cif.g09.slc.cpg/sg15_105_cif.got.tgz:209446.got - 2010.06.28 07:06:18.
