data_PCOD8151355
_publ_section_title
;
Structure prediction by ZEFSAII (Michael W. Deem and Ramdas Pophale) SiO2 
 PCOD8151355
Probable space group: C 2/C
;
_chemical_formula_sum "Si O2"
_cell_formula_units_Z 48
_cell_length_a 10.834165
_cell_length_b 18.710682
_cell_length_c 10.442527
_cell_angle_alpha 90.000000
_cell_angle_beta 70.460951
_cell_angle_gamma 90.000000
_cell_volume 1994.951280
_symmetry_space_group_name_H-M "C 2/C"
_symmetry_group_IT_number 15
_symmetry_cell_setting 'monoclinic'
loop_
_space_group_symop_operation_xyz
x,y,z
-x,y,1/2-z
-x,-y,-z
x,-y,1/2+z
1/2+x,1/2+y,z
1/2-x,1/2+y,1/2-z
1/2-x,1/2-y,-z
1/2+x,1/2-y,1/2+z
loop_
_atom_site_type_symbol
_atom_site_label
_atom_site_fract_x
_atom_site_fract_y
_atom_site_fract_z
Si Si1 0.129203 0.800685 0.285827
Si Si2 0.909224 0.355700 0.619532
Si Si3 0.132461 0.506194 0.768234
Si Si4 0.691994 0.885648 0.448895
Si Si5 0.273858 0.395560 0.031461
Si Si6 0.418624 0.482621 0.404211
O O1 0.141036 0.716128 0.297715
O O2 0.260853 0.824423 0.165563
O O3 0.134457 0.838281 0.424878
O O4 0.000000 0.822147 0.250000
O O5 0.855654 0.420694 0.724578
O O6 0.852022 0.359185 0.493476
O O7 0.068994 0.354088 0.570317
O O8 0.132929 0.542406 0.906607
O O9 0.246135 0.541520 0.644526
O O10 0.000000 0.530290 0.750000
O O11 0.819269 0.917362 0.477426
O O12 0.349440 0.440736 0.894581
O O13 0.500000 0.458909 0.250000
O O14 0.500000 0.500000 0.500000
#
# Coordination Sequence:
#
# PCOD8151355 Si02
#       6
#     8   8   8   8   8   8
#     4  11  26  47  66 100 151 194 240 305 380 449
#     4  12  24  44  72 111 137 192 249 303 380 445
#     4  11  20  39  72 108 139 175 240 312 368 429
#     4  11  23  45  73 101 146 189 242 312 368 439
#     4  11  24  45  72 101 147 185 247 309 368 442
#     4  12  25  45  73 110 148 196 246 306 380 449
#
# _framework density 24.060738000000001
#
# number of rings (size 3 to 8) (size 9 to 14) (size 15 to 20)
#    0.000    0.667    3.333    6.000    0.000    0.667 
#    3.000    1.667    0.000    0.000    0.000    0.000 
#    0.000    0.000    0.000    0.000    0.000    0.000 
#
# Total GULP energy -297364.748428 kJ/mol
# GULP energy per Si atom -12390.197851 kJ/mol
# Density = 2.400598 g / cm^3
# Si number density = 24.060738 Si / 1000 Ang^3
#
#
#
# Elastic Constant Matrix: (Units=GPa)
#
#
# Indices 1 2 3 4 5 6 
#
# 1 145.0653 45.9982 38.0314 0.0000 10.2536 0.0000
# 2 45.9982 172.1191 37.7644 0.0000 -15.1210 0.0000
# 3 38.0314 37.7644 46.6153 0.0000 5.4547 0.0000
# 4 0.0000 0.0000 0.0000 27.9520 0.0000 -6.4307
# 5 10.2536 -15.1210 5.4547 0.0000 29.4289 0.0000
# 6 0.0000 0.0000 0.0000 -6.4307 0.0000 36.1455
#
#
#
# Elastic Compliance Matrix: (Units=1/GPa)
#
#
# Indices 1 2 3 4 5 6 
#
# 1 0.009090 -0.001355 -0.005996 0.000000 -0.002752 0.000000
# 2 -0.001355 0.007999 -0.006041 0.000000 0.005702 0.000000
# 3 -0.005996 -0.006041 0.032052 0.000000 -0.006956 0.000000
# 4 0.000000 0.000000 0.000000 0.037302 0.000000 0.006636
# 5 -0.002752 0.005702 -0.006956 0.000000 0.039158 0.000000
# 6 0.000000 0.000000 0.000000 0.006636 0.000000 0.028847
#
#
# Mechanical properties :
#
#
# Convention : Reuss Voigt Hill
#
# Bulk Modulus (GPa) = 44.73198 67.48754 56.10976
# Shear Modulus (GPa) = 26.49936 34.83900 30.66918
#
# Velocity S-wave (km/s) = 3.32226 3.80934 3.57411
# Velocity P-wave (km/s) = 5.77479 6.88896 6.35633
#
# Compressibility (1/GPa) = 0.02235537
#
# Stress axis : x y z
#
# Youngs Moduli (GPa) = 110.01513 125.02224 31.19936
#
# Poissons Ratio (x) = 0.16946 0.18706
# Poissons Ratio (y) = 0.14912 0.18848
# Poissons Ratio (z) = 0.65962 0.75529
#
# Static dielectric constant tensor:
#      x y z
#    x 4.906200 0.000000 -0.024180 
#    y 0.000000 4.498500 0.000000 
#    z -0.024180 0.000000 4.289340 
# 
# 
# High freq. dielectric constant tensor:
#      x y z
#    x 1.973600 0.000000 0.014740 
#    y 0.000000 1.954350 0.000000 
#    z 0.014740 0.000000 1.934310 
# 
# From -- ./inp_files/87805.got.cif
#   From: 2010.06.25/outbox.cif.g09.slc.cpg/sg15_44_cif.got.tgz:87805.got - 2010.06.28 07:06:18.
