data_PCOD8151638
_publ_section_title
;
Structure prediction by ZEFSAII (Michael W. Deem and Ramdas Pophale) SiO2 
 PCOD8151638
Probable space group: C 2/C
;
_chemical_formula_sum "Si O2"
_cell_formula_units_Z 56
_cell_length_a 9.221888
_cell_length_b 27.976208
_cell_length_c 21.524897
_cell_angle_alpha 90.000000
_cell_angle_beta 29.030609
_cell_angle_gamma 90.000000
_cell_volume 2694.879187
_symmetry_space_group_name_H-M "C 2/C"
_symmetry_group_IT_number 15
_symmetry_cell_setting 'monoclinic'
loop_
_space_group_symop_operation_xyz
x,y,z
-x,y,1/2-z
-x,-y,-z
x,-y,1/2+z
1/2+x,1/2+y,z
1/2-x,1/2+y,1/2-z
1/2-x,1/2-y,-z
1/2+x,1/2-y,1/2+z
loop_
_atom_site_type_symbol
_atom_site_label
_atom_site_fract_x
_atom_site_fract_y
_atom_site_fract_z
Si Si1 0.168337 0.020980 0.623678
Si Si2 0.291829 0.366705 0.100607
Si Si3 0.734091 0.172957 0.491361
Si Si4 0.540915 0.293816 0.088165
Si Si5 0.709986 0.745994 0.315478
Si Si6 0.358694 0.471777 0.110458
Si Si7 0.260702 0.631761 0.891074
O O1 0.173758 0.077526 0.619765
O O2 0.000000 0.003289 0.750000
O O3 0.995817 0.007912 0.624068
O O4 0.500000 0.000000 0.500000
O O5 0.214570 0.362160 0.057669
O O6 0.470441 0.317585 0.048229
O O7 0.447663 0.416676 0.061341
O O8 0.000000 0.363154 0.250000
O O9 0.524727 0.219743 0.563034
O O10 0.591208 0.137461 0.494160
O O11 0.069809 0.192874 0.355330
O O12 0.262791 0.272102 0.229961
O O13 0.694688 0.337659 0.064799
O O14 0.750000 0.250000 0.000000
O O15 0.000000 0.739702 0.250000
O O16 0.000000 0.477994 0.250000
O O17 0.500000 0.500000 0.000000
O O18 0.500000 0.651008 0.750000
#
# Coordination Sequence:
#
# PCOD8151638 Si02
#       7
#     8   8   8   8   8   8   8
#     4  11  25  45  76 104 136 177 226 286 352 418
#     4  11  22  37  62  96 124 165 224 264 323 396
#     4  11  22  36  63  86 120 172 215 265 316 383
#     4  12  22  37  60  89 134 168 214 275 317 381
#     4  11  21  38  56  86 126 168 216 263 321 375
#     4  11  25  45  72 105 138 175 225 285 351 415
#     4  11  21  41  66  94 125 170 226 265 323 402
#
# _framework density 20.780152000000001
#
# number of rings (size 3 to 8) (size 9 to 14) (size 15 to 20)
#    0.000    0.857    5.714    1.714   10.000    0.000 
#    0.000    3.571    0.000    0.000    0.000    0.000 
#    0.000    0.000    0.000    0.000    0.000    0.000 
#
# Total GULP energy -346891.475034 kJ/mol
# GULP energy per Si atom -12388.981251 kJ/mol
# Density = 2.073286 g / cm^3
# Si number density = 20.780152 Si / 1000 Ang^3
#
#
#
# Elastic Constant Matrix: (Units=GPa)
#
#
# Indices 1 2 3 4 5 6 
#
# 1 97.7396 16.0246 39.0442 0.0131 -8.9289 0.0150
# 2 16.0246 71.9144 40.3589 -0.0098 -0.7875 -0.0016
# 3 39.0442 40.3589 86.4039 -0.0090 -6.4287 0.0115
# 4 0.0131 -0.0098 -0.0090 49.0681 0.0256 1.6486
# 5 -8.9289 -0.7875 -6.4287 0.0256 30.2337 0.0071
# 6 0.0150 -0.0016 0.0115 1.6486 0.0071 40.8705
#
#
#
# Elastic Compliance Matrix: (Units=1/GPa)
#
#
# Indices 1 2 3 4 5 6 
#
# 1 0.012687 0.000423 -0.005742 -0.000006 0.002537 -0.000003
# 2 0.000423 0.018918 -0.009126 0.000003 -0.001323 0.000003
# 3 -0.005742 -0.009126 0.018581 0.000002 0.002017 -0.000004
# 4 -0.000006 0.000003 0.000002 0.020407 -0.000018 -0.000823
# 5 0.002537 -0.001323 0.002017 -0.000018 0.034220 -0.000007
# 6 -0.000003 0.000003 -0.000004 -0.000823 -0.000007 0.024501
#
#
# Mechanical properties :
#
#
# Convention : Reuss Voigt Hill
#
# Bulk Modulus (GPa) = 46.95591 49.65703 48.30647
# Shear Modulus (GPa) = 30.24723 34.74314 32.49519
#
# Velocity S-wave (km/s) = 3.81935 4.09337 3.95873
# Velocity P-wave (km/s) = 6.48810 6.80361 6.64773
#
# Compressibility (1/GPa) = 0.02129657
#
# Stress axis : x y z
#
# Youngs Moduli (GPa) = 78.81786 52.85858 53.81761
#
# Poissons Ratio (x) = -0.02237 0.30903
# Poissons Ratio (y) = -0.03335 0.49116
# Poissons Ratio (z) = 0.45258 0.48241
#
# Static dielectric constant tensor:
#      x y z
#    x -8.216070 -0.484400 -15.148330 
#    y -0.484400 8.913100 -0.587970 
#    z -15.148330 -0.587970 -14.808820 
# 
# 
# High freq. dielectric constant tensor:
#      x y z
#    x 1.831510 0.000000 -0.006700 
#    y 0.000000 1.813910 0.000000 
#    z -0.006700 0.000000 1.787830 
# 
# From -- ./inp_files/234934.got.cif
#   From: 2010.06.25/outbox.cif.g09.slc.cpg/sg15_118_cif.got.tgz:234934.got - 2010.06.28 07:06:18.
