data_PCOD8151307
_publ_section_title
;
Structure prediction by ZEFSAII (Michael W. Deem and Ramdas Pophale) SiO2 
 PCOD8151307
Probable space group: C 2/C
;
_chemical_formula_sum "Si O2"
_cell_formula_units_Z 60
_cell_length_a 11.284147
_cell_length_b 20.242340
_cell_length_c 17.801152
_cell_angle_alpha 90.000000
_cell_angle_beta 139.321769
_cell_angle_gamma 90.000000
_cell_volume 2650.322875
_symmetry_space_group_name_H-M "C 2/C"
_symmetry_group_IT_number 15
_symmetry_cell_setting 'monoclinic'
loop_
_space_group_symop_operation_xyz
x,y,z
-x,y,1/2-z
-x,-y,-z
x,-y,1/2+z
1/2+x,1/2+y,z
1/2-x,1/2+y,1/2-z
1/2-x,1/2-y,-z
1/2+x,1/2-y,1/2+z
loop_
_atom_site_type_symbol
_atom_site_label
_atom_site_fract_x
_atom_site_fract_y
_atom_site_fract_z
Si Si1 0.662426 0.175664 0.695467
Si Si2 0.355925 0.134201 0.118362
Si Si3 0.922854 0.204015 0.071652
Si Si4 0.510071 0.295650 0.055620
Si Si5 0.808473 0.004981 0.947772
Si Si6 0.500000 0.901573 0.250000
Si Si7 0.989390 0.357308 0.965989
Si Si8 0.349676 0.576254 0.122945
O O1 0.605876 0.252654 0.664482
O O2 0.521004 0.142621 0.685713
O O3 0.643555 0.140659 0.605358
O O4 0.873132 0.172009 0.820977
O O5 0.500000 0.159835 0.250000
O O6 0.444045 0.115517 0.081162
O O7 0.268531 0.067351 0.104274
O O8 0.203885 0.191474 0.033524
O O9 0.933530 0.145413 0.135532
O O10 0.750000 0.250000 0.000000
O O11 0.920108 0.169982 0.987770
O O12 0.564145 0.218942 0.072754
O O13 0.680440 0.055046 0.841985
O O14 0.815631 0.024698 0.039252
O O15 0.000000 0.000000 0.000000
O O16 0.830588 0.406102 0.917056
O O17 0.500000 0.543810 0.250000
#
# Coordination Sequence:
#
# PCOD8151307 Si02
#       8
#     8   8   8   8   8   4   8   8
#     4  11  22  39  71 106 146 181 228 299 355 424
#     4  12  29  50  72  97 143 196 241 294 362 442
#     4  11  20  38  67 109 147 180 227 289 364 423
#     4  11  24  44  70 107 142 191 239 288 370 438
#     4  12  27  51  73 101 134 193 245 288 358 432
#     4  12  22  44  70 104 144 182 234 292 352 428
#     4  11  26  45  70 107 144 187 233 300 364 425
#     4  12  25  43  72 110 145 179 238 303 359 423
#
# _framework density 22.638750000000002
#
# number of rings (size 3 to 8) (size 9 to 14) (size 15 to 20)
#    0.000    0.533    4.667    4.400    8.400    1.067 
#    4.800    0.000    0.000    0.000    0.000    0.000 
#    0.000    0.000    0.000    0.000    0.000    0.000 
#
# Total GULP energy -372010.327893 kJ/mol
# GULP energy per Si atom -12400.344263 kJ/mol
# Density = 2.258722 g / cm^3
# Si number density = 22.638750 Si / 1000 Ang^3
#
#
#
# Elastic Constant Matrix: (Units=GPa)
#
#
# Indices 1 2 3 4 5 6 
#
# 1 129.6941 6.8161 56.4876 -0.0005 -2.9828 -0.0002
# 2 6.8161 44.2993 15.3334 -0.0002 6.2860 -0.0001
# 3 56.4876 15.3334 172.9981 -0.0028 3.4255 -0.0012
# 4 -0.0005 -0.0002 -0.0028 21.9868 -0.0012 -2.3195
# 5 -2.9828 6.2860 3.4255 -0.0012 40.1748 -0.0005
# 6 -0.0002 -0.0001 -0.0012 -2.3195 -0.0005 35.9692
#
#
#
# Elastic Compliance Matrix: (Units=1/GPa)
#
#
# Indices 1 2 3 4 5 6 
#
# 1 0.009034 -0.000520 -0.002924 0.000000 0.001001 0.000000
# 2 -0.000520 0.023812 -0.001869 0.000000 -0.003605 0.000000
# 3 -0.002924 -0.001869 0.006911 0.000001 -0.000514 0.000000
# 4 0.000000 0.000000 0.000001 0.045793 0.000001 0.002953
# 5 0.001001 -0.003605 -0.000514 0.000001 0.025573 0.000000
# 6 0.000000 0.000000 0.000000 0.002953 0.000000 0.027992
#
#
# Mechanical properties :
#
#
# Convention : Reuss Voigt Hill
#
# Bulk Modulus (GPa) = 34.32744 56.02953 45.17849
# Shear Modulus (GPa) = 31.35722 37.51644 34.43683
#
# Velocity S-wave (km/s) = 3.72575 4.07526 3.90442
# Velocity P-wave (km/s) = 5.80554 6.85177 6.35024
#
# Compressibility (1/GPa) = 0.02913121
#
# Stress axis : x y z
#
# Youngs Moduli (GPa) = 110.69090 41.99501 144.69941
#
# Poissons Ratio (x) = 0.02185 0.42304
# Poissons Ratio (y) = 0.05758 0.27049
# Poissons Ratio (z) = 0.32361 0.07850
#
# Static dielectric constant tensor:
#      x y z
#    x 4.093070 0.000000 -0.157530 
#    y 0.000000 3.963480 0.000000 
#    z -0.157530 0.000000 4.273880 
# 
# 
# High freq. dielectric constant tensor:
#      x y z
#    x 1.892030 0.000000 -0.006800 
#    y 0.000000 1.877430 0.000000 
#    z -0.006800 0.000000 1.906330 
# 
# From -- ./inp_files/200556.got.cif
#   From: 2010.06.25/outbox.cif.g09.slc.cpg/sg15_101_cif.got.tgz:200556.got - 2010.06.28 07:06:18.
