data_PCOD8151285
_publ_section_title
;
Structure prediction by ZEFSAII (Michael W. Deem and Ramdas Pophale) SiO2 
 PCOD8151285
Probable space group: C 2/C
;
_chemical_formula_sum "Si O2"
_cell_formula_units_Z 48
_cell_length_a 12.929297
_cell_length_b 23.210812
_cell_length_c 8.765172
_cell_angle_alpha 90.000000
_cell_angle_beta 105.008640
_cell_angle_gamma 90.000000
_cell_volume 2540.691375
_symmetry_space_group_name_H-M "C 2/C"
_symmetry_group_IT_number 15
_symmetry_cell_setting 'monoclinic'
loop_
_space_group_symop_operation_xyz
x,y,z
-x,y,1/2-z
-x,-y,-z
x,-y,1/2+z
1/2+x,1/2+y,z
1/2-x,1/2+y,1/2-z
1/2-x,1/2-y,-z
1/2+x,1/2-y,1/2+z
loop_
_atom_site_type_symbol
_atom_site_label
_atom_site_fract_x
_atom_site_fract_y
_atom_site_fract_z
Si Si1 0.113902 0.063518 0.219742
Si Si2 0.787816 0.162568 0.764186
Si Si3 0.935877 0.264866 0.861286
Si Si4 0.114893 0.942839 0.358852
Si Si5 0.410336 0.767015 0.319171
Si Si6 0.230311 0.831347 0.884990
O O1 0.204760 0.111280 0.281168
O O2 0.000000 0.082533 0.250000
O O3 0.153723 0.004718 0.313111
O O4 0.104387 0.055037 0.036117
O O5 0.879558 0.209161 0.765611
O O6 0.803971 0.104744 0.674091
O O7 0.675168 0.186261 0.658089
O O8 0.782862 0.152965 0.943483
O O9 0.850765 0.309279 0.901473
O O10 0.000000 0.296975 0.750000
O O11 0.025644 0.241499 0.012883
O O12 0.000000 0.926695 0.250000
O O13 0.500000 0.798116 0.250000
O O14 0.353292 0.717755 0.196380
#
# Coordination Sequence:
#
# PCOD8151285 Si02
#       6
#     8   8   8   8   8   8
#     4  11  23  39  61  85 117 151 189 240 291 341
#     4  11  22  37  60  86 117 153 198 234 285 345
#     4  11  24  36  56  87 123 153 194 237 282 344
#     4  11  23  39  60  87 115 150 192 239 291 342
#     4  11  20  38  59  84 119 160 190 230 292 337
#     4  11  22  37  59  86 116 157 192 237 287 341
#
# _framework density 18.892495
#
# number of rings (size 3 to 8) (size 9 to 14) (size 15 to 20)
#    0.000    1.000    3.333    6.000    7.000    1.333 
#    0.000    0.000    0.000    2.000    0.000    0.000 
#    0.000    0.000    0.000    0.000    0.000    0.000 
#
# Total GULP energy -297552.299870 kJ/mol
# GULP energy per Si atom -12398.012495 kJ/mol
# Density = 1.884949 g / cm^3
# Si number density = 18.892495 Si / 1000 Ang^3
#
#
#
# Elastic Constant Matrix: (Units=GPa)
#
#
# Indices 1 2 3 4 5 6 
#
# 1 86.6532 31.4563 49.8691 0.0000 -0.2448 0.0000
# 2 31.4563 89.6518 24.2002 0.0000 0.0266 0.0000
# 3 49.8691 24.2002 113.9996 0.0000 -14.0973 0.0000
# 4 0.0000 0.0000 0.0000 28.5714 0.0000 -8.4138
# 5 -0.2448 0.0266 -14.0973 0.0000 39.6895 0.0000
# 6 0.0000 0.0000 0.0000 -8.4138 0.0000 24.2405
#
#
#
# Elastic Compliance Matrix: (Units=1/GPa)
#
#
# Indices 1 2 3 4 5 6 
#
# 1 0.016956 -0.004104 -0.006833 0.000000 -0.002320 0.000000
# 2 -0.004104 0.012859 -0.000982 0.000000 -0.000383 0.000000
# 3 -0.006833 -0.000982 0.012514 0.000000 0.004403 0.000000
# 4 0.000000 0.000000 0.000000 0.038985 0.000000 0.013531
# 5 -0.002320 -0.000383 0.004403 0.000000 0.026746 0.000000
# 6 0.000000 0.000000 0.000000 0.013531 0.000000 0.045950
#
#
# Mechanical properties :
#
#
# Convention : Reuss Voigt Hill
#
# Bulk Modulus (GPa) = 54.07904 55.70620 54.89262
# Shear Modulus (GPa) = 27.17221 30.81887 28.99554
#
# Velocity S-wave (km/s) = 3.79655 4.04329 3.92186
# Velocity P-wave (km/s) = 6.92135 7.16571 7.04459
#
# Compressibility (1/GPa) = 0.01849145
#
# Stress axis : x y z
#
# Youngs Moduli (GPa) = 58.97624 77.76376 79.91061
#
# Poissons Ratio (x) = 0.31916 0.54603
# Poissons Ratio (y) = 0.24205 0.07845
# Poissons Ratio (z) = 0.40298 0.07635
#
# Static dielectric constant tensor:
#      x y z
#    x 3.568830 0.000000 -0.028010 
#    y 0.000000 3.377220 0.000000 
#    z -0.028010 0.000000 3.626960 
# 
# 
# High freq. dielectric constant tensor:
#      x y z
#    x 1.733270 0.000000 -0.010110 
#    y 0.000000 1.711800 0.000000 
#    z -0.010110 0.000000 1.751420 
# 
# From -- ./inp_files/31897.got.cif
#   From: 2010.06.25/outbox.cif.g09.slc.cpg/sg15_16_cif.got.tgz:31897.got - 2010.06.28 07:06:18.
