data_PCOD8151361
_publ_section_title
;
Structure prediction by ZEFSAII (Michael W. Deem and Ramdas Pophale) SiO2 
 PCOD8151361
Probable space group: C 2/C
;
_chemical_formula_sum "Si O2"
_cell_formula_units_Z 44
_cell_length_a 9.157640
_cell_length_b 26.754277
_cell_length_c 8.154108
_cell_angle_alpha 90.000000
_cell_angle_beta 64.924480
_cell_angle_gamma 90.000000
_cell_volume 1809.512419
_symmetry_space_group_name_H-M "C 2/C"
_symmetry_group_IT_number 15
_symmetry_cell_setting 'monoclinic'
loop_
_space_group_symop_operation_xyz
x,y,z
-x,y,1/2-z
-x,-y,-z
x,-y,1/2+z
1/2+x,1/2+y,z
1/2-x,1/2+y,1/2-z
1/2-x,1/2-y,-z
1/2+x,1/2-y,1/2+z
loop_
_atom_site_type_symbol
_atom_site_label
_atom_site_fract_x
_atom_site_fract_y
_atom_site_fract_z
Si Si1 0.612746 0.592174 0.854380
Si Si2 0.500000 0.852902 0.750000
Si Si3 0.028394 0.716025 0.920436
Si Si4 0.189123 0.509904 0.904282
Si Si5 0.792743 0.071928 0.152690
Si Si6 0.364304 0.297276 0.180154
O O1 0.500000 0.591536 0.750000
O O2 0.753325 0.550709 0.762870
O O3 0.691675 0.646814 0.844492
O O4 0.481802 0.585741 0.062665
O O5 0.488810 0.821541 0.587934
O O6 0.333681 0.884241 0.831129
O O7 0.000000 0.693851 0.750000
O O8 0.215885 0.730730 0.837463
O O9 0.923013 0.766321 0.993222
O O10 0.262968 0.454347 0.841678
O O11 0.254547 0.526904 0.046639
O O12 0.000000 0.500000 0.000000
O O13 0.500000 0.299007 0.250000
#
# Coordination Sequence:
#
# PCOD8151361 Si02
#       6
#     8   4   8   8   8   8
#     4   9  21  39  66  95 137 183 238 288 358 437
#     4  12  24  46  74 102 146 194 248 292 368 440
#     4  12  27  46  73 109 148 189 248 303 363 436
#     4  11  20  40  62  93 130 172 229 291 346 421
#     4  11  23  42  66  97 134 185 236 289 364 433
#     4  11  23  46  75 105 147 196 239 300 371 435
#
# _framework density 24.315943000000001
#
# number of rings (size 3 to 8) (size 9 to 14) (size 15 to 20)
#    0.000    1.091    2.727    4.909    2.545    0.000 
#    6.545    0.000    0.000    0.000    0.000    0.000 
#    0.000    0.000    0.000    0.000    0.000    0.000 
#
# Total GULP energy -272558.895408 kJ/mol
# GULP energy per Si atom -12389.040700 kJ/mol
# Density = 2.426060 g / cm^3
# Si number density = 24.315943 Si / 1000 Ang^3
#
#
#
# Elastic Constant Matrix: (Units=GPa)
#
#
# Indices 1 2 3 4 5 6 
#
# 1 70.3562 33.1043 46.6077 0.0000 -26.3781 0.0000
# 2 33.1043 136.4252 61.5265 0.0000 -15.7096 0.0000
# 3 46.6077 61.5265 140.0124 0.0000 -27.1040 0.0000
# 4 0.0000 0.0000 0.0000 41.0680 0.0000 -9.2126
# 5 -26.3781 -15.7096 -27.1040 0.0000 59.2339 0.0000
# 6 0.0000 0.0000 0.0000 -9.2126 0.0000 43.3825
#
#
#
# Elastic Compliance Matrix: (Units=1/GPa)
#
#
# Indices 1 2 3 4 5 6 
#
# 1 0.020803 -0.002174 -0.004705 0.000000 0.006535 0.000000
# 2 -0.002174 0.009391 -0.003411 0.000000 -0.000038 0.000000
# 3 -0.004705 -0.003411 0.010562 0.000000 0.001833 0.000000
# 4 0.000000 0.000000 0.000000 0.025568 0.000000 0.005430
# 5 0.006535 -0.000038 0.001833 0.000000 0.020621 0.000000
# 6 0.000000 0.000000 0.000000 0.005430 0.000000 0.024204
#
#
# Mechanical properties :
#
#
# Convention : Reuss Voigt Hill
#
# Bulk Modulus (GPa) = 49.55878 69.91898 59.73888
# Shear Modulus (GPa) = 36.11342 42.44057 39.27700
#
# Velocity S-wave (km/s) = 3.85798 4.18231 4.02341
# Velocity P-wave (km/s) = 6.34592 7.22074 6.79742
#
# Compressibility (1/GPa) = 0.02017806
#
# Stress axis : x y z
#
# Youngs Moduli (GPa) = 48.07051 106.48184 94.67930
#
# Poissons Ratio (x) = 0.23146 0.44544
# Poissons Ratio (y) = 0.10449 0.32292
# Poissons Ratio (z) = 0.22616 0.36317
#
# Static dielectric constant tensor:
#      x y z
#    x 4.387130 0.000000 -0.456600 
#    y 0.000000 5.003490 0.000000 
#    z -0.456600 0.000000 5.014540 
# 
# 
# High freq. dielectric constant tensor:
#      x y z
#    x 1.953600 0.000000 -0.020550 
#    y 0.000000 1.965400 0.000000 
#    z -0.020550 0.000000 1.985090 
# 
# From -- ./inp_files/25959.got.cif
#   From: 2010.06.25/outbox.cif.g09.slc.cpg/sg15_13_cif.got.tgz:25959.got - 2010.06.28 07:06:18.
