data_PCOD8151332
_publ_section_title
;
Structure prediction by ZEFSAII (Michael W. Deem and Ramdas Pophale) SiO2 
 PCOD8151332
Probable space group: C 2/C
;
_chemical_formula_sum "Si O2"
_cell_formula_units_Z 56
_cell_length_a 21.389836
_cell_length_b 13.559901
_cell_length_c 9.511548
_cell_angle_alpha 90.000000
_cell_angle_beta 81.849422
_cell_angle_gamma 90.000000
_cell_volume 2730.901369
_symmetry_space_group_name_H-M "C 2/C"
_symmetry_group_IT_number 15
_symmetry_cell_setting 'monoclinic'
loop_
_space_group_symop_operation_xyz
x,y,z
-x,y,1/2-z
-x,-y,-z
x,-y,1/2+z
1/2+x,1/2+y,z
1/2-x,1/2+y,1/2-z
1/2-x,1/2-y,-z
1/2+x,1/2-y,1/2+z
loop_
_atom_site_type_symbol
_atom_site_label
_atom_site_fract_x
_atom_site_fract_y
_atom_site_fract_z
Si Si1 0.197465 0.106926 0.644528
Si Si2 0.330924 0.900051 0.697869
Si Si3 0.010590 0.900425 0.412133
Si Si4 0.184877 0.114303 0.188396
Si Si5 0.890359 0.794594 0.539010
Si Si6 0.145081 0.806565 0.418521
Si Si7 0.838195 0.592025 0.517590
O O1 0.148532 0.181163 0.589026
O O2 0.198508 0.138574 0.807627
O O3 0.265679 0.123718 0.557246
O O4 0.172302 0.995618 0.634681
O O5 0.256129 0.878806 0.720988
O O6 0.366534 0.805851 0.623559
O O7 0.353417 0.922904 0.848566
O O8 0.351568 0.991886 0.596232
O O9 0.080410 0.864877 0.422720
O O10 0.000000 0.918082 0.250000
O O11 0.963383 0.817716 0.488571
O O12 0.000000 0.000000 0.500000
O O13 0.136146 0.138032 0.327408
O O14 0.171741 0.191295 0.067970
O O15 0.882020 0.677921 0.570011
#
# Coordination Sequence:
#
# PCOD8151332 Si02
#       7
#     8   8   8   8   8   8   8
#     4  11  20  39  62  92 126 163 201 256 313 375
#     4  11  24  42  62  94 125 164 211 259 311 369
#     4  12  26  43  66  92 125 167 207 254 308 373
#     4  11  24  36  65  97 127 162 204 259 315 377
#     4  12  23  42  64  89 128 169 206 252 314 366
#     4  12  25  41  63  91 132 165 209 257 308 371
#     4  11  24  40  65  92 125 164 211 259 310 372
#
# _framework density 20.506049999999998
#
# number of rings (size 3 to 8) (size 9 to 14) (size 15 to 20)
#    0.000    0.571    4.286    4.286   10.000    0.000 
#    0.000    0.714    0.000    0.000    0.000    0.000 
#    0.000    0.000    0.000    0.000    0.000    0.000 
#
# Total GULP energy -347362.097098 kJ/mol
# GULP energy per Si atom -12405.789182 kJ/mol
# Density = 2.045938 g / cm^3
# Si number density = 20.506050 Si / 1000 Ang^3
#
#
#
# Elastic Constant Matrix: (Units=GPa)
#
#
# Indices 1 2 3 4 5 6 
#
# 1 28.5190 32.9540 18.2637 0.0000 -1.7642 0.0000
# 2 32.9540 136.4800 44.1229 0.0000 -14.3442 0.0000
# 3 18.2637 44.1229 112.3864 0.0000 -3.7932 0.0000
# 4 0.0000 0.0000 0.0000 36.0716 0.0000 -3.2568
# 5 -1.7642 -14.3442 -3.7932 0.0000 18.3076 0.0000
# 6 0.0000 0.0000 0.0000 -3.2568 0.0000 28.7619
#
#
#
# Elastic Compliance Matrix: (Units=1/GPa)
#
#
# Indices 1 2 3 4 5 6 
#
# 1 0.050472 -0.011451 -0.003872 0.000000 -0.004911 0.000000
# 2 -0.011451 0.011683 -0.002472 0.000000 0.007538 0.000000
# 3 -0.003872 -0.002472 0.010493 0.000000 -0.000136 0.000000
# 4 0.000000 0.000000 0.000000 0.028009 0.000000 0.003172
# 5 -0.004911 0.007538 -0.000136 0.000000 0.060027 0.000000
# 6 0.000000 0.000000 0.000000 0.003172 0.000000 0.035127
#
#
# Mechanical properties :
#
#
# Convention : Reuss Voigt Hill
#
# Bulk Modulus (GPa) = 26.98420 52.00741 39.49580
# Shear Modulus (GPa) = 20.51243 28.76453 24.63848
#
# Velocity S-wave (km/s) = 3.16620 3.74937 3.47006
# Velocity P-wave (km/s) = 5.15307 6.64536 5.94621
#
# Compressibility (1/GPa) = 0.03705872
#
# Stress axis : x y z
#
# Youngs Moduli (GPa) = 19.81290 85.59176 95.30265
#
# Poissons Ratio (x) = 0.98012 0.36903
# Poissons Ratio (y) = 0.22688 0.23555
# Poissons Ratio (z) = 0.07672 0.21154
#
# Static dielectric constant tensor:
#      x y z
#    x 3.521860 0.000000 -0.041830 
#    y 0.000000 3.849240 0.000000 
#    z -0.041830 0.000000 3.897280 
# 
# 
# High freq. dielectric constant tensor:
#      x y z
#    x 1.770100 0.000000 -0.000750 
#    y 0.000000 1.810140 0.000000 
#    z -0.000750 0.000000 1.821020 
# 
# From -- ./inp_files/61472.got.cif
#   From: 2010.06.25/outbox.cif.g09.slc.cpg/sg15_31_cif.got.tgz:61472.got - 2010.06.28 07:06:18.
