data_PCOD8151543
_publ_section_title
;
Structure prediction by ZEFSAII (Michael W. Deem and Ramdas Pophale) SiO2 
 PCOD8151543
Probable space group: C 2/C
;
_chemical_formula_sum "Si O2"
_cell_formula_units_Z 48
_cell_length_a 20.723093
_cell_length_b 12.442980
_cell_length_c 13.927846
_cell_angle_alpha 90.000000
_cell_angle_beta 39.144764
_cell_angle_gamma 90.000000
_cell_volume 2267.181500
_symmetry_space_group_name_H-M "C 2/C"
_symmetry_group_IT_number 15
_symmetry_cell_setting 'monoclinic'
loop_
_space_group_symop_operation_xyz
x,y,z
-x,y,1/2-z
-x,-y,-z
x,-y,1/2+z
1/2+x,1/2+y,z
1/2-x,1/2+y,1/2-z
1/2-x,1/2-y,-z
1/2+x,1/2-y,1/2+z
loop_
_atom_site_type_symbol
_atom_site_label
_atom_site_fract_x
_atom_site_fract_y
_atom_site_fract_z
Si Si1 0.904634 0.395980 0.973231
Si Si2 0.756799 0.348564 0.419785
Si Si3 0.941069 0.772463 0.915461
Si Si4 0.610725 0.280300 0.866587
Si Si5 0.369869 0.941001 0.808188
Si Si6 0.806760 0.405422 0.673066
O O1 0.863523 0.370915 0.912962
O O2 0.010548 0.463831 0.850937
O O3 0.923981 0.276773 0.994454
O O4 0.825345 0.470161 0.124667
O O5 0.750000 0.250000 0.500000
O O6 0.641433 0.366540 0.512613
O O7 0.833861 0.320041 0.246680
O O8 0.803779 0.453960 0.413674
O O9 0.000000 0.738608 0.750000
O O10 0.016317 0.819452 0.910038
O O11 0.880833 0.668959 0.024471
O O12 0.687702 0.379574 0.790930
O O13 0.323340 0.884456 0.767647
#
# Coordination Sequence:
#
# PCOD8151543 Si02
#       6
#     8   8   8   8   8   8
#     4  11  23  37  64  93 122 159 207 254 305 358
#     4  11  21  35  58  92 122 154 200 249 313 354
#     4  11  22  35  60  91 123 156 197 255 313 354
#     4  11  22  39  58  91 123 162 206 252 306 358
#     4  11  22  39  62  92 123 158 206 254 301 366
#     4  11  23  37  63  89 122 157 207 254 299 365
#
# _framework density 21.171662999999999
#
# number of rings (size 3 to 8) (size 9 to 14) (size 15 to 20)
#    0.000    1.000    5.000    3.500    2.333    0.667 
#    0.000    0.833    0.000    0.000    0.000    0.000 
#    0.000    0.000    0.000    0.000    0.000    0.000 
#
# Total GULP energy -297439.517147 kJ/mol
# GULP energy per Si atom -12393.313214 kJ/mol
# Density = 2.112347 g / cm^3
# Si number density = 21.171663 Si / 1000 Ang^3
#
#
#
# Elastic Constant Matrix: (Units=GPa)
#
#
# Indices 1 2 3 4 5 6 
#
# 1 161.0705 22.3617 49.8437 0.0000 -5.9294 0.0000
# 2 22.3617 46.7153 27.0201 0.0000 -5.9200 0.0000
# 3 49.8437 27.0201 74.6193 0.0000 -7.1672 0.0000
# 4 0.0000 0.0000 0.0000 18.8755 0.0000 2.8177
# 5 -5.9294 -5.9200 -7.1672 0.0000 46.4919 0.0000
# 6 0.0000 0.0000 0.0000 2.8177 0.0000 25.3684
#
#
#
# Elastic Compliance Matrix: (Units=1/GPa)
#
#
# Indices 1 2 3 4 5 6 
#
# 1 0.007858 -0.000906 -0.004908 0.000000 0.000130 0.000000
# 2 -0.000906 0.027360 -0.009113 0.000000 0.001963 0.000000
# 3 -0.004908 -0.009113 0.020106 0.000000 0.001313 0.000000
# 4 0.000000 0.000000 0.000000 0.053872 0.000000 -0.005984
# 5 0.000130 0.001963 0.001313 0.000000 0.021978 0.000000
# 6 0.000000 0.000000 0.000000 -0.005984 0.000000 0.040084
#
#
# Mechanical properties :
#
#
# Convention : Reuss Voigt Hill
#
# Bulk Modulus (GPa) = 39.26417 53.42848 46.34632
# Shear Modulus (GPa) = 23.85462 30.35913 27.10688
#
# Velocity S-wave (km/s) = 3.36031 3.79086 3.58206
# Velocity P-wave (km/s) = 5.80013 6.66719 6.24872
#
# Compressibility (1/GPa) = 0.02546852
#
# Stress axis : x y z
#
# Youngs Moduli (GPa) = 127.26003 36.54980 49.73605
#
# Poissons Ratio (x) = 0.03311 0.24412
# Poissons Ratio (y) = 0.11529 0.45327
# Poissons Ratio (z) = 0.62463 0.33309
#
# Static dielectric constant tensor:
#      x y z
#    x 4.432330 0.000000 0.001560 
#    y 0.000000 3.182590 0.000000 
#    z 0.001560 0.000000 4.017430 
# 
# 
# High freq. dielectric constant tensor:
#      x y z
#    x 1.857310 0.000000 0.007480 
#    y 0.000000 1.771870 0.000000 
#    z 0.007480 0.000000 1.829660 
# 
# From -- ./inp_files/167845.got.cif
#   From: 2010.06.25/outbox.cif.g09.slc.cpg/sg15_84_cif.got.tgz:167845.got - 2010.06.28 07:06:18.
