data_PCOD8151966
_publ_section_title
;
Structure prediction by ZEFSAII (Michael W. Deem and Ramdas Pophale) SiO2 
 PCOD8151966
Probable space group: C 2/C
;
_chemical_formula_sum "Si O2"
_cell_formula_units_Z 56
_cell_length_a 20.127734
_cell_length_b 10.493837
_cell_length_c 12.090245
_cell_angle_alpha 90.000000
_cell_angle_beta 79.523705
_cell_angle_gamma 90.000000
_cell_volume 2511.098139
_symmetry_space_group_name_H-M "C 2/C"
_symmetry_group_IT_number 15
_symmetry_cell_setting 'monoclinic'
loop_
_space_group_symop_operation_xyz
x,y,z
-x,y,1/2-z
-x,-y,-z
x,-y,1/2+z
1/2+x,1/2+y,z
1/2-x,1/2+y,1/2-z
1/2-x,1/2-y,-z
1/2+x,1/2-y,1/2+z
loop_
_atom_site_type_symbol
_atom_site_label
_atom_site_fract_x
_atom_site_fract_y
_atom_site_fract_z
Si Si1 0.301371 0.550487 0.033904
Si Si2 0.873424 0.625498 0.719688
Si Si3 0.243010 0.206429 0.872724
Si Si4 0.500000 0.288852 0.250000
Si Si5 0.679343 0.829142 0.481222
Si Si6 0.000000 0.222076 0.250000
Si Si7 0.635376 0.163466 0.241470
Si Si8 0.948902 0.004337 0.416082
O O1 0.243998 0.575436 0.957377
O O2 0.370628 0.492876 0.968647
O O3 0.276512 0.443766 0.128007
O O4 0.307296 0.692046 0.084973
O O5 0.815193 0.716599 0.789552
O O6 0.872575 0.605634 0.586353
O O7 0.945722 0.685683 0.714281
O O8 0.865797 0.487284 0.774086
O O9 0.186598 0.286688 0.821151
O O10 0.250000 0.250000 0.000000
O O11 0.558580 0.206890 0.292607
O O12 0.460168 0.375829 0.346857
O O13 0.655259 0.792064 0.611470
O O14 0.037152 0.134607 0.150501
O O15 0.000000 0.000000 0.500000
#
# Coordination Sequence:
#
# PCOD8151966 Si02
#       8
#     8   8   8   4   8   4   8   8
#     4  11  21  43  72 102 140 181 237 299 361 420
#     4  12  27  47  71 103 148 195 246 299 370 434
#     4  12  26  44  72 110 145 185 244 308 363 431
#     4  11  25  44  70 106 141 191 236 288 358 437
#     4  11  24  47  72 105 141 194 243 298 364 433
#     4  11  27  46  68 104 145 195 242 294 362 447
#     4  12  26  48  72 108 147 193 247 296 368 439
#     4  11  23  43  70 104 144 185 239 297 365 430
#
# _framework density 22.301000999999999
#
# number of rings (size 3 to 8) (size 9 to 14) (size 15 to 20)
#    0.000    0.571    2.857    5.571    0.000    1.143 
#    0.000    1.429    0.000    0.000    0.000    0.000 
#    0.000    0.000    0.000    0.000    0.000    0.000 
#
# Total GULP energy -346868.142194 kJ/mol
# GULP energy per Si atom -12388.147936 kJ/mol
# Density = 2.225024 g / cm^3
# Si number density = 22.301001 Si / 1000 Ang^3
#
#
#
# Elastic Constant Matrix: (Units=GPa)
#
#
# Indices 1 2 3 4 5 6 
#
# 1 188.0979 53.1520 47.3551 0.0000 2.7976 0.0000
# 2 53.1520 94.0087 15.3013 0.0000 5.0154 0.0000
# 3 47.3551 15.3013 95.6597 0.0000 13.4140 0.0000
# 4 0.0000 0.0000 0.0000 24.9123 0.0000 -6.7643
# 5 2.7976 5.0154 13.4140 0.0000 33.1580 0.0000
# 6 0.0000 0.0000 0.0000 -6.7643 0.0000 51.8701
#
#
#
# Elastic Compliance Matrix: (Units=1/GPa)
#
#
# Indices 1 2 3 4 5 6 
#
# 1 0.007088 -0.003566 -0.003107 0.000000 0.001198 0.000000
# 2 -0.003566 0.012747 -0.000048 0.000000 -0.001608 0.000000
# 3 -0.003107 -0.000048 0.012681 0.000000 -0.004861 0.000000
# 4 0.000000 0.000000 0.000000 0.041614 0.000000 0.005427
# 5 0.001198 -0.001608 -0.004861 0.000000 0.032267 0.000000
# 6 0.000000 0.000000 0.000000 0.005427 0.000000 0.019987
#
#
# Mechanical properties :
#
#
# Convention : Reuss Voigt Hill
#
# Bulk Modulus (GPa) = 52.42533 67.70921 60.06727
# Shear Modulus (GPa) = 34.20340 39.45194 36.82767
#
# Velocity S-wave (km/s) = 3.92052 4.21059 4.06814
# Velocity P-wave (km/s) = 6.63725 7.35297 7.00426
#
# Compressibility (1/GPa) = 0.01907475
#
# Stress axis : x y z
#
# Youngs Moduli (GPa) = 141.07697 78.44915 78.85873
#
# Poissons Ratio (x) = 0.27975 0.24498
# Poissons Ratio (y) = 0.50308 0.00380
# Poissons Ratio (z) = 0.43827 0.00378
#
# Static dielectric constant tensor:
#      x y z
#    x 4.216910 0.000000 0.064310 
#    y 0.000000 4.135940 0.000000 
#    z 0.064310 0.000000 3.890700 
# 
# 
# High freq. dielectric constant tensor:
#      x y z
#    x 1.895470 0.000000 0.000950 
#    y 0.000000 1.891840 0.000000 
#    z 0.000950 0.000000 1.866360 
# 
# From -- ./inp_files/111018.got.cif
#   From: 2010.06.25/outbox.cif.g09.slc.cpg/sg15_56_cif.got.tgz:111018.got - 2010.06.28 07:06:18.
