data_PCOD8151206
_publ_section_title
;
Structure prediction by ZEFSAII (Michael W. Deem and Ramdas Pophale) SiO2 
 PCOD8151206
Probable space group: C 2/C
;
_chemical_formula_sum "Si O2"
_cell_formula_units_Z 56
_cell_length_a 13.242405
_cell_length_b 19.739445
_cell_length_c 13.125564
_cell_angle_alpha 90.000000
_cell_angle_beta 46.059564
_cell_angle_gamma 90.000000
_cell_volume 2470.525897
_symmetry_space_group_name_H-M "C 2/C"
_symmetry_group_IT_number 15
_symmetry_cell_setting 'monoclinic'
loop_
_space_group_symop_operation_xyz
x,y,z
-x,y,1/2-z
-x,-y,-z
x,-y,1/2+z
1/2+x,1/2+y,z
1/2-x,1/2+y,1/2-z
1/2-x,1/2-y,-z
1/2+x,1/2-y,1/2+z
loop_
_atom_site_type_symbol
_atom_site_label
_atom_site_fract_x
_atom_site_fract_y
_atom_site_fract_z
Si Si1 0.350973 0.967543 0.372725
Si Si2 0.192304 0.311786 0.785936
Si Si3 0.634670 0.529025 0.850495
Si Si4 0.524253 0.356863 0.120498
Si Si5 0.608532 0.780041 0.461787
Si Si6 0.816008 0.384943 0.918445
Si Si7 0.345150 0.584161 0.320570
O O1 0.500000 0.930240 0.250000
O O2 0.274254 0.974477 0.318409
O O3 0.260689 0.920508 0.510730
O O4 0.391455 0.043161 0.385729
O O5 0.273266 0.238969 0.707858
O O6 0.135020 0.347659 0.721063
O O7 0.298640 0.359260 0.772526
O O8 0.052390 0.300817 0.954194
O O9 0.609301 0.607809 0.838245
O O10 0.656918 0.488936 0.730410
O O11 0.500000 0.500000 0.000000
O O12 0.500000 0.331021 0.250000
O O13 0.590681 0.293630 0.019554
O O14 0.653687 0.409959 0.024812
O O15 0.828875 0.665031 0.505549
O O16 0.500000 0.603889 0.250000
#
# Coordination Sequence:
#
# PCOD8151206 Si02
#       7
#     8   8   8   8   8   8   8
#     4  12  26  43  67 107 145 178 226 296 352 412
#     4  11  23  43  65 101 133 177 224 288 348 417
#     4  12  21  42  68  99 137 183 235 276 343 426
#     4  11  20  35  62 100 128 178 233 279 328 414
#     4  11  23  40  68  99 138 175 225 287 357 404
#     4  11  20  39  66 100 145 171 218 289 350 412
#     4  12  25  45  71  97 136 189 236 282 349 426
#
# _framework density 22.66724
#
# number of rings (size 3 to 8) (size 9 to 14) (size 15 to 20)
#    0.000    0.571    4.286    6.857    0.000    0.571 
#    5.143    0.714    0.000    0.000    0.000    0.000 
#    0.000    0.000    0.000    0.000    0.000    0.000 
#
# Total GULP energy -346949.972247 kJ/mol
# GULP energy per Si atom -12391.070437 kJ/mol
# Density = 2.261565 g / cm^3
# Si number density = 22.667240 Si / 1000 Ang^3
#
#
#
# Elastic Constant Matrix: (Units=GPa)
#
#
# Indices 1 2 3 4 5 6 
#
# 1 114.8262 34.1775 36.6327 0.0004 -12.9610 -0.0003
# 2 34.1775 79.1652 16.8497 0.0004 1.8380 -0.0005
# 3 36.6327 16.8497 60.1431 -0.0004 -12.5046 0.0000
# 4 0.0004 0.0004 -0.0004 11.6410 -0.0001 -0.8199
# 5 -12.9610 1.8380 -12.5046 -0.0001 34.6581 0.0003
# 6 -0.0003 -0.0005 0.0000 -0.8199 0.0003 35.3280
#
#
#
# Elastic Compliance Matrix: (Units=1/GPa)
#
#
# Indices 1 2 3 4 5 6 
#
# 1 0.012011 -0.004050 -0.005624 0.000000 0.002677 0.000000
# 2 -0.004050 0.014961 -0.002383 0.000000 -0.003168 0.000000
# 3 -0.005624 -0.002383 0.021956 0.000001 0.005945 0.000000
# 4 0.000000 0.000000 0.000001 0.086044 0.000000 0.001997
# 5 0.002677 -0.003168 0.005945 0.000000 0.032167 0.000000
# 6 0.000000 0.000000 0.000000 0.001997 0.000000 0.028352
#
#
# Mechanical properties :
#
#
# Convention : Reuss Voigt Hill
#
# Bulk Modulus (GPa) = 40.30179 47.71714 44.00946
# Shear Modulus (GPa) = 21.94145 27.42374 24.68260
#
# Velocity S-wave (km/s) = 3.11461 3.48205 3.30344
# Velocity P-wave (km/s) = 5.54552 6.10435 5.83163
#
# Compressibility (1/GPa) = 0.02481279
#
# Stress axis : x y z
#
# Youngs Moduli (GPa) = 83.25752 66.83932 45.54469
#
# Poissons Ratio (x) = 0.27073 0.25616
# Poissons Ratio (y) = 0.33723 0.10854
# Poissons Ratio (z) = 0.46827 0.15929
#
# Static dielectric constant tensor:
#      x y z
#    x 6.100150 0.000050 -3.173980 
#    y 0.000050 4.225280 -0.000070 
#    z -3.173980 -0.000070 8.322410 
# 
# 
# High freq. dielectric constant tensor:
#      x y z
#    x 1.886910 0.000000 -0.033010 
#    y 0.000000 1.882420 0.000000 
#    z -0.033010 0.000000 1.896430 
# 
# From -- ./inp_files/90712.got.cif
#   From: 2010.06.25/outbox.cif.g09.slc.cpg/sg15_46_cif.got.tgz:90712.got - 2010.06.28 07:06:18.
