data_PCOD8151174
_publ_section_title
;
Structure prediction by ZEFSAII (Michael W. Deem and Ramdas Pophale) SiO2 
 PCOD8151174
Probable space group: C 2/C
;
_chemical_formula_sum "Si O2"
_cell_formula_units_Z 56
_cell_length_a 19.617092
_cell_length_b 17.809572
_cell_length_c 9.896831
_cell_angle_alpha 90.000000
_cell_angle_beta 56.257414
_cell_angle_gamma 90.000000
_cell_volume 2875.200875
_symmetry_space_group_name_H-M "C 2/C"
_symmetry_group_IT_number 15
_symmetry_cell_setting 'monoclinic'
loop_
_space_group_symop_operation_xyz
x,y,z
-x,y,1/2-z
-x,-y,-z
x,-y,1/2+z
1/2+x,1/2+y,z
1/2-x,1/2+y,1/2-z
1/2-x,1/2-y,-z
1/2+x,1/2-y,1/2+z
loop_
_atom_site_type_symbol
_atom_site_label
_atom_site_fract_x
_atom_site_fract_y
_atom_site_fract_z
Si Si1 0.098180 0.566242 0.139795
Si Si2 0.413576 0.602629 0.308118
Si Si3 0.823389 0.139783 0.146301
Si Si4 0.799353 0.707233 0.560734
Si Si5 0.686713 0.029319 0.313677
Si Si6 0.912466 0.070462 0.808929
Si Si7 0.315072 0.401247 0.159647
O O1 0.130226 0.650674 0.071470
O O2 0.125068 0.541024 0.258500
O O3 0.000000 0.566558 0.250000
O O4 0.134720 0.504072 0.996039
O O5 0.500000 0.641117 0.250000
O O6 0.392371 0.614832 0.176057
O O7 0.417098 0.515750 0.344247
O O8 0.345648 0.634913 0.485376
O O9 0.733542 0.108760 0.293278
O O10 0.833096 0.229591 0.125788
O O11 0.841004 0.107361 0.977446
O O12 0.750000 0.750000 0.500000
O O13 0.735589 0.662873 0.717327
O O14 0.759871 0.973815 0.192002
O O15 0.891458 0.078460 0.673742
O O16 0.000000 0.108661 0.750000
#
# Coordination Sequence:
#
# PCOD8151174 Si02
#       7
#     8   8   8   8   8   8   8
#     4  11  24  42  65  95 124 157 206 267 315 361
#     4  11  22  36  55  91 129 156 196 252 302 353
#     4  12  21  38  63  89 121 170 204 250 303 371
#     4  11  23  41  63  89 120 161 212 243 307 379
#     4  11  20  38  66  90 118 159 212 258 305 357
#     4  11  20  33  59  93 123 156 201 248 300 356
#     4  11  21  38  61  89 121 162 206 253 299 368
#
# _framework density 19.476901000000002
#
# number of rings (size 3 to 8) (size 9 to 14) (size 15 to 20)
#    0.000    0.857    5.714    3.000    0.000    3.429 
#    2.571    0.000    0.000    4.286    0.000    0.000 
#    0.000    0.000    0.000    0.000    0.000    0.000 
#
# Total GULP energy -347092.847289 kJ/mol
# GULP energy per Si atom -12396.173117 kJ/mol
# Density = 1.943257 g / cm^3
# Si number density = 19.476901 Si / 1000 Ang^3
#
#
#
# Elastic Constant Matrix: (Units=GPa)
#
#
# Indices 1 2 3 4 5 6 
#
# 1 122.1113 38.6482 28.6229 0.0000 5.7376 0.0000
# 2 38.6482 87.6291 28.8352 0.0000 -1.5289 0.0000
# 3 28.6229 28.8352 78.7942 0.0000 -0.1192 0.0000
# 4 0.0000 0.0000 0.0000 22.0056 0.0000 2.2885
# 5 5.7376 -1.5289 -0.1192 0.0000 34.7950 0.0000
# 6 0.0000 0.0000 0.0000 2.2885 0.0000 17.1180
#
#
#
# Elastic Compliance Matrix: (Units=1/GPa)
#
#
# Indices 1 2 3 4 5 6 
#
# 1 0.009974 -0.003681 -0.002279 0.000000 -0.001814 0.000000
# 2 -0.003681 0.014343 -0.003910 0.000000 0.001224 0.000000
# 3 -0.002279 -0.003910 0.014950 0.000000 0.000255 0.000000
# 4 0.000000 0.000000 0.000000 0.046084 0.000000 -0.006161
# 5 -0.001814 0.001224 0.000255 0.000000 0.029094 0.000000
# 6 0.000000 0.000000 0.000000 -0.006161 0.000000 0.059242
#
#
# Mechanical properties :
#
#
# Convention : Reuss Voigt Hill
#
# Bulk Modulus (GPa) = 51.20832 53.41637 52.31234
# Shear Modulus (GPa) = 25.00825 27.61227 26.31026
#
# Velocity S-wave (km/s) = 3.58718 3.76931 3.67937
# Velocity P-wave (km/s) = 6.59591 6.81386 6.70577
#
# Compressibility (1/GPa) = 0.01952808
#
# Stress axis : x y z
#
# Youngs Moduli (GPa) = 100.26530 69.72040 66.88787
#
# Poissons Ratio (x) = 0.25661 0.15243
# Poissons Ratio (y) = 0.36903 0.26154
# Poissons Ratio (z) = 0.22849 0.27261
#
# Static dielectric constant tensor:
#      x y z
#    x 3.602900 0.000000 -0.115090 
#    y 0.000000 3.607850 0.000000 
#    z -0.115090 0.000000 3.541240 
# 
# 
# High freq. dielectric constant tensor:
#      x y z
#    x 1.764430 0.000000 0.005430 
#    y 0.000000 1.740350 0.000000 
#    z 0.005430 0.000000 1.763150 
# 
# From -- ./inp_files/49019.got.cif
#   From: 2010.06.25/outbox.cif.g09.slc.cpg/sg15_25_cif.got.tgz:49019.got - 2010.06.28 07:06:18.
