data_PCOD8151645
_publ_section_title
;
Structure prediction by ZEFSAII (Michael W. Deem and Ramdas Pophale) SiO2 
 PCOD8151645
Probable space group: C 2/C
;
_chemical_formula_sum "Si O2"
_cell_formula_units_Z 48
_cell_length_a 23.379389
_cell_length_b 8.773205
_cell_length_c 16.079983
_cell_angle_alpha 90.000000
_cell_angle_beta 47.973775
_cell_angle_gamma 90.000000
_cell_volume 2450.030052
_symmetry_space_group_name_H-M "C 2/C"
_symmetry_group_IT_number 15
_symmetry_cell_setting 'monoclinic'
loop_
_space_group_symop_operation_xyz
x,y,z
-x,y,1/2-z
-x,-y,-z
x,-y,1/2+z
1/2+x,1/2+y,z
1/2-x,1/2+y,1/2-z
1/2-x,1/2-y,-z
1/2+x,1/2-y,1/2+z
loop_
_atom_site_type_symbol
_atom_site_label
_atom_site_fract_x
_atom_site_fract_y
_atom_site_fract_z
Si Si1 0.159597 0.198580 0.412946
Si Si2 0.607437 0.067895 0.846664
Si Si3 0.449770 0.889518 0.439966
Si Si4 0.083683 0.349768 0.635305
Si Si5 0.830616 0.717670 0.285116
Si Si6 0.418932 0.409866 0.062919
O O1 0.147005 0.274623 0.334688
O O2 0.095541 0.248131 0.541780
O O3 0.241293 0.261060 0.366804
O O4 0.147937 0.019734 0.406885
O O5 0.542536 0.099790 0.839856
O O6 0.669740 0.953240 0.749895
O O7 0.570993 0.995352 0.963421
O O8 0.427270 0.715045 0.480939
O O9 0.411229 0.968405 0.395499
O O10 0.145696 0.294264 0.642004
O O11 0.000000 0.308803 0.750000
O O12 0.887674 0.830132 0.178142
O O13 0.500000 0.500000 0.000000
#
# Coordination Sequence:
#
# PCOD8151645 Si02
#       6
#     8   8   8   8   8   8
#     4  11  22  37  58  90 124 151 195 254 308 351
#     4   9  17  34  57  78 108 150 198 232 284 350
#     4   9  18  34  57  81 104 147 199 242 276 345
#     4  11  21  38  60  82 116 163 205 239 292 368
#     4  11  22  37  59  88 121 161 197 242 306 359
#     4  11  21  38  63  90 117 152 204 255 290 349
#
# _framework density 19.591595999999999
#
# number of rings (size 3 to 8) (size 9 to 14) (size 15 to 20)
#    0.000    1.667    3.333    2.500    0.000    0.000 
#    0.000    5.000    0.000    0.000    0.000    0.000 
#    0.000    0.000    0.000    0.000    0.000    0.000 
#
# Total GULP energy -297330.418926 kJ/mol
# GULP energy per Si atom -12388.767455 kJ/mol
# Density = 1.954700 g / cm^3
# Si number density = 19.591596 Si / 1000 Ang^3
#
#
#
# Elastic Constant Matrix: (Units=GPa)
#
#
# Indices 1 2 3 4 5 6 
#
# 1 72.7724 30.5513 5.3523 0.0014 2.7793 0.0008
# 2 30.5513 116.1210 26.6795 0.0035 6.6385 0.0011
# 3 5.3523 26.6795 57.4521 0.0025 2.4439 -0.0001
# 4 0.0014 0.0035 0.0025 25.1589 -0.0005 -1.0050
# 5 2.7793 6.6385 2.4439 -0.0005 30.5641 -0.0004
# 6 0.0008 0.0011 -0.0001 -1.0050 -0.0004 28.9196
#
#
#
# Elastic Compliance Matrix: (Units=1/GPa)
#
#
# Indices 1 2 3 4 5 6 
#
# 1 0.015470 -0.004157 0.000512 0.000000 -0.000545 0.000000
# 2 -0.004157 0.010850 -0.004583 -0.000001 -0.001612 0.000000
# 3 0.000512 -0.004583 0.019512 -0.000001 -0.000611 0.000000
# 4 0.000000 -0.000001 -0.000001 0.039803 0.000001 0.001383
# 5 -0.000545 -0.001612 -0.000611 0.000001 0.033167 0.000001
# 6 0.000000 0.000000 0.000000 0.001383 0.000001 0.034627
#
#
# Mechanical properties :
#
#
# Convention : Reuss Voigt Hill
#
# Bulk Modulus (GPa) = 34.03924 41.27908 37.65916
# Shear Modulus (GPa) = 27.82796 29.17935 28.50366
#
# Velocity S-wave (km/s) = 3.77291 3.86344 3.81844
# Velocity P-wave (km/s) = 6.03257 6.40446 6.22129
#
# Compressibility (1/GPa) = 0.02937786
#
# Stress axis : x y z
#
# Youngs Moduli (GPa) = 64.64285 92.16244 51.24980
#
# Poissons Ratio (x) = 0.38308 -0.02625
# Poissons Ratio (y) = 0.26869 0.23487
# Poissons Ratio (z) = -0.03311 0.42237
#
# Static dielectric constant tensor:
#      x y z
#    x 3.593900 0.000000 0.034800 
#    y 0.000000 3.714410 0.000000 
#    z 0.034800 0.000000 3.477210 
# 
# 
# High freq. dielectric constant tensor:
#      x y z
#    x 1.754830 0.000000 -0.005560 
#    y 0.000000 1.759240 0.000000 
#    z -0.005560 0.000000 1.754170 
# 
# From -- ./inp_files/214097.got.cif
#   From: 2010.06.25/outbox.cif.g09.slc.cpg/sg15_108_cif.got.tgz:214097.got - 2010.06.28 07:06:18.
