data_PCOD8151213
_publ_section_title
;
Structure prediction by ZEFSAII (Michael W. Deem and Ramdas Pophale) SiO2 
 PCOD8151213
Probable space group: C 2/C
;
_chemical_formula_sum "Si O2"
_cell_formula_units_Z 52
_cell_length_a 12.450396
_cell_length_b 19.686108
_cell_length_c 22.714339
_cell_angle_alpha 90.000000
_cell_angle_beta 153.323919
_cell_angle_gamma 90.000000
_cell_volume 2499.408518
_symmetry_space_group_name_H-M "C 2/C"
_symmetry_group_IT_number 15
_symmetry_cell_setting 'monoclinic'
loop_
_space_group_symop_operation_xyz
x,y,z
-x,y,1/2-z
-x,-y,-z
x,-y,1/2+z
1/2+x,1/2+y,z
1/2-x,1/2+y,1/2-z
1/2-x,1/2-y,-z
1/2+x,1/2-y,1/2+z
loop_
_atom_site_type_symbol
_atom_site_label
_atom_site_fract_x
_atom_site_fract_y
_atom_site_fract_z
Si Si1 0.802656 0.857640 0.480554
Si Si2 0.500000 0.237229 0.750000
Si Si3 0.405596 0.039130 0.799415
Si Si4 0.002496 0.925115 0.026392
Si Si5 0.982219 0.389660 0.675028
Si Si6 0.749747 0.491091 0.842485
Si Si7 0.193361 0.842788 0.763265
O O1 0.624033 0.803926 0.363706
O O2 0.668293 0.928334 0.430780
O O3 0.012937 0.874395 0.536895
O O4 0.935607 0.833276 0.604617
O O5 0.702728 0.283448 0.816724
O O6 0.254019 0.087555 0.682019
O O7 0.390509 0.963007 0.766134
O O8 0.280261 0.039394 0.801274
O O9 0.797668 0.905764 0.973143
O O10 0.000000 0.000000 0.000000
O O11 0.000000 0.360168 0.750000
O O12 0.089811 0.338475 0.678532
O O13 0.500000 0.515561 0.750000
O O14 0.716298 0.413008 0.808917
O O15 0.000000 0.500000 0.000000
#
# Coordination Sequence:
#
# PCOD8151213 Si02
#       7
#     8   4   8   8   8   8   8
#     4  12  22  42  68  97 126 176 230 279 334 404
#     4  12  26  46  66  94 134 188 240 276 322 414
#     4  11  22  33  63  98 129 163 216 277 344 403
#     4  12  19  34  61 100 135 154 209 284 349 398
#     4  11  20  35  63  97 132 167 202 281 353 392
#     4  11  24  42  65 100 144 181 220 282 363 427
#     4  11  25  43  66  93 134 180 226 277 335 410
#
# _framework density 20.804922999999999
#
# number of rings (size 3 to 8) (size 9 to 14) (size 15 to 20)
#    0.000    0.615    6.923    2.308    4.308    0.000 
#    0.000    0.769    0.000    0.923    0.000    0.000 
#    0.000    0.000    0.000    0.000    0.000    0.000 
#
# Total GULP energy -322172.967793 kJ/mol
# GULP energy per Si atom -12391.267992 kJ/mol
# Density = 2.075757 g / cm^3
# Si number density = 20.804923 Si / 1000 Ang^3
#
#
#
# Elastic Constant Matrix: (Units=GPa)
#
#
# Indices 1 2 3 4 5 6 
#
# 1 145.0165 31.9489 19.4295 0.0028 18.4046 0.0014
# 2 31.9489 65.2837 14.3054 0.0053 -1.4876 0.0029
# 3 19.4295 14.3054 97.2866 0.0386 6.5298 0.0105
# 4 0.0028 0.0053 0.0386 22.7664 0.0087 -1.9339
# 5 18.4046 -1.4876 6.5298 0.0087 36.3232 -0.0006
# 6 0.0014 0.0029 0.0105 -1.9339 -0.0006 32.1197
#
#
#
# Elastic Compliance Matrix: (Units=1/GPa)
#
#
# Indices 1 2 3 4 5 6 
#
# 1 0.008442 -0.004054 -0.000801 0.000003 -0.004299 0.000000
# 2 -0.004054 0.017816 -0.002021 -0.000002 0.003147 -0.000001
# 3 -0.000801 -0.002021 0.010845 -0.000018 -0.001626 -0.000004
# 4 0.000003 -0.000002 -0.000018 0.044150 -0.000009 0.002658
# 5 -0.004299 0.003147 -0.001626 -0.000009 0.030130 0.000000
# 6 0.000000 -0.000001 -0.000004 0.002658 0.000000 0.031294
#
#
# Mechanical properties :
#
#
# Convention : Reuss Voigt Hill
#
# Bulk Modulus (GPa) = 42.82547 48.77270 45.79909
# Shear Modulus (GPa) = 30.44807 34.36871 32.40839
#
# Velocity S-wave (km/s) = 3.82973 4.06883 3.95109
# Velocity P-wave (km/s) = 6.33914 6.75038 6.54799
#
# Compressibility (1/GPa) = 0.02335059
#
# Stress axis : x y z
#
# Youngs Moduli (GPa) = 118.45743 56.12863 92.20547
#
# Poissons Ratio (x) = 0.22753 0.07389
# Poissons Ratio (y) = 0.48019 0.18638
# Poissons Ratio (z) = 0.09492 0.11346
#
# Static dielectric constant tensor:
#      x y z
#    x 4.231610 -0.000010 0.086660 
#    y -0.000010 3.418410 -0.000080 
#    z 0.086660 -0.000080 4.010890 
# 
# 
# High freq. dielectric constant tensor:
#      x y z
#    x 1.831110 0.000000 0.002880 
#    y 0.000000 1.770310 0.000000 
#    z 0.002880 0.000000 1.819610 
# 
# From -- ./inp_files/114376.got.cif
#   From: 2010.06.25/outbox.cif.g09.slc.cpg/sg15_58_cif.got.tgz:114376.got - 2010.06.28 07:06:18.
