data_PCOD8151249
_publ_section_title
;
Structure prediction by ZEFSAII (Michael W. Deem and Ramdas Pophale) SiO2 
 PCOD8151249
Probable space group: C 2/C
;
_chemical_formula_sum "Si O2"
_cell_formula_units_Z 56
_cell_length_a 29.491167
_cell_length_b 18.078121
_cell_length_c 18.710605
_cell_angle_alpha 90.000000
_cell_angle_beta 162.176370
_cell_angle_gamma 90.000000
_cell_volume 3053.369204
_symmetry_space_group_name_H-M "C 2/C"
_symmetry_group_IT_number 15
_symmetry_cell_setting 'monoclinic'
loop_
_space_group_symop_operation_xyz
x,y,z
-x,y,1/2-z
-x,-y,-z
x,-y,1/2+z
1/2+x,1/2+y,z
1/2-x,1/2+y,1/2-z
1/2-x,1/2-y,-z
1/2+x,1/2-y,1/2+z
loop_
_atom_site_type_symbol
_atom_site_label
_atom_site_fract_x
_atom_site_fract_y
_atom_site_fract_z
Si Si1 0.849382 0.933250 0.409424
Si Si2 0.617512 0.866102 0.554605
Si Si3 0.291516 0.821772 0.105959
Si Si4 0.328804 0.023517 0.248869
Si Si5 0.140786 0.219845 0.512675
Si Si6 0.329778 0.528443 0.119851
Si Si7 0.839727 0.501404 0.489527
O O1 0.894761 0.847821 0.487650
O O2 0.993490 0.985928 0.614021
O O3 0.760301 0.958571 0.345561
O O4 0.745128 0.939834 0.183760
O O5 0.448670 0.852933 0.320265
O O6 0.692609 0.899696 0.739203
O O7 0.686919 0.789242 0.631648
O O8 0.632189 0.924355 0.513051
O O9 0.250000 0.750000 0.000000
O O10 0.282065 0.799666 0.175332
O O11 0.178724 0.887636 0.920590
O O12 0.500000 0.000000 0.500000
O O13 0.255372 0.029509 0.060207
O O14 0.000000 0.237958 0.250000
O O15 0.260562 0.520571 0.093604
O O16 0.000000 0.468008 0.750000
#
# Coordination Sequence:
#
# PCOD8151249 Si02
#       7
#     8   8   8   8   8   8   8
#     4  11  22  36  55  85 116 151 194 242 304 349
#     4  11  22  36  56  87 118 153 195 241 299 361
#     4  12  20  31  55  84 119 149 183 237 306 353
#     4  11  20  37  58  81 116 159 201 235 291 362
#     4  12  20  33  55  83 116 147 182 244 303 349
#     4  12  20  35  56  83 117 152 196 243 293 347
#     4  11  22  37  58  82 115 154 199 246 289 354
#
# _framework density 18.340395000000001
#
# number of rings (size 3 to 8) (size 9 to 14) (size 15 to 20)
#    0.000    0.571    7.143    3.000    0.000    0.000 
#    0.000    0.000    0.000    4.286    0.000    0.000 
#    0.000    0.000    0.000    0.000    0.000    0.000 
#
# Total GULP energy -347126.179533 kJ/mol
# GULP energy per Si atom -12397.363555 kJ/mol
# Density = 1.829865 g / cm^3
# Si number density = 18.340395 Si / 1000 Ang^3
#
#
#
# Elastic Constant Matrix: (Units=GPa)
#
#
# Indices 1 2 3 4 5 6 
#
# 1 131.9702 37.6023 43.0466 0.0000 2.6040 0.0000
# 2 37.6023 91.4691 26.1425 0.0000 -16.5113 0.0000
# 3 43.0466 26.1425 93.1852 0.0000 -2.8882 0.0000
# 4 0.0000 0.0000 0.0000 20.9976 0.0000 -7.0727
# 5 2.6040 -16.5113 -2.8882 0.0000 30.0498 0.0000
# 6 0.0000 0.0000 0.0000 -7.0727 0.0000 33.2022
#
#
#
# Elastic Compliance Matrix: (Units=1/GPa)
#
#
# Indices 1 2 3 4 5 6 
#
# 1 0.009848 -0.003580 -0.003643 0.000000 -0.003170 0.000000
# 2 -0.003580 0.014475 -0.002158 0.000000 0.008056 0.000000
# 3 -0.003643 -0.002158 0.013032 0.000000 0.000383 0.000000
# 4 0.000000 0.000000 0.000000 0.051306 0.000000 0.010929
# 5 -0.003170 0.008056 0.000383 0.000000 0.038016 0.000000
# 6 0.000000 0.000000 0.000000 0.010929 0.000000 0.032447
#
#
# Mechanical properties :
#
#
# Convention : Reuss Voigt Hill
#
# Bulk Modulus (GPa) = 53.78153 58.91191 56.34672
# Shear Modulus (GPa) = 27.16164 30.83879 29.00021
#
# Velocity S-wave (km/s) = 3.85252 4.10502 3.98077
# Velocity P-wave (km/s) = 7.01263 7.39320 7.20542
#
# Compressibility (1/GPa) = 0.01859374
#
# Stress axis : x y z
#
# Youngs Moduli (GPa) = 101.53928 69.08398 76.73671
#
# Poissons Ratio (x) = 0.24729 0.27959
# Poissons Ratio (y) = 0.36347 0.16557
# Poissons Ratio (z) = 0.36996 0.14906
#
# Static dielectric constant tensor:
#      x y z
#    x 3.750190 0.000000 0.031090 
#    y 0.000000 2.895250 0.000000 
#    z 0.031090 0.000000 3.330640 
# 
# 
# High freq. dielectric constant tensor:
#      x y z
#    x 1.737900 0.000000 0.014600 
#    y 0.000000 1.690190 0.000000 
#    z 0.014600 0.000000 1.692610 
# 
# From -- ./inp_files/200121.got.cif
#   From: 2010.06.25/outbox.cif.g09.slc.cpg/sg15_101_cif.got.tgz:200121.got - 2010.06.28 07:06:18.
