data_PCOD8151655
_publ_section_title
;
Structure prediction by ZEFSAII (Michael W. Deem and Ramdas Pophale) SiO2 
 PCOD8151655
Probable space group: C 2/C
;
_chemical_formula_sum "Si O2"
_cell_formula_units_Z 48
_cell_length_a 9.115761
_cell_length_b 24.892163
_cell_length_c 15.743691
_cell_angle_alpha 90.000000
_cell_angle_beta 37.369337
_cell_angle_gamma 90.000000
_cell_volume 2168.280544
_symmetry_space_group_name_H-M "C 2/C"
_symmetry_group_IT_number 15
_symmetry_cell_setting 'monoclinic'
loop_
_space_group_symop_operation_xyz
x,y,z
-x,y,1/2-z
-x,-y,-z
x,-y,1/2+z
1/2+x,1/2+y,z
1/2-x,1/2+y,1/2-z
1/2-x,1/2-y,-z
1/2+x,1/2-y,1/2+z
loop_
_atom_site_type_symbol
_atom_site_label
_atom_site_fract_x
_atom_site_fract_y
_atom_site_fract_z
Si Si1 0.085403 0.720774 0.857130
Si Si2 0.472013 0.893272 0.042527
Si Si3 0.837219 0.797356 0.080908
Si Si4 0.000000 0.499890 0.750000
Si Si5 0.300531 0.586925 0.543734
Si Si6 0.000000 0.039767 0.750000
Si Si7 0.729440 0.554305 0.239434
O O1 0.071738 0.670397 0.928701
O O2 0.322252 0.722170 0.686858
O O3 0.876173 0.722054 0.882733
O O4 0.075155 0.772489 0.925024
O O5 0.229012 0.922772 0.122709
O O6 0.564361 0.912376 0.091814
O O7 0.686458 0.909178 0.878365
O O8 0.823371 0.861604 0.093901
O O9 0.966128 0.461990 0.683763
O O10 0.246726 0.534901 0.626017
O O11 0.550579 0.589115 0.378671
O O12 0.080802 0.999839 0.787265
#
# Coordination Sequence:
#
# PCOD8151655 Si02
#       7
#     8   8   8   4   8   4   8
#     4   9  19  36  59  91 122 160 206 267 318 375
#     4  11  22  39  63  90 128 165 218 257 319 380
#     4   9  19  34  60  90 125 157 207 265 323 368
#     4  12  24  40  58  94 136 166 214 258 320 376
#     4  11  21  38  61  93 126 166 210 267 315 375
#     4  12  22  40  62  88 126 176 212 252 318 378
#     4  12  24  39  63  93 128 174 212 263 311 382
#
# _framework density 22.137356
#
# number of rings (size 3 to 8) (size 9 to 14) (size 15 to 20)
#    0.000    1.333    3.333    4.000    2.333    0.000 
#    0.000    0.000    0.000    2.000    0.000    0.000 
#    0.000    0.000    0.000    0.000    0.000    0.000 
#
# Total GULP energy -297336.825794 kJ/mol
# GULP energy per Si atom -12389.034408 kJ/mol
# Density = 2.208697 g / cm^3
# Si number density = 22.137356 Si / 1000 Ang^3
#
#
#
# Elastic Constant Matrix: (Units=GPa)
#
#
# Indices 1 2 3 4 5 6 
#
# 1 53.6324 36.2253 19.7863 0.0000 7.8795 0.0000
# 2 36.2253 72.2032 39.4492 0.0000 12.8881 0.0000
# 3 19.7863 39.4492 144.3926 -0.0001 12.7859 0.0001
# 4 0.0000 0.0000 -0.0001 34.3753 0.0000 4.0520
# 5 7.8795 12.8881 12.7859 0.0000 27.2779 0.0000
# 6 0.0000 0.0000 0.0001 4.0520 0.0000 11.3554
#
#
#
# Elastic Compliance Matrix: (Units=1/GPa)
#
#
# Indices 1 2 3 4 5 6 
#
# 1 0.028267 -0.013935 0.000077 0.000000 -0.001617 0.000000
# 2 -0.013935 0.024097 -0.004196 0.000000 -0.005393 0.000000
# 3 0.000077 -0.004196 0.008229 0.000000 -0.001897 0.000000
# 4 0.000000 0.000000 0.000000 0.030368 0.000000 -0.010836
# 5 -0.001617 -0.005393 -0.001897 0.000000 0.040564 0.000000
# 6 0.000000 0.000000 0.000000 -0.010836 0.000000 0.091931
#
#
# Mechanical properties :
#
#
# Convention : Reuss Voigt Hill
#
# Bulk Modulus (GPa) = 40.84324 51.23885 46.04104
# Shear Modulus (GPa) = 18.67579 26.25289 22.46434
#
# Velocity S-wave (km/s) = 2.90769 3.44744 3.18900
# Velocity P-wave (km/s) = 5.45553 6.24841 5.86538
#
# Compressibility (1/GPa) = 0.02448386
#
# Stress axis : x y z
#
# Youngs Moduli (GPa) = 35.37687 41.49961 121.51486
#
# Poissons Ratio (x) = 0.57831 -0.00935
# Poissons Ratio (y) = 0.49299 0.50991
# Poissons Ratio (z) = -0.00272 0.17414
#
# Static dielectric constant tensor:
#      x y z
#    x 3.696870 0.000000 0.145750 
#    y 0.000000 3.987210 0.000000 
#    z 0.145750 0.000000 4.195250 
# 
# 
# High freq. dielectric constant tensor:
#      x y z
#    x 1.832590 0.000000 0.021120 
#    y 0.000000 1.861730 0.000000 
#    z 0.021120 0.000000 1.878750 
# 
# From -- ./inp_files/138960.got.cif
#   From: 2010.06.25/outbox.cif.g09.slc.cpg/sg15_70_cif.got.tgz:138960.got - 2010.06.28 07:06:18.
