data_PCOD8151739
_publ_section_title
;
Structure prediction by ZEFSAII (Michael W. Deem and Ramdas Pophale) SiO2 
 PCOD8151739
Probable space group: C 2/C
;
_chemical_formula_sum "Si O2"
_cell_formula_units_Z 48
_cell_length_a 14.740540
_cell_length_b 34.230865
_cell_length_c 5.214908
_cell_angle_alpha 90.000000
_cell_angle_beta 60.107956
_cell_angle_gamma 90.000000
_cell_volume 2281.287203
_symmetry_space_group_name_H-M "C 2/C"
_symmetry_group_IT_number 15
_symmetry_cell_setting 'monoclinic'
loop_
_space_group_symop_operation_xyz
x,y,z
-x,y,1/2-z
-x,-y,-z
x,-y,1/2+z
1/2+x,1/2+y,z
1/2-x,1/2+y,1/2-z
1/2-x,1/2-y,-z
1/2+x,1/2-y,1/2+z
loop_
_atom_site_type_symbol
_atom_site_label
_atom_site_fract_x
_atom_site_fract_y
_atom_site_fract_z
Si Si1 0.000000 0.773768 0.250000
Si Si2 0.500000 0.221520 0.750000
Si Si3 0.886374 0.604428 0.364324
Si Si4 0.500000 0.473954 0.250000
Si Si5 0.846304 0.346986 0.415416
Si Si6 0.631344 0.656796 0.436040
Si Si7 0.500000 0.611877 0.250000
Si Si8 0.332696 0.582214 0.811098
O O1 0.009570 0.747996 0.487431
O O2 0.896384 0.800995 0.410386
O O3 0.602360 0.194920 0.615505
O O4 0.876583 0.638047 0.591898
O O5 0.791539 0.572271 0.541879
O O6 0.000000 0.583920 0.250000
O O7 0.883938 0.622724 0.082569
O O8 0.500000 0.500000 0.500000
O O9 0.605343 0.447277 0.087712
O O10 0.721960 0.339589 0.595821
O O11 0.525883 0.639042 0.456410
O O12 0.673118 0.627017 0.589218
O O13 0.400459 0.583612 0.451981
#
# Coordination Sequence:
#
# PCOD8151739 Si02
#       8
#     4   4   8   4   8   8   4   8
#     4  12  25  38  58  81 118 169 208 263 330 392
#     4  12  25  40  55  78 126 161 210 263 326 412
#     4  11  21  39  67  94 120 158 218 270 310 354
#     4  12  26  42  65 102 148 172 192 236 312 388
#     4  11  23  39  60  86 117 162 205 273 331 368
#     4  11  23  37  62  88 118 155 217 273 310 367
#     4  12  16  38  64  91 126 146 206 276 308 348
#     4  11  23  38  68  97 125 167 209 262 303 363
#
# _framework density 21.040751
#
# number of rings (size 3 to 8) (size 9 to 14) (size 15 to 20)
#    0.000    0.667    6.667    2.000    0.000    1.333 
#    0.000    0.000    0.000    1.000    0.000    0.000 
#    0.000    0.000    0.000    0.000    0.000    0.000 
#
# Total GULP energy -297486.641763 kJ/mol
# GULP energy per Si atom -12395.276740 kJ/mol
# Density = 2.099286 g / cm^3
# Si number density = 21.040751 Si / 1000 Ang^3
#
#
#
# Elastic Constant Matrix: (Units=GPa)
#
#
# Indices 1 2 3 4 5 6 
#
# 1 126.5455 40.8393 43.6033 0.0000 -24.9130 0.0000
# 2 40.8393 78.3649 28.6590 0.0000 -0.9177 0.0000
# 3 43.6033 28.6590 97.4498 0.0000 -1.0088 0.0000
# 4 0.0000 0.0000 0.0000 25.2879 0.0000 10.3157
# 5 -24.9130 -0.9177 -1.0088 0.0000 55.7281 0.0000
# 6 0.0000 0.0000 0.0000 10.3157 0.0000 24.0951
#
#
#
# Elastic Compliance Matrix: (Units=1/GPa)
#
#
# Indices 1 2 3 4 5 6 
#
# 1 0.011725 -0.004652 -0.003825 0.000000 0.005096 0.000000
# 2 -0.004652 0.016146 -0.002686 0.000000 -0.001862 0.000000
# 3 -0.003825 -0.002686 0.012748 0.000000 -0.001524 0.000000
# 4 0.000000 0.000000 0.000000 0.047912 0.000000 -0.020512
# 5 0.005096 -0.001862 -0.001524 0.000000 0.020164 0.000000
# 6 0.000000 0.000000 0.000000 -0.020512 0.000000 0.050284
#
#
# Mechanical properties :
#
#
# Convention : Reuss Voigt Hill
#
# Bulk Modulus (GPa) = 54.67041 58.72924 56.69983
# Shear Modulus (GPa) = 26.68064 33.63948 30.16006
#
# Velocity S-wave (km/s) = 3.56483 4.00281 3.79015
# Velocity P-wave (km/s) = 6.55618 7.02396 6.79410
#
# Compressibility (1/GPa) = 0.01829143
#
# Stress axis : x y z
#
# Youngs Moduli (GPa) = 85.28954 61.93672 78.44635
#
# Poissons Ratio (x) = 0.28810 0.30009
# Poissons Ratio (y) = 0.39673 0.21072
# Poissons Ratio (z) = 0.32627 0.16637
#
# Static dielectric constant tensor:
#      x y z
#    x 3.596300 0.000000 -1.157510 
#    y 0.000000 3.569620 0.000000 
#    z -1.157510 0.000000 3.082750 
# 
# 
# High freq. dielectric constant tensor:
#      x y z
#    x 1.831490 0.000000 -0.005820 
#    y 0.000000 1.776400 0.000000 
#    z -0.005820 0.000000 1.849290 
# 
# From -- ./inp_files/8992.got.cif
#   From: 2010.06.25/outbox.cif.g09.slc.cpg/sg15_5_cif.got.tgz:8992.got - 2010.06.28 07:06:18.
