data_PCOD8151518
_publ_section_title
;
Structure prediction by ZEFSAII (Michael W. Deem and Ramdas Pophale) SiO2 
 PCOD8151518
Probable space group: C 2/C
;
_chemical_formula_sum "Si O2"
_cell_formula_units_Z 44
_cell_length_a 23.551441
_cell_length_b 17.620841
_cell_length_c 8.963413
_cell_angle_alpha 90.000000
_cell_angle_beta 40.364400
_cell_angle_gamma 90.000000
_cell_volume 2409.104380
_symmetry_space_group_name_H-M "C 2/C"
_symmetry_group_IT_number 15
_symmetry_cell_setting 'monoclinic'
loop_
_space_group_symop_operation_xyz
x,y,z
-x,y,1/2-z
-x,-y,-z
x,-y,1/2+z
1/2+x,1/2+y,z
1/2-x,1/2+y,1/2-z
1/2-x,1/2-y,-z
1/2+x,1/2-y,1/2+z
loop_
_atom_site_type_symbol
_atom_site_label
_atom_site_fract_x
_atom_site_fract_y
_atom_site_fract_z
Si Si1 0.102082 0.919164 0.067858
Si Si2 0.145402 0.058115 0.148086
Si Si3 0.416455 0.758329 0.504641
Si Si4 0.500000 0.383529 0.750000
Si Si5 0.407782 0.244097 0.357923
Si Si6 0.260128 0.708145 0.634944
O O1 0.112786 0.833230 0.099325
O O2 0.000000 0.940805 0.250000
O O3 0.160122 0.970959 0.066264
O O4 0.150338 0.932251 0.813958
O O5 0.047193 0.067976 0.281441
O O6 0.207464 0.121624 0.949548
O O7 0.434614 0.668159 0.479187
O O8 0.408526 0.789533 0.688387
O O9 0.325628 0.763982 0.595868
O O10 0.500000 0.797303 0.250000
O O11 0.500000 0.225690 0.250000
O O12 0.332539 0.200309 0.597522
O O13 0.250000 0.750000 0.500000
#
# Coordination Sequence:
#
# PCOD8151518 Si02
#       6
#     8   8   8   4   8   8
#     4  11  22  31  53  79 113 144 181 212 280 333
#     4  11  21  33  50  78 111 150 175 223 266 334
#     4   9  19  32  53  78 108 143 180 224 270 322
#     4   8  16  30  48  72 110 138 172 206 266 322
#     4  11  21  36  56  83 111 149 184 226 274 328
#     4  11  21  37  52  76 116 152 185 226 270 324
#
# _framework density 18.264047999999999
#
# number of rings (size 3 to 8) (size 9 to 14) (size 15 to 20)
#    0.545    1.091    2.727    4.364    5.091    0.000 
#    0.000    0.000    0.000    0.000    0.000    2.545 
#    0.000    0.000    0.000    0.000    0.000    0.000 
#
# Total GULP energy -272539.465868 kJ/mol
# GULP energy per Si atom -12388.157539 kJ/mol
# Density = 1.822248 g / cm^3
# Si number density = 18.264048 Si / 1000 Ang^3
#
#
#
# Elastic Constant Matrix: (Units=GPa)
#
#
# Indices 1 2 3 4 5 6 
#
# 1 100.4507 9.2633 51.4434 0.0000 6.6184 0.0000
# 2 9.2633 48.3559 20.0490 0.0000 -6.1617 0.0000
# 3 51.4434 20.0490 137.9767 0.0000 9.8916 0.0000
# 4 0.0000 0.0000 0.0000 7.7827 0.0000 1.4586
# 5 6.6184 -6.1617 9.8916 0.0000 36.7581 0.0000
# 6 0.0000 0.0000 0.0000 1.4586 0.0000 19.9754
#
#
#
# Elastic Compliance Matrix: (Units=1/GPa)
#
#
# Indices 1 2 3 4 5 6 
#
# 1 0.012361 -0.000678 -0.004428 0.000000 -0.001148 0.000000
# 2 -0.000678 0.022847 -0.003416 0.000000 0.004871 0.000000
# 3 -0.004428 -0.003416 0.009563 0.000000 -0.002349 0.000000
# 4 0.000000 0.000000 0.000000 0.130273 0.000000 -0.009512
# 5 -0.001148 0.004871 -0.002349 0.000000 0.028860 0.000000
# 6 0.000000 0.000000 0.000000 -0.009512 0.000000 0.050756
#
#
# Mechanical properties :
#
#
# Convention : Reuss Voigt Hill
#
# Bulk Modulus (GPa) = 36.06645 49.81054 42.93850
# Shear Modulus (GPa) = 17.79694 26.63843 22.21768
#
# Velocity S-wave (km/s) = 3.12496 3.82320 3.49158
# Velocity P-wave (km/s) = 5.72806 6.84257 6.30997
#
# Compressibility (1/GPa) = 0.02772660
#
# Stress axis : x y z
#
# Youngs Moduli (GPa) = 80.90025 43.76940 104.56692
#
# Poissons Ratio (x) = 0.02969 0.46300
# Poissons Ratio (y) = 0.05488 0.35722
# Poissons Ratio (z) = 0.35821 0.14952
#
# Static dielectric constant tensor:
#      x y z
#    x 3.405050 0.000000 0.144510 
#    y 0.000000 3.084750 0.000000 
#    z 0.144510 0.000000 3.471930 
# 
# 
# High freq. dielectric constant tensor:
#      x y z
#    x 1.707680 0.000000 0.019760 
#    y 0.000000 1.666180 0.000000 
#    z 0.019760 0.000000 1.706060 
# 
# From -- ./inp_files/57188.got.cif
#   From: 2010.06.25/outbox.cif.g09.slc.cpg/sg15_29_cif.got.tgz:57188.got - 2010.06.28 07:06:18.
