data_PCOD8151977
_publ_section_title
;
Structure prediction by ZEFSAII (Michael W. Deem and Ramdas Pophale) SiO2 
 PCOD8151977
Probable space group: C 2/C
;
_chemical_formula_sum "Si O2"
_cell_formula_units_Z 64
_cell_length_a 11.881725
_cell_length_b 20.114188
_cell_length_c 18.126676
_cell_angle_alpha 90.000000
_cell_angle_beta 130.956278
_cell_angle_gamma 90.000000
_cell_volume 3271.658027
_symmetry_space_group_name_H-M "C 2/C"
_symmetry_group_IT_number 15
_symmetry_cell_setting 'monoclinic'
loop_
_space_group_symop_operation_xyz
x,y,z
-x,y,1/2-z
-x,-y,-z
x,-y,1/2+z
1/2+x,1/2+y,z
1/2-x,1/2+y,1/2-z
1/2-x,1/2-y,-z
1/2+x,1/2-y,1/2+z
loop_
_atom_site_type_symbol
_atom_site_label
_atom_site_fract_x
_atom_site_fract_y
_atom_site_fract_z
Si Si1 0.888422 0.994124 0.138422
Si Si2 0.367199 0.986854 0.250000
Si Si3 0.092912 0.441571 0.073069
Si Si4 0.365559 0.859160 0.750000
Si Si5 0.546097 0.683582 0.059156
Si Si6 0.053226 0.941571 0.073069
Si Si7 0.883437 0.143026 0.133437
Si Si8 0.072215 0.316418 0.559156
O O1 0.838547 0.067593 0.088547
O O2 0.000000 0.012946 0.250000
O O3 0.758997 0.948567 0.114519
O O4 0.970040 0.948567 0.114518
O O5 0.500000 0.984618 0.250000
O O6 0.324713 0.063612 0.250000
O O7 0.416073 0.946950 0.343025
O O8 0.230023 0.946950 0.156976
O O9 0.000000 0.500000 0.000000
O O10 0.030474 0.372555 0.019353
O O11 0.500000 0.853875 0.750000
O O12 0.221265 0.823631 0.653129
O O13 0.415008 0.823631 0.846871
O O14 0.453175 0.682024 0.094695
O O15 0.491767 0.627445 0.980647
O O16 0.513938 0.750000 0.000000
O O17 0.000000 0.000000 0.000000
O O18 0.736215 0.182024 0.094695
O O19 0.000000 0.144263 0.250000
#
# Coordination Sequence:
#
# PCOD8151977 Si02
#       8
#     8   8   8   8   8   8   8   8
#     4  11  22  41  68 100 134 172 224 279 329 389
#     4  11  24  42  67 103 137 169 223 286 330 385
#     4  12  24  41  68  98 130 174 225 273 328 387
#     4  11  24  46  69  95 133 179 225 274 332 397
#     4  12  27  45  68 100 137 180 222 268 337 403
#     4  12  24  41  68  98 130 174 225 273 328 387
#     4  11  21  43  73  94 133 176 219 276 335 400
#     4  12  27  45  68 100 137 180 222 268 337 403
#
# _framework density 19.561945999999999
#
# number of rings (size 3 to 8) (size 9 to 14) (size 15 to 20)
#    0.000    0.500    7.500    0.375    5.250    1.500 
#    0.000    0.000    0.000    0.000    0.000    0.000 
#    0.000    0.000    0.000    0.000    0.000    0.000 
#
# Total GULP energy -396866.940246 kJ/mol
# GULP energy per Si atom -12402.091883 kJ/mol
# Density = 1.951742 g / cm^3
# Si number density = 19.561946 Si / 1000 Ang^3
#
#
#
# Elastic Constant Matrix: (Units=GPa)
#
#
# Indices 1 2 3 4 5 6 
#
# 1 121.3051 37.5067 50.6438 0.0000 -0.0270 0.0000
# 2 37.5067 142.2954 77.4892 0.0000 0.6224 0.0000
# 3 50.6438 77.4892 149.9944 0.0000 0.4733 0.0000
# 4 0.0000 0.0000 0.0000 36.5902 0.0000 0.1734
# 5 -0.0270 0.6224 0.4733 0.0000 34.4765 0.0000
# 6 0.0000 0.0000 0.0000 0.1734 0.0000 25.4525
#
#
#
# Elastic Compliance Matrix: (Units=1/GPa)
#
#
# Indices 1 2 3 4 5 6 
#
# 1 0.009714 -0.001078 -0.002723 0.000000 0.000064 0.000000
# 2 -0.001078 0.009899 -0.004750 0.000000 -0.000114 0.000000
# 3 -0.002723 -0.004750 0.010040 0.000000 -0.000054 0.000000
# 4 0.000000 0.000000 0.000000 0.027331 0.000000 -0.000186
# 5 0.000064 -0.000114 -0.000054 0.000000 0.029008 0.000000
# 6 0.000000 0.000000 0.000000 -0.000186 0.000000 0.039290
#
#
# Mechanical properties :
#
#
# Convention : Reuss Voigt Hill
#
# Bulk Modulus (GPa) = 79.67000 82.76381 81.21690
# Shear Modulus (GPa) = 34.11424 35.83419 34.97421
#
# Velocity S-wave (km/s) = 4.18054 4.28463 4.23291
# Velocity P-wave (km/s) = 8.00737 8.17789 8.09308
#
# Compressibility (1/GPa) = 0.01255178
#
# Stress axis : x y z
#
# Youngs Moduli (GPa) = 102.94605 101.02406 99.59956
#
# Poissons Ratio (x) = 0.10888 0.27123
# Poissons Ratio (y) = 0.11095 0.47305
# Poissons Ratio (z) = 0.28034 0.47982
#
# Static dielectric constant tensor:
#      x y z
#    x 3.676650 0.000000 0.001580 
#    y 0.000000 3.202110 0.000000 
#    z 0.001580 0.000000 3.777980 
# 
# 
# High freq. dielectric constant tensor:
#      x y z
#    x 1.779070 0.000000 0.000010 
#    y 0.000000 1.745670 0.000000 
#    z 0.000010 0.000000 1.779810 
# 
# From -- ./inp_files/200405.got.cif
#   From: 2010.06.25/outbox.cif.g09.slc.cpg/sg15_101_cif.got.tgz:200405.got - 2010.06.28 07:06:18.
