data_PCOD8151545
_publ_section_title
;
Structure prediction by ZEFSAII (Michael W. Deem and Ramdas Pophale) SiO2 
 PCOD8151545
Probable space group: C 2/C
;
_chemical_formula_sum "Si O2"
_cell_formula_units_Z 64
_cell_length_a 20.696865
_cell_length_b 11.440399
_cell_length_c 28.202159
_cell_angle_alpha 90.000000
_cell_angle_beta 149.280620
_cell_angle_gamma 90.000000
_cell_volume 3411.203747
_symmetry_space_group_name_H-M "C 2/C"
_symmetry_group_IT_number 15
_symmetry_cell_setting 'monoclinic'
loop_
_space_group_symop_operation_xyz
x,y,z
-x,y,1/2-z
-x,-y,-z
x,-y,1/2+z
1/2+x,1/2+y,z
1/2-x,1/2+y,1/2-z
1/2-x,1/2-y,-z
1/2+x,1/2-y,1/2+z
loop_
_atom_site_type_symbol
_atom_site_label
_atom_site_fract_x
_atom_site_fract_y
_atom_site_fract_z
Si Si1 0.291303 0.142806 0.836005
Si Si2 0.613242 0.199426 0.167824
Si Si3 0.890244 0.451216 0.303794
Si Si4 0.710485 0.387627 0.805674
Si Si5 0.957258 0.753317 0.631895
Si Si6 0.679008 0.551713 0.597535
Si Si7 0.252299 0.743143 0.923171
Si Si8 0.946471 0.180808 0.492846
O O1 0.182582 0.233537 0.753690
O O2 0.378387 0.113604 0.846227
O O3 0.382872 0.203243 0.931617
O O4 0.225816 0.027159 0.815992
O O5 0.706922 0.170995 0.183473
O O6 0.555577 0.081141 0.153906
O O7 0.501523 0.281538 0.078330
O O8 0.750463 0.458845 0.192797
O O9 0.982884 0.376705 0.328792
O O10 0.565308 0.352406 0.703519
O O11 0.760063 0.342870 0.887789
O O12 0.869023 0.769661 0.621566
O O13 0.879523 0.764000 0.534269
O O14 0.765613 0.617999 0.613731
O O15 0.552179 0.628466 0.524138
O O16 0.653584 0.422520 0.561346
#
# Coordination Sequence:
#
# PCOD8151545 Si02
#       8
#     8   8   8   8   8   8   8   8
#     4  11  22  35  55  87 121 147 187 225 295 351
#     4  11  22  36  55  90 119 151 185 227 296 349
#     4  11  21  36  58  83 118 152 186 238 284 339
#     4  11  23  36  58  84 119 151 185 236 287 347
#     4  11  23  39  61  80 115 149 194 247 278 341
#     4  11  21  35  60  84 115 153 198 230 287 342
#     4  11  23  39  58  87 108 150 202 234 289 331
#     4  11  22  35  57  85 119 155 180 241 281 352
#
# _framework density 18.761706
#
# number of rings (size 3 to 8) (size 9 to 14) (size 15 to 20)
#    0.000    1.000    6.250    1.125    3.500    1.000 
#    0.000    0.000    0.000    3.750    0.000    0.000 
#    0.000    0.000    0.000    0.000    0.000    0.000 
#
# Total GULP energy -396849.254476 kJ/mol
# GULP energy per Si atom -12401.539202 kJ/mol
# Density = 1.871900 g / cm^3
# Si number density = 18.761706 Si / 1000 Ang^3
#
#
#
# Elastic Constant Matrix: (Units=GPa)
#
#
# Indices 1 2 3 4 5 6 
#
# 1 51.3480 28.7655 19.8469 0.0001 -4.5117 0.0000
# 2 28.7655 124.4596 28.0078 0.0001 1.2941 0.0000
# 3 19.8469 28.0078 85.8951 -0.0008 -6.0268 0.0001
# 4 0.0001 0.0001 -0.0008 39.3058 -0.0001 -2.1718
# 5 -4.5117 1.2941 -6.0268 -0.0001 19.0859 0.0001
# 6 0.0000 0.0000 0.0001 -2.1718 0.0001 20.5698
#
#
#
# Elastic Compliance Matrix: (Units=1/GPa)
#
#
# Indices 1 2 3 4 5 6 
#
# 1 0.023983 -0.004773 -0.003646 0.000000 0.004842 0.000000
# 2 -0.004773 0.009664 -0.002223 0.000000 -0.002485 0.000000
# 3 -0.003646 -0.002223 0.013457 0.000000 0.003538 0.000000
# 4 0.000000 0.000000 0.000000 0.025591 0.000000 0.002702
# 5 0.004842 -0.002485 0.003538 0.000000 0.054825 0.000000
# 6 0.000000 0.000000 0.000000 0.002702 0.000000 0.048900
#
#
# Mechanical properties :
#
#
# Convention : Reuss Voigt Hill
#
# Bulk Modulus (GPa) = 38.72626 46.10480 42.41553
# Shear Modulus (GPa) = 24.23528 28.13112 26.18320
#
# Velocity S-wave (km/s) = 3.59798 3.87640 3.73978
# Velocity P-wave (km/s) = 6.16008 6.68300 6.42686
#
# Compressibility (1/GPa) = 0.02582227
#
# Stress axis : x y z
#
# Youngs Moduli (GPa) = 41.69553 103.47764 74.30831
#
# Poissons Ratio (x) = 0.49391 0.27089
# Poissons Ratio (y) = 0.19902 0.16516
# Poissons Ratio (z) = 0.15200 0.22999
#
# Static dielectric constant tensor:
#      x y z
#    x 3.115470 0.000000 -0.105560 
#    y 0.000000 3.626350 0.000000 
#    z -0.105560 0.000000 3.617820 
# 
# 
# High freq. dielectric constant tensor:
#      x y z
#    x 1.685070 0.000000 -0.014320 
#    y 0.000000 1.737530 0.000000 
#    z -0.014320 0.000000 1.746900 
# 
# From -- ./inp_files/252584.got.cif
#   From: 2010.06.25/outbox.cif.g09.slc.cpg/sg15_127_cif.got.tgz:252584.got - 2010.06.28 07:06:18.
