data_PCOD8151539
_publ_section_title
;
Structure prediction by ZEFSAII (Michael W. Deem and Ramdas Pophale) SiO2 
 PCOD8151539
Probable space group: C 2/C
;
_chemical_formula_sum "Si O2"
_cell_formula_units_Z 36
_cell_length_a 18.546417
_cell_length_b 15.124195
_cell_length_c 8.965174
_cell_angle_alpha 90.000000
_cell_angle_beta 46.177538
_cell_angle_gamma 90.000000
_cell_volume 1814.348132
_symmetry_space_group_name_H-M "C 2/C"
_symmetry_group_IT_number 15
_symmetry_cell_setting 'monoclinic'
loop_
_space_group_symop_operation_xyz
x,y,z
-x,y,1/2-z
-x,-y,-z
x,-y,1/2+z
1/2+x,1/2+y,z
1/2-x,1/2+y,1/2-z
1/2-x,1/2-y,-z
1/2+x,1/2-y,1/2+z
loop_
_atom_site_type_symbol
_atom_site_label
_atom_site_fract_x
_atom_site_fract_y
_atom_site_fract_z
Si Si1 0.495021 0.655772 0.095415
Si Si2 0.217983 0.888022 0.209957
Si Si3 0.500000 0.488891 0.250000
Si Si4 0.200731 0.230276 0.229419
Si Si5 0.709134 0.565592 0.393212
O O1 0.500000 0.703936 0.250000
O O2 0.455522 0.554250 0.183274
O O3 0.418066 0.713388 0.110578
O O4 0.603699 0.647050 0.864298
O O5 0.286580 0.809020 0.171361
O O6 0.236513 0.967917 0.298486
O O7 0.252959 0.917902 0.995816
O O8 0.412091 0.425914 0.433390
O O9 0.251632 0.141245 0.222937
O O10 0.250000 0.250000 0.000000
#
# Coordination Sequence:
#
# PCOD8151539 Si02
#       5
#     8   8   4   8   8
#     4   9  18  35  56  84 114 147 184 228 285 333
#     4  11  22  37  56  89 114 149 188 229 286 334
#     4   8  16  34  54  86 110 140 180 232 300 320
#     4  12  21  35  56  83 117 153 184 230 282 337
#     4  11  21  35  57  84 118 145 184 236 282 341
#
# _framework density 19.841837999999999
#
# number of rings (size 3 to 8) (size 9 to 14) (size 15 to 20)
#    0.667    0.889    2.222    4.667    0.000    3.556 
#    0.000    0.000    0.000    1.333    0.000    3.111 
#    0.000    0.000    0.000    0.000    0.000    0.000 
#
# Total GULP energy -223050.539222 kJ/mol
# GULP energy per Si atom -12391.696623 kJ/mol
# Density = 1.979668 g / cm^3
# Si number density = 19.841838 Si / 1000 Ang^3
#
#
#
# Elastic Constant Matrix: (Units=GPa)
#
#
# Indices 1 2 3 4 5 6 
#
# 1 88.8354 68.9098 50.2162 0.0000 19.4776 0.0000
# 2 68.9098 131.9492 43.2765 0.0000 5.8217 0.0000
# 3 50.2162 43.2765 65.1827 0.0000 18.7544 0.0000
# 4 0.0000 0.0000 0.0000 30.6050 0.0000 10.5740
# 5 19.4776 5.8217 18.7544 0.0000 18.0108 0.0000
# 6 0.0000 0.0000 0.0000 10.5740 0.0000 41.9147
#
#
#
# Elastic Compliance Matrix: (Units=1/GPa)
#
#
# Indices 1 2 3 4 5 6 
#
# 1 0.029849 -0.011437 -0.010249 0.000000 -0.017911 0.000000
# 2 -0.011437 0.014409 -0.004246 0.000000 0.012132 0.000000
# 3 -0.010249 -0.004246 0.032085 0.000000 -0.020954 0.000000
# 4 0.000000 0.000000 0.000000 0.035794 0.000000 -0.009030
# 5 -0.017911 0.012132 -0.020954 0.000000 0.092789 0.000000
# 6 0.000000 0.000000 0.000000 -0.009030 0.000000 0.026136
#
#
# Mechanical properties :
#
#
# Convention : Reuss Voigt Hill
#
# Bulk Modulus (GPa) = 40.85113 67.86359 54.35736
# Shear Modulus (GPa) = 17.17709 26.34377 21.76043
#
# Velocity S-wave (km/s) = 2.94547 3.64770 3.31523
# Velocity P-wave (km/s) = 5.67458 7.21231 6.48915
#
# Compressibility (1/GPa) = 0.02447913
#
# Stress axis : x y z
#
# Youngs Moduli (GPa) = 33.50242 69.40161 31.16706
#
# Poissons Ratio (x) = 0.79373 0.31942
# Poissons Ratio (y) = 0.38316 0.13235
# Poissons Ratio (z) = 0.34335 0.29471
#
# Static dielectric constant tensor:
#      x y z
#    x 3.499700 0.000000 0.360540 
#    y 0.000000 3.598560 0.000000 
#    z 0.360540 0.000000 3.539440 
# 
# 
# High freq. dielectric constant tensor:
#      x y z
#    x 1.756220 0.000000 0.042530 
#    y 0.000000 1.765450 0.000000 
#    z 0.042530 0.000000 1.759220 
# 
# From -- ./inp_files/54852.got.cif
#   From: 2010.06.25/outbox.cif.g09.slc.cpg/sg15_28_cif.got.tgz:54852.got - 2010.06.28 07:06:18.
