data_PCOD8151204
_publ_section_title
;
Structure prediction by ZEFSAII (Michael W. Deem and Ramdas Pophale) SiO2 
 PCOD8151204
Probable space group: C 2/C
;
_chemical_formula_sum "Si O2"
_cell_formula_units_Z 64
_cell_length_a 23.160186
_cell_length_b 12.003373
_cell_length_c 12.142681
_cell_angle_alpha 90.000000
_cell_angle_beta 69.379651
_cell_angle_gamma 90.000000
_cell_volume 3159.405684
_symmetry_space_group_name_H-M "C 2/C"
_symmetry_group_IT_number 15
_symmetry_cell_setting 'monoclinic'
loop_
_space_group_symop_operation_xyz
x,y,z
-x,y,1/2-z
-x,-y,-z
x,-y,1/2+z
1/2+x,1/2+y,z
1/2-x,1/2+y,1/2-z
1/2-x,1/2-y,-z
1/2+x,1/2-y,1/2+z
loop_
_atom_site_type_symbol
_atom_site_label
_atom_site_fract_x
_atom_site_fract_y
_atom_site_fract_z
Si Si1 0.071905 0.116307 0.724004
Si Si2 0.661813 0.288403 0.004792
Si Si3 0.071396 0.132460 0.177527
Si Si4 0.136008 0.821139 0.405730
Si Si5 0.720150 0.877084 0.908707
Si Si6 0.166165 0.755315 0.752414
Si Si7 0.723577 0.921511 0.532131
Si Si8 0.761389 0.455576 0.281663
O O1 0.096914 0.179324 0.599764
O O2 0.095242 0.173495 0.821795
O O3 0.000000 0.125952 0.750000
O O4 0.092787 0.987461 0.708919
O O5 0.669617 0.155721 0.021075
O O6 0.663506 0.315169 0.873433
O O7 0.711745 0.360341 0.041669
O O8 0.103174 0.227773 0.229373
O O9 0.000000 0.150963 0.250000
O O10 0.091104 0.142775 0.036043
O O11 0.160485 0.693850 0.410551
O O12 0.195111 0.901849 0.356270
O O13 0.780833 0.802970 0.863903
O O14 0.736257 0.998358 0.843346
O O15 0.713286 0.940651 0.030069
O O16 0.180507 0.626700 0.756713
O O17 0.724917 0.927189 0.664459
#
# Coordination Sequence:
#
# PCOD8151204 Si02
#       8
#     8   8   8   8   8   8   8   8
#     4  11  26  41  64  88 119 163 207 252 308 356
#     4  11  22  36  61  94 124 158 202 251 301 371
#     4  11  26  42  65  89 121 168 208 254 307 362
#     4  11  24  42  62  93 128 160 207 257 303 372
#     4  11  21  37  61  95 125 160 195 245 316 370
#     4  11  22  37  61  94 125 160 201 250 309 366
#     4  11  21  35  60  92 126 157 197 243 312 366
#     4  11  20  35  61  93 124 162 191 249 312 370
#
# _framework density 20.256974
#
# number of rings (size 3 to 8) (size 9 to 14) (size 15 to 20)
#    0.000    1.000    2.500    5.250    7.000    3.000 
#    0.000    0.000    0.000    8.250    0.000    0.000 
#    0.000    0.000    0.000    0.000    0.000    0.000 
#
# Total GULP energy -396428.146314 kJ/mol
# GULP energy per Si atom -12388.379572 kJ/mol
# Density = 2.021087 g / cm^3
# Si number density = 20.256974 Si / 1000 Ang^3
#
#
#
# Elastic Constant Matrix: (Units=GPa)
#
#
# Indices 1 2 3 4 5 6 
#
# 1 86.9034 28.5266 39.4330 0.0000 1.6852 0.0000
# 2 28.5266 69.3611 7.6090 0.0000 -4.4056 0.0000
# 3 39.4330 7.6090 80.0768 0.0000 -12.5374 0.0000
# 4 0.0000 0.0000 0.0000 31.8338 0.0000 7.7062
# 5 1.6852 -4.4056 -12.5374 0.0000 29.2287 0.0000
# 6 0.0000 0.0000 0.0000 7.7062 0.0000 28.4608
#
#
#
# Elastic Compliance Matrix: (Units=1/GPa)
#
#
# Indices 1 2 3 4 5 6 
#
# 1 0.018005 -0.006781 -0.009160 0.000000 -0.005989 0.000000
# 2 -0.006781 0.017204 0.002328 0.000000 0.003983 0.000000
# 3 -0.009160 0.002328 0.018133 0.000000 0.008657 0.000000
# 4 0.000000 0.000000 0.000000 0.033617 0.000000 -0.009102
# 5 -0.005989 0.003983 0.008657 0.000000 0.038872 0.000000
# 6 0.000000 0.000000 0.000000 -0.009102 0.000000 0.037601
#
#
# Mechanical properties :
#
#
# Convention : Reuss Voigt Hill
#
# Bulk Modulus (GPa) = 38.29011 43.05317 40.67164
# Shear Modulus (GPa) = 25.07999 28.62284 26.85142
#
# Velocity S-wave (km/s) = 3.52247 3.76305 3.64475
# Velocity P-wave (km/s) = 5.95709 6.33880 6.15091
#
# Compressibility (1/GPa) = 0.02611641
#
# Stress axis : x y z
#
# Youngs Moduli (GPa) = 55.53889 58.12724 55.14818
#
# Poissons Ratio (x) = 0.39415 0.50516
# Poissons Ratio (y) = 0.37660 -0.12838
# Poissons Ratio (z) = 0.50874 -0.13532
#
# Static dielectric constant tensor:
#      x y z
#    x 3.406600 0.000000 0.131470 
#    y 0.000000 3.780170 0.000000 
#    z 0.131470 0.000000 3.912260 
# 
# 
# High freq. dielectric constant tensor:
#      x y z
#    x 1.760830 0.000000 0.020100 
#    y 0.000000 1.797790 0.000000 
#    z 0.020100 0.000000 1.816190 
# 
# From -- ./inp_files/117992.got.cif
#   From: 2010.06.25/outbox.cif.g09.slc.cpg/sg15_59_cif.got.tgz:117992.got - 2010.06.28 07:06:18.
