data_PCOD8151482
_publ_section_title
;
Structure prediction by ZEFSAII (Michael W. Deem and Ramdas Pophale) SiO2 
 PCOD8151482
Probable space group: C 2/C
;
_chemical_formula_sum "Si O2"
_cell_formula_units_Z 60
_cell_length_a 11.993014
_cell_length_b 18.263477
_cell_length_c 20.290591
_cell_angle_alpha 90.000000
_cell_angle_beta 37.953731
_cell_angle_gamma 90.000000
_cell_volume 2733.374964
_symmetry_space_group_name_H-M "C 2/C"
_symmetry_group_IT_number 15
_symmetry_cell_setting 'monoclinic'
loop_
_space_group_symop_operation_xyz
x,y,z
-x,y,1/2-z
-x,-y,-z
x,-y,1/2+z
1/2+x,1/2+y,z
1/2-x,1/2+y,1/2-z
1/2-x,1/2-y,-z
1/2+x,1/2-y,1/2+z
loop_
_atom_site_type_symbol
_atom_site_label
_atom_site_fract_x
_atom_site_fract_y
_atom_site_fract_z
Si Si1 0.675214 0.275913 0.317754
Si Si2 0.788058 0.472474 0.663025
Si Si3 0.751665 0.120492 0.442461
Si Si4 0.520798 0.551299 0.400420
Si Si5 0.905708 0.106480 0.994892
Si Si6 0.658878 0.140966 0.874866
Si Si7 0.500000 0.270678 0.750000
Si Si8 0.077643 0.362251 0.557341
O O1 0.544005 0.328052 0.419913
O O2 0.713960 0.304534 0.225728
O O3 0.864841 0.277117 0.268390
O O4 0.581700 0.196493 0.355413
O O5 0.744067 0.448198 0.609472
O O6 0.644706 0.435955 0.779032
O O7 0.782481 0.559162 0.671010
O O8 0.986806 0.441754 0.589024
O O9 0.551547 0.152745 0.545669
O O10 0.877883 0.183997 0.356846
O O11 0.829174 0.091748 0.476134
O O12 0.620080 0.589188 0.415859
O O13 0.487989 0.465442 0.423467
O O14 0.713270 0.131860 0.055237
O O15 0.688165 0.157947 0.938929
#
# Coordination Sequence:
#
# PCOD8151482 Si02
#       8
#     8   8   8   8   8   8   4   8
#     4  12  26  45  66 104 144 183 234 286 353 421
#     4  11  20  43  71 102 133 172 242 286 339 408
#     4  11  21  43  72 102 131 170 234 292 337 408
#     4  11  22  42  70 102 138 185 224 291 349 396
#     4  11  26  44  65 102 147 183 233 279 345 424
#     4  11  24  42  73 101 133 183 228 293 345 400
#     4  12  24  44  68 100 138 172 230 286 344 424
#     4  11  24  47  69 101 140 184 237 282 345 417
#
# _framework density 21.950885
#
# number of rings (size 3 to 8) (size 9 to 14) (size 15 to 20)
#    0.000    0.800    5.333    3.600    1.867    3.733 
#    0.000    2.667    0.000    0.000    0.000    0.000 
#    0.000    0.000    0.000    0.000    0.000    0.000 
#
# Total GULP energy -372089.438185 kJ/mol
# GULP energy per Si atom -12402.981273 kJ/mol
# Density = 2.190092 g / cm^3
# Si number density = 21.950885 Si / 1000 Ang^3
#
#
#
# Elastic Constant Matrix: (Units=GPa)
#
#
# Indices 1 2 3 4 5 6 
#
# 1 139.4058 39.9769 33.0543 0.0044 -13.3087 0.0011
# 2 39.9769 77.2021 23.3518 0.0176 8.6241 -0.0041
# 3 33.0543 23.3518 80.2799 0.0286 8.7372 -0.0070
# 4 0.0044 0.0176 0.0286 14.6900 -0.0079 -3.1806
# 5 -13.3087 8.6241 8.7372 -0.0079 23.6946 0.0026
# 6 0.0011 -0.0041 -0.0070 -3.1806 0.0026 19.1923
#
#
#
# Elastic Compliance Matrix: (Units=1/GPa)
#
#
# Indices 1 2 3 4 5 6 
#
# 1 0.010467 -0.005308 -0.003767 0.000015 0.009200 -0.000002
# 2 -0.005308 0.017231 -0.001895 -0.000020 -0.008554 0.000001
# 3 -0.003767 -0.001895 0.015329 -0.000030 -0.007078 0.000001
# 4 0.000015 -0.000020 -0.000030 0.070607 0.000049 0.011701
# 5 0.009200 -0.008554 -0.007078 0.000049 0.053095 -0.000004
# 6 -0.000002 0.000001 0.000001 0.011701 -0.000004 0.054043
#
#
# Mechanical properties :
#
#
# Convention : Reuss Voigt Hill
#
# Bulk Modulus (GPa) = 47.42598 54.40597 50.91598
# Shear Modulus (GPa) = 20.02065 24.88236 22.45151
#
# Velocity S-wave (km/s) = 3.02332 3.37047 3.20160
# Velocity P-wave (km/s) = 5.81719 6.32344 6.07559
#
# Compressibility (1/GPa) = 0.02108549
#
# Stress axis : x y z
#
# Youngs Moduli (GPa) = 95.53797 58.03594 65.23542
#
# Poissons Ratio (x) = 0.30808 0.24573
# Poissons Ratio (y) = 0.50715 0.12365
# Poissons Ratio (z) = 0.35988 0.11000
#
# Static dielectric constant tensor:
#      x y z
#    x 4.137150 0.000000 -0.111280 
#    y 0.000000 3.893540 0.000010 
#    z -0.111280 0.000010 4.002020 
# 
# 
# High freq. dielectric constant tensor:
#      x y z
#    x 1.865090 0.000000 -0.004210 
#    y 0.000000 1.865380 0.000000 
#    z -0.004210 0.000000 1.863350 
# 
# From -- ./inp_files/239945.got.cif
#   From: 2010.06.25/outbox.cif.g09.slc.cpg/sg15_120_cif.got.tgz:239945.got - 2010.06.28 07:06:18.
