data_PCOD8151225
_publ_section_title
;
Structure prediction by ZEFSAII (Michael W. Deem and Ramdas Pophale) SiO2 
 PCOD8151225
Probable space group: C 2/C
;
_chemical_formula_sum "Si O2"
_cell_formula_units_Z 44
_cell_length_a 16.999579
_cell_length_b 9.200832
_cell_length_c 13.509204
_cell_angle_alpha 90.000000
_cell_angle_beta 90.168323
_cell_angle_gamma 90.000000
_cell_volume 2112.969133
_symmetry_space_group_name_H-M "C 2/C"
_symmetry_group_IT_number 15
_symmetry_cell_setting 'monoclinic'
loop_
_space_group_symop_operation_xyz
x,y,z
-x,y,1/2-z
-x,-y,-z
x,-y,1/2+z
1/2+x,1/2+y,z
1/2-x,1/2+y,1/2-z
1/2-x,1/2-y,-z
1/2+x,1/2-y,1/2+z
loop_
_atom_site_type_symbol
_atom_site_label
_atom_site_fract_x
_atom_site_fract_y
_atom_site_fract_z
Si Si1 0.000000 0.594417 0.250000
Si Si2 0.270285 0.977970 0.128164
Si Si3 0.690909 0.681568 0.277704
Si Si4 0.100571 0.326672 0.923311
Si Si5 0.111583 0.623655 0.637884
Si Si6 0.710793 0.448361 0.424747
O O1 0.964654 0.696283 0.162284
O O2 0.933251 0.500258 0.302792
O O3 0.252685 0.097180 0.210797
O O4 0.359112 0.015364 0.093775
O O5 0.263845 0.816346 0.171025
O O6 0.209966 0.993786 0.036986
O O7 0.617208 0.737713 0.211936
O O8 0.662812 0.568694 0.361801
O O9 0.166957 0.204042 0.917933
O O10 0.066153 0.332014 0.035911
O O11 0.200424 0.572022 0.614345
#
# Coordination Sequence:
#
# PCOD8151225 Si02
#       6
#     4   8   8   8   8   8
#     4  12  24  40  66  98 132 172 212 258 334 394
#     4  11  20  36  60  98 126 164 216 266 315 368
#     4  12  19  36  62  96 132 161 209 270 320 370
#     4  11  21  41  63  92 128 171 213 269 318 381
#     4  11  22  38  64  92 130 167 215 264 317 383
#     4  11  22  38  66  96 127 164 222 271 312 373
#
# _framework density 20.823778000000001
#
# number of rings (size 3 to 8) (size 9 to 14) (size 15 to 20)
#    0.000    0.727    7.273    2.182    0.000    0.000 
#    0.000    0.909    0.000    2.182    0.000    0.000 
#    0.000    0.000    0.000    0.000    0.000    0.000 
#
# Total GULP energy -272674.154493 kJ/mol
# GULP energy per Si atom -12394.279750 kJ/mol
# Density = 2.077638 g / cm^3
# Si number density = 20.823778 Si / 1000 Ang^3
#
#
#
# Elastic Constant Matrix: (Units=GPa)
#
#
# Indices 1 2 3 4 5 6 
#
# 1 46.1497 14.2323 33.4388 0.0000 3.4119 0.0000
# 2 14.2323 73.0656 57.8428 0.0000 -10.6737 0.0000
# 3 33.4388 57.8428 196.0046 0.0000 28.0630 0.0000
# 4 0.0000 0.0000 0.0000 38.2319 0.0000 15.1225
# 5 3.4119 -10.6737 28.0630 0.0000 31.1036 0.0000
# 6 0.0000 0.0000 0.0000 15.1225 0.0000 15.3201
#
#
#
# Elastic Compliance Matrix: (Units=1/GPa)
#
#
# Indices 1 2 3 4 5 6 
#
# 1 0.024935 -0.001985 -0.003651 0.000000 -0.000123 0.000000
# 2 -0.001985 0.023561 -0.008961 0.000000 0.016388 0.000000
# 3 -0.003651 -0.008961 0.010050 0.000000 -0.011742 0.000000
# 4 0.000000 0.000000 0.000000 0.042910 0.000000 -0.042357
# 5 -0.000123 0.016388 -0.011742 0.000000 0.048382 0.000000
# 6 0.000000 0.000000 0.000000 -0.042357 0.000000 0.107084
#
#
# Mechanical properties :
#
#
# Convention : Reuss Voigt Hill
#
# Bulk Modulus (GPa) = 34.06735 58.47196 46.26965
# Shear Modulus (GPa) = 16.89764 30.91153 23.90458
#
# Velocity S-wave (km/s) = 2.85170 3.85702 3.39181
# Velocity P-wave (km/s) = 5.21903 6.92646 6.13246
#
# Compressibility (1/GPa) = 0.02935362
#
# Stress axis : x y z
#
# Youngs Moduli (GPa) = 40.10428 42.44364 99.49936
#
# Poissons Ratio (x) = 0.08424 0.36324
# Poissons Ratio (y) = 0.07960 0.89158
# Poissons Ratio (z) = 0.14641 0.38032
#
# Static dielectric constant tensor:
#      x y z
#    x 3.259910 0.000000 0.135220 
#    y 0.000000 3.773310 0.000000 
#    z 0.135220 0.000000 4.742240 
# 
# 
# High freq. dielectric constant tensor:
#      x y z
#    x 1.758350 0.000000 0.003580 
#    y 0.000000 1.804670 0.000000 
#    z 0.003580 0.000000 1.860510 
# 
# From -- ./inp_files/159294.got.cif
#   From: 2010.06.25/outbox.cif.g09.slc.cpg/sg15_80_cif.got.tgz:159294.got - 2010.06.28 07:06:18.
