data_PCOD8151417
_publ_section_title
;
Structure prediction by ZEFSAII (Michael W. Deem and Ramdas Pophale) SiO2 
 PCOD8151417
Probable space group: C 2/C
;
_chemical_formula_sum "Si O2"
_cell_formula_units_Z 36
_cell_length_a 18.272985
_cell_length_b 13.963088
_cell_length_c 19.983972
_cell_angle_alpha 90.000000
_cell_angle_beta 158.568962
_cell_angle_gamma 90.000000
_cell_volume 1863.025768
_symmetry_space_group_name_H-M "C 2/C"
_symmetry_group_IT_number 15
_symmetry_cell_setting 'monoclinic'
loop_
_space_group_symop_operation_xyz
x,y,z
-x,y,1/2-z
-x,-y,-z
x,-y,1/2+z
1/2+x,1/2+y,z
1/2-x,1/2+y,1/2-z
1/2-x,1/2-y,-z
1/2+x,1/2-y,1/2+z
loop_
_atom_site_type_symbol
_atom_site_label
_atom_site_fract_x
_atom_site_fract_y
_atom_site_fract_z
Si Si1 0.036488 0.342920 0.203326
Si Si2 0.380205 0.376894 0.713088
Si Si3 0.400076 0.525724 0.984361
Si Si4 0.700643 0.872156 0.893007
Si Si5 0.000000 0.189368 0.750000
O O1 0.046424 0.228889 0.204246
O O2 0.239923 0.388099 0.347028
O O3 0.000000 0.370677 0.250000
O O4 0.855128 0.380566 0.003153
O O5 0.500000 0.412040 0.750000
O O6 0.428848 0.448750 0.815696
O O7 0.500000 0.500000 0.000000
O O8 0.279997 0.427764 0.896834
O O9 0.500000 0.924612 0.750000
O O10 0.648748 0.760058 0.833580
O O11 0.872754 0.879652 0.095315
#
# Coordination Sequence:
#
# PCOD8151417 Si02
#       5
#     8   8   8   8   4
#     4  11  20  41  67  93 121 164 213 255 306 372
#     4  11  21  39  69  93 118 167 210 256 308 373
#     4  12  26  39  57  99 130 157 207 254 312 375
#     4   9  19  38  61  85 114 149 206 250 286 357
#     4   8  18  38  64  90 100 158 214 240 300 340
#
# _framework density 19.323405000000001
#
# number of rings (size 3 to 8) (size 9 to 14) (size 15 to 20)
#    0.667    0.889    4.444    2.000    1.556    0.889 
#    4.000    0.000    0.000    0.000    0.000    0.000 
#    0.000    0.000    0.000    0.000    0.000    0.000 
#
# Total GULP energy -223082.650789 kJ/mol
# GULP energy per Si atom -12393.480599 kJ/mol
# Density = 1.927942 g / cm^3
# Si number density = 19.323405 Si / 1000 Ang^3
#
#
#
# Elastic Constant Matrix: (Units=GPa)
#
#
# Indices 1 2 3 4 5 6 
#
# 1 144.7256 50.3387 54.0413 0.0458 10.8893 -0.0029
# 2 50.3387 57.8642 15.4368 0.3520 1.6447 0.0557
# 3 54.0413 15.4368 139.4190 0.2609 -11.7070 0.0007
# 4 0.0458 0.3520 0.2609 6.0629 0.0039 -8.2733
# 5 10.8893 1.6447 -11.7070 0.0039 27.8877 0.0058
# 6 -0.0029 0.0557 0.0007 -8.2733 0.0058 14.2862
#
#
#
# Elastic Compliance Matrix: (Units=1/GPa)
#
#
# Indices 1 2 3 4 5 6 
#
# 1 0.012161 -0.009314 -0.004189 0.003287 -0.005958 0.001945
# 2 -0.009314 0.025076 0.001067 -0.007488 0.002608 -0.004437
# 3 -0.004189 0.001067 0.009136 -0.002085 0.005409 -0.001215
# 4 0.003287 -0.007488 -0.002085 0.788938 -0.001923 0.456915
# 5 -0.005958 0.002608 0.005409 -0.001923 0.040302 -0.001141
# 6 0.001945 -0.004437 -0.001215 0.456915 -0.001141 0.334621
#
#
# Mechanical properties :
#
#
# Convention : Reuss Voigt Hill
#
# Bulk Modulus (GPa) = 46.51085 64.62693 55.56889
# Shear Modulus (GPa) = 4.02488 24.46017 14.24253
#
# Velocity S-wave (km/s) = 1.44479 3.56171 2.71783
# Velocity P-wave (km/s) = 5.18702 7.10154 6.21840
#
# Compressibility (1/GPa) = 0.02150036
#
# Stress axis : x y z
#
# Youngs Moduli (GPa) = 82.23133 39.87917 109.45380
#
# Poissons Ratio (x) = 0.37144 0.45850
# Poissons Ratio (y) = 0.76592 -0.11678
# Poissons Ratio (z) = 0.34446 -0.04255
#
# Static dielectric constant tensor:
#      x y z
#    x 3.053780 0.000010 -0.088460 
#    y 0.000010 3.428680 -0.000580 
#    z -0.088460 -0.000580 3.590870 
# 
# 
# High freq. dielectric constant tensor:
#      x y z
#    x 1.697320 0.000000 -0.005870 
#    y 0.000000 1.756780 -0.000020 
#    z -0.005870 -0.000020 1.774970 
# 
# From -- ./inp_files/215634.got.cif
#   From: 2010.06.25/outbox.cif.g09.slc.cpg/sg15_108_cif.got.tgz:215634.got - 2010.06.28 07:06:18.
