data_PCOD8151787
_publ_section_title
;
Structure prediction by ZEFSAII (Michael W. Deem and Ramdas Pophale) SiO2 
 PCOD8151787
Probable space group: C 2/C
;
_chemical_formula_sum "Si O2"
_cell_formula_units_Z 48
_cell_length_a 9.639091
_cell_length_b 10.336036
_cell_length_c 23.997614
_cell_angle_alpha 90.000000
_cell_angle_beta 75.343105
_cell_angle_gamma 90.000000
_cell_volume 2313.078922
_symmetry_space_group_name_H-M "C 2/C"
_symmetry_group_IT_number 15
_symmetry_cell_setting 'monoclinic'
loop_
_space_group_symop_operation_xyz
x,y,z
-x,y,1/2-z
-x,-y,-z
x,-y,1/2+z
1/2+x,1/2+y,z
1/2-x,1/2+y,1/2-z
1/2-x,1/2-y,-z
1/2+x,1/2-y,1/2+z
loop_
_atom_site_type_symbol
_atom_site_label
_atom_site_fract_x
_atom_site_fract_y
_atom_site_fract_z
Si Si1 0.165676 0.419561 0.722486
Si Si2 0.672973 0.034501 0.891771
Si Si3 0.800023 0.264806 0.558051
Si Si4 0.666360 0.628519 0.723463
Si Si5 0.384843 0.837234 0.989050
Si Si6 0.867600 0.479334 0.390032
O O1 0.254542 0.523531 0.747551
O O2 0.212202 0.274459 0.735634
O O3 0.198131 0.436142 0.653358
O O4 0.000000 0.444158 0.750000
O O5 0.799973 0.106319 0.845764
O O6 0.601196 0.111597 0.949931
O O7 0.539708 0.027650 0.861832
O O8 0.738930 0.900698 0.908540
O O9 0.750000 0.250000 0.500000
O O10 0.720149 0.155309 0.602071
O O11 0.973750 0.255883 0.542270
O O12 0.500000 0.608765 0.750000
O O13 0.250000 0.750000 0.000000
O O14 0.349495 0.955186 0.951843
#
# Coordination Sequence:
#
# PCOD8151787 Si02
#       6
#     8   8   8   8   8   8
#     4  11  25  46  70  94 134 181 225 276 342 398
#     4  11  22  42  67  95 135 174 223 279 333 398
#     4  11  21  40  66  96 128 178 224 260 332 411
#     4  11  27  46  69 102 133 173 233 285 333 403
#     4  11  23  39  63  96 138 169 216 280 336 390
#     4  11  22  41  68  95 130 179 220 269 338 401
#
# _framework density 20.751563000000001
#
# number of rings (size 3 to 8) (size 9 to 14) (size 15 to 20)
#    0.000    1.000    5.000    2.000    2.333    5.333 
#    3.000    0.000    0.000    0.000    0.000    0.000 
#    0.000    0.000    0.000    0.000    0.000    0.000 
#
# Total GULP energy -297499.836920 kJ/mol
# GULP energy per Si atom -12395.826538 kJ/mol
# Density = 2.070433 g / cm^3
# Si number density = 20.751563 Si / 1000 Ang^3
#
#
#
# Elastic Constant Matrix: (Units=GPa)
#
#
# Indices 1 2 3 4 5 6 
#
# 1 80.4406 86.8811 36.9471 0.0000 -2.4242 0.0000
# 2 86.8811 154.7928 43.7716 0.0000 -0.9326 0.0000
# 3 36.9471 43.7716 109.9261 0.0000 -1.4778 0.0000
# 4 0.0000 0.0000 0.0000 30.8547 0.0000 -1.0252
# 5 -2.4242 -0.9326 -1.4778 0.0000 31.4169 0.0000
# 6 0.0000 0.0000 0.0000 -1.0252 0.0000 43.5223
#
#
#
# Elastic Compliance Matrix: (Units=1/GPa)
#
#
# Indices 1 2 3 4 5 6 
#
# 1 0.033324 -0.017503 -0.004206 0.000000 0.001854 0.000000
# 2 -0.017503 0.016474 -0.000689 0.000000 -0.000894 0.000000
# 3 -0.004206 -0.000689 0.010787 0.000000 0.000162 0.000000
# 4 0.000000 0.000000 0.000000 0.032435 0.000000 0.000764
# 5 0.001854 -0.000894 0.000162 0.000000 0.031954 0.000000
# 6 0.000000 0.000000 0.000000 0.000764 0.000000 0.022995
#
#
# Mechanical properties :
#
#
# Convention : Reuss Voigt Hill
#
# Bulk Modulus (GPa) = 63.33536 75.59545 69.46540
# Shear Modulus (GPa) = 25.24892 32.99608 29.12250
#
# Velocity S-wave (km/s) = 3.49194 3.99187 3.75025
# Velocity P-wave (km/s) = 6.84436 7.59965 7.23187
#
# Compressibility (1/GPa) = 0.01578897
#
# Stress axis : x y z
#
# Youngs Moduli (GPa) = 30.00833 60.70233 92.70362
#
# Poissons Ratio (x) = 1.06250 0.38990
# Poissons Ratio (y) = 0.52525 0.06384
# Poissons Ratio (z) = 0.12621 0.04181
#
# Static dielectric constant tensor:
#      x y z
#    x 3.655680 0.000000 -0.100340 
#    y 0.000000 3.733290 0.000000 
#    z -0.100340 0.000000 3.693770 
# 
# 
# High freq. dielectric constant tensor:
#      x y z
#    x 1.807600 0.000000 -0.001780 
#    y 0.000000 1.813800 0.000000 
#    z -0.001780 0.000000 1.827720 
# 
# From -- ./inp_files/263491.got.cif
#   From: 2010.06.25/outbox.cif.g09.slc.cpg/sg15_132_cif.got.tgz:263491.got - 2010.06.28 07:06:18.
