data_PCOD8151657
_publ_section_title
;
Structure prediction by ZEFSAII (Michael W. Deem and Ramdas Pophale) SiO2 
 PCOD8151657
Probable space group: C 2/C
;
_chemical_formula_sum "Si O2"
_cell_formula_units_Z 40
_cell_length_a 23.284475
_cell_length_b 9.349042
_cell_length_c 8.806828
_cell_angle_alpha 90.000000
_cell_angle_beta 74.162949
_cell_angle_gamma 90.000000
_cell_volume 1844.365464
_symmetry_space_group_name_H-M "C 2/C"
_symmetry_group_IT_number 15
_symmetry_cell_setting 'monoclinic'
loop_
_space_group_symop_operation_xyz
x,y,z
-x,y,1/2-z
-x,-y,-z
x,-y,1/2+z
1/2+x,1/2+y,z
1/2-x,1/2+y,1/2-z
1/2-x,1/2-y,-z
1/2+x,1/2-y,1/2+z
loop_
_atom_site_type_symbol
_atom_site_label
_atom_site_fract_x
_atom_site_fract_y
_atom_site_fract_z
Si Si1 0.147106 0.622224 0.321133
Si Si2 0.126142 0.329809 0.488457
Si Si3 0.540566 0.412380 0.083916
Si Si4 0.788608 0.123849 0.221896
Si Si5 0.148285 0.109624 0.010710
O O1 0.118712 0.476087 0.402986
O O2 0.123624 0.644904 0.169351
O O3 0.218081 0.618771 0.274150
O O4 0.123616 0.748259 0.446980
O O5 0.071224 0.225156 0.481743
O O6 0.188780 0.254458 0.399446
O O7 0.500000 0.356995 0.250000
O O8 0.592761 0.515659 0.109267
O O9 0.500000 0.500000 0.000000
O O10 0.811213 0.150512 0.375856
O O11 0.811942 0.973348 0.141563
#
# Coordination Sequence:
#
# PCOD8151657 Si02
#       5
#     8   8   8   8   8
#     4  12  22  39  61  95 135 163 197 257 311 372
#     4  11  24  39  61  93 126 166 209 251 309 375
#     4  11  23  44  66  85 115 161 214 267 310 358
#     4  11  21  38  61  93 131 172 203 243 307 379
#     4  11  22  38  63  92 122 166 217 254 302 374
#
# _framework density 21.687674999999999
#
# number of rings (size 3 to 8) (size 9 to 14) (size 15 to 20)
#    0.000    0.800    0.000   10.800    0.000    0.000 
#    0.000    5.000    0.000    0.000    0.000    0.000 
#    0.000    0.000    0.000    0.000    0.000    0.000 
#
# Total GULP energy -248124.037362 kJ/mol
# GULP energy per Si atom -12406.201868 kJ/mol
# Density = 2.163831 g / cm^3
# Si number density = 21.687675 Si / 1000 Ang^3
#
#
#
# Elastic Constant Matrix: (Units=GPa)
#
#
# Indices 1 2 3 4 5 6 
#
# 1 69.3727 22.7354 19.9354 0.0000 -4.9354 0.0000
# 2 22.7354 158.1991 49.4761 0.0000 -7.5378 0.0000
# 3 19.9354 49.4761 111.9912 0.0000 10.1524 0.0000
# 4 0.0000 0.0000 0.0000 46.4597 0.0000 0.1788
# 5 -4.9354 -7.5378 10.1524 0.0000 44.1343 0.0000
# 6 0.0000 0.0000 0.0000 0.1788 0.0000 16.8967
#
#
#
# Elastic Compliance Matrix: (Units=1/GPa)
#
#
# Indices 1 2 3 4 5 6 
#
# 1 0.015704 -0.001423 -0.002353 0.000000 0.002054 0.000000
# 2 -0.001423 0.007648 -0.003298 0.000000 0.001906 0.000000
# 3 -0.002353 -0.003298 0.011112 0.000000 -0.003383 0.000000
# 4 0.000000 0.000000 0.000000 0.021525 0.000000 -0.000228
# 5 0.002054 0.001906 -0.003383 0.000000 0.023991 0.000000
# 6 0.000000 0.000000 0.000000 -0.000228 0.000000 0.059185
#
#
# Mechanical properties :
#
#
# Convention : Reuss Voigt Hill
#
# Bulk Modulus (GPa) = 49.22470 58.20630 53.71550
# Shear Modulus (GPa) = 31.23337 37.99255 34.61296
#
# Velocity S-wave (km/s) = 3.79904 4.19000 3.99930
# Velocity P-wave (km/s) = 6.47997 7.09259 6.79319
#
# Compressibility (1/GPa) = 0.02031500
#
# Stress axis : x y z
#
# Youngs Moduli (GPa) = 63.67983 130.75365 89.99404
#
# Poissons Ratio (x) = 0.18607 0.21175
# Poissons Ratio (y) = 0.09062 0.29682
# Poissons Ratio (z) = 0.14983 0.43125
#
# Static dielectric constant tensor:
#      x y z
#    x 3.877900 0.000000 -0.103430 
#    y 0.000000 4.189370 0.000000 
#    z -0.103430 0.000000 3.075660 
# 
# 
# High freq. dielectric constant tensor:
#      x y z
#    x 1.838310 0.000000 -0.003110 
#    y 0.000000 1.863070 0.000000 
#    z -0.003110 0.000000 1.863120 
# 
# From -- ./inp_files/59883.got.cif
#   From: 2010.06.25/outbox.cif.g09.slc.cpg/sg15_30_cif.got.tgz:59883.got - 2010.06.28 07:06:18.
