data_PCOD8151783
_publ_section_title
;
Structure prediction by ZEFSAII (Michael W. Deem and Ramdas Pophale) SiO2 
 PCOD8151783
Probable space group: C 2/C
;
_chemical_formula_sum "Si O2"
_cell_formula_units_Z 56
_cell_length_a 22.774100
_cell_length_b 17.116152
_cell_length_c 9.409802
_cell_angle_alpha 90.000000
_cell_angle_beta 49.014126
_cell_angle_gamma 90.000000
_cell_volume 2768.858487
_symmetry_space_group_name_H-M "C 2/C"
_symmetry_group_IT_number 15
_symmetry_cell_setting 'monoclinic'
loop_
_space_group_symop_operation_xyz
x,y,z
-x,y,1/2-z
-x,-y,-z
x,-y,1/2+z
1/2+x,1/2+y,z
1/2-x,1/2+y,1/2-z
1/2-x,1/2-y,-z
1/2+x,1/2-y,1/2+z
loop_
_atom_site_type_symbol
_atom_site_label
_atom_site_fract_x
_atom_site_fract_y
_atom_site_fract_z
Si Si1 0.224352 0.335986 0.504387
Si Si2 0.236336 0.078544 0.274383
Si Si3 0.675420 0.696705 0.155493
Si Si4 0.461864 0.190279 0.667973
Si Si5 0.855387 0.452436 0.343507
Si Si6 0.937034 0.386176 0.729677
Si Si7 0.781577 0.915695 0.142679
O O1 0.250000 0.250000 0.500000
O O2 0.226791 0.392000 0.637686
O O3 0.134882 0.335815 0.593875
O O4 0.279023 0.369142 0.294373
O O5 0.190044 0.150283 0.278600
O O6 0.181885 0.002816 0.394315
O O7 0.300847 0.040194 0.068126
O O8 0.597389 0.745771 0.301941
O O9 0.750000 0.750000 0.000000
O O10 0.663438 0.633880 0.048970
O O11 0.500000 0.225718 0.750000
O O12 0.415773 0.114035 0.787419
O O13 0.527422 0.166334 0.451797
O O14 0.904131 0.530174 0.230313
O O15 0.804831 0.426976 0.287063
O O16 0.000000 0.401543 0.750000
#
# Coordination Sequence:
#
# PCOD8151783 Si02
#       7
#     8   8   8   8   8   8   8
#     4  12  25  37  64  93 131 167 220 273 315 378
#     4  11  21  40  66  92 125 171 228 263 321 378
#     4  11  23  41  68  90 131 176 224 275 316 395
#     4  12  26  40  63  96 132 178 213 265 335 396
#     4  11  22  40  61  92 137 177 204 246 323 421
#     4  12  26  41  60  98 141 175 208 261 340 407
#     4  11  21  40  67  93 125 169 232 264 320 380
#
# _framework density 20.22494
#
# number of rings (size 3 to 8) (size 9 to 14) (size 15 to 20)
#    0.000    0.571    5.714    4.286    4.000    0.000 
#    0.000    0.000    0.000    0.857    0.000    0.000 
#    0.000    0.000    0.000    0.000    0.000    0.000 
#
# Total GULP energy -347159.996553 kJ/mol
# GULP energy per Si atom -12398.571305 kJ/mol
# Density = 2.017891 g / cm^3
# Si number density = 20.224940 Si / 1000 Ang^3
#
#
#
# Elastic Constant Matrix: (Units=GPa)
#
#
# Indices 1 2 3 4 5 6 
#
# 1 79.1366 33.9435 20.1449 0.0000 10.4767 0.0000
# 2 33.9435 123.3360 23.9977 0.0000 -4.9996 0.0000
# 3 20.1449 23.9977 65.6695 0.0000 13.4431 0.0000
# 4 0.0000 0.0000 0.0000 32.6677 0.0000 -3.3710
# 5 10.4767 -4.9996 13.4431 0.0000 35.7702 0.0000
# 6 0.0000 0.0000 0.0000 -3.3710 0.0000 36.8880
#
#
#
# Elastic Compliance Matrix: (Units=1/GPa)
#
#
# Indices 1 2 3 4 5 6 
#
# 1 0.015513 -0.003960 -0.002457 0.000000 -0.004174 0.000000
# 2 -0.003960 0.009972 -0.003198 0.000000 0.003756 0.000000
# 3 -0.002457 -0.003198 0.018519 0.000000 -0.006687 0.000000
# 4 0.000000 0.000000 0.000000 0.030903 0.000000 0.002824
# 5 -0.004174 0.003756 -0.006687 0.000000 0.032217 0.000000
# 6 0.000000 0.000000 0.000000 0.002824 0.000000 0.027367
#
#
# Mechanical properties :
#
#
# Convention : Reuss Voigt Hill
#
# Bulk Modulus (GPa) = 40.36630 47.14604 43.75617
# Shear Modulus (GPa) = 30.86789 33.73558 32.30174
#
# Velocity S-wave (km/s) = 3.91094 4.08857 4.00074
# Velocity P-wave (km/s) = 6.35578 6.75648 6.55919
#
# Compressibility (1/GPa) = 0.02477314
#
# Stress axis : x y z
#
# Youngs Moduli (GPa) = 64.46135 100.27657 53.99816
#
# Poissons Ratio (x) = 0.39714 0.13268
# Poissons Ratio (y) = 0.25530 0.17269
# Poissons Ratio (z) = 0.15839 0.32070
#
# Static dielectric constant tensor:
#      x y z
#    x 3.643140 0.000000 0.227900 
#    y 0.000000 4.024850 0.000000 
#    z 0.227900 0.000000 3.709200 
# 
# 
# High freq. dielectric constant tensor:
#      x y z
#    x 1.775830 0.000000 0.031390 
#    y 0.000000 1.805260 0.000000 
#    z 0.031390 0.000000 1.775980 
# 
# From -- ./inp_files/62667.got.cif
#   From: 2010.06.25/outbox.cif.g09.slc.cpg/sg15_32_cif.got.tgz:62667.got - 2010.06.28 07:06:18.
