data_PCOD8151859
_publ_section_title
;
Structure prediction by ZEFSAII (Michael W. Deem and Ramdas Pophale) SiO2 
 PCOD8151859
Probable space group: C 2/C
;
_chemical_formula_sum "Si O2"
_cell_formula_units_Z 52
_cell_length_a 24.053801
_cell_length_b 12.763115
_cell_length_c 12.514188
_cell_angle_alpha 90.000000
_cell_angle_beta 39.254458
_cell_angle_gamma 90.000000
_cell_volume 2431.005370
_symmetry_space_group_name_H-M "C 2/C"
_symmetry_group_IT_number 15
_symmetry_cell_setting 'monoclinic'
loop_
_space_group_symop_operation_xyz
x,y,z
-x,y,1/2-z
-x,-y,-z
x,-y,1/2+z
1/2+x,1/2+y,z
1/2-x,1/2+y,1/2-z
1/2-x,1/2-y,-z
1/2+x,1/2-y,1/2+z
loop_
_atom_site_type_symbol
_atom_site_label
_atom_site_fract_x
_atom_site_fract_y
_atom_site_fract_z
Si Si1 0.500000 0.600221 0.250000
Si Si2 0.406958 0.216096 0.997917
Si Si3 0.180888 0.974510 0.531786
Si Si4 0.443245 0.920090 0.147986
Si Si5 0.256278 0.798870 0.874809
Si Si6 0.305225 0.130090 0.692149
Si Si7 0.311035 0.050787 0.014144
O O1 0.442092 0.668307 0.418868
O O2 0.425667 0.527955 0.303715
O O3 0.358128 0.208976 0.185467
O O4 0.496633 0.150685 0.866806
O O5 0.338713 0.167539 0.011950
O O6 0.216352 0.085331 0.434938
O O7 0.217886 0.885891 0.394704
O O8 0.214518 0.951352 0.603035
O O9 0.388025 0.850877 0.146009
O O10 0.377045 0.985650 0.321805
O O11 0.500000 0.000000 0.000000
O O12 0.200761 0.731465 0.872785
O O13 0.250000 0.750000 0.000000
O O14 0.319242 0.026478 0.600828
#
# Coordination Sequence:
#
# PCOD8151859 Si02
#       7
#     4   8   8   8   8   8   8
#     4  12  26  46  68 104 142 180 236 294 344 412
#     4  12  23  43  71 101 138 179 238 283 341 422
#     4  11  25  46  71 100 139 184 234 289 351 419
#     4  11  22  37  64 104 134 165 225 296 342 395
#     4  12  25  47  69  97 139 189 232 283 358 426
#     4  11  23  41  68  99 136 181 225 281 352 413
#     4  11  21  41  70  98 133 183 229 289 340 412
#
# _framework density 21.390326999999999
#
# number of rings (size 3 to 8) (size 9 to 14) (size 15 to 20)
#    0.000    0.615    7.692    0.923    0.000    1.846 
#    2.769    1.538    0.000    0.000    0.000    0.000 
#    0.000    0.000    0.000    0.000    0.000    0.000 
#
# Total GULP energy -322323.911768 kJ/mol
# GULP energy per Si atom -12397.073530 kJ/mol
# Density = 2.134164 g / cm^3
# Si number density = 21.390327 Si / 1000 Ang^3
#
#
#
# Elastic Constant Matrix: (Units=GPa)
#
#
# Indices 1 2 3 4 5 6 
#
# 1 145.4805 31.9504 51.2827 0.0000 -14.6010 0.0000
# 2 31.9504 75.8961 28.8397 0.0000 -7.4027 0.0000
# 3 51.2827 28.8397 93.2735 0.0000 -11.5708 0.0000
# 4 0.0000 0.0000 0.0000 33.2214 0.0000 -0.3709
# 5 -14.6010 -7.4027 -11.5708 0.0000 43.0340 0.0000
# 6 0.0000 0.0000 0.0000 -0.3709 0.0000 33.5417
#
#
#
# Elastic Compliance Matrix: (Units=1/GPa)
#
#
# Indices 1 2 3 4 5 6 
#
# 1 0.008919 -0.002053 -0.004073 0.000000 0.001578 0.000000
# 2 -0.002053 0.015481 -0.003532 0.000000 0.001017 0.000000
# 3 -0.004073 -0.003532 0.014282 0.000000 0.001851 0.000000
# 4 0.000000 0.000000 0.000000 0.030105 0.000000 0.000333
# 5 0.001578 0.001017 0.001851 0.000000 0.024445 0.000000
# 6 0.000000 0.000000 0.000000 0.000333 0.000000 0.029817
#
#
# Mechanical properties :
#
#
# Convention : Reuss Voigt Hill
#
# Bulk Modulus (GPa) = 51.63568 59.86620 55.75094
# Shear Modulus (GPa) = 33.59734 35.46458 34.53096
#
# Velocity S-wave (km/s) = 3.96748 4.07624 4.02223
# Velocity P-wave (km/s) = 6.72161 7.08538 6.90589
#
# Compressibility (1/GPa) = 0.01936645
#
# Stress axis : x y z
#
# Youngs Moduli (GPa) = 112.12266 64.59354 70.01705
#
# Poissons Ratio (x) = 0.13261 0.28519
# Poissons Ratio (y) = 0.23018 0.24729
# Poissons Ratio (z) = 0.45669 0.22814
#
# Static dielectric constant tensor:
#      x y z
#    x 3.992610 0.000000 0.033940 
#    y 0.000000 4.091400 0.000000 
#    z 0.033940 0.000000 4.055010 
# 
# 
# High freq. dielectric constant tensor:
#      x y z
#    x 1.846890 0.000000 0.001830 
#    y 0.000000 1.825420 0.000000 
#    z 0.001830 0.000000 1.846350 
# 
# From -- ./inp_files/97120.got.cif
#   From: 2010.06.25/outbox.cif.g09.slc.cpg/sg15_49_cif.got.tgz:97120.got - 2010.06.28 07:06:18.
