data_PCOD8151601
_publ_section_title
;
Structure prediction by ZEFSAII (Michael W. Deem and Ramdas Pophale) SiO2 
 PCOD8151601
Probable space group: C 2/C
;
_chemical_formula_sum "Si O2"
_cell_formula_units_Z 56
_cell_length_a 26.930379
_cell_length_b 6.655637
_cell_length_c 15.627414
_cell_angle_alpha 90.000000
_cell_angle_beta 112.981855
_cell_angle_gamma 90.000000
_cell_volume 2578.716792
_symmetry_space_group_name_H-M "C 2/C"
_symmetry_group_IT_number 15
_symmetry_cell_setting 'monoclinic'
loop_
_space_group_symop_operation_xyz
x,y,z
-x,y,1/2-z
-x,-y,-z
x,-y,1/2+z
1/2+x,1/2+y,z
1/2-x,1/2+y,1/2-z
1/2-x,1/2-y,-z
1/2+x,1/2-y,1/2+z
loop_
_atom_site_type_symbol
_atom_site_label
_atom_site_fract_x
_atom_site_fract_y
_atom_site_fract_z
Si Si1 0.610492 0.970427 0.166343
Si Si2 0.135266 0.902796 0.780709
Si Si3 0.874621 0.374364 0.507712
Si Si4 0.297472 0.888261 0.058331
Si Si5 0.937073 0.259165 0.718642
Si Si6 0.714115 0.412129 0.608723
Si Si7 0.796719 0.224486 0.768297
O O1 0.610869 0.733742 0.188680
O O2 0.571979 0.100215 0.203240
O O3 0.669437 0.070136 0.213297
O O4 0.592975 0.959864 0.053677
O O5 0.158482 0.738208 0.860716
O O6 0.087182 0.036349 0.787617
O O7 0.180802 0.055117 0.780411
O O8 0.827390 0.531189 0.495353
O O9 0.913133 0.356908 0.615963
O O10 0.841759 0.166002 0.469250
O O11 0.268071 0.076700 0.085679
O O12 0.250000 0.750000 0.000000
O O13 0.000000 0.232667 0.750000
O O14 0.734443 0.269960 0.700681
O O15 0.702082 0.636874 0.634897
#
# Coordination Sequence:
#
# PCOD8151601 Si02
#       7
#     8   8   8   8   8   8   8
#     4  11  23  46  70  98 140 179 223 287 345 415
#     4  11  21  45  65  95 138 179 222 287 348 393
#     4  12  24  43  68 104 141 184 233 280 340 411
#     4  12  22  37  62 100 140 186 228 267 327 410
#     4  11  27  49  74 100 131 175 235 302 358 411
#     4  12  21  35  62 100 142 190 227 270 320 407
#     4  11  21  37  62 100 143 186 230 269 333 405
#
# _framework density 21.716228999999998
#
# number of rings (size 3 to 8) (size 9 to 14) (size 15 to 20)
#    0.000    0.571    4.286    5.571    0.000    1.143 
#    0.000    0.714    0.000    0.000    0.000    0.000 
#    0.000    0.000    0.000    0.000    0.000    0.000 
#
# Total GULP energy -346988.997937 kJ/mol
# GULP energy per Si atom -12392.464212 kJ/mol
# Density = 2.166680 g / cm^3
# Si number density = 21.716229 Si / 1000 Ang^3
#
#
#
# Elastic Constant Matrix: (Units=GPa)
#
#
# Indices 1 2 3 4 5 6 
#
# 1 106.0288 31.9286 53.7399 0.0000 -2.5769 0.0000
# 2 31.9286 93.3170 28.6883 0.0000 -6.5583 0.0000
# 3 53.7399 28.6883 100.1069 0.0000 -16.9643 0.0000
# 4 0.0000 0.0000 0.0000 31.7274 0.0000 -10.3811
# 5 -2.5769 -6.5583 -16.9643 0.0000 33.2494 0.0000
# 6 0.0000 0.0000 0.0000 -10.3811 0.0000 29.0863
#
#
#
# Elastic Compliance Matrix: (Units=1/GPa)
#
#
# Indices 1 2 3 4 5 6 
#
# 1 0.013809 -0.002744 -0.007155 0.000000 -0.003122 0.000000
# 2 -0.002744 0.012310 -0.001838 0.000000 0.001278 0.000000
# 3 -0.007155 -0.001838 0.015546 0.000000 0.007015 0.000000
# 4 0.000000 0.000000 0.000000 0.035686 0.000000 0.012737
# 5 -0.003122 0.001278 0.007015 0.000000 0.033665 0.000000
# 6 0.000000 0.000000 0.000000 0.012737 0.000000 0.038926
#
#
# Mechanical properties :
#
#
# Convention : Reuss Voigt Hill
#
# Bulk Modulus (GPa) = 54.97795 58.68514 56.83154
# Shear Modulus (GPa) = 27.85829 31.15236 29.50533
#
# Velocity S-wave (km/s) = 3.58555 3.79161 3.69002
# Velocity P-wave (km/s) = 6.52020 6.80079 6.66197
#
# Compressibility (1/GPa) = 0.01818911
#
# Stress axis : x y z
#
# Youngs Moduli (GPa) = 72.41888 81.23496 64.32539
#
# Poissons Ratio (x) = 0.22293 0.46027
# Poissons Ratio (y) = 0.19874 0.11823
# Poissons Ratio (z) = 0.51818 0.14931
#
# Static dielectric constant tensor:
#      x y z
#    x 3.915530 0.000000 -0.670760 
#    y 0.000000 4.191110 0.000000 
#    z -0.670760 0.000000 4.260670 
# 
# 
# High freq. dielectric constant tensor:
#      x y z
#    x 1.830330 0.000000 -0.030700 
#    y 0.000000 1.868630 0.000000 
#    z -0.030700 0.000000 1.847310 
# 
# From -- ./inp_files/223953.got.cif
#   From: 2010.06.25/outbox.cif.g09.slc.cpg/sg15_112_cif.got.tgz:223953.got - 2010.06.28 07:06:18.
