data_PCOD8151983
_publ_section_title
;
Structure prediction by ZEFSAII (Michael W. Deem and Ramdas Pophale) SiO2 
 PCOD8151983
Probable space group: C 2/C
;
_chemical_formula_sum "Si O2"
_cell_formula_units_Z 60
_cell_length_a 11.871279
_cell_length_b 7.551052
_cell_length_c 33.542636
_cell_angle_alpha 90.000000
_cell_angle_beta 116.871337
_cell_angle_gamma 90.000000
_cell_volume 2682.122331
_symmetry_space_group_name_H-M "C 2/C"
_symmetry_group_IT_number 15
_symmetry_cell_setting 'monoclinic'
loop_
_space_group_symop_operation_xyz
x,y,z
-x,y,1/2-z
-x,-y,-z
x,-y,1/2+z
1/2+x,1/2+y,z
1/2-x,1/2+y,1/2-z
1/2-x,1/2-y,-z
1/2+x,1/2-y,1/2+z
loop_
_atom_site_type_symbol
_atom_site_label
_atom_site_fract_x
_atom_site_fract_y
_atom_site_fract_z
Si Si1 0.100178 0.867402 0.058903
Si Si2 0.000000 0.129879 0.250000
Si Si3 0.937583 0.812920 0.356461
Si Si4 0.632494 0.776633 0.419226
Si Si5 0.029566 0.745653 0.534042
Si Si6 0.431668 0.709297 0.323970
Si Si7 0.242515 0.500221 0.178673
Si Si8 0.707994 0.413007 0.402862
O O1 0.105576 0.805273 0.104841
O O2 0.242690 0.894493 0.065822
O O3 0.024143 0.048217 0.044188
O O4 0.028516 0.719712 0.019665
O O5 0.968413 0.245762 0.283935
O O6 0.878049 0.012551 0.221036
O O7 0.854044 0.657509 0.322733
O O8 0.089212 0.777761 0.378500
O O9 0.911163 0.001749 0.330952
O O10 0.561670 0.844479 0.447797
O O11 0.539795 0.803414 0.367148
O O12 0.668961 0.568454 0.427062
O O13 0.172807 0.682472 0.558894
O O14 0.303184 0.809414 0.313662
O O15 0.257088 0.502482 0.133467
#
# Coordination Sequence:
#
# PCOD8151983 Si02
#       8
#     8   4   8   8   8   8   8   8
#     4  11  22  40  64  95 137 177 230 280 326 390
#     4  12  26  48  70 106 136 160 232 286 322 430
#     4  11  23  47  70 100 139 184 225 275 340 407
#     4  11  21  44  62  89 135 176 219 281 331 386
#     4  11  24  39  62  99 133 179 232 278 325 393
#     4  11  25  47  70  99 137 170 224 280 334 414
#     4  12  25  47  72  98 134 182 216 277 353 396
#     4  11  22  42  65  93 134 176 226 274 328 404
#
# _framework density 22.370346000000001
#
# number of rings (size 3 to 8) (size 9 to 14) (size 15 to 20)
#    0.000    0.800    8.000    0.400    3.733    1.067 
#    2.400    1.333    0.000    0.000    0.000    0.000 
#    0.000    0.000    0.000    0.000    0.000    0.000 
#
# Total GULP energy -371935.146571 kJ/mol
# GULP energy per Si atom -12397.838219 kJ/mol
# Density = 2.231943 g / cm^3
# Si number density = 22.370346 Si / 1000 Ang^3
#
#
#
# Elastic Constant Matrix: (Units=GPa)
#
#
# Indices 1 2 3 4 5 6 
#
# 1 141.7288 39.1610 20.4326 0.0000 13.5517 0.0000
# 2 39.1610 39.4948 25.3657 0.0000 2.2538 0.0000
# 3 20.4326 25.3657 81.0740 0.0000 -0.4741 0.0000
# 4 0.0000 0.0000 0.0000 11.0714 0.0000 2.8030
# 5 13.5517 2.2538 -0.4741 0.0000 39.8058 0.0000
# 6 0.0000 0.0000 0.0000 2.8030 0.0000 40.0322
#
#
#
# Elastic Compliance Matrix: (Units=1/GPa)
#
#
# Indices 1 2 3 4 5 6 
#
# 1 0.010060 -0.010230 0.000649 0.000000 -0.002838 0.000000
# 2 -0.010230 0.042236 -0.010631 0.000000 0.000965 0.000000
# 3 0.000649 -0.010631 0.015500 0.000000 0.000566 0.000000
# 4 0.000000 0.000000 0.000000 0.091953 0.000000 -0.006438
# 5 -0.002838 0.000965 0.000566 0.000000 0.026040 0.000000
# 6 0.000000 0.000000 0.000000 -0.006438 0.000000 0.025431
#
#
# Mechanical properties :
#
#
# Convention : Reuss Voigt Hill
#
# Bulk Modulus (GPa) = 36.53289 48.02403 42.27846
# Shear Modulus (GPa) = 19.17419 30.00443 24.58931
#
# Velocity S-wave (km/s) = 2.93085 3.66629 3.31900
# Velocity P-wave (km/s) = 5.27442 6.27986 5.79897
#
# Compressibility (1/GPa) = 0.02737260
#
# Stress axis : x y z
#
# Youngs Moduli (GPa) = 99.40196 23.67676 64.51514
#
# Poissons Ratio (x) = 0.24221 -0.04184
# Poissons Ratio (y) = 1.01686 0.68583
# Poissons Ratio (z) = -0.06447 0.25170
#
# Static dielectric constant tensor:
#      x y z
#    x 4.274560 0.000000 0.075370 
#    y 0.000000 3.765980 0.000000 
#    z 0.075370 0.000000 4.158700 
# 
# 
# High freq. dielectric constant tensor:
#      x y z
#    x 1.900410 0.000000 0.005770 
#    y 0.000000 1.854560 0.000000 
#    z 0.005770 0.000000 1.879230 
# 
# From -- ./inp_files/310338.got.cif
#   From: 2010.06.25/outbox.cif.g09.slc.cpg/sg15_156_cif.got.tgz:310338.got - 2010.06.28 07:06:18.
