data_PCOD8151953
_publ_section_title
;
Structure prediction by ZEFSAII (Michael W. Deem and Ramdas Pophale) SiO2 
 PCOD8151953
Probable space group: C 2/C
;
_chemical_formula_sum "Si O2"
_cell_formula_units_Z 56
_cell_length_a 9.609511
_cell_length_b 26.847292
_cell_length_c 10.938102
_cell_angle_alpha 90.000000
_cell_angle_beta 116.487371
_cell_angle_gamma 90.000000
_cell_volume 2525.705100
_symmetry_space_group_name_H-M "C 2/C"
_symmetry_group_IT_number 15
_symmetry_cell_setting 'monoclinic'
loop_
_space_group_symop_operation_xyz
x,y,z
-x,y,1/2-z
-x,-y,-z
x,-y,1/2+z
1/2+x,1/2+y,z
1/2-x,1/2+y,1/2-z
1/2-x,1/2-y,-z
1/2+x,1/2-y,1/2+z
loop_
_atom_site_type_symbol
_atom_site_label
_atom_site_fract_x
_atom_site_fract_y
_atom_site_fract_z
Si Si1 0.186073 0.730564 0.844092
Si Si2 0.664588 0.625285 0.572675
Si Si3 0.635456 0.973297 0.713517
Si Si4 0.676449 0.396766 0.572266
Si Si5 0.924859 0.612294 0.488663
Si Si6 0.858001 0.310266 0.769055
Si Si7 0.235782 0.424305 0.161365
O O1 0.273780 0.678617 0.859140
O O2 0.235464 0.767537 0.754091
O O3 0.000000 0.724420 0.750000
O O4 0.250000 0.750000 0.000000
O O5 0.490450 0.624749 0.450956
O O6 0.774340 0.602375 0.511550
O O7 0.652075 0.588051 0.682310
O O8 0.500000 0.993876 0.750000
O O9 0.780399 0.947702 0.840233
O O10 0.551734 0.931817 0.599155
O O11 0.698527 0.016932 0.651536
O O12 0.794188 0.353032 0.654684
O O13 0.682846 0.408176 0.431531
O O14 0.911850 0.665762 0.418808
O O15 0.082620 0.609622 0.628238
O O16 0.000000 0.285450 0.750000
#
# Coordination Sequence:
#
# PCOD8151953 Si02
#       7
#     8   8   8   8   8   8   8
#     4  12  26  48  75 109 143 190 246 298 364 446
#     4  12  27  43  67 101 143 183 226 301 365 419
#     4  11  23  42  74  98 130 192 240 290 346 427
#     4  11  25  47  64 103 143 182 239 290 362 430
#     4  11  21  43  69  98 137 177 237 287 346 421
#     4  11  23  44  75 100 136 186 234 297 351 427
#     4  12  24  43  68  98 142 180 235 294 346 428
#
# _framework density 22.172025999999999
#
# number of rings (size 3 to 8) (size 9 to 14) (size 15 to 20)
#    0.000    0.571    4.286    4.714    2.000    3.429 
#    2.571    2.143    0.000    0.000    0.000    0.000 
#    0.000    0.000    0.000    0.000    0.000    0.000 
#
# Total GULP energy -347187.144583 kJ/mol
# GULP energy per Si atom -12399.540878 kJ/mol
# Density = 2.212156 g / cm^3
# Si number density = 22.172026 Si / 1000 Ang^3
#
#
#
# Elastic Constant Matrix: (Units=GPa)
#
#
# Indices 1 2 3 4 5 6 
#
# 1 137.3500 36.0844 33.7486 0.0000 9.2371 0.0000
# 2 36.0844 89.3385 8.7143 0.0000 3.0763 0.0000
# 3 33.7486 8.7143 74.2468 0.0000 1.6682 0.0000
# 4 0.0000 0.0000 0.0000 29.1523 0.0000 -3.7482
# 5 9.2371 3.0763 1.6682 0.0000 42.1583 0.0000
# 6 0.0000 0.0000 0.0000 -3.7482 0.0000 37.3742
#
#
#
# Elastic Compliance Matrix: (Units=1/GPa)
#
#
# Indices 1 2 3 4 5 6 
#
# 1 0.009173 -0.003284 -0.003748 0.000000 -0.001622 0.000000
# 2 -0.003284 0.012524 0.000027 0.000000 -0.000195 0.000000
# 3 -0.003748 0.000027 0.015164 0.000000 0.000219 0.000000
# 4 0.000000 0.000000 0.000000 0.034751 0.000000 0.003485
# 5 -0.001622 -0.000195 0.000219 0.000000 0.024081 0.000000
# 6 0.000000 0.000000 0.000000 0.003485 0.000000 0.027106
#
#
# Mechanical properties :
#
#
# Convention : Reuss Voigt Hill
#
# Bulk Modulus (GPa) = 43.75947 50.89221 47.32584
# Shear Modulus (GPa) = 34.61995 36.56281 35.59138
#
# Velocity S-wave (km/s) = 3.95577 4.06526 4.01089
# Velocity P-wave (km/s) = 6.37522 6.71105 6.54529
#
# Compressibility (1/GPa) = 0.02285219
#
# Stress axis : x y z
#
# Youngs Moduli (GPa) = 109.01141 79.84793 65.94543
#
# Poissons Ratio (x) = 0.26220 0.24715
# Poissons Ratio (y) = 0.35797 -0.00179
# Poissons Ratio (z) = 0.40856 -0.00216
#
# Static dielectric constant tensor:
#      x y z
#    x 3.945160 0.000000 0.086180 
#    y 0.000000 3.908590 0.000000 
#    z 0.086180 0.000000 4.116230 
# 
# 
# High freq. dielectric constant tensor:
#      x y z
#    x 1.875480 0.000000 0.000850 
#    y 0.000000 1.869680 0.000000 
#    z 0.000850 0.000000 1.881610 
# 
# From -- ./inp_files/81250.got.cif
#   From: 2010.06.25/outbox.cif.g09.slc.cpg/sg15_41_cif.got.tgz:81250.got - 2010.06.28 07:06:18.
