data_PCOD8151297
_publ_section_title
;
Structure prediction by ZEFSAII (Michael W. Deem and Ramdas Pophale) SiO2 
 PCOD8151297
Probable space group: C 2/C
;
_chemical_formula_sum "Si O2"
_cell_formula_units_Z 64
_cell_length_a 18.590363
_cell_length_b 13.299597
_cell_length_c 16.009355
_cell_angle_alpha 90.000000
_cell_angle_beta 51.090802
_cell_angle_gamma 90.000000
_cell_volume 3080.060352
_symmetry_space_group_name_H-M "C 2/C"
_symmetry_group_IT_number 15
_symmetry_cell_setting 'monoclinic'
loop_
_space_group_symop_operation_xyz
x,y,z
-x,y,1/2-z
-x,-y,-z
x,-y,1/2+z
1/2+x,1/2+y,z
1/2-x,1/2+y,1/2-z
1/2-x,1/2-y,-z
1/2+x,1/2-y,1/2+z
loop_
_atom_site_type_symbol
_atom_site_label
_atom_site_fract_x
_atom_site_fract_y
_atom_site_fract_z
Si Si1 0.360602 0.894791 0.934890
Si Si2 0.336015 0.363737 0.708666
Si Si3 0.007157 0.196609 0.984473
Si Si4 0.206281 0.531889 0.191524
Si Si5 0.786290 0.169274 0.684772
Si Si6 0.575511 0.319874 0.128800
Si Si7 0.195194 0.941969 0.161536
Si Si8 0.526952 0.919180 0.914444
O O1 0.354113 0.773032 0.937948
O O2 0.465726 0.929775 0.874978
O O3 0.324390 0.943170 0.877622
O O4 0.300435 0.941695 0.053632
O O5 0.441263 0.331675 0.610880
O O6 0.299906 0.410219 0.647551
O O7 0.270497 0.272090 0.784351
O O8 0.334199 0.448679 0.782252
O O9 0.973405 0.144071 0.921892
O O10 0.001870 0.314775 0.975244
O O11 0.112580 0.169932 0.932607
O O12 0.221752 0.413043 0.187645
O O13 0.133313 0.571004 0.313042
O O14 0.808317 0.143972 0.765143
O O15 0.500000 0.280352 0.250000
O O16 0.629828 0.413261 0.130771
O O17 0.500000 0.000000 0.000000
#
# Coordination Sequence:
#
# PCOD8151297 Si02
#       8
#     8   8   8   8   8   8   8   8
#     4  11  22  37  62  97 123 163 205 267 327 367
#     4  11  23  41  63  90 129 169 217 257 314 385
#     4  11  22  39  66  93 128 167 206 268 321 374
#     4  11  22  38  62  93 130 164 209 264 312 389
#     4  11  22  41  62  92 129 165 214 257 316 382
#     4  11  20  38  62  94 128 158 206 269 323 377
#     4  11  23  39  62  90 128 165 209 263 315 382
#     4  11  21  39  66  95 124 162 214 267 321 376
#
# _framework density 20.778814000000001
#
# number of rings (size 3 to 8) (size 9 to 14) (size 15 to 20)
#    0.000    1.000    2.500    7.500    0.000    2.000 
#    2.250    0.625    0.000    1.500    0.000    0.000 
#    0.000    0.000    0.000    0.000    0.000    0.000 
#
# Total GULP energy -396771.691592 kJ/mol
# GULP energy per Si atom -12399.115362 kJ/mol
# Density = 2.073152 g / cm^3
# Si number density = 20.778814 Si / 1000 Ang^3
#
#
#
# Elastic Constant Matrix: (Units=GPa)
#
#
# Indices 1 2 3 4 5 6 
#
# 1 75.1150 49.5617 23.8930 0.0000 -4.8989 0.0000
# 2 49.5617 126.0539 43.2214 0.0000 -2.6880 0.0000
# 3 23.8930 43.2214 115.6981 0.0000 -29.0642 0.0000
# 4 0.0000 0.0000 0.0000 32.9154 0.0000 -0.5428
# 5 -4.8989 -2.6880 -29.0642 0.0000 27.3849 0.0000
# 6 0.0000 0.0000 0.0000 -0.5428 0.0000 36.0178
#
#
#
# Elastic Compliance Matrix: (Units=1/GPa)
#
#
# Indices 1 2 3 4 5 6 
#
# 1 0.018192 -0.006859 -0.000745 0.000000 0.001791 0.000000
# 2 -0.006859 0.011969 -0.004183 0.000000 -0.004492 0.000000
# 3 -0.000745 -0.004183 0.013939 0.000000 0.014250 0.000000
# 4 0.000000 0.000000 0.000000 0.030388 0.000000 0.000458
# 5 0.001791 -0.004492 0.014250 0.000000 0.051520 0.000000
# 6 0.000000 0.000000 0.000000 0.000458 0.000000 0.027771
#
#
# Mechanical properties :
#
#
# Convention : Reuss Voigt Hill
#
# Bulk Modulus (GPa) = 48.71735 61.13548 54.92642
# Shear Modulus (GPa) = 27.14503 32.60969 29.87736
#
# Velocity S-wave (km/s) = 3.61831 3.96583 3.79605
# Velocity P-wave (km/s) = 6.39944 7.10326 6.76051
#
# Compressibility (1/GPa) = 0.02052657
#
# Stress axis : x y z
#
# Youngs Moduli (GPa) = 54.96786 83.55247 71.73932
#
# Poissons Ratio (x) = 0.57312 0.05342
# Poissons Ratio (y) = 0.37705 0.30008
# Poissons Ratio (z) = 0.04093 0.34949
#
# Static dielectric constant tensor:
#      x y z
#    x 3.758900 0.000000 -0.230030 
#    y 0.000000 3.675360 0.000000 
#    z -0.230030 0.000000 3.652350 
# 
# 
# High freq. dielectric constant tensor:
#      x y z
#    x 1.808220 0.000000 -0.022080 
#    y 0.000000 1.805120 0.000000 
#    z -0.022080 0.000000 1.816390 
# 
# From -- ./inp_files/215041.got.cif
#   From: 2010.06.25/outbox.cif.g09.slc.cpg/sg15_108_cif.got.tgz:215041.got - 2010.06.28 07:06:18.
