data_PCOD8151931
_publ_section_title
;
Structure prediction by ZEFSAII (Michael W. Deem and Ramdas Pophale) SiO2 
 PCOD8151931
Probable space group: C 2/C
;
_chemical_formula_sum "Si O2"
_cell_formula_units_Z 44
_cell_length_a 13.431635
_cell_length_b 22.643785
_cell_length_c 9.878943
_cell_angle_alpha 90.000000
_cell_angle_beta 45.848242
_cell_angle_gamma 90.000000
_cell_volume 2155.801091
_symmetry_space_group_name_H-M "C 2/C"
_symmetry_group_IT_number 15
_symmetry_cell_setting 'monoclinic'
loop_
_space_group_symop_operation_xyz
x,y,z
-x,y,1/2-z
-x,-y,-z
x,-y,1/2+z
1/2+x,1/2+y,z
1/2-x,1/2+y,1/2-z
1/2-x,1/2-y,-z
1/2+x,1/2-y,1/2+z
loop_
_atom_site_type_symbol
_atom_site_label
_atom_site_fract_x
_atom_site_fract_y
_atom_site_fract_z
Si Si1 0.686611 0.719209 0.431930
Si Si2 0.475327 0.818229 0.547270
Si Si3 0.500000 0.116571 0.750000
Si Si4 0.124942 0.025545 0.797147
Si Si5 0.500000 0.085969 0.250000
Si Si6 0.713019 0.982489 0.091795
Si Si7 0.500000 0.626182 0.750000
O O1 0.750000 0.750000 0.500000
O O2 0.576282 0.762293 0.466669
O O3 0.814289 0.700740 0.214962
O O4 0.606627 0.661857 0.557635
O O5 0.498348 0.840166 0.376272
O O6 0.520892 0.871261 0.602780
O O7 0.367191 0.074834 0.880649
O O8 0.252889 0.026333 0.781748
O O9 0.088052 0.089898 0.776642
O O10 0.156265 0.985795 0.634337
O O11 0.000000 0.000000 0.000000
O O12 0.632570 0.044289 0.147274
#
# Coordination Sequence:
#
# PCOD8151931 Si02
#       7
#     8   8   4   8   4   8   4
#     4  12  24  45  71 101 123 176 246 285 329 401
#     4  12  25  44  71 101 134 177 232 288 341 398
#     4  11  28  42  67  99 142 180 211 286 348 406
#     4  12  24  41  65  99 140 177 218 270 336 412
#     4  11  21  42  74  94 130 179 227 280 312 414
#     4  11  24  42  64 101 137 177 227 260 341 414
#     4  12  25  42  71  99 138 179 224 292 336 396
#
# _framework density 20.410046000000001
#
# number of rings (size 3 to 8) (size 9 to 14) (size 15 to 20)
#    0.000    0.364    5.455    3.273    5.091    3.636 
#    0.000    0.000    0.000    0.000    0.000    0.000 
#    0.000    0.000    0.000    0.000    0.000    0.000 
#
# Total GULP energy -272792.340085 kJ/mol
# GULP energy per Si atom -12399.651822 kJ/mol
# Density = 2.036359 g / cm^3
# Si number density = 20.410046 Si / 1000 Ang^3
#
#
#
# Elastic Constant Matrix: (Units=GPa)
#
#
# Indices 1 2 3 4 5 6 
#
# 1 126.4109 75.4895 54.2134 0.0000 14.4124 0.0000
# 2 75.4895 150.7163 81.5869 0.0000 1.5645 0.0000
# 3 54.2134 81.5869 123.7856 0.0000 5.9842 0.0000
# 4 0.0000 0.0000 0.0000 33.5608 0.0000 -0.9720
# 5 14.4124 1.5645 5.9842 0.0000 44.1029 0.0000
# 6 0.0000 0.0000 0.0000 -0.9720 0.0000 38.5414
#
#
#
# Elastic Compliance Matrix: (Units=1/GPa)
#
#
# Indices 1 2 3 4 5 6 
#
# 1 0.012101 -0.005050 -0.001801 0.000000 -0.003531 0.000000
# 2 -0.005050 0.012436 -0.006084 0.000000 0.002034 0.000000
# 3 -0.001801 -0.006084 0.012923 0.000000 -0.000949 0.000000
# 4 0.000000 0.000000 0.000000 0.029818 0.000000 0.000752
# 5 -0.003531 0.002034 -0.000949 0.000000 0.023885 0.000000
# 6 0.000000 0.000000 0.000000 0.000752 0.000000 0.025965
#
#
# Mechanical properties :
#
#
# Convention : Reuss Voigt Hill
#
# Bulk Modulus (GPa) = 86.26639 91.49915 88.88277
# Shear Modulus (GPa) = 34.04591 35.88256 34.96423
#
# Velocity S-wave (km/s) = 4.08866 4.19750 4.14344
# Velocity P-wave (km/s) = 8.04039 8.27162 8.15683
#
# Compressibility (1/GPa) = 0.01159200
#
# Stress axis : x y z
#
# Youngs Moduli (GPa) = 82.63683 80.41030 77.38271
#
# Poissons Ratio (x) = 0.40603 0.13937
# Poissons Ratio (y) = 0.41728 0.47076
# Poissons Ratio (z) = 0.14883 0.48918
#
# Static dielectric constant tensor:
#      x y z
#    x 4.533040 0.000000 -0.088520 
#    y 0.000000 3.687540 0.000000 
#    z -0.088520 0.000000 3.187720 
# 
# 
# High freq. dielectric constant tensor:
#      x y z
#    x 1.804380 0.000000 -0.006480 
#    y 0.000000 1.804770 0.000000 
#    z -0.006480 0.000000 1.811580 
# 
# From -- ./inp_files/99689.got.cif
#   From: 2010.06.25/outbox.cif.g09.slc.cpg/sg15_50_cif.got.tgz:99689.got - 2010.06.28 07:06:18.
