data_PCOD8151836
_publ_section_title
;
Structure prediction by ZEFSAII (Michael W. Deem and Ramdas Pophale) SiO2 
 PCOD8151836
Probable space group: C 2/C
;
_chemical_formula_sum "Si O2"
_cell_formula_units_Z 44
_cell_length_a 17.257310
_cell_length_b 12.798812
_cell_length_c 10.354455
_cell_angle_alpha 90.000000
_cell_angle_beta 60.574716
_cell_angle_gamma 90.000000
_cell_volume 1991.987975
_symmetry_space_group_name_H-M "C 2/C"
_symmetry_group_IT_number 15
_symmetry_cell_setting 'monoclinic'
loop_
_space_group_symop_operation_xyz
x,y,z
-x,y,1/2-z
-x,-y,-z
x,-y,1/2+z
1/2+x,1/2+y,z
1/2-x,1/2+y,1/2-z
1/2-x,1/2-y,-z
1/2+x,1/2-y,1/2+z
loop_
_atom_site_type_symbol
_atom_site_label
_atom_site_fract_x
_atom_site_fract_y
_atom_site_fract_z
Si Si1 0.192051 0.569724 0.630570
Si Si2 0.481523 0.270221 0.025712
Si Si3 0.000000 0.109520 0.750000
Si Si4 0.157027 0.403713 0.868337
Si Si5 0.663962 0.708443 0.264839
Si Si6 0.113745 0.926395 0.576515
O O1 0.143386 0.492388 0.770229
O O2 0.171545 0.542684 0.497284
O O3 0.167398 0.690477 0.670080
O O4 0.296333 0.559093 0.577786
O O5 0.450028 0.318021 0.187445
O O6 0.436534 0.157236 0.049305
O O7 0.590115 0.265132 0.934580
O O8 0.451498 0.343031 0.933275
O O9 0.930210 0.039705 0.885475
O O10 0.237749 0.323633 0.763174
O O11 0.632774 0.609885 0.206351
#
# Coordination Sequence:
#
# PCOD8151836 Si02
#       6
#     8   8   4   8   8   8
#     4  11  24  42  68  99 131 184 220 264 335 399
#     4  12  24  43  65  98 137 172 215 280 329 393
#     4  12  26  36  70 104 128 166 224 282 340 382
#     4  11  25  44  70  98 137 175 225 271 329 398
#     4  11  22  43  69  97 127 175 223 268 331 398
#     4  11  21  41  67  97 130 168 216 274 337 388
#
# _framework density 22.088486
#
# number of rings (size 3 to 8) (size 9 to 14) (size 15 to 20)
#    0.000    0.727    5.455    2.727    5.091    2.182 
#    0.000    2.727    0.000    0.000    0.000    0.000 
#    0.000    0.000    0.000    0.000    0.000    0.000 
#
# Total GULP energy -272800.200335 kJ/mol
# GULP energy per Si atom -12400.009106 kJ/mol
# Density = 2.203821 g / cm^3
# Si number density = 22.088486 Si / 1000 Ang^3
#
#
#
# Elastic Constant Matrix: (Units=GPa)
#
#
# Indices 1 2 3 4 5 6 
#
# 1 56.1990 29.4971 26.6755 0.0000 1.8716 0.0000
# 2 29.4971 70.4713 42.2216 0.0000 20.5699 0.0000
# 3 26.6755 42.2216 85.9219 0.0000 2.3378 0.0000
# 4 0.0000 0.0000 0.0000 42.1258 0.0000 6.5590
# 5 1.8716 20.5699 2.3378 0.0000 22.7228 0.0000
# 6 0.0000 0.0000 0.0000 6.5590 0.0000 19.4989
#
#
#
# Elastic Compliance Matrix: (Units=1/GPa)
#
#
# Indices 1 2 3 4 5 6 
#
# 1 0.024580 -0.011449 -0.002239 0.000000 0.008570 0.000000
# 2 -0.011449 0.035564 -0.013108 0.000000 -0.029903 0.000000
# 3 -0.002239 -0.013108 0.018499 0.000000 0.010147 0.000000
# 4 0.000000 0.000000 0.000000 0.025050 0.000000 -0.008426
# 5 0.008570 -0.029903 0.010147 0.000000 0.069328 0.000000
# 6 0.000000 0.000000 0.000000 -0.008426 0.000000 0.054119
#
#
# Mechanical properties :
#
#
# Convention : Reuss Voigt Hill
#
# Bulk Modulus (GPa) = 39.91654 45.48674 42.70164
# Shear Modulus (GPa) = 17.29612 24.48271 20.88942
#
# Velocity S-wave (km/s) = 2.80132 3.33286 3.07858
# Velocity P-wave (km/s) = 5.34543 5.95385 5.65782
#
# Compressibility (1/GPa) = 0.02505227
#
# Stress axis : x y z
#
# Youngs Moduli (GPa) = 40.68337 28.11827 54.05819
#
# Poissons Ratio (x) = 0.32192 0.12101
# Poissons Ratio (y) = 0.46577 0.70860
# Poissons Ratio (z) = 0.09107 0.36858
#
# Static dielectric constant tensor:
#      x y z
#    x 3.914180 0.000000 -0.265050 
#    y 0.000000 3.802790 0.000000 
#    z -0.265050 0.000000 3.954490 
# 
# 
# High freq. dielectric constant tensor:
#      x y z
#    x 1.857890 0.000000 -0.012370 
#    y 0.000000 1.861230 0.000000 
#    z -0.012370 0.000000 1.869240 
# 
# From -- ./inp_files/47382.got.cif
#   From: 2010.06.25/outbox.cif.g09.slc.cpg/sg15_24_cif.got.tgz:47382.got - 2010.06.28 07:06:18.
