data_PCOD8151573
_publ_section_title
;
Structure prediction by ZEFSAII (Michael W. Deem and Ramdas Pophale) SiO2 
 PCOD8151573
Probable space group: C 2/C
;
_chemical_formula_sum "Si O2"
_cell_formula_units_Z 60
_cell_length_a 20.661628
_cell_length_b 8.655760
_cell_length_c 21.094959
_cell_angle_alpha 90.000000
_cell_angle_beta 125.316075
_cell_angle_gamma 90.000000
_cell_volume 3078.403282
_symmetry_space_group_name_H-M "C 2/C"
_symmetry_group_IT_number 15
_symmetry_cell_setting 'monoclinic'
loop_
_space_group_symop_operation_xyz
x,y,z
-x,y,1/2-z
-x,-y,-z
x,-y,1/2+z
1/2+x,1/2+y,z
1/2-x,1/2+y,1/2-z
1/2-x,1/2-y,-z
1/2+x,1/2-y,1/2+z
loop_
_atom_site_type_symbol
_atom_site_label
_atom_site_fract_x
_atom_site_fract_y
_atom_site_fract_z
Si Si1 0.975873 0.376196 0.632132
Si Si2 0.723461 0.513417 0.992010
Si Si3 0.163620 0.283853 0.028581
Si Si4 0.345433 0.900331 0.762724
Si Si5 0.356900 0.410058 0.672609
Si Si6 0.634118 0.926017 0.349903
Si Si7 0.754690 0.602880 0.807700
Si Si8 0.000000 0.873346 0.250000
O O1 0.923097 0.345139 0.540015
O O2 0.941967 0.525295 0.650985
O O3 0.970192 0.228406 0.674586
O O4 0.065177 0.404713 0.659221
O O5 0.767312 0.632800 0.971012
O O6 0.663767 0.417171 0.914034
O O7 0.672000 0.602386 0.016510
O O8 0.787720 0.404076 0.062469
O O9 0.177999 0.313714 0.111230
O O10 0.309116 0.729898 0.750937
O O11 0.349239 0.935160 0.689967
O O12 0.294760 0.031651 0.768467
O O13 0.381815 0.231828 0.697705
O O14 0.284079 0.459921 0.676041
O O15 0.428614 0.520042 0.732878
#
# Coordination Sequence:
#
# PCOD8151573 Si02
#       8
#     8   8   8   8   8   8   8   4
#     4  11  21  38  61  87 118 152 193 247 296 341
#     4   9  17  33  59  85 118 148 191 242 290 342
#     4   9  18  35  60  85 112 157 195 234 293 351
#     4  12  23  39  59  83 117 159 196 245 285 348
#     4  11  22  35  58  93 118 150 189 245 294 349
#     4  11  21  36  60  92 119 147 196 246 292 342
#     4  11  23  41  59  84 117 158 202 230 293 358
#     4  12  20  34  60  88 120 148 190 242 300 338
#
# _framework density 19.490624
#
# number of rings (size 3 to 8) (size 9 to 14) (size 15 to 20)
#    0.000    1.333    5.333    1.200    1.867    0.533 
#    0.000    0.000    0.000    0.800    0.000    0.000 
#    0.000    0.000    0.000    0.000    0.000    0.000 
#
# Total GULP energy -372025.997910 kJ/mol
# GULP energy per Si atom -12400.866597 kJ/mol
# Density = 1.944626 g / cm^3
# Si number density = 19.490624 Si / 1000 Ang^3
#
#
#
# Elastic Constant Matrix: (Units=GPa)
#
#
# Indices 1 2 3 4 5 6 
#
# 1 85.0635 35.7949 31.9149 0.0000 15.1486 0.0000
# 2 35.7949 92.3777 13.0897 0.0000 9.9360 0.0000
# 3 31.9149 13.0897 78.9816 0.0000 14.8790 0.0000
# 4 0.0000 0.0000 0.0000 19.6021 0.0000 -0.0010
# 5 15.1486 9.9360 14.8790 0.0000 23.9230 0.0000
# 6 0.0000 0.0000 0.0000 -0.0010 0.0000 33.1427
#
#
#
# Elastic Compliance Matrix: (Units=1/GPa)
#
#
# Indices 1 2 3 4 5 6 
#
# 1 0.016745 -0.005215 -0.004885 0.000000 -0.005399 0.000000
# 2 -0.005215 0.013044 0.000390 0.000000 -0.002358 0.000000
# 3 -0.004885 0.000390 0.015879 0.000000 -0.006944 0.000000
# 4 0.000000 0.000000 0.000000 0.051015 0.000000 0.000001
# 5 -0.005399 -0.002358 -0.006944 0.000000 0.050518 0.000000
# 6 0.000000 0.000000 0.000000 0.000001 0.000000 0.030173
#
#
# Mechanical properties :
#
#
# Convention : Reuss Voigt Hill
#
# Bulk Modulus (GPa) = 38.09984 46.44686 42.27335
# Shear Modulus (GPa) = 24.32579 27.04179 25.68379
#
# Velocity S-wave (km/s) = 3.53665 3.72886 3.63402
# Velocity P-wave (km/s) = 6.02224 6.51316 6.27250
#
# Compressibility (1/GPa) = 0.02624683
#
# Stress axis : x y z
#
# Youngs Moduli (GPa) = 59.71999 76.66124 62.97755
#
# Poissons Ratio (x) = 0.39983 0.30763
# Poissons Ratio (y) = 0.31147 -0.02455
# Poissons Ratio (z) = 0.29172 -0.02988
#
# Static dielectric constant tensor:
#      x y z
#    x 3.285450 0.000000 0.132940 
#    y 0.000000 3.448170 0.000000 
#    z 0.132940 0.000000 3.578740 
# 
# 
# High freq. dielectric constant tensor:
#      x y z
#    x 1.729360 0.000000 0.015360 
#    y 0.000000 1.757280 0.000000 
#    z 0.015360 0.000000 1.759450 
# 
# From -- ./inp_files/247410.got.cif
#   From: 2010.06.25/outbox.cif.g09.slc.cpg/sg15_124_cif.got.tgz:247410.got - 2010.06.28 07:06:18.
