data_PCOD8151734
_publ_section_title
;
Structure prediction by ZEFSAII (Michael W. Deem and Ramdas Pophale) SiO2 
 PCOD8151734
Probable space group: C 2/C
;
_chemical_formula_sum "Si O2"
_cell_formula_units_Z 40
_cell_length_a 10.719920
_cell_length_b 17.225380
_cell_length_c 26.222210
_cell_angle_alpha 90.000000
_cell_angle_beta 157.988512
_cell_angle_gamma 90.000000
_cell_volume 1814.765549
_symmetry_space_group_name_H-M "C 2/C"
_symmetry_group_IT_number 15
_symmetry_cell_setting 'monoclinic'
loop_
_space_group_symop_operation_xyz
x,y,z
-x,y,1/2-z
-x,-y,-z
x,-y,1/2+z
1/2+x,1/2+y,z
1/2-x,1/2+y,1/2-z
1/2-x,1/2-y,-z
1/2+x,1/2-y,1/2+z
loop_
_atom_site_type_symbol
_atom_site_label
_atom_site_fract_x
_atom_site_fract_y
_atom_site_fract_z
Si Si1 0.628859 0.135592 0.932427
Si Si2 0.234601 0.821913 0.190048
Si Si3 0.488284 0.829282 0.567220
Si Si4 0.134984 0.749998 0.588219
Si Si5 0.630173 0.999705 0.106193
O O1 0.316449 0.144072 0.776292
O O2 0.587841 0.189095 0.965901
O O3 0.622369 0.046941 0.951665
O O4 0.961521 0.164153 0.028128
O O5 0.500000 0.855149 0.250000
O O6 0.242809 0.727020 0.194171
O O7 0.856044 0.845240 0.032528
O O8 0.379422 0.783501 0.474348
O O9 0.671198 0.910694 0.635994
O O10 0.500000 0.756426 0.750000
O O11 0.000000 0.961443 0.250000
O O12 0.500000 0.000000 0.000000
#
# Coordination Sequence:
#
# PCOD8151734 Si02
#       5
#     8   8   8   8   8
#     4  11  23  39  67 100 140 172 235 291 351 400
#     4  11  22  41  65  96 134 183 234 291 334 419
#     4  11  23  40  69  99 133 181 242 278 347 421
#     4  11  21  39  67 100 137 180 231 289 338 409
#     4  12  25  44  71 104 143 179 230 298 360 407
#
# _framework density 22.041412999999999
#
# number of rings (size 3 to 8) (size 9 to 14) (size 15 to 20)
#    0.000    0.800    6.000    2.400    0.000    0.000 
#    0.000    2.000    0.000    0.000    0.000    0.000 
#    0.000    0.000    0.000    0.000    0.000    0.000 
#
# Total GULP energy -247794.669966 kJ/mol
# GULP energy per Si atom -12389.733498 kJ/mol
# Density = 2.199125 g / cm^3
# Si number density = 22.041413 Si / 1000 Ang^3
#
#
#
# Elastic Constant Matrix: (Units=GPa)
#
#
# Indices 1 2 3 4 5 6 
#
# 1 89.8852 35.3742 28.7580 -0.0054 1.8260 -0.0046
# 2 35.3742 120.0876 18.5172 -0.0127 -8.2576 -0.0074
# 3 28.7580 18.5172 85.3195 -0.0228 1.9947 -0.0090
# 4 -0.0054 -0.0127 -0.0228 22.6302 -0.0006 -1.6696
# 5 1.8260 -8.2576 1.9947 -0.0006 40.0858 -0.0038
# 6 -0.0046 -0.0074 -0.0090 -1.6696 -0.0038 42.1500
#
#
#
# Elastic Compliance Matrix: (Units=1/GPa)
#
#
# Indices 1 2 3 4 5 6 
#
# 1 0.013775 -0.003545 -0.003846 -0.000003 -0.001166 0.000000
# 2 -0.003545 0.009670 -0.000955 0.000004 0.002201 0.000001
# 3 -0.003846 -0.000955 0.013240 0.000012 -0.000680 0.000003
# 4 -0.000003 0.000004 0.000012 0.044318 0.000001 0.001755
# 5 -0.001166 0.002201 -0.000680 0.000001 0.025487 0.000002
# 6 0.000000 0.000001 0.000003 0.001755 0.000002 0.023794
#
#
# Mechanical properties :
#
#
# Convention : Reuss Voigt Hill
#
# Bulk Modulus (GPa) = 50.01945 51.17679 50.59812
# Shear Modulus (GPa) = 32.54330 35.14940 33.84635
#
# Velocity S-wave (km/s) = 3.84664 3.99770 3.92290
# Velocity P-wave (km/s) = 6.51702 6.67665 6.59732
#
# Compressibility (1/GPa) = 0.01999222
#
# Stress axis : x y z
#
# Youngs Moduli (GPa) = 72.59736 103.41171 75.52662
#
# Poissons Ratio (x) = 0.36656 0.29050
# Poissons Ratio (y) = 0.25734 0.07216
# Poissons Ratio (z) = 0.27923 0.09880
#
# Static dielectric constant tensor:
#      x y z
#    x 3.998380 -0.000200 0.019560 
#    y -0.000200 4.227360 -0.000230 
#    z 0.019560 -0.000230 3.838900 
# 
# 
# High freq. dielectric constant tensor:
#      x y z
#    x 1.869830 0.000000 0.002940 
#    y 0.000000 1.842880 -0.000010 
#    z 0.002940 -0.000010 1.872470 
# 
# From -- ./inp_files/311602.got.cif
#   From: 2010.06.25/outbox.cif.g09.slc.cpg/sg15_156_cif.got.tgz:311602.got - 2010.06.28 07:06:18.
