data_PCOD8151266
_publ_section_title
;
Structure prediction by ZEFSAII (Michael W. Deem and Ramdas Pophale) SiO2 
 PCOD8151266
Probable space group: C 2/C
;
_chemical_formula_sum "Si O2"
_cell_formula_units_Z 48
_cell_length_a 15.780379
_cell_length_b 17.253240
_cell_length_c 10.109341
_cell_angle_alpha 90.000000
_cell_angle_beta 62.246505
_cell_angle_gamma 90.000000
_cell_volume 2435.758373
_symmetry_space_group_name_H-M "C 2/C"
_symmetry_group_IT_number 15
_symmetry_cell_setting 'monoclinic'
loop_
_space_group_symop_operation_xyz
x,y,z
-x,y,1/2-z
-x,-y,-z
x,-y,1/2+z
1/2+x,1/2+y,z
1/2-x,1/2+y,1/2-z
1/2-x,1/2-y,-z
1/2+x,1/2-y,1/2+z
loop_
_atom_site_type_symbol
_atom_site_label
_atom_site_fract_x
_atom_site_fract_y
_atom_site_fract_z
Si Si1 0.345196 0.991431 0.118779
Si Si2 0.979112 0.761836 0.066544
Si Si3 0.991513 0.386527 0.410315
Si Si4 0.253883 0.056476 0.430316
Si Si5 0.531860 0.430553 0.072840
Si Si6 0.652766 0.785059 0.623632
O O1 0.414390 0.917130 0.081586
O O2 0.285397 0.995732 0.296856
O O3 0.264357 0.980014 0.067008
O O4 0.402209 0.069346 0.040557
O O5 0.877887 0.753953 0.215820
O O6 0.990435 0.853292 0.032503
O O7 0.066723 0.728149 0.086137
O O8 0.977544 0.706625 0.937867
O O9 0.000000 0.406950 0.250000
O O10 0.145167 0.081475 0.488609
O O11 0.330109 0.125272 0.361732
O O12 0.500000 0.440791 0.250000
O O13 0.500000 0.500000 0.000000
O O14 0.750000 0.750000 0.500000
#
# Coordination Sequence:
#
# PCOD8151266 Si02
#       6
#     8   8   8   8   8   8
#     4  11  23  35  62  96 135 172 203 256 320 390
#     4  11  22  39  66  92 124 165 213 268 317 376
#     4  11  22  37  58  96 142 164 200 258 332 383
#     4  12  22  40  65  96 128 169 219 261 316 392
#     4  12  26  46  67  92 125 171 221 272 321 377
#     4  11  20  37  65  93 117 161 220 264 310 372
#
# _framework density 19.706385999999998
#
# number of rings (size 3 to 8) (size 9 to 14) (size 15 to 20)
#    0.000    0.667    8.333    1.000    0.000    0.667 
#    0.000    0.000    0.000    3.000    0.000    0.000 
#    0.000    0.000    0.000    0.000    0.000    0.000 
#
# Total GULP energy -297504.943329 kJ/mol
# GULP energy per Si atom -12396.039305 kJ/mol
# Density = 1.966153 g / cm^3
# Si number density = 19.706386 Si / 1000 Ang^3
#
#
#
# Elastic Constant Matrix: (Units=GPa)
#
#
# Indices 1 2 3 4 5 6 
#
# 1 63.8992 30.0992 38.8123 0.0000 -1.2043 0.0000
# 2 30.0992 137.4286 37.8918 0.0000 6.2950 0.0000
# 3 38.8123 37.8918 92.0401 0.0000 -0.9912 0.0000
# 4 0.0000 0.0000 0.0000 29.6833 0.0000 5.9078
# 5 -1.2043 6.2950 -0.9912 0.0000 37.8620 0.0000
# 6 0.0000 0.0000 0.0000 5.9078 0.0000 24.3227
#
#
#
# Elastic Compliance Matrix: (Units=1/GPa)
#
#
# Indices 1 2 3 4 5 6 
#
# 1 0.021819 -0.002579 -0.008129 0.000000 0.000910 0.000000
# 2 -0.002579 0.008594 -0.002467 0.000000 -0.001575 0.000000
# 3 -0.008129 -0.002467 0.015315 0.000000 0.000553 0.000000
# 4 0.000000 0.000000 0.000000 0.035400 0.000000 -0.008598
# 5 0.000910 -0.001575 0.000553 0.000000 0.026717 0.000000
# 6 0.000000 0.000000 0.000000 -0.008598 0.000000 0.043202
#
#
# Mechanical properties :
#
#
# Convention : Reuss Voigt Hill
#
# Bulk Modulus (GPa) = 51.60980 56.33051 53.97016
# Shear Modulus (GPa) = 27.19489 30.81126 29.00307
#
# Velocity S-wave (km/s) = 3.71887 3.95842 3.84051
# Velocity P-wave (km/s) = 6.68478 7.03840 6.86387
#
# Compressibility (1/GPa) = 0.01937616
#
# Stress axis : x y z
#
# Youngs Moduli (GPa) = 45.83065 116.36249 65.29680
#
# Poissons Ratio (x) = 0.30011 0.53083
# Poissons Ratio (y) = 0.11820 0.16111
# Poissons Ratio (z) = 0.37258 0.28711
#
# Static dielectric constant tensor:
#      x y z
#    x 3.106540 0.000000 0.118330 
#    y 0.000000 3.700710 0.000000 
#    z 0.118330 0.000000 3.625680 
# 
# 
# High freq. dielectric constant tensor:
#      x y z
#    x 1.755870 0.000000 -0.011210 
#    y 0.000000 1.768930 0.000000 
#    z -0.011210 0.000000 1.775800 
# 
# From -- ./inp_files/96867.got.cif
#   From: 2010.06.25/outbox.cif.g09.slc.cpg/sg15_49_cif.got.tgz:96867.got - 2010.06.28 07:06:18.
