data_PCOD8151162
_publ_section_title
;
Structure prediction by ZEFSAII (Michael W. Deem and Ramdas Pophale) SiO2 
 PCOD8151162
Probable space group: C 2/C
;
_chemical_formula_sum "Si O2"
_cell_formula_units_Z 64
_cell_length_a 14.695883
_cell_length_b 14.469802
_cell_length_c 16.685246
_cell_angle_alpha 90.000000
_cell_angle_beta 96.858511
_cell_angle_gamma 90.000000
_cell_volume 3522.669804
_symmetry_space_group_name_H-M "C 2/C"
_symmetry_group_IT_number 15
_symmetry_cell_setting 'monoclinic'
loop_
_space_group_symop_operation_xyz
x,y,z
-x,y,1/2-z
-x,-y,-z
x,-y,1/2+z
1/2+x,1/2+y,z
1/2-x,1/2+y,1/2-z
1/2-x,1/2-y,-z
1/2+x,1/2-y,1/2+z
loop_
_atom_site_type_symbol
_atom_site_label
_atom_site_fract_x
_atom_site_fract_y
_atom_site_fract_z
Si Si1 0.930037 0.293151 0.017453
Si Si2 0.178417 0.800727 0.866713
Si Si3 0.334280 0.336865 0.398567
Si Si4 0.892491 0.076332 0.746560
Si Si5 0.622559 0.265220 0.555319
Si Si6 0.216597 0.870460 0.424081
Si Si7 0.094751 0.871297 0.712282
Si Si8 0.230967 0.563709 0.015991
O O1 0.919580 0.204075 0.957229
O O2 0.870104 0.386056 0.991066
O O3 0.904917 0.256960 0.103621
O O4 0.040165 0.308169 0.028113
O O5 0.270661 0.751029 0.897982
O O6 0.165280 0.808891 0.770307
O O7 0.195541 0.899893 0.910373
O O8 0.357242 0.353324 0.309339
O O9 0.280866 0.421985 0.435086
O O10 0.841144 0.096187 0.658323
O O11 0.000000 0.091774 0.750000
O O12 0.870062 0.976068 0.780382
O O13 0.710382 0.207407 0.593905
O O14 0.646183 0.327378 0.480666
O O15 0.590408 0.335914 0.621426
O O16 0.275901 0.954251 0.469103
O O17 0.000000 0.865342 0.750000
#
# Coordination Sequence:
#
# PCOD8151162 Si02
#       8
#     8   8   8   8   8   8   8   8
#     4   9  18  34  57  82 102 140 182 222 271 329
#     4   9  16  33  54  77 103 131 174 224 272 307
#     4   9  18  32  56  77 102 137 175 224 267 319
#     4  11  22  34  52  80 107 141 177 220 275 329
#     4  11  23  36  55  79 113 150 180 225 279 331
#     4  11  23  38  52  79 116 149 180 223 280 332
#     4  11  20  33  54  80 105 134 177 224 273 313
#     4   9  18  35  57  79 107 138 181 226 271 328
#
# _framework density 18.168037999999999
#
# number of rings (size 3 to 8) (size 9 to 14) (size 15 to 20)
#    0.000    2.000    2.500    3.750    0.000    0.500 
#    0.000    3.750    0.000    0.000    0.000    0.875 
#    0.000    0.000    0.000    0.000    0.000    0.000 
#
# Total GULP energy -396449.567078 kJ/mol
# GULP energy per Si atom -12389.048971 kJ/mol
# Density = 1.812669 g / cm^3
# Si number density = 18.168038 Si / 1000 Ang^3
#
#
#
# Elastic Constant Matrix: (Units=GPa)
#
#
# Indices 1 2 3 4 5 6 
#
# 1 89.5207 29.4950 38.9990 0.0000 1.5123 0.0000
# 2 29.4950 70.6702 27.6893 0.0000 -5.9016 0.0000
# 3 38.9990 27.6893 95.4348 0.0000 -5.1975 0.0000
# 4 0.0000 0.0000 0.0000 21.7820 0.0000 3.1634
# 5 1.5123 -5.9016 -5.1975 0.0000 24.3095 0.0000
# 6 0.0000 0.0000 0.0000 3.1634 0.0000 15.0191
#
#
#
# Elastic Compliance Matrix: (Units=1/GPa)
#
#
# Indices 1 2 3 4 5 6 
#
# 1 0.014861 -0.004529 -0.004926 0.000000 -0.003077 0.000000
# 2 -0.004529 0.017553 -0.003030 0.000000 0.003895 0.000000
# 3 -0.004926 -0.003030 0.013504 0.000000 0.002458 0.000000
# 4 0.000000 0.000000 0.000000 0.047358 0.000000 -0.009975
# 5 -0.003077 0.003895 0.002458 0.000000 0.042799 0.000000
# 6 0.000000 0.000000 0.000000 -0.009975 0.000000 0.068683
#
#
# Mechanical properties :
#
#
# Convention : Reuss Voigt Hill
#
# Bulk Modulus (GPa) = 47.73809 49.77692 48.75751
# Shear Modulus (GPa) = 21.12276 22.85161 21.98718
#
# Velocity S-wave (km/s) = 3.41344 3.55038 3.48258
# Velocity P-wave (km/s) = 6.47057 6.65316 6.56250
#
# Compressibility (1/GPa) = 0.02094763
#
# Stress axis : x y z
#
# Youngs Moduli (GPa) = 67.29020 56.97043 74.04969
#
# Poissons Ratio (x) = 0.25803 0.36480
# Poissons Ratio (y) = 0.30477 0.22436
# Poissons Ratio (z) = 0.33150 0.17261
#
# Static dielectric constant tensor:
#      x y z
#    x 3.287370 0.000000 -0.013400 
#    y 0.000000 3.206450 0.000000 
#    z -0.013400 0.000000 3.452480 
# 
# 
# High freq. dielectric constant tensor:
#      x y z
#    x 1.699520 0.000000 0.004270 
#    y 0.000000 1.692280 0.000000 
#    z 0.004270 0.000000 1.705490 
# 
# From -- ./inp_files/204449.got.cif
#   From: 2010.06.25/outbox.cif.g09.slc.cpg/sg15_103_cif.got.tgz:204449.got - 2010.06.28 07:06:18.
