data_PCOD8151997
_publ_section_title
;
Structure prediction by ZEFSAII (Michael W. Deem and Ramdas Pophale) SiO2 
 PCOD8151997
Probable space group: C 2/C
;
_chemical_formula_sum "Si O2"
_cell_formula_units_Z 60
_cell_length_a 11.618048
_cell_length_b 21.855150
_cell_length_c 11.636571
_cell_angle_alpha 90.000000
_cell_angle_beta 90.956122
_cell_angle_gamma 90.000000
_cell_volume 2954.279014
_symmetry_space_group_name_H-M "C 2/C"
_symmetry_group_IT_number 15
_symmetry_cell_setting 'monoclinic'
loop_
_space_group_symop_operation_xyz
x,y,z
-x,y,1/2-z
-x,-y,-z
x,-y,1/2+z
1/2+x,1/2+y,z
1/2-x,1/2+y,1/2-z
1/2-x,1/2-y,-z
1/2+x,1/2-y,1/2+z
loop_
_atom_site_type_symbol
_atom_site_label
_atom_site_fract_x
_atom_site_fract_y
_atom_site_fract_z
Si Si1 0.258827 0.897054 0.927395
Si Si2 0.000000 0.437247 0.250000
Si Si3 0.882674 0.379980 0.463336
Si Si4 0.177944 0.500179 0.904533
Si Si5 0.133998 0.012868 0.263503
Si Si6 0.351377 0.378440 0.152743
Si Si7 0.044674 0.305619 0.622980
Si Si8 0.405134 0.668739 0.899923
O O1 0.188846 0.928985 0.825415
O O2 0.351556 0.853220 0.871187
O O3 0.328931 0.946527 0.002057
O O4 0.171225 0.858804 0.001700
O O5 0.956991 0.393922 0.351440
O O6 0.897035 0.481214 0.207598
O O7 0.874581 0.439434 0.542881
O O8 0.756643 0.355907 0.424080
O O9 0.943016 0.326556 0.536366
O O10 0.309292 0.492205 0.862443
O O11 0.000000 0.024814 0.250000
O O12 0.156406 0.951745 0.337273
O O13 0.468233 0.360721 0.089938
O O14 0.346510 0.346827 0.277115
O O15 0.090321 0.240853 0.578682
O O16 0.000000 0.296257 0.750000
#
# Coordination Sequence:
#
# PCOD8151997 Si02
#       8
#     8   4   8   8   8   8   8   8
#     4  12  24  43  71 100 133 178 225 283 348 405
#     4  12  22  42  62 100 144 176 224 272 356 416
#     4  12  26  39  71 104 134 180 230 289 341 411
#     4  12  23  40  67 101 143 174 213 284 357 416
#     4  12  24  40  67 105 136 168 221 287 348 416
#     4  11  21  44  71  98 130 177 223 280 342 408
#     4  12  27  48  67  99 139 190 233 281 334 407
#     4  11  24  48  71  92 137 187 233 269 342 415
#
# _framework density 20.309524
#
# number of rings (size 3 to 8) (size 9 to 14) (size 15 to 20)
#    0.000    0.267    8.000    1.600    4.667    1.600 
#    0.000    0.000    0.000    0.000    0.000    0.000 
#    0.000    0.000    0.000    0.000    0.000    0.000 
#
# Total GULP energy -372233.006505 kJ/mol
# GULP energy per Si atom -12407.766883 kJ/mol
# Density = 2.026330 g / cm^3
# Si number density = 20.309524 Si / 1000 Ang^3
#
#
#
# Elastic Constant Matrix: (Units=GPa)
#
#
# Indices 1 2 3 4 5 6 
#
# 1 92.4639 23.9580 15.5003 0.0000 19.0925 0.0000
# 2 23.9580 111.8682 13.3270 0.0000 14.4540 0.0000
# 3 15.5003 13.3270 52.6475 0.0000 10.6902 0.0000
# 4 0.0000 0.0000 0.0000 14.9505 0.0000 1.5867
# 5 19.0925 14.4540 10.6902 0.0000 37.3043 0.0000
# 6 0.0000 0.0000 0.0000 1.5867 0.0000 13.2901
#
#
#
# Elastic Compliance Matrix: (Units=1/GPa)
#
#
# Indices 1 2 3 4 5 6 
#
# 1 0.012723 -0.001789 -0.002242 0.000000 -0.005176 0.000000
# 2 -0.001789 0.009815 -0.001456 0.000000 -0.002470 0.000000
# 3 -0.002242 -0.001456 0.020891 0.000000 -0.004275 0.000000
# 4 0.000000 0.000000 0.000000 0.067746 0.000000 -0.008088
# 5 -0.005176 -0.002470 -0.004275 0.000000 0.031638 0.000000
# 6 0.000000 0.000000 0.000000 -0.008088 0.000000 0.076210
#
#
# Mechanical properties :
#
#
# Convention : Reuss Voigt Hill
#
# Bulk Modulus (GPa) = 30.81231 40.28334 35.54783
# Shear Modulus (GPa) = 20.76281 26.72194 23.74238
#
# Velocity S-wave (km/s) = 3.20084 3.63124 3.42281
# Velocity P-wave (km/s) = 5.37260 6.12037 5.75864
#
# Compressibility (1/GPa) = 0.03245456
#
# Stress axis : x y z
#
# Youngs Moduli (GPa) = 78.59654 101.88659 47.86743
#
# Poissons Ratio (x) = 0.18227 0.10732
# Poissons Ratio (y) = 0.14061 0.06971
# Poissons Ratio (z) = 0.17622 0.14837
#
# Static dielectric constant tensor:
#      x y z
#    x 3.914200 0.000000 -0.022880 
#    y 0.000000 3.701100 0.000000 
#    z -0.022880 0.000000 3.693460 
# 
# 
# High freq. dielectric constant tensor:
#      x y z
#    x 1.811520 0.000000 -0.005990 
#    y 0.000000 1.787050 0.000000 
#    z -0.005990 0.000000 1.794670 
# 
# From -- ./inp_files/89613.got.cif
#   From: 2010.06.25/outbox.cif.g09.slc.cpg/sg15_45_cif.got.tgz:89613.got - 2010.06.28 07:06:18.
