data_PCOD8151990
_publ_section_title
;
Structure prediction by ZEFSAII (Michael W. Deem and Ramdas Pophale) SiO2 
 PCOD8151990
Probable space group: C 2/C
;
_chemical_formula_sum "Si O2"
_cell_formula_units_Z 56
_cell_length_a 8.230224
_cell_length_b 11.400259
_cell_length_c 29.418763
_cell_angle_alpha 90.000000
_cell_angle_beta 70.989031
_cell_angle_gamma 90.000000
_cell_volume 2609.709755
_symmetry_space_group_name_H-M "C 2/C"
_symmetry_group_IT_number 15
_symmetry_cell_setting 'monoclinic'
loop_
_space_group_symop_operation_xyz
x,y,z
-x,y,1/2-z
-x,-y,-z
x,-y,1/2+z
1/2+x,1/2+y,z
1/2-x,1/2+y,1/2-z
1/2-x,1/2-y,-z
1/2+x,1/2-y,1/2+z
loop_
_atom_site_type_symbol
_atom_site_label
_atom_site_fract_x
_atom_site_fract_y
_atom_site_fract_z
Si Si1 0.592059 0.426021 0.081483
Si Si2 0.505327 0.936740 0.802656
Si Si3 0.544341 0.997244 0.927780
Si Si4 0.843837 0.124347 0.119039
Si Si5 0.510520 0.843522 0.146616
Si Si6 0.721601 0.623666 0.482036
Si Si7 0.861083 0.722576 0.137378
O O1 0.798982 0.425552 0.067582
O O2 0.505428 0.538881 0.112185
O O3 0.519206 0.309607 0.112211
O O4 0.566719 0.427784 0.028320
O O5 0.500000 0.915010 0.750000
O O6 0.318140 0.934867 0.842593
O O7 0.619683 0.832699 0.813915
O O8 0.576427 0.068377 0.807982
O O9 0.393439 0.956050 0.975532
O O10 0.632299 0.881638 0.899132
O O11 0.440823 0.075765 0.900738
O O12 0.819567 0.137784 0.067243
O O13 0.876632 0.245219 0.142672
O O14 0.681525 0.788366 0.151785
O O15 0.750000 0.750000 0.500000
#
# Coordination Sequence:
#
# PCOD8151990 Si02
#       7
#     8   8   8   8   8   8   8
#     4  12  23  40  69  95 138 179 221 266 329 391
#     4  11  25  46  71  96 129 166 220 277 335 394
#     4  11  22  41  64  97 131 177 221 268 321 383
#     4  12  24  43  65  98 136 177 218 275 329 392
#     4  11  23  43  72  93 131 175 216 269 336 388
#     4  12  22  40  62  97 138 178 225 270 322 390
#     4  11  21  44  68  95 131 169 215 275 326 390
#
# _framework density 21.458324999999999
#
# number of rings (size 3 to 8) (size 9 to 14) (size 15 to 20)
#    0.000    0.571    7.143    2.571    0.000    1.143 
#    0.000    2.143    0.000    0.000    0.000    0.000 
#    0.000    0.000    0.000    0.000    0.000    0.000 
#
# Total GULP energy -346999.152963 kJ/mol
# GULP energy per Si atom -12392.826892 kJ/mol
# Density = 2.140949 g / cm^3
# Si number density = 21.458325 Si / 1000 Ang^3
#
#
#
# Elastic Constant Matrix: (Units=GPa)
#
#
# Indices 1 2 3 4 5 6 
#
# 1 96.9527 39.1798 25.1277 0.0000 11.7278 0.0000
# 2 39.1798 116.1958 40.1515 0.0000 13.1454 0.0000
# 3 25.1277 40.1515 109.5990 0.0000 20.5850 0.0000
# 4 0.0000 0.0000 0.0000 24.6426 0.0000 5.1970
# 5 11.7278 13.1454 20.5850 0.0000 13.8977 0.0000
# 6 0.0000 0.0000 0.0000 5.1970 0.0000 41.4406
#
#
#
# Elastic Compliance Matrix: (Units=1/GPa)
#
#
# Indices 1 2 3 4 5 6 
#
# 1 0.012596 -0.003337 -0.000363 0.000000 -0.006936 0.000000
# 2 -0.003337 0.011051 -0.002562 0.000000 -0.003842 0.000000
# 3 -0.000363 -0.002562 0.013346 0.000000 -0.017039 0.000000
# 4 0.000000 0.000000 0.000000 0.041683 0.000000 -0.005227
# 5 -0.006936 -0.003842 -0.017039 0.000000 0.106679 0.000000
# 6 0.000000 0.000000 0.000000 -0.005227 0.000000 0.024786
#
#
# Mechanical properties :
#
#
# Convention : Reuss Voigt Hill
#
# Bulk Modulus (GPa) = 40.86653 59.07395 49.97024
# Shear Modulus (GPa) = 21.66177 30.54873 26.10525
#
# Velocity S-wave (km/s) = 3.18068 3.77720 3.49170
# Velocity P-wave (km/s) = 5.70744 6.82732 6.29235
#
# Compressibility (1/GPa) = 0.02446990
#
# Stress axis : x y z
#
# Youngs Moduli (GPa) = 79.39113 90.48631 74.92843
#
# Poissons Ratio (x) = 0.30198 0.02717
# Poissons Ratio (y) = 0.26495 0.19196
# Poissons Ratio (z) = 0.02879 0.23181
#
# Static dielectric constant tensor:
#      x y z
#    x 3.799630 0.000000 0.086660 
#    y 0.000000 4.345880 0.000000 
#    z 0.086660 0.000000 3.977450 
# 
# 
# High freq. dielectric constant tensor:
#      x y z
#    x 1.836180 0.000000 0.009700 
#    y 0.000000 1.868070 0.000000 
#    z 0.009700 0.000000 1.819260 
# 
# From -- ./inp_files/307080.got.cif
#   From: 2010.06.25/outbox.cif.g09.slc.cpg/sg15_154_cif.got.tgz:307080.got - 2010.06.28 07:06:18.
