data_PCOD8151582
_publ_section_title
;
Structure prediction by ZEFSAII (Michael W. Deem and Ramdas Pophale) SiO2 
 PCOD8151582
Probable space group: C 2/C
;
_chemical_formula_sum "Si O2"
_cell_formula_units_Z 40
_cell_length_a 9.405617
_cell_length_b 27.774409
_cell_length_c 9.920084
_cell_angle_alpha 90.000000
_cell_angle_beta 123.792780
_cell_angle_gamma 90.000000
_cell_volume 2153.659319
_symmetry_space_group_name_H-M "C 2/C"
_symmetry_group_IT_number 15
_symmetry_cell_setting 'monoclinic'
loop_
_space_group_symop_operation_xyz
x,y,z
-x,y,1/2-z
-x,-y,-z
x,-y,1/2+z
1/2+x,1/2+y,z
1/2-x,1/2+y,1/2-z
1/2-x,1/2-y,-z
1/2+x,1/2-y,1/2+z
loop_
_atom_site_type_symbol
_atom_site_label
_atom_site_fract_x
_atom_site_fract_y
_atom_site_fract_z
Si Si1 0.692748 0.775652 0.834724
Si Si2 0.702627 0.784498 0.354588
Si Si3 0.678659 0.886407 0.418023
Si Si4 0.019817 0.955156 0.914512
Si Si5 0.836842 0.135153 0.261941
O O1 0.500000 0.794009 0.750000
O O2 0.708906 0.734605 0.732132
O O3 0.807107 0.821369 0.850403
O O4 0.750000 0.750000 0.000000
O O5 0.500000 0.787006 0.250000
O O6 0.750000 0.750000 0.500000
O O7 0.770240 0.839079 0.403317
O O8 0.500000 0.897049 0.250000
O O9 0.793216 0.933455 0.456443
O O10 0.671356 0.874267 0.576452
O O11 0.000000 0.972779 0.750000
O O12 0.877658 0.913530 0.867728
O O13 0.000000 0.000000 0.000000
O O14 0.000000 0.145806 0.250000
#
# Coordination Sequence:
#
# PCOD8151582 Si02
#       5
#     8   8   8   8   8
#     4  12  26  36  51  88 131 154 194 247 305 330
#     4  11  21  36  62  81 111 167 207 229 272 364
#     4   9  19  35  64  85 110 147 216 233 276 353
#     4   9  20  41  65  86 111 150 200 249 299 349
#     4   9  20  41  63  79 116 165 205 230 286 371
#
# _framework density 18.573039000000001
#
# number of rings (size 3 to 8) (size 9 to 14) (size 15 to 20)
#    0.000    2.400    2.000    1.800   11.200    0.000 
#    3.600    5.000    0.000    0.000    0.000    0.000 
#    0.000    0.000    0.000    0.000    0.000    0.000 
#
# Total GULP energy -247790.735984 kJ/mol
# GULP energy per Si atom -12389.536799 kJ/mol
# Density = 1.853077 g / cm^3
# Si number density = 18.573039 Si / 1000 Ang^3
#
#
#
# Elastic Constant Matrix: (Units=GPa)
#
#
# Indices 1 2 3 4 5 6 
#
# 1 75.0968 56.8297 41.7567 0.0000 -7.1256 0.0000
# 2 56.8297 168.9158 76.5839 0.0000 -15.8141 0.0000
# 3 41.7567 76.5839 145.4841 0.0000 -1.6802 0.0000
# 4 0.0000 0.0000 0.0000 39.1278 0.0000 -11.8921
# 5 -7.1256 -15.8141 -1.6802 0.0000 32.3516 0.0000
# 6 0.0000 0.0000 0.0000 -11.8921 0.0000 35.0216
#
#
#
# Elastic Compliance Matrix: (Units=1/GPa)
#
#
# Indices 1 2 3 4 5 6 
#
# 1 0.018710 -0.004886 -0.002780 0.000000 0.001588 0.000000
# 2 -0.004886 0.009492 -0.003555 0.000000 0.003379 0.000000
# 3 -0.002780 -0.003555 0.009522 0.000000 -0.001856 0.000000
# 4 0.000000 0.000000 0.000000 0.028498 0.000000 0.009677
# 5 0.001588 0.003379 -0.001856 0.000000 0.032816 0.000000
# 6 0.000000 0.000000 0.000000 0.009677 0.000000 0.031840
#
#
# Mechanical properties :
#
#
# Convention : Reuss Voigt Hill
#
# Bulk Modulus (GPa) = 65.43779 82.20414 73.82096
# Shear Modulus (GPa) = 31.56300 35.58863 33.57581
#
# Velocity S-wave (km/s) = 4.12685 4.38213 4.25640
# Velocity P-wave (km/s) = 7.61689 8.36421 7.99928
#
# Compressibility (1/GPa) = 0.01528169
#
# Stress axis : x y z
#
# Youngs Moduli (GPa) = 53.44798 105.34987 105.02350
#
# Poissons Ratio (x) = 0.51470 0.29195
# Poissons Ratio (y) = 0.26113 0.37341
# Poissons Ratio (z) = 0.14858 0.37457
#
# Static dielectric constant tensor:
#      x y z
#    x 3.185970 0.000000 0.100530 
#    y 0.000000 4.902680 0.000000 
#    z 0.100530 0.000000 3.468550 
# 
# 
# High freq. dielectric constant tensor:
#      x y z
#    x 1.687530 0.000000 0.013340 
#    y 0.000000 1.721370 0.000000 
#    z 0.013340 0.000000 1.740960 
# 
# From -- ./inp_files/25816.got.cif
#   From: 2010.06.25/outbox.cif.g09.slc.cpg/sg15_13_cif.got.tgz:25816.got - 2010.06.28 07:06:18.
