data_PCOD8151869
_publ_section_title
;
Structure prediction by ZEFSAII (Michael W. Deem and Ramdas Pophale) SiO2 
 PCOD8151869
Probable space group: C 2/C
;
_chemical_formula_sum "Si O2"
_cell_formula_units_Z 44
_cell_length_a 14.581497
_cell_length_b 13.067395
_cell_length_c 13.860206
_cell_angle_alpha 90.000000
_cell_angle_beta 52.734845
_cell_angle_gamma 90.000000
_cell_volume 2101.781679
_symmetry_space_group_name_H-M "C 2/C"
_symmetry_group_IT_number 15
_symmetry_cell_setting 'monoclinic'
loop_
_space_group_symop_operation_xyz
x,y,z
-x,y,1/2-z
-x,-y,-z
x,-y,1/2+z
1/2+x,1/2+y,z
1/2-x,1/2+y,1/2-z
1/2-x,1/2-y,-z
1/2+x,1/2-y,1/2+z
loop_
_atom_site_type_symbol
_atom_site_label
_atom_site_fract_x
_atom_site_fract_y
_atom_site_fract_z
Si Si1 0.748261 0.725321 0.388184
Si Si2 0.131116 0.850485 0.341085
Si Si3 0.470369 0.516287 0.375562
Si Si4 0.978425 0.231410 0.085268
Si Si5 0.268586 0.010136 0.878816
Si Si6 0.000000 0.618735 0.750000
O O1 0.750000 0.750000 0.500000
O O2 0.844619 0.795369 0.275241
O O3 0.626659 0.755496 0.419342
O O4 0.780312 0.608584 0.345122
O O5 0.239465 0.920481 0.303639
O O6 0.096783 0.767979 0.446226
O O7 0.018963 0.924634 0.411008
O O8 0.500000 0.481648 0.250000
O O9 0.537091 0.621368 0.354256
O O10 0.332998 0.525878 0.477698
O O11 0.981964 0.314817 0.166283
O O12 0.390098 0.047878 0.842835
#
# Coordination Sequence:
#
# PCOD8151869 Si02
#       6
#     8   8   8   8   8   4
#     4  12  25  45  69 101 144 184 232 292 354 425
#     4  11  23  42  73  99 137 185 240 292 340 427
#     4  11  21  41  74 101 131 183 238 292 341 422
#     4  11  23  43  68 102 135 180 239 281 356 420
#     4  11  24  45  68 101 144 178 234 291 355 419
#     4  12  26  46  68 108 148 180 228 308 358 420
#
# _framework density 20.934619999999999
#
# number of rings (size 3 to 8) (size 9 to 14) (size 15 to 20)
#    0.000    0.727    6.364    2.182    0.000    5.818 
#    3.273    1.818    0.000    0.000    0.000    0.000 
#    0.000    0.000    0.000    0.000    0.000    0.000 
#
# Total GULP energy -272801.482196 kJ/mol
# GULP energy per Si atom -12400.067373 kJ/mol
# Density = 2.088697 g / cm^3
# Si number density = 20.934620 Si / 1000 Ang^3
#
#
#
# Elastic Constant Matrix: (Units=GPa)
#
#
# Indices 1 2 3 4 5 6 
#
# 1 136.5914 56.3683 50.9098 0.0000 -6.2019 0.0000
# 2 56.3683 109.6195 63.3352 0.0000 -3.7944 0.0000
# 3 50.9098 63.3352 118.7188 0.0000 -0.1853 0.0000
# 4 0.0000 0.0000 0.0000 34.2128 0.0000 -1.2267
# 5 -6.2019 -3.7944 -0.1853 0.0000 35.6128 0.0000
# 6 0.0000 0.0000 0.0000 -1.2267 0.0000 30.8163
#
#
#
# Elastic Compliance Matrix: (Units=1/GPa)
#
#
# Indices 1 2 3 4 5 6 
#
# 1 0.009719 -0.003681 -0.002202 0.000000 0.001289 0.000000
# 2 -0.003681 0.014648 -0.006235 0.000000 0.000887 0.000000
# 3 -0.002202 -0.006235 0.012692 0.000000 -0.000982 0.000000
# 4 0.000000 0.000000 0.000000 0.029271 0.000000 0.001165
# 5 0.001289 0.000887 -0.000982 0.000000 0.028394 0.000000
# 6 0.000000 0.000000 0.000000 0.001165 0.000000 0.032497
#
#
# Mechanical properties :
#
#
# Convention : Reuss Voigt Hill
#
# Bulk Modulus (GPa) = 77.97813 78.46183 78.21998
# Shear Modulus (GPa) = 32.10646 33.08279 32.59463
#
# Velocity S-wave (km/s) = 3.92044 3.97960 3.95013
# Velocity P-wave (km/s) = 7.60410 7.66010 7.63215
#
# Compressibility (1/GPa) = 0.01282411
#
# Stress axis : x y z
#
# Youngs Moduli (GPa) = 102.88620 68.26730 78.78774
#
# Poissons Ratio (x) = 0.25129 0.17351
# Poissons Ratio (y) = 0.37872 0.49123
# Poissons Ratio (z) = 0.22658 0.42564
#
# Static dielectric constant tensor:
#      x y z
#    x 3.824450 0.000000 0.032830 
#    y 0.000000 3.860470 0.000000 
#    z 0.032830 0.000000 3.710840 
# 
# 
# High freq. dielectric constant tensor:
#      x y z
#    x 1.817290 0.000000 0.003590 
#    y 0.000000 1.822610 0.000000 
#    z 0.003590 0.000000 1.822710 
# 
# From -- ./inp_files/151738.got.cif
#   From: 2010.06.25/outbox.cif.g09.slc.cpg/sg15_76_cif.got.tgz:151738.got - 2010.06.28 07:06:18.
