data_PCOD8151742
_publ_section_title
;
Structure prediction by ZEFSAII (Michael W. Deem and Ramdas Pophale) SiO2 
 PCOD8151742
Probable space group: C 2/C
;
_chemical_formula_sum "Si O2"
_cell_formula_units_Z 48
_cell_length_a 20.413917
_cell_length_b 9.594616
_cell_length_c 11.700658
_cell_angle_alpha 90.000000
_cell_angle_beta 73.046250
_cell_angle_gamma 90.000000
_cell_volume 2192.136376
_symmetry_space_group_name_H-M "C 2/C"
_symmetry_group_IT_number 15
_symmetry_cell_setting 'monoclinic'
loop_
_space_group_symop_operation_xyz
x,y,z
-x,y,1/2-z
-x,-y,-z
x,-y,1/2+z
1/2+x,1/2+y,z
1/2-x,1/2+y,1/2-z
1/2-x,1/2-y,-z
1/2+x,1/2-y,1/2+z
loop_
_atom_site_type_symbol
_atom_site_label
_atom_site_fract_x
_atom_site_fract_y
_atom_site_fract_z
Si Si1 0.659845 0.450775 0.584976
Si Si2 0.610214 0.778043 0.954238
Si Si3 0.066185 0.507546 0.643182
Si Si4 0.425898 0.704351 0.787181
Si Si5 0.717581 0.981706 0.142829
Si Si6 0.250933 0.699015 0.297669
O O1 0.606143 0.362186 0.534553
O O2 0.628194 0.599042 0.632583
O O3 0.733191 0.476022 0.490339
O O4 0.678163 0.366396 0.691367
O O5 0.591096 0.748666 0.833311
O O6 0.689417 0.826968 0.919935
O O7 0.562571 0.905018 0.025704
O O8 0.068608 0.339510 0.631524
O O9 0.138393 0.552894 0.660921
O O10 0.000000 0.554048 0.750000
O O11 0.500000 0.630256 0.750000
O O12 0.740412 0.865066 0.224231
O O13 0.728148 0.135128 0.188867
#
# Coordination Sequence:
#
# PCOD8151742 Si02
#       6
#     8   8   8   8   8   8
#     4  11  22  42  68  96 133 178 222 281 337 390
#     4  11  22  46  68  93 138 177 218 282 333 399
#     4  11  24  44  67  96 137 185 223 270 336 403
#     4  11  27  46  64 101 138 174 232 278 331 406
#     4  11  22  41  65 102 131 174 225 278 331 401
#     4  11  21  39  67  98 134 168 225 280 328 394
#
# _framework density 21.896447999999999
#
# number of rings (size 3 to 8) (size 9 to 14) (size 15 to 20)
#    0.000    1.000    5.000    3.000    0.000    6.000 
#    3.000    0.000    0.000    0.000    0.000    0.000 
#    0.000    0.000    0.000    0.000    0.000    0.000 
#
# Total GULP energy -297424.466490 kJ/mol
# GULP energy per Si atom -12392.686104 kJ/mol
# Density = 2.184661 g / cm^3
# Si number density = 21.896448 Si / 1000 Ang^3
#
#
#
# Elastic Constant Matrix: (Units=GPa)
#
#
# Indices 1 2 3 4 5 6 
#
# 1 101.3262 40.5572 37.5184 0.0000 -18.6149 0.0000
# 2 40.5572 99.7878 47.6894 0.0000 0.5983 0.0000
# 3 37.5184 47.6894 67.0688 0.0000 5.4162 0.0000
# 4 0.0000 0.0000 0.0000 46.2925 0.0000 -0.9795
# 5 -18.6149 0.5983 5.4162 0.0000 27.6262 0.0000
# 6 0.0000 0.0000 0.0000 -0.9795 0.0000 25.7343
#
#
#
# Elastic Compliance Matrix: (Units=1/GPa)
#
#
# Indices 1 2 3 4 5 6 
#
# 1 0.016350 -0.002819 -0.008166 0.000000 0.012679 0.000000
# 2 -0.002819 0.015756 -0.009597 0.000000 -0.000359 0.000000
# 3 -0.008166 -0.009597 0.027160 0.000000 -0.010619 0.000000
# 4 0.000000 0.000000 0.000000 0.021619 0.000000 0.000823
# 5 0.012679 -0.000359 -0.010619 0.000000 0.046831 0.000000
# 6 0.000000 0.000000 0.000000 0.000823 0.000000 0.038890
#
#
# Mechanical properties :
#
#
# Convention : Reuss Voigt Hill
#
# Bulk Modulus (GPa) = 55.24332 57.74588 56.49460
# Shear Modulus (GPa) = 23.38593 29.42514 26.40553
#
# Velocity S-wave (km/s) = 3.27161 3.66981 3.47641
# Velocity P-wave (km/s) = 6.28931 6.66229 6.47848
#
# Compressibility (1/GPa) = 0.01810173
#
# Stress axis : x y z
#
# Youngs Moduli (GPa) = 61.16087 63.46906 36.81894
#
# Poissons Ratio (x) = 0.17890 0.30066
# Poissons Ratio (y) = 0.17240 0.35336
# Poissons Ratio (z) = 0.49944 0.60913
#
# Static dielectric constant tensor:
#      x y z
#    x 4.091340 0.000000 -0.123610 
#    y 0.000000 4.045990 0.000000 
#    z -0.123610 0.000000 3.706000 
# 
# 
# High freq. dielectric constant tensor:
#      x y z
#    x 1.867300 0.000000 0.000180 
#    y 0.000000 1.865450 0.000000 
#    z 0.000180 0.000000 1.837860 
# 
# From -- ./inp_files/116738.got.cif
#   From: 2010.06.25/outbox.cif.g09.slc.cpg/sg15_59_cif.got.tgz:116738.got - 2010.06.28 07:06:18.
