data_PCOD8151939
_publ_section_title
;
Structure prediction by ZEFSAII (Michael W. Deem and Ramdas Pophale) SiO2 
 PCOD8151939
Probable space group: C 2/C
;
_chemical_formula_sum "Si O2"
_cell_formula_units_Z 64
_cell_length_a 15.673821
_cell_length_b 18.299714
_cell_length_c 18.397952
_cell_angle_alpha 90.000000
_cell_angle_beta 36.773197
_cell_angle_gamma 90.000000
_cell_volume 3159.081948
_symmetry_space_group_name_H-M "C 2/C"
_symmetry_group_IT_number 15
_symmetry_cell_setting 'monoclinic'
loop_
_space_group_symop_operation_xyz
x,y,z
-x,y,1/2-z
-x,-y,-z
x,-y,1/2+z
1/2+x,1/2+y,z
1/2-x,1/2+y,1/2-z
1/2-x,1/2-y,-z
1/2+x,1/2-y,1/2+z
loop_
_atom_site_type_symbol
_atom_site_label
_atom_site_fract_x
_atom_site_fract_y
_atom_site_fract_z
Si Si1 0.407768 0.965762 0.496340
Si Si2 0.036358 0.315318 0.547060
Si Si3 0.401752 0.920358 0.879389
Si Si4 0.660263 0.664389 0.459745
Si Si5 0.937267 0.957910 0.111738
Si Si6 0.600063 0.581206 0.250694
Si Si7 0.845282 0.370269 0.177362
Si Si8 0.719723 0.706034 0.255449
O O1 0.265237 0.931293 0.623326
O O2 0.506907 0.903171 0.392782
O O3 0.500000 0.000000 0.500000
O O4 0.354541 0.018236 0.468197
O O5 0.004439 0.362282 0.640265
O O6 0.116642 0.243133 0.520538
O O7 0.138406 0.359656 0.421410
O O8 0.882543 0.300054 0.615318
O O9 0.500000 0.955546 0.750000
O O10 0.270801 0.877206 0.934835
O O11 0.518914 0.617214 0.563656
O O12 0.714594 0.676496 0.341147
O O13 0.773021 0.931291 0.220790
O O14 0.961507 0.013215 0.161885
O O15 0.000000 0.000000 0.000000
O O16 0.500000 0.591730 0.250000
O O17 0.603201 0.657958 0.291801
O O18 0.821621 0.290590 0.227611
#
# Coordination Sequence:
#
# PCOD8151939 Si02
#       8
#     8   8   8   8   8   8   8   8
#     4  12  23  45  71  96 135 184 230 274 337 425
#     4  11  21  43  66  96 135 180 222 269 343 419
#     4  12  24  38  64 103 136 169 221 282 341 400
#     4  11  24  40  64  99 137 168 219 284 344 401
#     4  12  24  40  66 101 131 169 224 286 340 399
#     4  12  25  45  70  99 138 180 229 288 348 404
#     4  11  24  41  73  97 127 181 236 271 331 416
#     4  11  22  44  69  96 128 185 229 274 339 416
#
# _framework density 20.259049999999998
#
# number of rings (size 3 to 8) (size 9 to 14) (size 15 to 20)
#    0.000    0.500    7.500    1.125    1.750    0.000 
#    0.000    1.875    0.000    0.000    0.000    0.000 
#    0.000    0.000    0.000    0.000    0.000    0.000 
#
# Total GULP energy -396571.869186 kJ/mol
# GULP energy per Si atom -12392.870912 kJ/mol
# Density = 2.021294 g / cm^3
# Si number density = 20.259050 Si / 1000 Ang^3
#
#
#
# Elastic Constant Matrix: (Units=GPa)
#
#
# Indices 1 2 3 4 5 6 
#
# 1 81.7281 47.8173 18.2143 0.0006 -1.1142 -0.0004
# 2 47.8173 110.6679 35.9252 0.0000 9.1350 0.0002
# 3 18.2143 35.9252 90.0282 0.0014 -2.9650 -0.0001
# 4 0.0006 0.0000 0.0014 39.4743 -0.0007 -2.9925
# 5 -1.1142 9.1350 -2.9650 -0.0007 30.0299 0.0000
# 6 -0.0004 0.0002 -0.0001 -2.9925 0.0000 27.7811
#
#
#
# Elastic Compliance Matrix: (Units=1/GPa)
#
#
# Indices 1 2 3 4 5 6 
#
# 1 0.016623 -0.007297 -0.000359 0.000000 0.002801 0.000000
# 2 -0.007297 0.013982 -0.004266 0.000000 -0.004945 0.000000
# 3 -0.000359 -0.004266 0.012967 0.000000 0.002565 0.000000
# 4 0.000000 0.000000 0.000000 0.025542 0.000000 0.002751
# 5 0.002801 -0.004945 0.002565 0.000000 0.035162 0.000000
# 6 0.000000 0.000000 0.000000 0.002751 0.000000 0.036292
#
#
# Mechanical properties :
#
#
# Convention : Reuss Voigt Hill
#
# Bulk Modulus (GPa) = 50.68947 54.03754 52.36351
# Shear Modulus (GPa) = 29.24179 31.48821 30.36500
#
# Velocity S-wave (km/s) = 3.80332 3.94671 3.87568
# Velocity P-wave (km/s) = 6.66048 6.89202 6.77724
#
# Compressibility (1/GPa) = 0.01972796
#
# Stress axis : x y z
#
# Youngs Moduli (GPa) = 60.15631 71.52022 77.11860
#
# Poissons Ratio (x) = 0.52190 0.02769
# Poissons Ratio (y) = 0.43898 0.32898
# Poissons Ratio (z) = 0.02160 0.30510
#
# Static dielectric constant tensor:
#      x y z
#    x 3.861340 -0.000860 -0.049020 
#    y -0.000860 -13.341350 0.001260 
#    z -0.049020 0.001260 3.900600 
# 
# 
# High freq. dielectric constant tensor:
#      x y z
#    x 1.762880 0.000000 -0.006460 
#    y 0.000000 1.809930 0.000000 
#    z -0.006460 0.000000 1.804660 
# 
# From -- ./inp_files/206436.got.cif
#   From: 2010.06.25/outbox.cif.g09.slc.cpg/sg15_104_cif.got.tgz:206436.got - 2010.06.28 07:06:18.
