data_PCOD8151117
_publ_section_title
;
Structure prediction by ZEFSAII (Michael W. Deem and Ramdas Pophale) SiO2 
 PCOD8151117
Probable space group: C 2/C
;
_chemical_formula_sum "Si O2"
_cell_formula_units_Z 52
_cell_length_a 10.908960
_cell_length_b 16.819389
_cell_length_c 25.131780
_cell_angle_alpha 90.000000
_cell_angle_beta 34.681219
_cell_angle_gamma 90.000000
_cell_volume 2623.836168
_symmetry_space_group_name_H-M "C 2/C"
_symmetry_group_IT_number 15
_symmetry_cell_setting 'monoclinic'
loop_
_space_group_symop_operation_xyz
x,y,z
-x,y,1/2-z
-x,-y,-z
x,-y,1/2+z
1/2+x,1/2+y,z
1/2-x,1/2+y,1/2-z
1/2-x,1/2-y,-z
1/2+x,1/2-y,1/2+z
loop_
_atom_site_type_symbol
_atom_site_label
_atom_site_fract_x
_atom_site_fract_y
_atom_site_fract_z
Si Si1 0.584787 0.227299 0.014701
Si Si2 0.626778 0.096076 0.561637
Si Si3 0.680449 0.182042 0.640952
Si Si4 0.000000 0.912415 0.750000
Si Si5 0.514824 0.321819 0.636558
Si Si6 0.045321 0.544281 0.429823
Si Si7 0.245801 0.714429 0.840678
O O1 0.399345 0.292827 0.091320
O O2 0.501362 0.137690 0.051706
O O3 0.750000 0.250000 0.000000
O O4 0.688301 0.239348 0.920654
O O5 0.683051 0.101717 0.604745
O O6 0.403341 0.140713 0.625047
O O7 0.830033 0.121743 0.453036
O O8 0.590522 0.001480 0.566806
O O9 0.500000 0.177646 0.750000
O O10 0.652146 0.244591 0.602727
O O11 0.945249 0.859831 0.717426
O O12 0.797947 0.968934 0.830458
O O13 0.305379 0.291879 0.678186
O O14 0.000000 0.500000 0.500000
O O15 0.500000 0.692677 0.750000
#
# Coordination Sequence:
#
# PCOD8151117 Si02
#       7
#     8   8   8   4   8   8   8
#     4  12  25  41  64  97 127 162 218 271 309 378
#     4  11  22  41  65  89 133 170 209 267 330 374
#     4  11  20  40  65  90 122 173 220 256 314 391
#     4  12  22  36  70  92 126 168 222 254 324 388
#     4  11  19  40  64  92 126 176 213 261 317 388
#     4  12  23  42  63  98 128 162 213 268 320 374
#     4  11  23  36  62  96 132 161 209 268 322 368
#
# _framework density 19.818308999999999
#
# number of rings (size 3 to 8) (size 9 to 14) (size 15 to 20)
#    0.000    0.615    8.462    0.923    7.538    0.000 
#    0.000    0.769    3.385    0.000    0.000    0.000 
#    0.000    0.000    0.000    0.000    0.000    0.000 
#
# Total GULP energy -322232.798798 kJ/mol
# GULP energy per Si atom -12393.569185 kJ/mol
# Density = 1.977320 g / cm^3
# Si number density = 19.818309 Si / 1000 Ang^3
#
#
#
# Elastic Constant Matrix: (Units=GPa)
#
#
# Indices 1 2 3 4 5 6 
#
# 1 131.8791 44.1295 53.2193 -0.0044 2.7414 0.0132
# 2 44.1295 64.9314 31.4116 0.0062 3.9937 0.0120
# 3 53.2193 31.4116 128.9285 0.0044 4.6345 0.0276
# 4 -0.0044 0.0062 0.0044 16.0105 0.0089 -0.6000
# 5 2.7414 3.9937 4.6345 0.0089 36.7137 -0.0093
# 6 0.0132 0.0120 0.0276 -0.6000 -0.0093 37.4890
#
#
#
# Elastic Compliance Matrix: (Units=1/GPa)
#
#
# Indices 1 2 3 4 5 6 
#
# 1 0.010759 -0.005865 -0.003020 0.000006 0.000216 0.000000
# 2 -0.005865 0.020724 -0.002575 -0.000008 -0.001491 -0.000003
# 3 -0.003020 -0.002575 0.009656 -0.000002 -0.000713 -0.000005
# 4 0.000006 -0.000008 -0.000002 0.062497 -0.000014 0.001000
# 5 0.000216 -0.001491 -0.000713 -0.000014 0.027474 0.000008
# 6 0.000000 -0.000003 -0.000005 0.001000 0.000008 0.026690
#
#
# Mechanical properties :
#
#
# Convention : Reuss Voigt Hill
#
# Bulk Modulus (GPa) = 54.88425 64.80664 59.84545
# Shear Modulus (GPa) = 26.76762 31.17455 28.97108
#
# Velocity S-wave (km/s) = 3.67911 3.97043 3.82754
# Velocity P-wave (km/s) = 6.76769 7.33420 7.05663
#
# Compressibility (1/GPa) = 0.01822016
#
# Stress axis : x y z
#
# Youngs Moduli (GPa) = 92.94140 48.25332 103.56423
#
# Poissons Ratio (x) = 0.28299 0.31279
# Poissons Ratio (y) = 0.54507 0.26664
# Poissons Ratio (z) = 0.28070 0.12424
#
# Static dielectric constant tensor:
#      x y z
#    x 3.672460 -0.000490 0.127640 
#    y -0.000490 3.508960 0.000130 
#    z 0.127640 0.000130 3.617380 
# 
# 
# High freq. dielectric constant tensor:
#      x y z
#    x 1.775220 0.000000 0.009690 
#    y 0.000000 1.747400 0.000000 
#    z 0.009690 0.000000 1.784650 
# 
# From -- ./inp_files/182927.got.cif
#   From: 2010.06.25/outbox.cif.g09.slc.cpg/sg15_92_cif.got.tgz:182927.got - 2010.06.28 07:06:18.
