data_PCOD8151679
_publ_section_title
;
Structure prediction by ZEFSAII (Michael W. Deem and Ramdas Pophale) SiO2 
 PCOD8151679
Probable space group: C 2/C
;
_chemical_formula_sum "Si O2"
_cell_formula_units_Z 60
_cell_length_a 11.047364
_cell_length_b 19.849671
_cell_length_c 19.307890
_cell_angle_alpha 90.000000
_cell_angle_beta 39.067900
_cell_angle_gamma 90.000000
_cell_volume 2668.415137
_symmetry_space_group_name_H-M "C 2/C"
_symmetry_group_IT_number 15
_symmetry_cell_setting 'monoclinic'
loop_
_space_group_symop_operation_xyz
x,y,z
-x,y,1/2-z
-x,-y,-z
x,-y,1/2+z
1/2+x,1/2+y,z
1/2-x,1/2+y,1/2-z
1/2-x,1/2-y,-z
1/2+x,1/2-y,1/2+z
loop_
_atom_site_type_symbol
_atom_site_label
_atom_site_fract_x
_atom_site_fract_y
_atom_site_fract_z
Si Si1 0.968038 0.269425 0.628408
Si Si2 0.000000 0.559835 0.250000
Si Si3 0.230728 0.209222 0.614415
Si Si4 0.297886 0.243452 0.867995
Si Si5 0.697402 0.658582 0.335946
Si Si6 0.720093 0.558127 0.641061
Si Si7 0.733313 0.355552 0.510382
Si Si8 0.441251 0.995172 0.423600
O O1 0.847654 0.223099 0.628992
O O2 0.833630 0.332679 0.708295
O O3 0.016985 0.229492 0.679194
O O4 0.154193 0.299632 0.508964
O O5 0.194149 0.604902 0.163690
O O6 0.023492 0.514334 0.171608
O O7 0.329275 0.268566 0.615271
O O8 0.230041 0.138076 0.654347
O O9 0.500000 0.267623 0.750000
O O10 0.326164 0.177162 0.901039
O O11 0.216345 0.306632 0.947819
O O12 0.492928 0.632507 0.401399
O O13 0.500000 0.533737 0.750000
O O14 0.804131 0.547498 0.525881
O O15 0.848627 0.513507 0.635843
O O16 0.832089 0.425295 0.479966
#
# Coordination Sequence:
#
# PCOD8151679 Si02
#       8
#     8   4   8   8   8   8   8   8
#     4  11  21  38  66 104 136 178 217 296 357 412
#     4  12  28  50  70 102 150 194 234 304 362 438
#     4  11  23  42  70 107 137 172 237 303 350 409
#     4  11  23  40  67 103 139 177 225 292 354 412
#     4  12  23  43  71 104 137 179 237 289 364 418
#     4  11  26  50  77 101 139 193 248 297 356 429
#     4  11  26  43  66 103 142 184 234 288 350 427
#     4  11  29  51  70 104 148 196 243 291 353 452
#
# _framework density 22.485258000000002
#
# number of rings (size 3 to 8) (size 9 to 14) (size 15 to 20)
#    0.000    0.800    4.000    2.400    6.533    3.200 
#    0.000    0.000    0.000    0.000    0.000    0.000 
#    0.000    0.000    0.000    0.000    0.000    0.000 
#
# Total GULP energy -372026.079866 kJ/mol
# GULP energy per Si atom -12400.869329 kJ/mol
# Density = 2.243408 g / cm^3
# Si number density = 22.485258 Si / 1000 Ang^3
#
#
#
# Elastic Constant Matrix: (Units=GPa)
#
#
# Indices 1 2 3 4 5 6 
#
# 1 108.6447 7.1338 29.5607 0.0307 -8.2174 -0.0121
# 2 7.1338 62.7201 11.4651 0.0979 -14.0393 -0.0299
# 3 29.5607 11.4651 93.6341 0.0662 -10.3103 -0.0209
# 4 0.0307 0.0979 0.0662 20.0294 0.0330 -3.4951
# 5 -8.2174 -14.0393 -10.3103 0.0330 37.6690 0.0100
# 6 -0.0121 -0.0299 -0.0209 -3.4951 0.0100 28.9573
#
#
#
# Elastic Compliance Matrix: (Units=1/GPa)
#
#
# Indices 1 2 3 4 5 6 
#
# 1 0.010144 -0.000317 -0.003024 -0.000006 0.001267 0.000001
# 2 -0.000317 0.017601 -0.001382 -0.000090 0.006113 0.000004
# 3 -0.003024 -0.001382 0.012037 -0.000032 0.002120 0.000001
# 4 -0.000006 -0.000090 -0.000032 0.051001 -0.000090 0.006156
# 5 0.001267 0.006113 0.002120 -0.000090 0.029682 -0.000013
# 6 0.000001 0.000004 0.000001 0.006156 -0.000013 0.035277
#
#
# Mechanical properties :
#
#
# Convention : Reuss Voigt Hill
#
# Bulk Modulus (GPa) = 32.96479 40.14644 36.55562
# Shear Modulus (GPa) = 28.52248 31.78708 30.15478
#
# Velocity S-wave (km/s) = 3.56546 3.76398 3.66606
# Velocity P-wave (km/s) = 5.62516 6.06493 5.84918
#
# Compressibility (1/GPa) = 0.03033539
#
# Stress axis : x y z
#
# Youngs Moduli (GPa) = 98.58251 56.81520 83.07545
#
# Poissons Ratio (x) = 0.01803 0.25123
# Poissons Ratio (y) = 0.03129 0.11480
# Poissons Ratio (z) = 0.29812 0.07851
#
# Static dielectric constant tensor:
#      x y z
#    x 4.142340 -0.000020 -0.057470 
#    y -0.000020 3.778320 0.000100 
#    z -0.057470 0.000100 4.334060 
# 
# 
# High freq. dielectric constant tensor:
#      x y z
#    x 1.895020 0.000000 -0.002910 
#    y 0.000000 1.862660 0.000010 
#    z -0.002910 0.000010 1.909750 
# 
# From -- ./inp_files/239940.got.cif
#   From: 2010.06.25/outbox.cif.g09.slc.cpg/sg15_120_cif.got.tgz:239940.got - 2010.06.28 07:06:18.
