data_PCOD8151041
_publ_section_title
;
Structure prediction by ZEFSAII (Michael W. Deem and Ramdas Pophale) SiO2 
 PCOD8151041
Probable space group: C 2/C
;
_chemical_formula_sum "Si O2"
_cell_formula_units_Z 56
_cell_length_a 5.516859
_cell_length_b 22.539329
_cell_length_c 23.703833
_cell_angle_alpha 90.000000
_cell_angle_beta 55.938233
_cell_angle_gamma 90.000000
_cell_volume 2441.796669
_symmetry_space_group_name_H-M "C 2/C"
_symmetry_group_IT_number 15
_symmetry_cell_setting 'monoclinic'
loop_
_space_group_symop_operation_xyz
x,y,z
-x,y,1/2-z
-x,-y,-z
x,-y,1/2+z
1/2+x,1/2+y,z
1/2-x,1/2+y,1/2-z
1/2-x,1/2-y,-z
1/2+x,1/2-y,1/2+z
loop_
_atom_site_type_symbol
_atom_site_label
_atom_site_fract_x
_atom_site_fract_y
_atom_site_fract_z
Si Si1 0.767615 0.379400 0.423792
Si Si2 0.152618 0.927381 0.173132
Si Si3 0.040574 0.700394 0.506241
Si Si4 0.223967 0.524868 0.424985
Si Si5 0.707949 0.409240 0.934723
Si Si6 0.703373 0.683188 0.820724
Si Si7 0.439131 0.786893 0.898802
O O1 0.912940 0.359201 0.464205
O O2 0.451490 0.406229 0.482474
O O3 0.737204 0.326513 0.383424
O O4 0.992293 0.426494 0.366720
O O5 0.000000 0.950446 0.250000
O O6 0.039972 0.860906 0.173203
O O7 0.091651 0.973492 0.130985
O O8 0.250000 0.750000 0.500000
O O9 0.721741 0.727242 0.558004
O O10 0.102665 0.685576 0.432426
O O11 0.490971 0.559713 0.419103
O O12 0.000000 0.500000 0.500000
O O13 0.024657 0.560454 0.404531
O O14 0.748674 0.342733 0.902003
O O15 0.633668 0.754755 0.824440
O O16 0.000000 0.668560 0.750000
#
# Coordination Sequence:
#
# PCOD8151041 Si02
#       7
#     8   8   8   8   8   8   8
#     4  12  22  39  71 103 142 172 235 298 363 422
#     4  12  27  46  70 102 142 187 236 304 368 432
#     4  11  19  34  63  99 141 179 215 285 352 419
#     4  12  27  46  74 103 142 186 248 303 356 421
#     4  12  26  44  72 108 140 187 236 303 364 423
#     4  12  25  41  68 104 142 188 239 289 364 440
#     4  11  23  38  64 103 142 183 230 284 358 433
#
# _framework density 22.933933
#
# number of rings (size 3 to 8) (size 9 to 14) (size 15 to 20)
#    0.000    0.286    7.143    3.000    2.000    0.000 
#    0.000    0.714    0.000    3.429    0.000    0.000 
#    0.000    0.000    0.000    0.000    0.000    0.000 
#
# Total GULP energy -346882.912871 kJ/mol
# GULP energy per Si atom -12388.675460 kJ/mol
# Density = 2.288173 g / cm^3
# Si number density = 22.933933 Si / 1000 Ang^3
#
#
#
# Elastic Constant Matrix: (Units=GPa)
#
#
# Indices 1 2 3 4 5 6 
#
# 1 109.0230 35.8999 26.0910 0.0000 0.1828 0.0000
# 2 35.8999 100.2740 41.7102 0.0000 0.9896 0.0000
# 3 26.0910 41.7102 104.2349 0.0000 0.7888 0.0000
# 4 0.0000 0.0000 0.0000 35.0888 0.0000 -1.1887
# 5 0.1828 0.9896 0.7888 0.0000 29.8041 0.0000
# 6 0.0000 0.0000 0.0000 -1.1887 0.0000 40.8824
#
#
#
# Elastic Compliance Matrix: (Units=1/GPa)
#
#
# Indices 1 2 3 4 5 6 
#
# 1 0.010556 -0.003216 -0.001356 0.000000 0.000078 0.000000
# 2 -0.003216 0.012946 -0.004373 0.000000 -0.000294 0.000000
# 3 -0.001356 -0.004373 0.011684 0.000000 -0.000156 0.000000
# 4 0.000000 0.000000 0.000000 0.028527 0.000000 0.000829
# 5 0.000078 -0.000294 -0.000156 0.000000 0.033566 0.000000
# 6 0.000000 0.000000 0.000000 0.000829 0.000000 0.024485
#
#
# Mechanical properties :
#
#
# Convention : Reuss Voigt Hill
#
# Bulk Modulus (GPa) = 57.81719 57.88159 57.84939
# Shear Modulus (GPa) = 34.38342 35.14379 34.76361
#
# Velocity S-wave (km/s) = 3.87620 3.91883 3.89757
# Velocity P-wave (km/s) = 6.73040 6.76531 6.74788
#
# Compressibility (1/GPa) = 0.01729589
#
# Stress axis : x y z
#
# Youngs Moduli (GPa) = 94.73563 77.24383 85.58517
#
# Poissons Ratio (x) = 0.24841 0.11605
# Poissons Ratio (y) = 0.30466 0.37428
# Poissons Ratio (z) = 0.12845 0.33781
#
# Static dielectric constant tensor:
#      x y z
#    x 3.744830 0.000000 -0.315400 
#    y 0.000000 3.279120 0.000000 
#    z -0.315400 0.000000 3.869510 
# 
# 
# High freq. dielectric constant tensor:
#      x y z
#    x 1.915290 0.000000 -0.012470 
#    y 0.000000 1.904680 0.000000 
#    z -0.012470 0.000000 1.874110 
# 
# From -- ./inp_files/286652.got.cif
#   From: 2010.06.25/outbox.cif.g09.slc.cpg/sg15_144_cif.got.tgz:286652.got - 2010.06.28 07:06:18.
