data_PCOD8151302
_publ_section_title
;
Structure prediction by ZEFSAII (Michael W. Deem and Ramdas Pophale) SiO2 
 PCOD8151302
Probable space group: C 2/C
;
_chemical_formula_sum "Si O2"
_cell_formula_units_Z 48
_cell_length_a 17.989040
_cell_length_b 11.201200
_cell_length_c 15.484735
_cell_angle_alpha 90.000000
_cell_angle_beta 132.784568
_cell_angle_gamma 90.000000
_cell_volume 2289.922590
_symmetry_space_group_name_H-M "C 2/C"
_symmetry_group_IT_number 15
_symmetry_cell_setting 'monoclinic'
loop_
_space_group_symop_operation_xyz
x,y,z
-x,y,1/2-z
-x,-y,-z
x,-y,1/2+z
1/2+x,1/2+y,z
1/2-x,1/2+y,1/2-z
1/2-x,1/2-y,-z
1/2+x,1/2-y,1/2+z
loop_
_atom_site_type_symbol
_atom_site_label
_atom_site_fract_x
_atom_site_fract_y
_atom_site_fract_z
Si Si1 0.687952 0.050622 0.473659
Si Si2 0.547629 0.708855 0.157723
Si Si3 0.903671 0.707553 0.235356
Si Si4 0.139951 0.704585 0.894884
Si Si5 0.468473 0.123668 0.015651
Si Si6 0.896493 0.972504 0.220478
O O1 0.685644 0.137774 0.387254
O O2 0.636788 0.116692 0.514850
O O3 0.801390 0.003330 0.581862
O O4 0.620828 0.933154 0.403411
O O5 0.434855 0.711271 0.108844
O O6 0.619491 0.786154 0.276696
O O7 0.548196 0.766414 0.063463
O O8 0.591887 0.572212 0.194385
O O9 0.871873 0.841282 0.237792
O O10 0.000000 0.710375 0.250000
O O11 0.933421 0.645797 0.347701
O O12 0.250000 0.750000 0.000000
O O13 0.500000 0.000000 0.000000
O O14 0.000000 0.973879 0.250000
#
# Coordination Sequence:
#
# PCOD8151302 Si02
#       6
#     8   8   8   8   8   8
#     4  11  21  40  66  94 125 168 220 256 312 386
#     4  11  22  37  65  93 127 164 208 267 322 366
#     4   9  22  39  66  90 120 169 212 260 315 375
#     4  11  20  38  65  93 122 167 216 257 313 380
#     4  11  22  40  61  92 130 162 209 269 315 375
#     4  11  21  42  65  93 127 166 215 260 314 384
#
# _framework density 20.961406
#
# number of rings (size 3 to 8) (size 9 to 14) (size 15 to 20)
#    0.000    1.333    5.000    1.500    4.667    0.667 
#    6.000    0.000    7.333    0.000    0.000    0.000 
#    0.000    0.000    0.000    0.000    0.000    0.000 
#
# Total GULP energy -297444.900531 kJ/mol
# GULP energy per Si atom -12393.537522 kJ/mol
# Density = 2.091370 g / cm^3
# Si number density = 20.961406 Si / 1000 Ang^3
#
#
#
# Elastic Constant Matrix: (Units=GPa)
#
#
# Indices 1 2 3 4 5 6 
#
# 1 58.7479 28.5479 61.3608 0.0000 1.4242 0.0000
# 2 28.5479 169.8481 66.7523 0.0000 -10.8041 0.0000
# 3 61.3608 66.7523 152.2573 0.0000 -0.2242 0.0000
# 4 0.0000 0.0000 0.0000 48.9490 0.0000 -1.7434
# 5 1.4242 -10.8041 -0.2242 0.0000 38.7318 0.0000
# 6 0.0000 0.0000 0.0000 -1.7434 0.0000 19.5288
#
#
#
# Elastic Compliance Matrix: (Units=1/GPa)
#
#
# Indices 1 2 3 4 5 6 
#
# 1 0.029473 -0.000442 -0.011686 0.000000 -0.001275 0.000000
# 2 -0.000442 0.007273 -0.003007 0.000000 0.002028 0.000000
# 3 -0.011686 -0.003007 0.012595 0.000000 -0.000336 0.000000
# 4 0.000000 0.000000 0.000000 0.020495 0.000000 0.001830
# 5 -0.001275 0.002028 -0.000336 0.000000 0.026429 0.000000
# 6 0.000000 0.000000 0.000000 0.001830 0.000000 0.051370
#
#
# Mechanical properties :
#
#
# Convention : Reuss Voigt Hill
#
# Bulk Modulus (GPa) = 52.43697 77.13058 64.78378
# Shear Modulus (GPa) = 27.13512 36.38810 31.76161
#
# Velocity S-wave (km/s) = 3.60186 4.17100 3.89683
# Velocity P-wave (km/s) = 6.50908 7.75066 7.15684
#
# Compressibility (1/GPa) = 0.01907051
#
# Stress axis : x y z
#
# Youngs Moduli (GPa) = 33.92879 137.49797 79.39425
#
# Poissons Ratio (x) = 0.06080 0.92780
# Poissons Ratio (y) = 0.01500 0.23877
# Poissons Ratio (z) = 0.39649 0.41350
#
# Static dielectric constant tensor:
#      x y z
#    x 3.407190 0.000000 0.090290 
#    y 0.000000 4.365460 0.000000 
#    z 0.090290 0.000000 4.131750 
# 
# 
# High freq. dielectric constant tensor:
#      x y z
#    x 1.782470 0.000000 0.014700 
#    y 0.000000 1.843440 0.000000 
#    z 0.014700 0.000000 1.829380 
# 
# From -- ./inp_files/167933.got.cif
#   From: 2010.06.25/outbox.cif.g09.slc.cpg/sg15_84_cif.got.tgz:167933.got - 2010.06.28 07:06:18.
