data_PCOD8151901
_publ_section_title
;
Structure prediction by ZEFSAII (Michael W. Deem and Ramdas Pophale) SiO2 
 PCOD8151901
Probable space group: C 2/C
;
_chemical_formula_sum "Si O2"
_cell_formula_units_Z 52
_cell_length_a 20.473885
_cell_length_b 16.402098
_cell_length_c 9.468521
_cell_angle_alpha 90.000000
_cell_angle_beta 47.319480
_cell_angle_gamma 90.000000
_cell_volume 2337.517589
_symmetry_space_group_name_H-M "C 2/C"
_symmetry_group_IT_number 15
_symmetry_cell_setting 'monoclinic'
loop_
_space_group_symop_operation_xyz
x,y,z
-x,y,1/2-z
-x,-y,-z
x,-y,1/2+z
1/2+x,1/2+y,z
1/2-x,1/2+y,1/2-z
1/2-x,1/2-y,-z
1/2+x,1/2-y,1/2+z
loop_
_atom_site_type_symbol
_atom_site_label
_atom_site_fract_x
_atom_site_fract_y
_atom_site_fract_z
Si Si1 0.101979 0.233885 0.061569
Si Si2 0.696313 0.552768 0.328677
Si Si3 0.643134 0.134242 0.702988
Si Si4 0.832551 0.929462 0.920520
Si Si5 0.804227 0.315128 0.828550
Si Si6 0.155311 0.575686 0.972526
Si Si7 0.500000 0.038132 0.750000
O O1 0.157770 0.281226 0.099857
O O2 0.131935 0.140685 0.028744
O O3 0.000000 0.242874 0.250000
O O4 0.121783 0.268364 0.874757
O O5 0.643152 0.515512 0.540514
O O6 0.628931 0.572950 0.296631
O O7 0.744159 0.635775 0.305261
O O8 0.757301 0.476742 0.187341
O O9 0.725770 0.074852 0.545143
O O10 0.645060 0.147345 0.869542
O O11 0.550320 0.094199 0.790038
O O12 0.750000 0.250000 0.000000
O O13 0.847703 0.381691 0.869795
O O14 0.071993 0.517129 0.066622
#
# Coordination Sequence:
#
# PCOD8151901 Si02
#       7
#     8   8   8   8   8   8   4
#     4  12  27  45  69 102 145 185 228 292 357 417
#     4  11  21  42  68 101 127 180 240 290 336 418
#     4  11  22  38  65  96 138 182 221 271 350 427
#     4  11  23  43  70  95 132 182 242 279 352 418
#     4  12  25  44  69 103 144 186 244 291 342 424
#     4  11  23  37  62 103 141 179 221 284 351 416
#     4  12  20  36  62 102 146 172 220 284 356 426
#
# _framework density 22.245822
#
# number of rings (size 3 to 8) (size 9 to 14) (size 15 to 20)
#    0.000    0.615    5.385    3.692    4.308    0.000 
#    0.000    0.769    0.000    0.000    0.000    0.000 
#    0.000    0.000    0.000    0.000    0.000    0.000 
#
# Total GULP energy -322209.123594 kJ/mol
# GULP energy per Si atom -12392.658600 kJ/mol
# Density = 2.219519 g / cm^3
# Si number density = 22.245822 Si / 1000 Ang^3
#
#
#
# Elastic Constant Matrix: (Units=GPa)
#
#
# Indices 1 2 3 4 5 6 
#
# 1 56.7619 25.0604 37.5946 0.0000 27.0821 0.0000
# 2 25.0604 91.4146 35.1317 0.0000 9.7210 0.0000
# 3 37.5946 35.1317 101.1451 0.0000 23.2621 0.0000
# 4 0.0000 0.0000 0.0000 41.9874 0.0000 12.6423
# 5 27.0821 9.7210 23.2621 0.0000 37.0932 0.0000
# 6 0.0000 0.0000 0.0000 12.6423 0.0000 30.4687
#
#
#
# Elastic Compliance Matrix: (Units=1/GPa)
#
#
# Indices 1 2 3 4 5 6 
#
# 1 0.032746 -0.004573 -0.006263 0.000000 -0.018782 0.000000
# 2 -0.004573 0.013276 -0.003365 0.000000 0.001969 0.000000
# 3 -0.006263 -0.003365 0.014173 0.000000 -0.003434 0.000000
# 4 0.000000 0.000000 0.000000 0.027217 0.000000 -0.011293
# 5 -0.018782 0.001969 -0.003434 0.000000 0.042309 0.000000
# 6 0.000000 0.000000 0.000000 -0.011293 0.000000 0.037506
#
#
# Mechanical properties :
#
#
# Convention : Reuss Voigt Hill
#
# Bulk Modulus (GPa) = 31.45265 49.43279 40.44272
# Shear Modulus (GPa) = 24.24508 32.01218 28.12863
#
# Velocity S-wave (km/s) = 3.30490 3.79756 3.55976
# Velocity P-wave (km/s) = 5.36027 6.44189 5.92581
#
# Compressibility (1/GPa) = 0.03179382
#
# Stress axis : x y z
#
# Youngs Moduli (GPa) = 30.53828 75.32160 70.55546
#
# Poissons Ratio (x) = 0.34441 0.44192
# Poissons Ratio (y) = 0.13964 0.23740
# Poissons Ratio (z) = 0.19128 0.25344
#
# Static dielectric constant tensor:
#      x y z
#    x 4.036630 0.000000 0.500590 
#    y 0.000000 4.059150 0.000000 
#    z 0.500590 0.000000 4.211790 
# 
# 
# High freq. dielectric constant tensor:
#      x y z
#    x 1.859730 0.000000 0.038610 
#    y 0.000000 1.877190 0.000000 
#    z 0.038610 0.000000 1.867190 
# 
# From -- ./inp_files/56926.got.cif
#   From: 2010.06.25/outbox.cif.g09.slc.cpg/sg15_29_cif.got.tgz:56926.got - 2010.06.28 07:06:18.
