data_PCOD8151711
_publ_section_title
;
Structure prediction by ZEFSAII (Michael W. Deem and Ramdas Pophale) SiO2 
 PCOD8151711
Probable space group: C 2/C
;
_chemical_formula_sum "Si O2"
_cell_formula_units_Z 64
_cell_length_a 20.055777
_cell_length_b 8.809461
_cell_length_c 18.357903
_cell_angle_alpha 90.000000
_cell_angle_beta 89.831540
_cell_angle_gamma 90.000000
_cell_volume 3243.471028
_symmetry_space_group_name_H-M "C 2/C"
_symmetry_group_IT_number 15
_symmetry_cell_setting 'monoclinic'
loop_
_space_group_symop_operation_xyz
x,y,z
-x,y,1/2-z
-x,-y,-z
x,-y,1/2+z
1/2+x,1/2+y,z
1/2-x,1/2+y,1/2-z
1/2-x,1/2-y,-z
1/2+x,1/2-y,1/2+z
loop_
_atom_site_type_symbol
_atom_site_label
_atom_site_fract_x
_atom_site_fract_y
_atom_site_fract_z
Si Si1 0.878875 0.414842 0.079032
Si Si2 0.879353 0.429235 0.424807
Si Si3 0.738868 0.653420 0.926303
Si Si4 0.502584 0.709520 0.055740
Si Si5 0.378702 0.209904 0.165665
Si Si6 0.374057 0.794470 0.835885
Si Si7 0.263999 0.693124 0.078767
Si Si8 0.494475 0.612732 0.890525
O O1 0.948528 0.331844 0.075413
O O2 0.893211 0.541944 0.138475
O O3 0.823710 0.297432 0.109492
O O4 0.859752 0.485719 0.000482
O O5 0.811988 0.359859 0.390174
O O6 0.908660 0.551770 0.367418
O O7 0.926275 0.288560 0.439042
O O8 0.688222 0.737456 0.873950
O O9 0.711502 0.480651 0.932262
O O10 0.750000 0.750000 0.000000
O O11 0.499390 0.569530 0.111879
O O12 0.491870 0.661431 0.973553
O O13 0.363690 0.200998 0.250437
O O14 0.442245 0.316898 0.151017
O O15 0.301006 0.779428 0.871539
O O16 0.424200 0.657062 0.854023
O O17 0.250000 0.750000 0.000000
#
# Coordination Sequence:
#
# PCOD8151711 Si02
#       8
#     8   8   8   8   8   8   8   8
#     4  12  21  40  67  95 128 164 217 265 317 380
#     4  11  21  41  65  96 125 165 214 266 314 380
#     4  11  21  39  63  94 127 164 218 262 314 385
#     4  11  22  38  69  99 121 164 223 270 304 381
#     4  12  25  41  63  94 131 176 206 265 336 385
#     4  11  25  42  63  91 135 171 208 264 336 383
#     4  11  21  39  65  94 123 166 214 264 316 378
#     4  11  22  41  64  97 129 163 217 268 324 378
#
# _framework density 19.731947999999999
#
# number of rings (size 3 to 8) (size 9 to 14) (size 15 to 20)
#    0.000    0.750    6.250    2.250    0.000    6.000 
#    0.000    3.750    0.000    0.000    0.000    0.000 
#    0.000    0.000    0.000    0.000    0.000    0.000 
#
# Total GULP energy -396705.616557 kJ/mol
# GULP energy per Si atom -12397.050517 kJ/mol
# Density = 1.968704 g / cm^3
# Si number density = 19.731948 Si / 1000 Ang^3
#
#
#
# Elastic Constant Matrix: (Units=GPa)
#
#
# Indices 1 2 3 4 5 6 
#
# 1 97.3931 46.3514 30.7687 0.0000 -9.9004 0.0000
# 2 46.3514 115.5823 40.4129 0.0000 -11.3962 0.0000
# 3 30.7687 40.4129 124.1412 0.0000 -9.1781 0.0000
# 4 0.0000 0.0000 0.0000 20.4107 0.0000 0.6810
# 5 -9.9004 -11.3962 -9.1781 0.0000 15.8972 0.0000
# 6 0.0000 0.0000 0.0000 0.6810 0.0000 46.5672
#
#
#
# Elastic Compliance Matrix: (Units=1/GPa)
#
#
# Indices 1 2 3 4 5 6 
#
# 1 0.013264 -0.004357 -0.001556 0.000000 0.004239 0.000000
# 2 -0.004357 0.011658 -0.002400 0.000000 0.004258 0.000000
# 3 -0.001556 -0.002400 0.009426 0.000000 0.002752 0.000000
# 4 0.000000 0.000000 0.000000 0.049018 0.000000 -0.000717
# 5 0.004239 0.004258 0.002752 0.000000 0.070185 0.000000
# 6 0.000000 0.000000 0.000000 -0.000717 0.000000 0.021485
#
#
# Mechanical properties :
#
#
# Convention : Reuss Voigt Hill
#
# Bulk Modulus (GPa) = 56.42958 63.57585 60.00271
# Shear Modulus (GPa) = 25.30753 31.21392 28.26073
#
# Velocity S-wave (km/s) = 3.58518 3.98162 3.78859
# Velocity P-wave (km/s) = 6.76743 7.30941 7.04364
#
# Compressibility (1/GPa) = 0.01772120
#
# Stress axis : x y z
#
# Youngs Moduli (GPa) = 75.39381 85.77528 106.09118
#
# Poissons Ratio (x) = 0.37374 0.16504
# Poissons Ratio (y) = 0.32851 0.25467
# Poissons Ratio (z) = 0.11728 0.20590
#
# Static dielectric constant tensor:
#      x y z
#    x 4.424240 0.000000 -0.136140 
#    y 0.000000 3.997360 0.000000 
#    z -0.136140 0.000000 3.393180 
# 
# 
# High freq. dielectric constant tensor:
#      x y z
#    x 1.786170 0.000000 0.004270 
#    y 0.000000 1.785740 0.000000 
#    z 0.004270 0.000000 1.743110 
# 
# From -- ./inp_files/213896.got.cif
#   From: 2010.06.25/outbox.cif.g09.slc.cpg/sg15_107_cif.got.tgz:213896.got - 2010.06.28 07:06:18.
