data_PCOD8151886
_publ_section_title
;
Structure prediction by ZEFSAII (Michael W. Deem and Ramdas Pophale) SiO2 
 PCOD8151886
Probable space group: C 2/C
;
_chemical_formula_sum "Si O2"
_cell_formula_units_Z 48
_cell_length_a 8.763881
_cell_length_b 16.587593
_cell_length_c 15.489725
_cell_angle_alpha 90.000000
_cell_angle_beta 93.143544
_cell_angle_gamma 90.000000
_cell_volume 2248.379245
_symmetry_space_group_name_H-M "C 2/C"
_symmetry_group_IT_number 15
_symmetry_cell_setting 'monoclinic'
loop_
_space_group_symop_operation_xyz
x,y,z
-x,y,1/2-z
-x,-y,-z
x,-y,1/2+z
1/2+x,1/2+y,z
1/2-x,1/2+y,1/2-z
1/2-x,1/2-y,-z
1/2+x,1/2-y,1/2+z
loop_
_atom_site_type_symbol
_atom_site_label
_atom_site_fract_x
_atom_site_fract_y
_atom_site_fract_z
Si Si1 0.664007 0.808478 0.679737
Si Si2 0.000000 0.960190 0.750000
Si Si3 0.461623 0.665352 0.919704
Si Si4 0.500000 0.048124 0.250000
Si Si5 0.249684 0.431270 0.285033
Si Si6 0.750378 0.708744 0.834090
Si Si7 0.991998 0.830849 0.617236
O O1 0.592057 0.756903 0.600032
O O2 0.591522 0.897632 0.682803
O O3 0.641487 0.767970 0.773923
O O4 0.845404 0.809073 0.670068
O O5 0.941629 0.908773 0.831281
O O6 0.857279 0.017577 0.723295
O O7 0.353177 0.601147 0.867498
O O8 0.640756 0.662958 0.898934
O O9 0.444426 0.645248 0.019531
O O10 0.612180 0.990301 0.309762
O O11 0.178754 0.357426 0.228530
O O12 0.887634 0.757197 0.883672
#
# Coordination Sequence:
#
# PCOD8151886 Si02
#       7
#     8   4   8   4   8   8   8
#     4  11  21  42  65  94 129 173 224 269 323 392
#     4  12  22  44  64  92 134 172 216 272 336 402
#     4  11  24  42  64  99 132 168 219 287 325 381
#     4  12  22  40  70  94 128 184 222 264 330 410
#     4  11  24  42  66  95 133 173 217 271 336 398
#     4  11  21  43  69  95 127 175 221 269 329 405
#     4  12  24  40  69  96 129 172 228 269 330 399
#
# _framework density 21.348713
#
# number of rings (size 3 to 8) (size 9 to 14) (size 15 to 20)
#    0.000    0.667    6.667    2.000    4.667    0.667 
#    0.000    0.833    0.000    0.000    0.000    0.000 
#    0.000    0.000    0.000    0.000    0.000    0.000 
#
# Total GULP energy -297517.435242 kJ/mol
# GULP energy per Si atom -12396.559802 kJ/mol
# Density = 2.130012 g / cm^3
# Si number density = 21.348713 Si / 1000 Ang^3
#
#
#
# Elastic Constant Matrix: (Units=GPa)
#
#
# Indices 1 2 3 4 5 6 
#
# 1 106.8473 53.8911 23.8539 0.0000 6.8507 0.0000
# 2 53.8911 129.0009 43.5235 0.0000 10.4430 0.0000
# 3 23.8539 43.5235 103.4525 0.0000 9.1133 0.0000
# 4 0.0000 0.0000 0.0000 8.8870 0.0000 -4.2221
# 5 6.8507 10.4430 9.1133 0.0000 19.8207 0.0000
# 6 0.0000 0.0000 0.0000 -4.2221 0.0000 49.2763
#
#
#
# Elastic Compliance Matrix: (Units=1/GPa)
#
#
# Indices 1 2 3 4 5 6 
#
# 1 0.011943 -0.004650 -0.000677 0.000000 -0.001367 0.000000
# 2 -0.004650 0.011036 -0.003335 0.000000 -0.002674 0.000000
# 3 -0.000677 -0.003335 0.011517 0.000000 -0.003304 0.000000
# 4 0.000000 0.000000 0.000000 0.117298 0.000000 0.010050
# 5 -0.001367 -0.002674 -0.003304 0.000000 0.053853 0.000000
# 6 0.000000 0.000000 0.000000 0.010050 0.000000 0.021155
#
#
# Mechanical properties :
#
#
# Convention : Reuss Voigt Hill
#
# Bulk Modulus (GPa) = 58.23776 64.64862 61.44319
# Shear Modulus (GPa) = 20.01193 30.13229 25.07211
#
# Velocity S-wave (km/s) = 3.06499 3.76098 3.43068
# Velocity P-wave (km/s) = 6.31380 7.01484 6.67353
#
# Compressibility (1/GPa) = 0.01717099
#
# Stress axis : x y z
#
# Youngs Moduli (GPa) = 83.72769 90.60944 86.83105
#
# Poissons Ratio (x) = 0.42137 0.05879
# Poissons Ratio (y) = 0.38937 0.28961
# Poissons Ratio (z) = 0.05669 0.30221
#
# Static dielectric constant tensor:
#      x y z
#    x 3.916550 0.000000 -0.017190 
#    y 0.000000 4.116860 0.000000 
#    z -0.017190 0.000000 3.395810 
# 
# 
# High freq. dielectric constant tensor:
#      x y z
#    x 1.852820 0.000000 -0.001480 
#    y 0.000000 1.848520 0.000000 
#    z -0.001480 0.000000 1.792830 
# 
# From -- ./inp_files/134890.got.cif
#   From: 2010.06.25/outbox.cif.g09.slc.cpg/sg15_68_cif.got.tgz:134890.got - 2010.06.28 07:06:18.
