data_PCOD8151141
_publ_section_title
;
Structure prediction by ZEFSAII (Michael W. Deem and Ramdas Pophale) SiO2 
 PCOD8151141
Probable space group: C 2/C
;
_chemical_formula_sum "Si O2"
_cell_formula_units_Z 40
_cell_length_a 6.632835
_cell_length_b 15.960097
_cell_length_c 16.835453
_cell_angle_alpha 90.000000
_cell_angle_beta 90.944613
_cell_angle_gamma 90.000000
_cell_volume 1781.970466
_symmetry_space_group_name_H-M "C 2/C"
_symmetry_group_IT_number 15
_symmetry_cell_setting 'monoclinic'
loop_
_space_group_symop_operation_xyz
x,y,z
-x,y,1/2-z
-x,-y,-z
x,-y,1/2+z
1/2+x,1/2+y,z
1/2-x,1/2+y,1/2-z
1/2-x,1/2-y,-z
1/2+x,1/2-y,1/2+z
loop_
_atom_site_type_symbol
_atom_site_label
_atom_site_fract_x
_atom_site_fract_y
_atom_site_fract_z
Si Si1 0.032531 0.204075 0.844998
Si Si2 0.880677 0.185389 0.325216
Si Si3 0.228405 0.351377 0.587768
Si Si4 0.372514 0.563622 0.943933
Si Si5 0.583102 0.038668 0.329688
O O1 0.869356 0.263508 0.887684
O O2 0.022336 0.113160 0.885593
O O3 0.000000 0.199649 0.750000
O O4 0.257910 0.237911 0.863673
O O5 0.717515 0.115956 0.297864
O O6 0.000000 0.219559 0.250000
O O7 0.036023 0.145461 0.387497
O O8 0.240936 0.369402 0.493764
O O9 0.109235 0.428948 0.623681
O O10 0.211524 0.519203 0.887086
O O11 0.500000 0.500000 0.000000
O O12 0.500000 0.991202 0.250000
#
# Coordination Sequence:
#
# PCOD8151141 Si02
#       5
#     8   8   8   8   8
#     4  11  25  45  71 104 135 183 244 282 348 431
#     4  11  19  42  78 102 132 186 239 296 344 412
#     4  11  22  46  72 100 140 184 234 293 354 409
#     4  12  27  46  67 105 148 184 224 297 363 416
#     4  11  23  43  74 103 140 192 240 283 352 432
#
# _framework density 22.44706
#
# number of rings (size 3 to 8) (size 9 to 14) (size 15 to 20)
#    0.000    0.800    6.000    2.400    0.000    3.200 
#   10.800    0.000    0.000    0.000    0.000    0.000 
#    0.000    0.000    0.000    0.000    0.000    0.000 
#
# Total GULP energy -247949.776197 kJ/mol
# GULP energy per Si atom -12397.488810 kJ/mol
# Density = 2.239597 g / cm^3
# Si number density = 22.447060 Si / 1000 Ang^3
#
#
#
# Elastic Constant Matrix: (Units=GPa)
#
#
# Indices 1 2 3 4 5 6 
#
# 1 153.2426 57.1457 72.9196 0.0000 8.0590 0.0000
# 2 57.1457 105.5759 82.7463 0.0000 3.2754 0.0000
# 3 72.9196 82.7463 151.1853 0.0000 4.7095 0.0000
# 4 0.0000 0.0000 0.0000 39.9952 0.0000 -9.0749
# 5 8.0590 3.2754 4.7095 0.0000 41.9583 0.0000
# 6 0.0000 0.0000 0.0000 -9.0749 0.0000 28.7332
#
#
#
# Elastic Compliance Matrix: (Units=1/GPa)
#
#
# Indices 1 2 3 4 5 6 
#
# 1 0.008897 -0.002530 -0.002870 0.000000 -0.001189 0.000000
# 2 -0.002530 0.017310 -0.008256 0.000000 0.000061 0.000000
# 3 -0.002870 -0.008256 0.012523 0.000000 -0.000210 0.000000
# 4 0.000000 0.000000 0.000000 0.026933 0.000000 0.008506
# 5 -0.001189 0.000061 -0.000210 0.000000 0.024080 0.000000
# 6 0.000000 0.000000 0.000000 0.008506 0.000000 0.037489
#
#
# Mechanical properties :
#
#
# Convention : Reuss Voigt Hill
#
# Bulk Modulus (GPa) = 87.56429 92.84746 90.20587
# Shear Modulus (GPa) = 31.57565 35.28349 33.42957
#
# Velocity S-wave (km/s) = 3.75463 3.96896 3.86328
# Velocity P-wave (km/s) = 7.60857 7.90292 7.75714
#
# Compressibility (1/GPa) = 0.01142018
#
# Stress axis : x y z
#
# Youngs Moduli (GPa) = 112.39760 57.77092 79.85029
#
# Poissons Ratio (x) = 0.14615 0.22913
# Poissons Ratio (y) = 0.28434 0.65922
# Poissons Ratio (z) = 0.32253 0.47694
#
# Static dielectric constant tensor:
#      x y z
#    x 4.297150 0.000000 0.024400 
#    y 0.000000 3.867550 0.000000 
#    z 0.024400 0.000000 4.276490 
# 
# 
# High freq. dielectric constant tensor:
#      x y z
#    x 1.896340 0.000000 -0.008220 
#    y 0.000000 1.866450 0.000000 
#    z -0.008220 0.000000 1.894810 
# 
# From -- ./inp_files/184339.got.cif
#   From: 2010.06.25/outbox.cif.g09.slc.cpg/sg15_93_cif.got.tgz:184339.got - 2010.06.28 07:06:18.
