data_PCOD8151502
_publ_section_title
;
Structure prediction by ZEFSAII (Michael W. Deem and Ramdas Pophale) SiO2 
 PCOD8151502
Probable space group: C 2/C
;
_chemical_formula_sum "Si O2"
_cell_formula_units_Z 56
_cell_length_a 17.301661
_cell_length_b 9.187177
_cell_length_c 27.905625
_cell_angle_alpha 90.000000
_cell_angle_beta 141.264439
_cell_angle_gamma 90.000000
_cell_volume 2775.533490
_symmetry_space_group_name_H-M "C 2/C"
_symmetry_group_IT_number 15
_symmetry_cell_setting 'monoclinic'
loop_
_space_group_symop_operation_xyz
x,y,z
-x,y,1/2-z
-x,-y,-z
x,-y,1/2+z
1/2+x,1/2+y,z
1/2-x,1/2+y,1/2-z
1/2-x,1/2-y,-z
1/2+x,1/2-y,1/2+z
loop_
_atom_site_type_symbol
_atom_site_label
_atom_site_fract_x
_atom_site_fract_y
_atom_site_fract_z
Si Si1 0.191962 0.118179 0.134079
Si Si2 0.962758 0.256334 0.182183
Si Si3 0.023713 0.667153 0.499743
Si Si4 0.982634 0.053862 0.103674
Si Si5 0.460134 0.080021 0.282515
Si Si6 0.810640 0.856388 0.438228
Si Si7 0.603988 0.239524 0.432309
O O1 0.103644 0.043544 0.129799
O O2 0.322164 0.143111 0.223831
O O3 0.211314 0.010285 0.098451
O O4 0.133121 0.269019 0.086346
O O5 0.816321 0.277304 0.111547
O O6 0.000000 0.178192 0.250000
O O7 0.006893 0.156826 0.160263
O O8 0.040815 0.405151 0.216612
O O9 0.062280 0.681071 0.463519
O O10 0.000000 0.500000 0.500000
O O11 0.897880 0.755827 0.447752
O O12 0.953731 0.894212 0.108693
O O13 0.869419 0.114855 0.018200
O O14 0.500000 0.139402 0.250000
O O15 0.555140 0.128829 0.368952
O O16 0.750000 0.250000 0.500000
#
# Coordination Sequence:
#
# PCOD8151502 Si02
#       7
#     8   8   8   8   8   8   8
#     4  11  21  46  68  90 136 174 216 275 339 400
#     4  11  24  42  66  96 130 172 227 275 329 407
#     4  11  25  42  66 103 127 175 223 276 334 405
#     4  11  24  40  66  99 125 174 224 272 337 393
#     4  11  24  42  66  94 130 179 219 268 339 398
#     4  11  20  45  70  88 132 173 221 271 335 402
#     4  12  25  42  66  96 138 173 219 274 337 402
#
# _framework density 20.176300000000001
#
# number of rings (size 3 to 8) (size 9 to 14) (size 15 to 20)
#    0.000    0.857    5.714    3.000    6.000    2.857 
#    2.571    0.000    0.000    0.000    0.000    0.000 
#    0.000    0.000    0.000    0.000    0.000    0.000 
#
# Total GULP energy -347320.443657 kJ/mol
# GULP energy per Si atom -12404.301559 kJ/mol
# Density = 2.013038 g / cm^3
# Si number density = 20.176300 Si / 1000 Ang^3
#
#
#
# Elastic Constant Matrix: (Units=GPa)
#
#
# Indices 1 2 3 4 5 6 
#
# 1 67.4135 23.6116 27.4756 0.0000 -7.3254 0.0000
# 2 23.6116 91.2932 21.9368 0.0000 -7.3836 0.0000
# 3 27.4756 21.9368 107.2633 0.0000 2.1542 0.0000
# 4 0.0000 0.0000 0.0000 29.2593 0.0000 -6.9466
# 5 -7.3254 -7.3836 2.1542 0.0000 43.7689 0.0000
# 6 0.0000 0.0000 0.0000 -6.9466 0.0000 24.3131
#
#
#
# Elastic Compliance Matrix: (Units=1/GPa)
#
#
# Indices 1 2 3 4 5 6 
#
# 1 0.017941 -0.003484 -0.003936 0.000000 0.002609 0.000000
# 2 -0.003484 0.012385 -0.001672 0.000000 0.001589 0.000000
# 3 -0.003936 -0.001672 0.010703 0.000000 -0.001468 0.000000
# 4 0.000000 0.000000 0.000000 0.036664 0.000000 0.010475
# 5 0.002609 0.001589 -0.001468 0.000000 0.023624 0.000000
# 6 0.000000 0.000000 0.000000 0.010475 0.000000 0.044123
#
#
# Mechanical properties :
#
#
# Convention : Reuss Voigt Hill
#
# Bulk Modulus (GPa) = 43.77227 45.77979 44.77603
# Shear Modulus (GPa) = 29.19894 32.33134 30.76514
#
# Velocity S-wave (km/s) = 3.80832 4.00739 3.90913
# Velocity P-wave (km/s) = 6.40935 6.64465 6.52806
#
# Compressibility (1/GPa) = 0.02284552
#
# Stress axis : x y z
#
# Youngs Moduli (GPa) = 55.73672 80.74247 93.43610
#
# Poissons Ratio (x) = 0.28127 0.36774
# Poissons Ratio (y) = 0.19416 0.15627
# Poissons Ratio (z) = 0.21936 0.13504
#
# Static dielectric constant tensor:
#      x y z
#    x 3.783190 0.000000 0.043070 
#    y 0.000000 3.615040 0.000000 
#    z 0.043070 0.000000 3.817600 
# 
# 
# High freq. dielectric constant tensor:
#      x y z
#    x 1.802160 0.000000 0.002620 
#    y 0.000000 1.777410 0.000000 
#    z 0.002620 0.000000 1.795110 
# 
# From -- ./inp_files/298570.got.cif
#   From: 2010.06.25/outbox.cif.g09.slc.cpg/sg15_150_cif.got.tgz:298570.got - 2010.06.28 07:06:18.
