data_PCOD8151823
_publ_section_title
;
Structure prediction by ZEFSAII (Michael W. Deem and Ramdas Pophale) SiO2 
 PCOD8151823
Probable space group: C 2/C
;
_chemical_formula_sum "Si O2"
_cell_formula_units_Z 48
_cell_length_a 4.944994
_cell_length_b 27.160397
_cell_length_c 19.052660
_cell_angle_alpha 90.000000
_cell_angle_beta 125.527216
_cell_angle_gamma 90.000000
_cell_volume 2082.554192
_symmetry_space_group_name_H-M "C 2/C"
_symmetry_group_IT_number 15
_symmetry_cell_setting 'monoclinic'
loop_
_space_group_symop_operation_xyz
x,y,z
-x,y,1/2-z
-x,-y,-z
x,-y,1/2+z
1/2+x,1/2+y,z
1/2-x,1/2+y,1/2-z
1/2-x,1/2-y,-z
1/2+x,1/2-y,1/2+z
loop_
_atom_site_type_symbol
_atom_site_label
_atom_site_fract_x
_atom_site_fract_y
_atom_site_fract_z
Si Si1 0.000000 0.090218 0.750000
Si Si2 0.840653 0.281006 0.150394
Si Si3 0.237021 0.336712 0.099913
Si Si4 0.390687 0.101707 0.432557
Si Si5 0.000000 0.523328 0.750000
Si Si6 0.614069 0.536270 0.077455
Si Si7 0.104055 0.818763 0.690181
O O1 0.045080 0.122615 0.826745
O O2 0.313176 0.055568 0.780351
O O3 0.449129 0.289123 0.106022
O O4 0.000000 0.291688 0.250000
O O5 0.948678 0.322099 0.110432
O O6 0.951521 0.229542 0.128040
O O7 0.102852 0.359921 0.008429
O O8 0.618187 0.077280 0.406812
O O9 0.240315 0.060153 0.458943
O O10 0.070421 0.130022 0.353100
O O11 0.744695 0.490004 0.667303
O O12 0.500000 0.500000 0.000000
O O13 0.500000 0.824448 0.750000
O O14 0.000000 0.801001 0.750000
#
# Coordination Sequence:
#
# PCOD8151823 Si02
#       7
#     4   8   8   8   4   8   8
#     4  12  22  42  66 103 130 167 234 276 346 420
#     4  11  21  41  65 101 137 184 222 278 336 405
#     4  12  23  40  70 101 139 175 224 281 346 401
#     4  12  27  44  70 102 138 182 230 290 339 415
#     4  12  26  42  72  93 132 185 222 286 354 420
#     4  12  26  48  69 101 140 176 234 294 357 410
#     4  11  25  44  69  98 142 187 235 278 333 407
#
# _framework density 23.048618000000001
#
# number of rings (size 3 to 8) (size 9 to 14) (size 15 to 20)
#    0.000    0.333    1.667    8.500    3.500    1.333 
#    0.000    0.000    0.000    0.000    0.000    0.000 
#    0.000    0.000    0.000    0.000    0.000    0.000 
#
# Total GULP energy -297478.649663 kJ/mol
# GULP energy per Si atom -12394.943736 kJ/mol
# Density = 2.299616 g / cm^3
# Si number density = 23.048618 Si / 1000 Ang^3
#
#
#
# Elastic Constant Matrix: (Units=GPa)
#
#
# Indices 1 2 3 4 5 6 
#
# 1 116.1400 15.5127 8.0805 0.0000 8.9540 0.0000
# 2 15.5127 80.4212 25.8738 0.0000 3.0733 0.0000
# 3 8.0805 25.8738 82.2782 0.0000 9.0237 0.0000
# 4 0.0000 0.0000 0.0000 22.2155 0.0000 4.9237
# 5 8.9540 3.0733 9.0237 0.0000 30.3469 0.0000
# 6 0.0000 0.0000 0.0000 4.9237 0.0000 42.7933
#
#
#
# Elastic Compliance Matrix: (Units=1/GPa)
#
#
# Indices 1 2 3 4 5 6 
#
# 1 0.009023 -0.001611 -0.000109 0.000000 -0.002467 0.000000
# 2 -0.001611 0.014122 -0.004319 0.000000 0.000329 0.000000
# 3 -0.000109 -0.004319 0.013925 0.000000 -0.003671 0.000000
# 4 0.000000 0.000000 0.000000 0.046192 0.000000 -0.005315
# 5 -0.002467 0.000329 -0.003671 0.000000 0.034738 0.000000
# 6 0.000000 0.000000 0.000000 -0.005315 0.000000 0.023980
#
#
# Mechanical properties :
#
#
# Convention : Reuss Voigt Hill
#
# Bulk Modulus (GPa) = 40.01157 41.97484 40.99320
# Shear Modulus (GPa) = 30.79018 34.36264 32.57641
#
# Velocity S-wave (km/s) = 3.65893 3.86538 3.76357
# Velocity P-wave (km/s) = 5.93698 6.17839 6.05889
#
# Compressibility (1/GPa) = 0.02499277
#
# Stress axis : x y z
#
# Youngs Moduli (GPa) = 110.82467 70.81032 71.81139
#
# Poissons Ratio (x) = 0.11409 0.00782
# Poissons Ratio (y) = 0.17856 0.31014
# Poissons Ratio (z) = 0.01208 0.30582
#
# Static dielectric constant tensor:
#      x y z
#    x 4.236630 0.000000 0.053310 
#    y 0.000000 4.405610 0.000000 
#    z 0.053310 0.000000 4.102700 
# 
# 
# High freq. dielectric constant tensor:
#      x y z
#    x 1.925530 0.000000 -0.000700 
#    y 0.000000 1.926650 0.000000 
#    z -0.000700 0.000000 1.898030 
# 
# From -- ./inp_files/228261.got.cif
#   From: 2010.06.25/outbox.cif.g09.slc.cpg/sg15_115_cif.got.tgz:228261.got - 2010.06.28 07:06:18.
