data_PCOD8151923
_publ_section_title
;
Structure prediction by ZEFSAII (Michael W. Deem and Ramdas Pophale) SiO2 
 PCOD8151923
Probable space group: C 2/C
;
_chemical_formula_sum "Si O2"
_cell_formula_units_Z 64
_cell_length_a 8.716539
_cell_length_b 24.614971
_cell_length_c 14.494121
_cell_angle_alpha 90.000000
_cell_angle_beta 100.891981
_cell_angle_gamma 90.000000
_cell_volume 3053.797373
_symmetry_space_group_name_H-M "C 2/C"
_symmetry_group_IT_number 15
_symmetry_cell_setting 'monoclinic'
loop_
_space_group_symop_operation_xyz
x,y,z
-x,y,1/2-z
-x,-y,-z
x,-y,1/2+z
1/2+x,1/2+y,z
1/2-x,1/2+y,1/2-z
1/2-x,1/2-y,-z
1/2+x,1/2-y,1/2+z
loop_
_atom_site_type_symbol
_atom_site_label
_atom_site_fract_x
_atom_site_fract_y
_atom_site_fract_z
Si Si1 0.886903 0.059060 0.355903
Si Si2 0.575252 0.678992 0.162891
Si Si3 0.542293 0.125416 0.059890
Si Si4 0.514654 0.661829 0.860886
Si Si5 0.299991 0.311732 0.489191
Si Si6 0.269331 0.534569 0.154813
Si Si7 0.605466 0.774610 0.848689
Si Si8 0.238304 0.069703 0.961620
O O1 0.845586 0.120091 0.319463
O O2 0.804917 0.022857 0.267132
O O3 0.814934 0.044046 0.446551
O O4 0.073704 0.053686 0.379329
O O5 0.500000 0.698217 0.250000
O O6 0.449358 0.676649 0.068745
O O7 0.714080 0.719422 0.155204
O O8 0.658322 0.149350 0.997974
O O9 0.631556 0.079207 0.129428
O O10 0.475761 0.173815 0.114565
O O11 0.399056 0.101216 0.988087
O O12 0.500000 0.652689 0.750000
O O13 0.604326 0.717295 0.903706
O O14 0.602447 0.609508 0.911466
O O15 0.344640 0.670561 0.889716
O O16 0.250000 0.250000 0.500000
O O17 0.221097 0.477654 0.105185
O O18 0.500000 0.760240 0.750000
#
# Coordination Sequence:
#
# PCOD8151923 Si02
#       8
#     8   8   8   8   8   8   8   8
#     4  11  21  42  71  96 125 179 231 282 340 404
#     4  12  22  41  70 103 136 172 231 288 338 401
#     4  12  23  42  69 100 139 171 231 284 343 403
#     4  11  26  46  68 100 141 186 230 276 351 419
#     4  12  24  42  68 102 139 182 218 282 341 410
#     4  11  24  42  67 100 134 171 231 287 344 400
#     4  11  23  39  69 105 136 178 224 283 344 411
#     4  12  26  44  67  99 136 184 228 287 345 415
#
# _framework density 20.957512999999999
#
# number of rings (size 3 to 8) (size 9 to 14) (size 15 to 20)
#    0.000    0.500    6.250    2.250    5.250    1.000 
#    0.000    0.625    0.000    0.000    0.000    0.000 
#    0.000    0.000    0.000    0.000    0.000    0.000 
#
# Total GULP energy -396744.624528 kJ/mol
# GULP energy per Si atom -12398.269517 kJ/mol
# Density = 2.090981 g / cm^3
# Si number density = 20.957513 Si / 1000 Ang^3
#
#
#
# Elastic Constant Matrix: (Units=GPa)
#
#
# Indices 1 2 3 4 5 6 
#
# 1 83.0286 6.4937 46.9899 0.0000 -13.1796 0.0000
# 2 6.4937 93.3122 37.5111 0.0000 -4.1743 0.0000
# 3 46.9899 37.5111 125.4809 0.0000 -18.5839 0.0000
# 4 0.0000 0.0000 0.0000 31.7944 0.0000 -6.4602
# 5 -13.1796 -4.1743 -18.5839 0.0000 28.0814 0.0000
# 6 0.0000 0.0000 0.0000 -6.4602 0.0000 -5.8882
#
#
#
# Elastic Compliance Matrix: (Units=1/GPa)
#
#
# Indices 1 2 3 4 5 6 
#
# 1 0.015805 0.001390 -0.005771 0.000000 0.003806 0.000000
# 2 0.001390 0.012314 -0.004251 0.000000 -0.000330 0.000000
# 3 -0.005771 -0.004251 0.012091 0.000000 0.004662 0.000000
# 4 0.000000 0.000000 0.000000 0.025719 0.000000 -0.028217
# 5 0.003806 -0.000330 0.004662 0.000000 0.040433 0.000000
# 6 0.000000 0.000000 0.000000 -0.028217 0.000000 -0.138873
#
#
# Mechanical properties :
#
#
# Convention : Reuss Voigt Hill
#
# Bulk Modulus (GPa) = 43.57603 53.75679 48.66641
# Shear Modulus (GPa) = -657.96637 24.85265 -316.55686
#
# Velocity S-wave (km/s) = -17.73793 3.44737 -12.30345
# Velocity P-wave (km/s) = 19.96683 6.44607 13.36268
#
# Compressibility (1/GPa) = 0.02294840
#
# Stress axis : x y z
#
# Youngs Moduli (GPa) = 63.26978 81.20898 82.70339
#
# Poissons Ratio (x) = -0.11289 0.47726
# Poissons Ratio (y) = -0.08795 0.35154
# Poissons Ratio (z) = 0.36511 0.34518
#
# Static dielectric constant tensor:
#      x y z
#    x 4.012300 0.000000 -0.194200 
#    y 0.000000 4.123980 0.000000 
#    z -0.194200 0.000000 3.863100 
# 
# 
# High freq. dielectric constant tensor:
#      x y z
#    x 1.826560 0.000000 -0.006260 
#    y 0.000000 1.823860 0.000000 
#    z -0.006260 0.000000 1.820620 
# 
# From -- ./inp_files/137863.got.cif
#   From: 2010.06.25/outbox.cif.g09.slc.cpg/sg15_69_cif.got.tgz:137863.got - 2010.06.28 07:06:18.
