data_PCOD8151980
_publ_section_title
;
Structure prediction by ZEFSAII (Michael W. Deem and Ramdas Pophale) SiO2 
 PCOD8151980
Probable space group: C 2/C
;
_chemical_formula_sum "Si O2"
_cell_formula_units_Z 64
_cell_length_a 19.297951
_cell_length_b 13.948593
_cell_length_c 18.093741
_cell_angle_alpha 90.000000
_cell_angle_beta 142.108752
_cell_angle_gamma 90.000000
_cell_volume 2991.264339
_symmetry_space_group_name_H-M "C 2/C"
_symmetry_group_IT_number 15
_symmetry_cell_setting 'monoclinic'
loop_
_space_group_symop_operation_xyz
x,y,z
-x,y,1/2-z
-x,-y,-z
x,-y,1/2+z
1/2+x,1/2+y,z
1/2-x,1/2+y,1/2-z
1/2-x,1/2-y,-z
1/2+x,1/2-y,1/2+z
loop_
_atom_site_type_symbol
_atom_site_label
_atom_site_fract_x
_atom_site_fract_y
_atom_site_fract_z
Si Si1 0.219355 0.996201 0.292939
Si Si2 0.268489 0.584164 0.932506
Si Si3 0.022014 0.627717 0.349084
Si Si4 0.085881 0.692440 0.688786
Si Si5 0.629693 0.929432 0.454698
Si Si6 0.332740 0.798561 0.402163
Si Si7 0.481606 0.394314 0.820358
Si Si8 0.277674 0.092028 0.190351
O O1 0.308626 0.057312 0.415665
O O2 0.090777 0.016611 0.209182
O O3 0.237305 0.028631 0.224773
O O4 0.239650 0.882843 0.320590
O O5 0.198799 0.639291 0.810697
O O6 0.218159 0.612634 0.969990
O O7 0.260712 0.469091 0.913608
O O8 0.398875 0.614787 0.037383
O O9 0.086104 0.529392 0.385883
O O10 0.096816 0.697149 0.462718
O O11 0.000000 0.676598 0.250000
O O12 0.911589 0.603350 0.303220
O O13 0.084760 0.692049 0.598869
O O14 0.090397 0.799203 0.724687
O O15 0.973642 0.642896 0.624456
O O16 0.274178 0.696605 0.352559
O O17 0.500000 0.412551 0.750000
#
# Coordination Sequence:
#
# PCOD8151980 Si02
#       8
#     8   8   8   8   8   8   8   8
#     4  11  24  47  70  99 145 182 229 289 352 413
#     4  12  25  43  71 101 140 183 232 289 354 413
#     4  11  22  43  71 100 134 187 238 298 343 400
#     4  12  24  43  71 106 138 180 234 290 349 425
#     4  11  21  43  74  99 135 176 236 296 343 410
#     4  11  26  44  70 109 139 185 239 285 354 422
#     4  12  27  44  70 105 145 186 228 287 362 420
#     4  12  24  46  71 101 141 185 236 286 354 417
#
# _framework density 21.395636
#
# number of rings (size 3 to 8) (size 9 to 14) (size 15 to 20)
#    0.000    0.500    6.250    1.875    1.750    6.000 
#    0.000    1.250    0.000    0.000    0.000    0.000 
#    0.000    0.000    0.000    0.000    0.000    0.000 
#
# Total GULP energy -396951.259643 kJ/mol
# GULP energy per Si atom -12404.726864 kJ/mol
# Density = 2.134694 g / cm^3
# Si number density = 21.395636 Si / 1000 Ang^3
#
#
#
# Elastic Constant Matrix: (Units=GPa)
#
#
# Indices 1 2 3 4 5 6 
#
# 1 129.2655 36.6414 47.6584 0.0000 -1.9954 0.0000
# 2 36.6414 105.6761 44.1787 0.0000 3.4257 0.0000
# 3 47.6584 44.1787 99.2558 0.0000 13.3916 0.0000
# 4 0.0000 0.0000 0.0000 13.5230 0.0000 4.8550
# 5 -1.9954 3.4257 13.3916 0.0000 35.4632 0.0000
# 6 0.0000 0.0000 0.0000 4.8550 0.0000 30.7612
#
#
#
# Elastic Compliance Matrix: (Units=1/GPa)
#
#
# Indices 1 2 3 4 5 6 
#
# 1 0.009831 -0.001695 -0.004281 0.000000 0.002333 0.000000
# 2 -0.001695 0.011944 -0.004567 0.000000 0.000475 0.000000
# 3 -0.004281 -0.004567 0.014895 0.000000 -0.005424 0.000000
# 4 0.000000 0.000000 0.000000 0.078390 0.000000 -0.012372
# 5 0.002333 0.000475 -0.005424 0.000000 0.030332 0.000000
# 6 0.000000 0.000000 0.000000 -0.012372 0.000000 0.034461
#
#
# Mechanical properties :
#
#
# Convention : Reuss Voigt Hill
#
# Bulk Modulus (GPa) = 64.16272 65.68382 64.92327
# Shear Modulus (GPa) = 24.25622 29.66407 26.96015
#
# Velocity S-wave (km/s) = 3.37070 3.72755 3.55361
# Velocity P-wave (km/s) = 6.72329 7.02086 6.87368
#
# Compressibility (1/GPa) = 0.01558537
#
# Stress axis : x y z
#
# Youngs Moduli (GPa) = 101.72254 83.72222 67.13665
#
# Poissons Ratio (x) = 0.14188 0.28740
# Poissons Ratio (y) = 0.17238 0.30660
# Poissons Ratio (z) = 0.43545 0.38235
#
# Static dielectric constant tensor:
#      x y z
#    x 4.076510 0.000000 -0.039020 
#    y 0.000000 3.819930 0.000000 
#    z -0.039020 0.000000 3.965550 
# 
# 
# High freq. dielectric constant tensor:
#      x y z
#    x 1.853060 0.000000 -0.003240 
#    y 0.000000 1.832520 0.000000 
#    z -0.003240 0.000000 1.840690 
# 
# From -- ./inp_files/211427.got.cif
#   From: 2010.06.25/outbox.cif.g09.slc.cpg/sg15_106_cif.got.tgz:211427.got - 2010.06.28 07:06:18.
