data_PCOD8151675
_publ_section_title
;
Structure prediction by ZEFSAII (Michael W. Deem and Ramdas Pophale) SiO2 
 PCOD8151675
Probable space group: C 2/C
;
_chemical_formula_sum "Si O2"
_cell_formula_units_Z 56
_cell_length_a 12.672350
_cell_length_b 14.161656
_cell_length_c 16.348948
_cell_angle_alpha 90.000000
_cell_angle_beta 58.091374
_cell_angle_gamma 90.000000
_cell_volume 2490.654660
_symmetry_space_group_name_H-M "C 2/C"
_symmetry_group_IT_number 15
_symmetry_cell_setting 'monoclinic'
loop_
_space_group_symop_operation_xyz
x,y,z
-x,y,1/2-z
-x,-y,-z
x,-y,1/2+z
1/2+x,1/2+y,z
1/2-x,1/2+y,1/2-z
1/2-x,1/2-y,-z
1/2+x,1/2-y,1/2+z
loop_
_atom_site_type_symbol
_atom_site_label
_atom_site_fract_x
_atom_site_fract_y
_atom_site_fract_z
Si Si1 0.042305 0.005128 0.851745
Si Si2 0.186340 0.320588 0.846612
Si Si3 0.360785 0.050587 0.287805
Si Si4 0.577431 0.683638 0.149669
Si Si5 0.730553 0.122594 0.760940
Si Si6 0.358501 0.594172 0.032848
Si Si7 0.031689 0.284580 0.453447
O O1 0.146017 0.065185 0.758387
O O2 0.100318 0.981798 0.915780
O O3 0.005649 0.911074 0.820622
O O4 0.917345 0.066699 0.921185
O O5 0.196734 0.392206 0.766508
O O6 0.283865 0.342659 0.879549
O O7 0.216834 0.215740 0.803559
O O8 0.049545 0.332816 0.942035
O O9 0.500000 0.078962 0.250000
O O10 0.290741 0.082205 0.400499
O O11 0.345202 0.939711 0.274378
O O12 0.500000 0.743158 0.250000
O O13 0.569700 0.743226 0.069604
O O14 0.633310 0.143834 0.873986
O O15 0.391011 0.700851 0.039027
#
# Coordination Sequence:
#
# PCOD8151675 Si02
#       7
#     8   8   8   8   8   8   8
#     4   9  19  35  64  96 127 167 221 269 328 395
#     4  12  24  44  68 100 138 169 227 286 335 398
#     4  11  26  44  66  94 137 183 224 275 339 406
#     4  11  21  38  65 105 135 169 221 287 335 386
#     4  11  22  41  70  97 129 180 220 275 336 400
#     4   9  17  38  63  91 126 171 221 266 321 398
#     4  11  22  38  71 101 133 174 221 283 336 399
#
# _framework density 22.484048999999999
#
# number of rings (size 3 to 8) (size 9 to 14) (size 15 to 20)
#    0.000    1.429    4.286    2.143    4.000    1.714 
#    0.000    4.286    0.000    0.000    0.000    0.000 
#    0.000    0.000    0.000    0.000    0.000    0.000 
#
# Total GULP energy -346966.417614 kJ/mol
# GULP energy per Si atom -12391.657772 kJ/mol
# Density = 2.243287 g / cm^3
# Si number density = 22.484049 Si / 1000 Ang^3
#
#
#
# Elastic Constant Matrix: (Units=GPa)
#
#
# Indices 1 2 3 4 5 6 
#
# 1 57.2272 14.7453 24.8245 0.0000 -25.1526 0.0000
# 2 14.7453 74.9398 15.4561 0.0000 -6.6093 0.0000
# 3 24.8245 15.4561 113.7553 0.0000 -41.7311 0.0000
# 4 0.0000 0.0000 0.0000 27.5219 0.0000 -20.8360
# 5 -25.1526 -6.6093 -41.7311 0.0000 42.1821 0.0000
# 6 0.0000 0.0000 0.0000 -20.8360 0.0000 6.7681
#
#
#
# Elastic Compliance Matrix: (Units=1/GPa)
#
#
# Indices 1 2 3 4 5 6 
#
# 1 0.024616 -0.003655 0.000470 0.000000 0.014570 0.000000
# 2 -0.003655 0.014278 -0.001760 0.000000 -0.001684 0.000000
# 3 0.000470 -0.001760 0.014016 0.000000 0.013870 0.000000
# 4 0.000000 0.000000 0.000000 -0.027305 0.000000 -0.084061
# 5 0.014570 -0.001684 0.013870 0.000000 0.045853 0.000000
# 6 0.000000 0.000000 0.000000 -0.084061 0.000000 -0.111034
#
#
# Mechanical properties :
#
#
# Convention : Reuss Voigt Hill
#
# Bulk Modulus (GPa) = 23.24557 39.55267 31.39912
# Shear Modulus (GPa) = -325.82302 28.02084 -148.90109
#
# Velocity S-wave (km/s) = -12.05104 3.53406 -8.14672
# Velocity P-wave (km/s) = 13.53793 5.85512 8.63114
#
# Compressibility (1/GPa) = 0.04301895
#
# Stress axis : x y z
#
# Youngs Moduli (GPa) = 40.62351 70.03890 71.34870
#
# Poissons Ratio (x) = 0.25602 -0.03353
# Poissons Ratio (y) = 0.14850 0.12556
# Poissons Ratio (z) = -0.01909 0.12326
#
# Static dielectric constant tensor:
#      x y z
#    x 3.902000 0.000000 -0.418160 
#    y 0.000000 3.921600 0.000000 
#    z -0.418160 0.000000 4.398410 
# 
# 
# High freq. dielectric constant tensor:
#      x y z
#    x 1.862760 0.000000 -0.029990 
#    y 0.000000 1.878560 0.000000 
#    z -0.029990 0.000000 1.897630 
# 
# From -- ./inp_files/198234.got.cif
#   From: 2010.06.25/outbox.cif.g09.slc.cpg/sg15_100_cif.got.tgz:198234.got - 2010.06.28 07:06:18.
