data_PCOD8151933
_publ_section_title
;
Structure prediction by ZEFSAII (Michael W. Deem and Ramdas Pophale) SiO2 
 PCOD8151933
Probable space group: C 2/C
;
_chemical_formula_sum "Si O2"
_cell_formula_units_Z 64
_cell_length_a 9.730921
_cell_length_b 10.883527
_cell_length_c 27.180096
_cell_angle_alpha 90.000000
_cell_angle_beta 97.096590
_cell_angle_gamma 90.000000
_cell_volume 2856.503628
_symmetry_space_group_name_H-M "C 2/C"
_symmetry_group_IT_number 15
_symmetry_cell_setting 'monoclinic'
loop_
_space_group_symop_operation_xyz
x,y,z
-x,y,1/2-z
-x,-y,-z
x,-y,1/2+z
1/2+x,1/2+y,z
1/2-x,1/2+y,1/2-z
1/2-x,1/2-y,-z
1/2+x,1/2-y,1/2+z
loop_
_atom_site_type_symbol
_atom_site_label
_atom_site_fract_x
_atom_site_fract_y
_atom_site_fract_z
Si Si1 0.820787 0.616499 0.601250
Si Si2 0.154534 0.655401 0.738059
Si Si3 0.100765 0.384647 0.499645
Si Si4 0.850383 0.252270 0.457337
Si Si5 0.798098 0.887262 0.599881
Si Si6 0.121415 0.425644 0.131305
Si Si7 0.642085 0.570864 0.229782
Si Si8 0.594535 0.449422 0.616593
O O1 0.798159 0.599859 0.542159
O O2 0.853716 0.755364 0.619807
O O3 0.679834 0.576047 0.621202
O O4 0.957930 0.542079 0.623828
O O5 0.160943 0.656102 0.679277
O O6 0.252390 0.545012 0.762543
O O7 0.197567 0.796947 0.754716
O O8 0.000000 0.626052 0.750000
O O9 0.199275 0.364842 0.549508
O O10 0.000000 0.500000 0.500000
O O11 0.005903 0.263461 0.486136
O O12 0.750000 0.250000 0.500000
O O13 0.828958 0.367211 0.418925
O O14 0.832760 0.133323 0.422361
O O15 0.933879 0.970295 0.595122
O O16 0.707477 0.947688 0.639302
O O17 0.500000 0.530606 0.250000
O O18 0.606090 0.603934 0.171766
#
# Coordination Sequence:
#
# PCOD8151933 Si02
#       8
#     8   8   8   8   8   8   8   8
#     4  11  24  43  65  97 139 177 236 283 339 411
#     4  11  24  46  75 104 136 185 235 298 365 422
#     4  11  21  43  62  94 139 187 229 284 333 408
#     4  11  23  41  68  98 142 185 224 276 341 411
#     4  12  24  43  68  97 140 183 234 284 341 413
#     4  11  23  46  70  96 142 183 228 288 354 412
#     4  11  25  47  74 102 144 179 234 301 362 421
#     4  12  25  44  70 102 137 184 230 283 351 416
#
# _framework density 22.405013
#
# number of rings (size 3 to 8) (size 9 to 14) (size 15 to 20)
#    0.000    0.750    6.250    2.625    0.000    5.000 
#    0.000    0.000    0.000    0.000    0.000    0.000 
#    0.000    0.000    0.000    0.000    0.000    0.000 
#
# Total GULP energy -396505.024261 kJ/mol
# GULP energy per Si atom -12390.782008 kJ/mol
# Density = 2.235402 g / cm^3
# Si number density = 22.405013 Si / 1000 Ang^3
#
#
#
# Elastic Constant Matrix: (Units=GPa)
#
#
# Indices 1 2 3 4 5 6 
#
# 1 144.1008 66.0969 37.8172 0.0000 -7.2221 0.0000
# 2 66.0969 95.3195 14.7800 0.0000 -4.4524 0.0000
# 3 37.8172 14.7800 100.6099 0.0000 -12.5130 0.0000
# 4 0.0000 0.0000 0.0000 25.5869 0.0000 -7.0828
# 5 -7.2221 -4.4524 -12.5130 0.0000 27.6386 0.0000
# 6 0.0000 0.0000 0.0000 -7.0828 0.0000 35.5508
#
#
#
# Elastic Compliance Matrix: (Units=1/GPa)
#
#
# Indices 1 2 3 4 5 6 
#
# 1 0.011048 -0.007171 -0.003056 0.000000 0.000348 0.000000
# 2 -0.007171 0.015420 0.000536 0.000000 0.000853 0.000000
# 3 -0.003056 0.000536 0.011572 0.000000 0.004527 0.000000
# 4 0.000000 0.000000 0.000000 0.041364 0.000000 0.008241
# 5 0.000348 0.000853 0.004527 0.000000 0.038459 0.000000
# 6 0.000000 0.000000 0.000000 0.008241 0.000000 0.029771
#
#
# Mechanical properties :
#
#
# Convention : Reuss Voigt Hill
#
# Bulk Modulus (GPa) = 53.59280 64.15760 58.87520
# Shear Modulus (GPa) = 28.86237 32.51101 30.68669
#
# Velocity S-wave (km/s) = 3.59306 3.81341 3.70487
# Velocity P-wave (km/s) = 6.41758 6.93448 6.68103
#
# Compressibility (1/GPa) = 0.01865922
#
# Stress axis : x y z
#
# Youngs Moduli (GPa) = 90.51149 64.84953 86.41281
#
# Poissons Ratio (x) = 0.46504 0.26408
# Poissons Ratio (y) = 0.64906 -0.04634
# Poissons Ratio (z) = 0.27661 -0.03478
#
# Static dielectric constant tensor:
#      x y z
#    x 4.065550 0.000000 -0.065680 
#    y 0.000000 4.175420 0.000000 
#    z -0.065680 0.000000 4.191550 
# 
# 
# High freq. dielectric constant tensor:
#      x y z
#    x 1.879990 0.000000 -0.004550 
#    y 0.000000 1.877200 0.000000 
#    z -0.004550 0.000000 1.890440 
# 
# From -- ./inp_files/307477.got.cif
#   From: 2010.06.25/outbox.cif.g09.slc.cpg/sg15_154_cif.got.tgz:307477.got - 2010.06.28 07:06:18.
