data_PCOD8151802
_publ_section_title
;
Structure prediction by ZEFSAII (Michael W. Deem and Ramdas Pophale) SiO2 
 PCOD8151802
Probable space group: C 2/C
;
_chemical_formula_sum "Si O2"
_cell_formula_units_Z 48
_cell_length_a 14.420800
_cell_length_b 12.959646
_cell_length_c 25.186758
_cell_angle_alpha 90.000000
_cell_angle_beta 27.803537
_cell_angle_gamma 90.000000
_cell_volume 2195.592352
_symmetry_space_group_name_H-M "C 2/C"
_symmetry_group_IT_number 15
_symmetry_cell_setting 'monoclinic'
loop_
_space_group_symop_operation_xyz
x,y,z
-x,y,1/2-z
-x,-y,-z
x,-y,1/2+z
1/2+x,1/2+y,z
1/2-x,1/2+y,1/2-z
1/2-x,1/2-y,-z
1/2+x,1/2-y,1/2+z
loop_
_atom_site_type_symbol
_atom_site_label
_atom_site_fract_x
_atom_site_fract_y
_atom_site_fract_z
Si Si1 0.669115 0.810707 0.991660
Si Si2 0.291562 0.752062 0.125019
Si Si3 0.452250 0.010543 0.662075
Si Si4 0.500000 0.069121 0.250000
Si Si5 0.090795 0.065670 0.784626
Si Si6 0.687616 0.154519 0.997372
Si Si7 0.500000 0.400910 0.750000
O O1 0.845459 0.829683 0.860288
O O2 0.750000 0.750000 0.000000
O O3 0.496570 0.739363 0.053332
O O4 0.580677 0.916745 0.058743
O O5 0.194128 0.641434 0.160389
O O6 0.135885 0.821799 0.236656
O O7 0.353184 0.814276 0.041744
O O8 0.221951 0.042728 0.770798
O O9 0.516037 0.008801 0.691694
O O10 0.486399 0.894282 0.623086
O O11 0.859572 0.067649 0.916865
O O12 0.129836 0.973909 0.723047
O O13 0.750000 0.250000 0.000000
#
# Coordination Sequence:
#
# PCOD8151802 Si02
#       7
#     8   8   8   4   8   8   4
#     4  11  27  46  66  99 136 179 231 282 339 407
#     4  11  21  42  66  99 135 171 228 280 333 408
#     4  11  25  42  67  98 138 176 226 284 338 410
#     4  12  23  43  68 102 142 184 216 280 356 410
#     4  11  21  40  69  98 128 174 229 279 332 401
#     4  12  20  40  68 105 131 172 231 285 337 406
#     4  12  21  43  72  90 128 178 228 276 336 398
#
# _framework density 21.861981
#
# number of rings (size 3 to 8) (size 9 to 14) (size 15 to 20)
#    0.000    0.667    6.667    1.000    2.333    3.333 
#    9.000    1.667    0.000    0.000    0.000    0.000 
#    0.000    0.000    0.000    0.000    0.000    0.000 
#
# Total GULP energy -297582.761545 kJ/mol
# GULP energy per Si atom -12399.281731 kJ/mol
# Density = 2.181222 g / cm^3
# Si number density = 21.861981 Si / 1000 Ang^3
#
#
#
# Elastic Constant Matrix: (Units=GPa)
#
#
# Indices 1 2 3 4 5 6 
#
# 1 158.2216 33.2615 42.4195 0.0052 -7.2917 0.0020
# 2 33.2615 44.5937 7.4653 0.0010 -2.2018 -0.0005
# 3 42.4195 7.4653 74.5939 0.0203 0.8943 0.0031
# 4 0.0052 0.0010 0.0203 22.8801 -0.0031 4.1625
# 5 -7.2917 -2.2018 0.8943 -0.0031 33.5591 -0.0014
# 6 0.0020 -0.0005 0.0031 4.1625 -0.0014 47.6388
#
#
#
# Elastic Compliance Matrix: (Units=1/GPa)
#
#
# Indices 1 2 3 4 5 6 
#
# 1 0.008794 -0.005733 -0.004447 0.000002 0.001653 0.000000
# 2 -0.005733 0.026626 0.000590 0.000000 0.000486 0.000001
# 3 -0.004447 0.000590 0.015892 -0.000013 -0.001351 0.000000
# 4 0.000002 0.000000 -0.000013 0.044412 0.000005 -0.003881
# 5 0.001653 0.000486 -0.001351 0.000005 0.030225 0.000000
# 6 0.000000 0.000001 0.000000 -0.003881 0.000000 0.021330
#
#
# Mechanical properties :
#
#
# Convention : Reuss Voigt Hill
#
# Bulk Modulus (GPa) = 31.12221 49.30020 40.21121
# Shear Modulus (GPa) = 28.22136 33.76644 30.99390
#
# Velocity S-wave (km/s) = 3.59679 3.93431 3.76933
# Velocity P-wave (km/s) = 5.61390 6.57556 6.11367
#
# Compressibility (1/GPa) = 0.03213139
#
# Stress axis : x y z
#
# Youngs Moduli (GPa) = 113.71554 37.55709 62.92499
#
# Poissons Ratio (x) = 0.21532 0.27982
# Poissons Ratio (y) = 0.65194 -0.03711
# Poissons Ratio (z) = 0.50568 -0.02215
#
# Static dielectric constant tensor:
#      x y z
#    x 4.137250 -0.001080 -0.005970 
#    y -0.001080 5.303580 -0.001370 
#    z -0.005970 -0.001370 3.842540 
# 
# 
# High freq. dielectric constant tensor:
#      x y z
#    x 1.870540 0.000000 -0.001980 
#    y 0.000000 1.845920 0.000000 
#    z -0.001980 0.000000 1.852620 
# 
# From -- ./inp_files/143498.got.cif
#   From: 2010.06.25/outbox.cif.g09.slc.cpg/sg15_72_cif.got.tgz:143498.got - 2010.06.28 07:06:18.
