data_PCOD8151487
_publ_section_title
;
Structure prediction by ZEFSAII (Michael W. Deem and Ramdas Pophale) SiO2 
 PCOD8151487
Probable space group: C 2/C
;
_chemical_formula_sum "Si O2"
_cell_formula_units_Z 60
_cell_length_a 15.831947
_cell_length_b 11.045584
_cell_length_c 17.337049
_cell_angle_alpha 90.000000
_cell_angle_beta 64.587573
_cell_angle_gamma 90.000000
_cell_volume 2738.434927
_symmetry_space_group_name_H-M "C 2/C"
_symmetry_group_IT_number 15
_symmetry_cell_setting 'monoclinic'
loop_
_space_group_symop_operation_xyz
x,y,z
-x,y,1/2-z
-x,-y,-z
x,-y,1/2+z
1/2+x,1/2+y,z
1/2-x,1/2+y,1/2-z
1/2-x,1/2-y,-z
1/2+x,1/2-y,1/2+z
loop_
_atom_site_type_symbol
_atom_site_label
_atom_site_fract_x
_atom_site_fract_y
_atom_site_fract_z
Si Si1 0.426621 0.014061 0.368646
Si Si2 0.301226 0.062467 0.040341
Si Si3 0.528070 0.252785 0.074694
Si Si4 0.000000 0.146537 0.250000
Si Si5 0.915253 0.393551 0.096013
Si Si6 0.146944 0.347332 0.221725
Si Si7 0.155547 0.181539 0.928158
Si Si8 0.399603 0.488895 0.914706
O O1 0.460478 0.152951 0.361340
O O2 0.324785 0.998044 0.448399
O O3 0.489063 0.925851 0.397881
O O4 0.414232 0.964761 0.285482
O O5 0.316334 0.205903 0.029012
O O6 0.194096 0.027735 0.099594
O O7 0.369489 0.014707 0.080538
O O8 0.419204 0.284817 0.108446
O O9 0.586461 0.369518 0.075834
O O10 0.567692 0.203705 0.977593
O O11 0.094218 0.226242 0.215871
O O12 0.012662 0.063743 0.168666
O O13 0.846129 0.342923 0.188490
O O14 0.251384 0.361336 0.150881
O O15 0.110152 0.078897 0.999733
#
# Coordination Sequence:
#
# PCOD8151487 Si02
#       8
#     8   8   8   4   8   8   8   8
#     4  11  20  43  72  97 127 177 234 280 335 400
#     4  11  21  41  70  96 129 178 232 275 330 410
#     4  11  25  45  70  97 143 179 222 281 349 407
#     4  12  24  40  68  96 136 170 232 284 322 408
#     4  11  22  42  69 100 135 175 234 287 329 399
#     4  12  24  41  73 100 128 178 238 278 331 404
#     4  12  22  44  68  97 131 183 228 272 329 419
#     4  12  26  43  67 102 141 184 218 278 360 400
#
# _framework density 21.910323999999999
#
# number of rings (size 3 to 8) (size 9 to 14) (size 15 to 20)
#    0.000    0.533    6.667    3.200    0.000    3.200 
#    4.800    0.000    0.000    0.000    0.000    0.000 
#    0.000    0.000    0.000    0.000    0.000    0.000 
#
# Total GULP energy -371970.295496 kJ/mol
# GULP energy per Si atom -12399.009850 kJ/mol
# Density = 2.186046 g / cm^3
# Si number density = 21.910324 Si / 1000 Ang^3
#
#
#
# Elastic Constant Matrix: (Units=GPa)
#
#
# Indices 1 2 3 4 5 6 
#
# 1 50.5523 -3.0119 15.1914 0.0000 -11.8914 0.0000
# 2 -3.0119 98.5246 28.0469 0.0000 -2.6911 0.0000
# 3 15.1914 28.0469 99.9612 0.0000 -4.0465 0.0000
# 4 0.0000 0.0000 0.0000 25.9236 0.0000 -3.3142
# 5 -11.8914 -2.6911 -4.0465 0.0000 32.0393 0.0000
# 6 0.0000 0.0000 0.0000 -3.3142 0.0000 23.1746
#
#
#
# Elastic Compliance Matrix: (Units=1/GPa)
#
#
# Indices 1 2 3 4 5 6 
#
# 1 0.022947 0.001982 -0.003711 0.000000 0.008215 0.000000
# 2 0.001982 0.011211 -0.003396 0.000000 0.001248 0.000000
# 3 -0.003711 -0.003396 0.011512 0.000000 -0.000209 0.000000
# 4 0.000000 0.000000 0.000000 0.039293 0.000000 0.005619
# 5 0.008215 0.001248 -0.000209 0.000000 0.034339 0.000000
# 6 0.000000 0.000000 0.000000 0.005619 0.000000 0.043954
#
#
# Mechanical properties :
#
#
# Convention : Reuss Voigt Hill
#
# Bulk Modulus (GPa) = 28.23216 36.61011 32.42114
# Shear Modulus (GPa) = 26.98117 30.14828 28.56472
#
# Velocity S-wave (km/s) = 3.51299 3.71345 3.61461
# Velocity P-wave (km/s) = 5.41923 5.92720 5.67890
#
# Compressibility (1/GPa) = 0.03542060
#
# Stress axis : x y z
#
# Youngs Moduli (GPa) = 43.57849 89.19585 86.86325
#
# Poissons Ratio (x) = -0.17681 0.32235
# Poissons Ratio (y) = -0.08638 0.29502
# Poissons Ratio (z) = 0.16172 0.30294
#
# Static dielectric constant tensor:
#      x y z
#    x 3.962310 0.000000 -0.085390 
#    y 0.000000 3.906040 0.000000 
#    z -0.085390 0.000000 4.117440 
# 
# 
# High freq. dielectric constant tensor:
#      x y z
#    x 1.859440 0.000000 -0.012230 
#    y 0.000000 1.854310 0.000000 
#    z -0.012230 0.000000 1.862020 
# 
# From -- ./inp_files/204436.got.cif
#   From: 2010.06.25/outbox.cif.g09.slc.cpg/sg15_103_cif.got.tgz:204436.got - 2010.06.28 07:06:18.
