data_PCOD8151424
_publ_section_title
;
Structure prediction by ZEFSAII (Michael W. Deem and Ramdas Pophale) SiO2 
 PCOD8151424
Probable space group: C 2/C
;
_chemical_formula_sum "Si O2"
_cell_formula_units_Z 52
_cell_length_a 12.471043
_cell_length_b 14.803368
_cell_length_c 12.874130
_cell_angle_alpha 90.000000
_cell_angle_beta 110.465196
_cell_angle_gamma 90.000000
_cell_volume 2226.729031
_symmetry_space_group_name_H-M "C 2/C"
_symmetry_group_IT_number 15
_symmetry_cell_setting 'monoclinic'
loop_
_space_group_symop_operation_xyz
x,y,z
-x,y,1/2-z
-x,-y,-z
x,-y,1/2+z
1/2+x,1/2+y,z
1/2-x,1/2+y,1/2-z
1/2-x,1/2-y,-z
1/2+x,1/2-y,1/2+z
loop_
_atom_site_type_symbol
_atom_site_label
_atom_site_fract_x
_atom_site_fract_y
_atom_site_fract_z
Si Si1 0.546442 0.245980 0.157615
Si Si2 0.282689 0.335018 0.767396
Si Si3 0.030042 0.048752 0.646910
Si Si4 0.500000 0.095484 0.750000
Si Si5 0.493778 0.763384 0.076389
Si Si6 0.229977 0.508064 0.854245
Si Si7 0.849402 0.093138 0.069941
O O1 0.500000 0.204242 0.250000
O O2 0.684144 0.236151 0.203561
O O3 0.495305 0.346749 0.125037
O O4 0.496430 0.196599 0.037719
O O5 0.390005 0.279202 0.842507
O O6 0.239456 0.399206 0.846985
O O7 0.320174 0.397853 0.681965
O O8 0.164761 0.047661 0.675082
O O9 0.000000 0.012850 0.750000
O O10 0.949465 0.975825 0.559551
O O11 0.538254 0.154637 0.860739
O O12 0.609796 0.034370 0.760412
O O13 0.389428 0.691120 0.042208
O O14 0.238338 0.550936 0.973550
#
# Coordination Sequence:
#
# PCOD8151424 Si02
#       7
#     8   8   8   4   8   8   8
#     4  11  27  44  68 101 148 188 233 292 362 426
#     4  12  25  46  72 105 144 186 240 299 353 427
#     4  11  20  41  69 102 132 174 233 297 346 401
#     4  12  28  44  68 108 144 188 232 290 370 440
#     4  12  23  45  75 104 139 185 247 295 353 420
#     4  12  25  43  69 101 146 183 233 292 361 422
#     4  12  22  43  75 108 132 184 248 308 344 411
#
# _framework density 23.352639
#
# number of rings (size 3 to 8) (size 9 to 14) (size 15 to 20)
#    0.000    0.308    6.154    3.231    1.077    1.846 
#    2.769    1.538    0.000    0.000    0.000    0.000 
#    0.000    0.000    0.000    0.000    0.000    0.000 
#
# Total GULP energy -322167.436691 kJ/mol
# GULP energy per Si atom -12391.055257 kJ/mol
# Density = 2.329949 g / cm^3
# Si number density = 23.352639 Si / 1000 Ang^3
#
#
#
# Elastic Constant Matrix: (Units=GPa)
#
#
# Indices 1 2 3 4 5 6 
#
# 1 108.4824 25.0092 39.4013 0.0000 8.9208 0.0000
# 2 25.0092 47.9068 -0.1274 0.0000 7.7125 0.0000
# 3 39.4013 -0.1274 105.7084 0.0000 -5.9217 0.0000
# 4 0.0000 0.0000 0.0000 21.1812 0.0000 5.1565
# 5 8.9208 7.7125 -5.9217 0.0000 36.8488 0.0000
# 6 0.0000 0.0000 0.0000 5.1565 0.0000 30.3520
#
#
#
# Elastic Compliance Matrix: (Units=1/GPa)
#
#
# Indices 1 2 3 4 5 6 
#
# 1 0.012616 -0.006190 -0.004852 0.000000 -0.002538 0.000000
# 2 -0.006190 0.024645 0.002151 0.000000 -0.003314 0.000000
# 3 -0.004852 0.002151 0.011414 0.000000 0.002559 0.000000
# 4 0.000000 0.000000 0.000000 0.049249 0.000000 -0.008367
# 5 -0.002538 -0.003314 0.002559 0.000000 0.028857 0.000000
# 6 0.000000 0.000000 0.000000 -0.008367 0.000000 0.034368
#
#
# Mechanical properties :
#
#
# Convention : Reuss Voigt Hill
#
# Bulk Modulus (GPa) = 32.36965 43.40711 37.88838
# Shear Modulus (GPa) = 26.42294 30.86403 28.64348
#
# Velocity S-wave (km/s) = 3.36739 3.63940 3.50603
# Velocity P-wave (km/s) = 5.38613 6.02398 5.71396
#
# Compressibility (1/GPa) = 0.03089313
#
# Stress axis : x y z
#
# Youngs Moduli (GPa) = 79.26263 40.57666 87.60788
#
# Poissons Ratio (x) = 0.25119 0.42509
# Poissons Ratio (y) = 0.49067 -0.18848
# Poissons Ratio (z) = 0.38460 -0.08730
#
# Static dielectric constant tensor:
#      x y z
#    x 4.123410 0.000000 -0.196100 
#    y 0.000000 4.124080 0.000000 
#    z -0.196100 0.000000 4.479200 
# 
# 
# High freq. dielectric constant tensor:
#      x y z
#    x 1.917060 0.000000 -0.003710 
#    y 0.000000 1.912350 0.000000 
#    z -0.003710 0.000000 1.934090 
# 
# From -- ./inp_files/144325.got.cif
#   From: 2010.06.25/outbox.cif.g09.slc.cpg/sg15_73_cif.got.tgz:144325.got - 2010.06.28 07:06:18.
