data_PCOD8151706
_publ_section_title
;
Structure prediction by ZEFSAII (Michael W. Deem and Ramdas Pophale) SiO2 
 PCOD8151706
Probable space group: C 2/C
;
_chemical_formula_sum "Si O2"
_cell_formula_units_Z 52
_cell_length_a 23.614129
_cell_length_b 8.781765
_cell_length_c 21.101511
_cell_angle_alpha 90.000000
_cell_angle_beta 147.924726
_cell_angle_gamma 90.000000
_cell_volume 2323.746616
_symmetry_space_group_name_H-M "C 2/C"
_symmetry_group_IT_number 15
_symmetry_cell_setting 'monoclinic'
loop_
_space_group_symop_operation_xyz
x,y,z
-x,y,1/2-z
-x,-y,-z
x,-y,1/2+z
1/2+x,1/2+y,z
1/2-x,1/2+y,1/2-z
1/2-x,1/2-y,-z
1/2+x,1/2-y,1/2+z
loop_
_atom_site_type_symbol
_atom_site_label
_atom_site_fract_x
_atom_site_fract_y
_atom_site_fract_z
Si Si1 0.147434 0.461023 0.285047
Si Si2 0.918453 0.661541 0.913105
Si Si3 0.068801 0.048089 0.141784
Si Si4 0.373780 0.210703 0.325214
Si Si5 0.294624 0.919995 0.864687
Si Si6 0.500000 0.832372 0.250000
Si Si7 0.124984 0.178680 0.471210
O O1 0.110248 0.371255 0.187569
O O2 0.152057 0.640103 0.268688
O O3 0.262307 0.407277 0.419900
O O4 0.059510 0.439742 0.256018
O O5 0.929390 0.847058 0.920158
O O6 0.829672 0.593391 0.878109
O O7 0.035092 0.605432 0.051412
O O8 0.177845 0.074682 0.286231
O O9 0.965287 0.068443 0.086493
O O10 0.077573 0.875364 0.128732
O O11 0.277509 0.184827 0.284069
O O12 0.374784 0.836313 0.988457
O O13 0.589809 0.724448 0.367131
#
# Coordination Sequence:
#
# PCOD8151706 Si02
#       7
#     8   8   8   8   8   4   8
#     4  11  24  44  66  96 127 175 222 277 327 390
#     4  11  21  39  61  95 133 173 215 257 326 394
#     4  12  24  38  61  97 137 174 207 263 327 393
#     4  11  24  39  62  97 140 173 212 262 330 407
#     4  11  22  39  62  96 137 170 214 266 328 398
#     4  12  22  46  74  92 120 176 232 290 322 376
#     4  12  24  42  68  99 129 172 233 270 331 394
#
# _framework density 22.377656000000002
#
# number of rings (size 3 to 8) (size 9 to 14) (size 15 to 20)
#    0.000    0.615    4.615    4.615    2.154    1.231 
#    0.000    0.769    0.000    2.769    0.000    0.000 
#    0.000    0.000    0.000    0.000    0.000    0.000 
#
# Total GULP energy -322132.685862 kJ/mol
# GULP energy per Si atom -12389.718687 kJ/mol
# Density = 2.232672 g / cm^3
# Si number density = 22.377656 Si / 1000 Ang^3
#
#
#
# Elastic Constant Matrix: (Units=GPa)
#
#
# Indices 1 2 3 4 5 6 
#
# 1 101.2797 32.9101 53.9023 0.0000 12.7352 0.0000
# 2 32.9101 104.2429 23.1135 0.0000 -7.1757 0.0000
# 3 53.9023 23.1135 123.0447 0.0000 -0.6892 0.0000
# 4 0.0000 0.0000 0.0000 21.5663 0.0000 -1.5599
# 5 12.7352 -7.1757 -0.6892 0.0000 38.3292 0.0000
# 6 0.0000 0.0000 0.0000 -1.5599 0.0000 21.0049
#
#
#
# Elastic Compliance Matrix: (Units=1/GPa)
#
#
# Indices 1 2 3 4 5 6 
#
# 1 0.014970 -0.003823 -0.005872 0.000000 -0.005795 0.000000
# 2 -0.003823 0.011118 -0.000395 0.000000 0.003344 0.000000
# 3 -0.005872 -0.000395 0.010785 0.000000 0.002071 0.000000
# 4 0.000000 0.000000 0.000000 0.046619 0.000000 0.003462
# 5 -0.005795 0.003344 0.002071 0.000000 0.028679 0.000000
# 6 0.000000 0.000000 0.000000 0.003462 0.000000 0.047865
#
#
# Mechanical properties :
#
#
# Convention : Reuss Voigt Hill
#
# Bulk Modulus (GPa) = 59.90647 60.93547 60.42097
# Shear Modulus (GPa) = 26.91353 30.75617 28.83485
#
# Velocity S-wave (km/s) = 3.47175 3.71133 3.59354
# Velocity P-wave (km/s) = 6.54977 6.75684 6.65411
#
# Compressibility (1/GPa) = 0.01669269
#
# Stress axis : x y z
#
# Youngs Moduli (GPa) = 66.80106 89.94663 92.71844
#
# Poissons Ratio (x) = 0.34386 0.54446
# Poissons Ratio (y) = 0.25538 0.03662
# Poissons Ratio (z) = 0.39227 0.03553
#
# Static dielectric constant tensor:
#      x y z
#    x 3.685240 0.000000 0.250980 
#    y 0.000000 4.315590 0.000000 
#    z 0.250980 0.000000 4.416990 
# 
# 
# High freq. dielectric constant tensor:
#      x y z
#    x 1.840840 0.000000 0.033190 
#    y 0.000000 1.888440 0.000000 
#    z 0.033190 0.000000 1.909970 
# 
# From -- ./inp_files/283314.got.cif
#   From: 2010.06.25/outbox.cif.g09.slc.cpg/sg15_142_cif.got.tgz:283314.got - 2010.06.28 07:06:18.
