data_PCOD8151637
_publ_section_title
;
Structure prediction by ZEFSAII (Michael W. Deem and Ramdas Pophale) SiO2 
 PCOD8151637
Probable space group: C 2/C
;
_chemical_formula_sum "Si O2"
_cell_formula_units_Z 48
_cell_length_a 18.348779
_cell_length_b 16.854471
_cell_length_c 14.210819
_cell_angle_alpha 90.000000
_cell_angle_beta 32.442289
_cell_angle_gamma 90.000000
_cell_volume 2357.602145
_symmetry_space_group_name_H-M "C 2/C"
_symmetry_group_IT_number 15
_symmetry_cell_setting 'monoclinic'
loop_
_space_group_symop_operation_xyz
x,y,z
-x,y,1/2-z
-x,-y,-z
x,-y,1/2+z
1/2+x,1/2+y,z
1/2-x,1/2+y,1/2-z
1/2-x,1/2-y,-z
1/2+x,1/2-y,1/2+z
loop_
_atom_site_type_symbol
_atom_site_label
_atom_site_fract_x
_atom_site_fract_y
_atom_site_fract_z
Si Si1 0.252845 0.741892 0.850177
Si Si2 0.632167 0.191794 0.661570
Si Si3 0.998984 0.065733 0.084116
Si Si4 0.337232 0.368950 0.410070
Si Si5 0.701521 0.543002 0.024898
Si Si6 0.477942 0.258072 0.535450
O O1 0.307034 0.658504 0.835533
O O2 0.364392 0.766120 0.649718
O O3 0.102211 0.737153 0.972532
O O4 0.245940 0.808395 0.936233
O O5 0.500000 0.218176 0.750000
O O6 0.750000 0.250000 0.500000
O O7 0.669248 0.100063 0.602360
O O8 0.595940 0.202728 0.809221
O O9 0.888527 0.048354 0.283609
O O10 0.965510 0.149550 0.074070
O O11 0.137808 0.068312 0.993323
O O12 0.000000 0.000000 0.000000
O O13 0.500000 0.374849 0.250000
O O14 0.261272 0.450631 0.518422
#
# Coordination Sequence:
#
# PCOD8151637 Si02
#       6
#     8   8   8   8   8   8
#     4  11  24  40  68  98 129 175 221 277 327 400
#     4  12  25  45  65  96 134 177 216 269 338 403
#     4  11  21  37  71  98 127 169 228 280 323 398
#     4  11  21  44  68  93 135 172 228 270 338 401
#     4  11  23  42  65  99 128 172 226 278 333 397
#     4  12  23  40  65  98 131 170 223 269 333 403
#
# _framework density 20.359669
#
# number of rings (size 3 to 8) (size 9 to 14) (size 15 to 20)
#    0.000    0.667    5.000    5.000    0.000    0.000 
#    3.000    0.833    0.000    0.000    0.000    0.000 
#    0.000    0.000    0.000    0.000    0.000    0.000 
#
# Total GULP energy -297499.517325 kJ/mol
# GULP energy per Si atom -12395.813222 kJ/mol
# Density = 2.031333 g / cm^3
# Si number density = 20.359669 Si / 1000 Ang^3
#
#
#
# Elastic Constant Matrix: (Units=GPa)
#
#
# Indices 1 2 3 4 5 6 
#
# 1 102.2823 36.3789 23.1111 0.0000 -2.0904 0.0000
# 2 36.3789 127.7674 28.0785 -0.0001 -5.8275 0.0000
# 3 23.1111 28.0785 76.4940 -0.0003 1.2114 0.0001
# 4 0.0000 -0.0001 -0.0003 32.1731 0.0001 -5.4132
# 5 -2.0904 -5.8275 1.2114 0.0001 35.0825 0.0000
# 6 0.0000 0.0000 0.0001 -5.4132 0.0000 23.9840
#
#
#
# Elastic Compliance Matrix: (Units=1/GPa)
#
#
# Indices 1 2 3 4 5 6 
#
# 1 0.011281 -0.002662 -0.002436 0.000000 0.000314 0.000000
# 2 -0.002662 0.009224 -0.002605 0.000000 0.001463 0.000000
# 3 -0.002436 -0.002605 0.014782 0.000000 -0.001088 0.000000
# 4 0.000000 0.000000 0.000000 0.032309 0.000000 0.007292
# 5 0.000314 0.001463 -0.001088 0.000000 0.028804 0.000000
# 6 0.000000 0.000000 0.000000 0.007292 0.000000 0.043340
#
#
# Mechanical properties :
#
#
# Convention : Reuss Voigt Hill
#
# Bulk Modulus (GPa) = 50.29921 53.52010 51.90965
# Shear Modulus (GPa) = 30.90766 32.84624 31.87695
#
# Velocity S-wave (km/s) = 3.90048 4.02095 3.96117
# Velocity P-wave (km/s) = 6.71148 6.92111 6.81710
#
# Compressibility (1/GPa) = 0.01988103
#
# Stress axis : x y z
#
# Youngs Moduli (GPa) = 88.64795 108.41415 67.64893
#
# Poissons Ratio (x) = 0.28862 0.16479
# Poissons Ratio (y) = 0.23600 0.17620
# Poissons Ratio (z) = 0.21594 0.28238
#
# Static dielectric constant tensor:
#      x y z
#    x 3.905270 0.000000 0.166900 
#    y 0.000000 3.818120 0.000000 
#    z 0.166900 0.000000 3.705810 
# 
# 
# High freq. dielectric constant tensor:
#      x y z
#    x 1.804780 0.000000 0.015780 
#    y 0.000000 1.796080 0.000000 
#    z 0.015780 0.000000 1.792110 
# 
# From -- ./inp_files/163197.got.cif
#   From: 2010.06.25/outbox.cif.g09.slc.cpg/sg15_82_cif.got.tgz:163197.got - 2010.06.28 07:06:18.
