data_PCOD8151269
_publ_section_title
;
Structure prediction by ZEFSAII (Michael W. Deem and Ramdas Pophale) SiO2 
 PCOD8151269
Probable space group: C 2/C
;
_chemical_formula_sum "Si O2"
_cell_formula_units_Z 64
_cell_length_a 11.670339
_cell_length_b 15.750637
_cell_length_c 27.172325
_cell_angle_alpha 90.000000
_cell_angle_beta 41.737721
_cell_angle_gamma 90.000000
_cell_volume 3325.072735
_symmetry_space_group_name_H-M "C 2/C"
_symmetry_group_IT_number 15
_symmetry_cell_setting 'monoclinic'
loop_
_space_group_symop_operation_xyz
x,y,z
-x,y,1/2-z
-x,-y,-z
x,-y,1/2+z
1/2+x,1/2+y,z
1/2-x,1/2+y,1/2-z
1/2-x,1/2-y,-z
1/2+x,1/2-y,1/2+z
loop_
_atom_site_type_symbol
_atom_site_label
_atom_site_fract_x
_atom_site_fract_y
_atom_site_fract_z
Si Si1 0.143444 0.024561 0.061755
Si Si2 0.053668 0.879726 0.431754
Si Si3 0.110102 0.134004 0.410551
Si Si4 0.128995 0.489843 0.166142
Si Si5 0.932717 0.275848 0.920000
Si Si6 0.358538 0.724438 0.836628
Si Si7 0.986228 0.470568 0.903772
Si Si8 0.162393 0.029288 0.663295
O O1 0.141724 0.027492 0.121255
O O2 0.036712 0.943720 0.077139
O O3 0.338496 0.021397 0.980129
O O4 0.053808 0.111481 0.070996
O O5 0.242932 0.911400 0.385646
O O6 0.934522 0.877659 0.517911
O O7 0.071230 0.787423 0.400796
O O8 0.179410 0.229153 0.378505
O O9 0.266378 0.070931 0.348038
O O10 0.025605 0.512707 0.150334
O O11 0.000000 0.460694 0.250000
O O12 0.936098 0.267222 0.860370
O O13 0.976090 0.371531 0.920713
O O14 0.750000 0.250000 0.000000
O O15 0.500000 0.737415 0.750000
O O16 0.317894 0.626665 0.859336
O O17 0.169628 0.504275 0.860988
O O18 0.000000 0.013487 0.750000
#
# Coordination Sequence:
#
# PCOD8151269 Si02
#       8
#     8   8   8   8   8   8   8   8
#     4  11  20  39  61  88 122 158 198 252 303 361
#     4  11  20  38  63  94 122 153 206 258 303 357
#     4  11  20  37  66  94 120 151 210 264 298 353
#     4  11  22  35  62  95 124 155 201 262 314 350
#     4  12  20  36  66  89 119 157 213 248 293 364
#     4  11  22  38  59  93 122 160 212 255 297 357
#     4  12  23  40  62  92 119 163 207 247 303 376
#     4  11  27  42  59  86 128 168 200 246 315 372
#
# _framework density 19.247699000000001
#
# number of rings (size 3 to 8) (size 9 to 14) (size 15 to 20)
#    0.000    0.750    7.500    1.500    3.500    0.000 
#    0.000    2.500    0.000    0.000    0.000    0.000 
#    0.000    0.000    0.000    0.000    0.000    0.000 
#
# Total GULP energy -396934.931337 kJ/mol
# GULP energy per Si atom -12404.216604 kJ/mol
# Density = 1.920389 g / cm^3
# Si number density = 19.247699 Si / 1000 Ang^3
#
#
#
# Elastic Constant Matrix: (Units=GPa)
#
#
# Indices 1 2 3 4 5 6 
#
# 1 103.0792 27.6926 35.6540 0.0000 -7.3677 -0.0002
# 2 27.6926 53.6894 23.4277 0.0002 -7.2074 0.0000
# 3 35.6540 23.4277 95.8426 -0.0003 0.9183 -0.0002
# 4 0.0000 0.0002 -0.0003 -13.9376 0.0000 -10.7981
# 5 -7.3677 -7.2074 0.9183 0.0000 30.7691 0.0002
# 6 -0.0002 0.0000 -0.0002 -10.7981 0.0002 33.3461
#
#
#
# Elastic Compliance Matrix: (Units=1/GPa)
#
#
# Indices 1 2 3 4 5 6 
#
# 1 0.012264 -0.004546 -0.003470 0.000000 0.001975 0.000000
# 2 -0.004546 0.023346 -0.004058 0.000000 0.004501 0.000000
# 3 -0.003470 -0.004058 0.012737 0.000000 -0.002162 0.000000
# 4 0.000000 0.000000 0.000000 -0.057359 0.000000 -0.018574
# 5 0.001975 0.004501 -0.002162 0.000000 0.034092 0.000000
# 6 0.000000 0.000000 0.000000 -0.018574 0.000000 0.023974
#
#
# Mechanical properties :
#
#
# Convention : Reuss Voigt Hill
#
# Bulk Modulus (GPa) = 41.32634 47.35108 44.33871
# Shear Modulus (GPa) = 61.52318 21.09130 41.30724
#
# Velocity S-wave (km/s) = 5.65980 3.31385 4.63761
# Velocity P-wave (km/s) = 8.01427 6.26869 7.19461
#
# Compressibility (1/GPa) = 0.02419764
#
# Stress axis : x y z
#
# Youngs Moduli (GPa) = 81.53889 42.83423 78.50923
#
# Poissons Ratio (x) = 0.19474 0.27242
# Poissons Ratio (y) = 0.37071 0.31863
# Poissons Ratio (z) = 0.28293 0.17384
#
# Static dielectric constant tensor:
#      x y z
#    x 3.561780 0.000000 0.029380 
#    y 0.000000 3.979680 0.000000 
#    z 0.029380 0.000000 3.518090 
# 
# 
# High freq. dielectric constant tensor:
#      x y z
#    x 1.742930 0.000000 0.008790 
#    y 0.000000 1.738500 0.000000 
#    z 0.008790 0.000000 1.755000 
# 
# From -- ./inp_files/293036.got.cif
#   From: 2010.06.25/outbox.cif.g09.slc.cpg/sg15_147_cif.got.tgz:293036.got - 2010.06.28 07:06:18.
