data_PCOD8151280
_publ_section_title
;
Structure prediction by ZEFSAII (Michael W. Deem and Ramdas Pophale) SiO2 
 PCOD8151280
Probable space group: C 2/C
;
_chemical_formula_sum "Si O2"
_cell_formula_units_Z 56
_cell_length_a 22.589472
_cell_length_b 8.646488
_cell_length_c 13.777594
_cell_angle_alpha 90.000000
_cell_angle_beta 115.762378
_cell_angle_gamma 90.000000
_cell_volume 2423.557076
_symmetry_space_group_name_H-M "C 2/C"
_symmetry_group_IT_number 15
_symmetry_cell_setting 'monoclinic'
loop_
_space_group_symop_operation_xyz
x,y,z
-x,y,1/2-z
-x,-y,-z
x,-y,1/2+z
1/2+x,1/2+y,z
1/2-x,1/2+y,1/2-z
1/2-x,1/2-y,-z
1/2+x,1/2-y,1/2+z
loop_
_atom_site_type_symbol
_atom_site_label
_atom_site_fract_x
_atom_site_fract_y
_atom_site_fract_z
Si Si1 0.065413 0.948340 0.733522
Si Si2 0.743214 0.075263 0.959190
Si Si3 0.719738 0.871117 0.122840
Si Si4 0.935952 0.252336 0.898638
Si Si5 0.383785 0.437916 0.527565
Si Si6 0.687537 0.086864 0.259041
Si Si7 0.923199 0.769484 0.951439
O O1 0.119930 0.925387 0.857010
O O2 0.072117 0.812547 0.659094
O O3 0.000000 0.932483 0.750000
O O4 0.070643 0.111160 0.682073
O O5 0.684176 0.044082 0.841374
O O6 0.750000 0.250000 0.000000
O O7 0.808436 0.036561 0.943037
O O8 0.734991 0.940188 0.030138
O O9 0.773531 0.740545 0.182345
O O10 0.643436 0.820630 0.074537
O O11 0.729453 0.014613 0.201680
O O12 0.888315 0.385242 0.824055
O O13 0.911486 0.210812 0.990320
O O14 0.010308 0.318424 0.964963
O O15 0.427924 0.578937 0.522433
#
# Coordination Sequence:
#
# PCOD8151280 Si02
#       7
#     8   8   8   8   8   8   8
#     4  11  20  37  70 103 143 192 240 291 361 439
#     4  12  27  47  75 105 141 190 246 307 369 445
#     4  12  27  48  71 105 148 187 244 303 370 443
#     4  11  23  41  66 105 146 188 249 307 366 440
#     4  11  21  41  69 105 142 187 252 299 357 448
#     4  12  27  46  70 104 142 194 237 305 372 439
#     4  11  24  41  67 109 147 191 241 307 370 442
#
# _framework density 23.106531
#
# number of rings (size 3 to 8) (size 9 to 14) (size 15 to 20)
#    0.000    0.571    4.286    4.714    8.000    0.571 
#    0.000    0.000    0.000    0.857    0.000    0.000 
#    0.000    0.000    0.000    0.000    0.000    0.000 
#
# Total GULP energy -346980.165054 kJ/mol
# GULP energy per Si atom -12392.148752 kJ/mol
# Density = 2.305394 g / cm^3
# Si number density = 23.106531 Si / 1000 Ang^3
#
#
#
# Elastic Constant Matrix: (Units=GPa)
#
#
# Indices 1 2 3 4 5 6 
#
# 1 108.2598 28.5266 39.8666 0.0000 5.2137 0.0000
# 2 28.5266 64.4844 25.0335 0.0000 12.4028 0.0000
# 3 39.8666 25.0335 115.5909 0.0000 18.4015 0.0000
# 4 0.0000 0.0000 0.0000 35.5081 0.0000 -3.9367
# 5 5.2137 12.4028 18.4015 0.0000 26.8703 0.0000
# 6 0.0000 0.0000 0.0000 -3.9367 0.0000 28.9876
#
#
#
# Elastic Compliance Matrix: (Units=1/GPa)
#
#
# Indices 1 2 3 4 5 6 
#
# 1 0.011479 -0.004152 -0.003379 0.000000 0.002003 0.000000
# 2 -0.004152 0.019326 -0.001641 0.000000 -0.006991 0.000000
# 3 -0.003379 -0.001641 0.011164 0.000000 -0.006233 0.000000
# 4 0.000000 0.000000 0.000000 0.028593 0.000000 0.003883
# 5 0.002003 -0.006991 -0.006233 0.000000 0.044323 0.000000
# 6 0.000000 0.000000 0.000000 0.003883 0.000000 0.035025
#
#
# Mechanical properties :
#
#
# Convention : Reuss Voigt Hill
#
# Bulk Modulus (GPa) = 42.32462 52.79874 47.56168
# Shear Modulus (GPa) = 28.38875 31.26710 29.82793
#
# Velocity S-wave (km/s) = 3.50895 3.68254 3.59679
# Velocity P-wave (km/s) = 5.89694 6.40166 6.15447
#
# Compressibility (1/GPa) = 0.02362691
#
# Stress axis : x y z
#
# Youngs Moduli (GPa) = 87.11768 51.74442 89.57381
#
# Poissons Ratio (x) = 0.21482 0.30264
# Poissons Ratio (y) = 0.36167 0.14695
# Poissons Ratio (z) = 0.29434 0.08489
#
# Static dielectric constant tensor:
#      x y z
#    x 4.262840 0.000000 0.041650 
#    y 0.000000 3.936230 0.000000 
#    z 0.041650 0.000000 4.991680 
# 
# 
# High freq. dielectric constant tensor:
#      x y z
#    x 1.923360 0.000000 0.002430 
#    y 0.000000 1.889860 0.000000 
#    z 0.002430 0.000000 1.933960 
# 
# From -- ./inp_files/172486.got.cif
#   From: 2010.06.25/outbox.cif.g09.slc.cpg/sg15_87_cif.got.tgz:172486.got - 2010.06.28 07:06:18.
