data_PCOD8151071
_publ_section_title
;
Structure prediction by ZEFSAII (Michael W. Deem and Ramdas Pophale) SiO2 
 PCOD8151071
Probable space group: C 2/C
;
_chemical_formula_sum "Si O2"
_cell_formula_units_Z 32
_cell_length_a 7.471211
_cell_length_b 13.704899
_cell_length_c 19.198711
_cell_angle_alpha 90.000000
_cell_angle_beta 64.622176
_cell_angle_gamma 90.000000
_cell_volume 1776.101030
_symmetry_space_group_name_H-M "C 2/C"
_symmetry_group_IT_number 15
_symmetry_cell_setting 'monoclinic'
loop_
_space_group_symop_operation_xyz
x,y,z
-x,y,1/2-z
-x,-y,-z
x,-y,1/2+z
1/2+x,1/2+y,z
1/2-x,1/2+y,1/2-z
1/2-x,1/2-y,-z
1/2+x,1/2-y,1/2+z
loop_
_atom_site_type_symbol
_atom_site_label
_atom_site_fract_x
_atom_site_fract_y
_atom_site_fract_z
Si Si1 0.616874 0.639596 0.088376
Si Si2 0.144153 0.021767 0.824231
Si Si3 0.773118 0.481847 0.151387
Si Si4 0.347851 0.138940 0.910303
O O1 0.405678 0.583036 0.130993
O O2 0.779563 0.587589 0.111792
O O3 0.590741 0.750506 0.117144
O O4 0.682352 0.634103 0.997331
O O5 0.278257 0.002763 0.733810
O O6 0.261257 0.092684 0.855126
O O7 0.932862 0.070823 0.837659
O O8 0.958109 0.417994 0.096027
#
# Coordination Sequence:
#
# PCOD8151071 Si02
#       4
#     8   8   8   8
#     4   9  21  37  54  85 110 133 187 226 254 327
#     4   9  20  36  53  80 111 139 180 225 261 318
#     4   9  20  36  53  80 111 139 180 225 261 318
#     4  11  19  37  60  77 108 151 171 218 284 309
#
# _framework density 18.016992999999999
#
# number of rings (size 3 to 8) (size 9 to 14) (size 15 to 20)
#    1.500    1.000    0.000    2.250    0.000    4.000 
#    4.500    2.500    0.000    0.000    0.000    0.000 
#    0.000    0.000    0.000    0.000    0.000    0.000 
#
# Total GULP energy -198261.580722 kJ/mol
# GULP energy per Si atom -12391.348795 kJ/mol
# Density = 1.797599 g / cm^3
# Si number density = 18.016993 Si / 1000 Ang^3
#
#
#
# Elastic Constant Matrix: (Units=GPa)
#
#
# Indices 1 2 3 4 5 6 
#
# 1 42.8810 20.3537 2.4218 0.0000 7.2297 0.0000
# 2 20.3537 108.1237 21.9799 0.0000 2.3552 0.0000
# 3 2.4218 21.9799 63.3856 0.0000 13.6486 0.0000
# 4 0.0000 0.0000 0.0000 13.1877 0.0000 6.2041
# 5 7.2297 2.3552 13.6486 0.0000 28.6512 0.0000
# 6 0.0000 0.0000 0.0000 6.2041 0.0000 27.7859
#
#
#
# Elastic Compliance Matrix: (Units=1/GPa)
#
#
# Indices 1 2 3 4 5 6 
#
# 1 0.027030 -0.005427 0.002476 0.000000 -0.007554 0.000000
# 2 -0.005427 0.011061 -0.004154 0.000000 0.002439 0.000000
# 3 0.002476 -0.004154 0.019147 0.000000 -0.009404 0.000000
# 4 0.000000 0.000000 0.000000 0.084728 0.000000 -0.018918
# 5 -0.007554 0.002439 -0.009404 0.000000 0.041088 0.000000
# 6 0.000000 0.000000 0.000000 -0.018918 0.000000 0.040214
#
#
# Mechanical properties :
#
#
# Convention : Reuss Voigt Hill
#
# Bulk Modulus (GPa) = 23.24007 33.76678 28.50343
# Shear Modulus (GPa) = 19.85535 25.23396 22.54465
#
# Velocity S-wave (km/s) = 3.32329 3.74647 3.54121
# Velocity P-wave (km/s) = 5.25858 6.12348 5.70744
#
# Compressibility (1/GPa) = 0.04302913
#
# Stress axis : x y z
#
# Youngs Moduli (GPa) = 36.99579 90.40367 52.22699
#
# Poissons Ratio (x) = 0.49062 -0.12930
# Poissons Ratio (y) = 0.20078 0.21693
# Poissons Ratio (z) = -0.09159 0.37549
#
# Static dielectric constant tensor:
#      x y z
#    x 3.089300 0.000000 -0.043470 
#    y 0.000000 3.197070 0.000000 
#    z -0.043470 0.000000 3.359960 
# 
# 
# High freq. dielectric constant tensor:
#      x y z
#    x 1.678740 0.000000 0.002250 
#    y 0.000000 1.679310 0.000000 
#    z 0.002250 0.000000 1.712890 
# 
# From -- ./inp_files/187391.got.cif
#   From: 2010.06.25/outbox.cif.g09.slc.cpg/sg15_94_cif.got.tgz:187391.got - 2010.06.28 07:06:18.
