data_PCOD8151494
_publ_section_title
;
Structure prediction by ZEFSAII (Michael W. Deem and Ramdas Pophale) SiO2 
 PCOD8151494
Probable space group: C 2/C
;
_chemical_formula_sum "Si O2"
_cell_formula_units_Z 56
_cell_length_a 9.919877
_cell_length_b 16.183839
_cell_length_c 17.527915
_cell_angle_alpha 90.000000
_cell_angle_beta 66.653344
_cell_angle_gamma 90.000000
_cell_volume 2583.565209
_symmetry_space_group_name_H-M "C 2/C"
_symmetry_group_IT_number 15
_symmetry_cell_setting 'monoclinic'
loop_
_space_group_symop_operation_xyz
x,y,z
-x,y,1/2-z
-x,-y,-z
x,-y,1/2+z
1/2+x,1/2+y,z
1/2-x,1/2+y,1/2-z
1/2-x,1/2-y,-z
1/2+x,1/2-y,1/2+z
loop_
_atom_site_type_symbol
_atom_site_label
_atom_site_fract_x
_atom_site_fract_y
_atom_site_fract_z
Si Si1 0.637593 0.137713 0.814884
Si Si2 0.695266 0.187081 0.637601
Si Si3 0.644164 0.151179 0.420142
Si Si4 0.865028 0.452984 0.722845
Si Si5 0.144011 0.262659 0.453677
Si Si6 0.636246 0.420020 0.899026
Si Si7 0.188186 0.056308 0.997297
O O1 0.721216 0.170187 0.721217
O O2 0.468302 0.165374 0.851360
O O3 0.712260 0.176336 0.873842
O O4 0.649803 0.039492 0.817272
O O5 0.722363 0.283345 0.613966
O O6 0.809670 0.130202 0.565462
O O7 0.604957 0.117713 0.345610
O O8 0.506466 0.198960 0.483865
O O9 0.692435 0.075278 0.463863
O O10 0.715235 0.433035 0.800663
O O11 0.000000 0.456014 0.750000
O O12 0.250000 0.250000 0.500000
O O13 0.121353 0.175605 0.419151
O O14 0.725698 0.470220 0.945190
O O15 0.471602 0.455277 0.929170
#
# Coordination Sequence:
#
# PCOD8151494 Si02
#       7
#     8   8   8   8   8   8   8
#     4  11  23  42  74  97 138 188 237 285 350 423
#     4  11  20  44  71 103 129 179 241 287 340 422
#     4  12  26  41  75 102 141 182 240 291 363 425
#     4  12  25  46  67 103 143 189 236 293 351 430
#     4  12  26  43  68 107 142 186 233 293 355 429
#     4  11  24  44  68 101 144 179 231 297 354 411
#     4  11  22  43  73 100 139 182 232 292 355 429
#
# _framework density 21.675474000000001
#
# number of rings (size 3 to 8) (size 9 to 14) (size 15 to 20)
#    0.000    0.571    5.714    3.000    2.000    2.286 
#    0.000    0.000    3.143    0.000    0.000    0.000 
#    0.000    0.000    0.000    0.000    0.000    0.000 
#
# Total GULP energy -347295.460042 kJ/mol
# GULP energy per Si atom -12403.409287 kJ/mol
# Density = 2.162614 g / cm^3
# Si number density = 21.675474 Si / 1000 Ang^3
#
#
#
# Elastic Constant Matrix: (Units=GPa)
#
#
# Indices 1 2 3 4 5 6 
#
# 1 71.6696 30.5539 39.5498 0.0000 9.4070 0.0000
# 2 30.5539 127.4539 60.4542 0.0000 8.0527 0.0000
# 3 39.5498 60.4542 136.2371 0.0000 13.4990 0.0000
# 4 0.0000 0.0000 0.0000 44.9426 0.0000 4.5420
# 5 9.4070 8.0527 13.4990 0.0000 27.9499 0.0000
# 6 0.0000 0.0000 0.0000 4.5420 0.0000 31.6085
#
#
#
# Elastic Compliance Matrix: (Units=1/GPa)
#
#
# Indices 1 2 3 4 5 6 
#
# 1 0.017397 -0.002178 -0.003745 0.000000 -0.003419 0.000000
# 2 -0.002178 0.010226 -0.003871 0.000000 -0.000343 0.000000
# 3 -0.003745 -0.003871 0.010408 0.000000 -0.002651 0.000000
# 4 0.000000 0.000000 0.000000 0.022578 0.000000 -0.003244
# 5 -0.003419 -0.000343 -0.002651 0.000000 0.038308 0.000000
# 6 0.000000 0.000000 0.000000 -0.003244 0.000000 0.032103
#
#
# Mechanical properties :
#
#
# Convention : Reuss Voigt Hill
#
# Bulk Modulus (GPa) = 54.22482 66.27515 60.24999
# Shear Modulus (GPa) = 31.89642 34.55371 33.22506
#
# Velocity S-wave (km/s) = 3.84023 3.99700 3.91940
# Velocity P-wave (km/s) = 6.68836 7.20720 6.95262
#
# Compressibility (1/GPa) = 0.01844174
#
# Stress axis : x y z
#
# Youngs Moduli (GPa) = 57.48158 97.78878 96.08066
#
# Poissons Ratio (x) = 0.21299 0.35983
# Poissons Ratio (y) = 0.12520 0.37197
# Poissons Ratio (z) = 0.21527 0.37858
#
# Static dielectric constant tensor:
#      x y z
#    x 3.736540 0.000000 0.058260 
#    y 0.000000 4.209210 0.000000 
#    z 0.058260 0.000000 4.349180 
# 
# 
# High freq. dielectric constant tensor:
#      x y z
#    x 1.823110 0.000000 -0.003320 
#    y 0.000000 1.863590 0.000000 
#    z -0.003320 0.000000 1.872950 
# 
# From -- ./inp_files/190889.got.cif
#   From: 2010.06.25/outbox.cif.g09.slc.cpg/sg15_96_cif.got.tgz:190889.got - 2010.06.28 07:06:18.
