data_PCOD8151281
_publ_section_title
;
Structure prediction by ZEFSAII (Michael W. Deem and Ramdas Pophale) SiO2 
 PCOD8151281
Probable space group: C 2/C
;
_chemical_formula_sum "Si O2"
_cell_formula_units_Z 64
_cell_length_a 27.510434
_cell_length_b 13.828591
_cell_length_c 9.059416
_cell_angle_alpha 90.000000
_cell_angle_beta 99.404970
_cell_angle_gamma 90.000000
_cell_volume 3400.150924
_symmetry_space_group_name_H-M "C 2/C"
_symmetry_group_IT_number 15
_symmetry_cell_setting 'monoclinic'
loop_
_space_group_symop_operation_xyz
x,y,z
-x,y,1/2-z
-x,-y,-z
x,-y,1/2+z
1/2+x,1/2+y,z
1/2-x,1/2+y,1/2-z
1/2-x,1/2-y,-z
1/2+x,1/2-y,1/2+z
loop_
_atom_site_type_symbol
_atom_site_label
_atom_site_fract_x
_atom_site_fract_y
_atom_site_fract_z
Si Si1 0.949646 0.106027 0.651593
Si Si2 0.695447 0.624891 0.630502
Si Si3 0.948880 0.096450 0.298420
Si Si4 0.807369 0.412018 0.565370
Si Si5 0.648373 0.700119 0.336613
Si Si6 0.806530 0.605796 0.720325
Si Si7 0.700150 0.403808 0.633218
Si Si8 0.353408 0.713299 0.622543
O O1 0.954993 0.089615 0.478468
O O2 0.910523 0.188798 0.674422
O O3 0.000000 0.142871 0.750000
O O4 0.933408 0.006934 0.723356
O O5 0.659669 0.693299 0.516362
O O6 0.753584 0.640461 0.632072
O O7 0.682713 0.512592 0.595646
O O8 0.683240 0.654538 0.790298
O O9 0.907174 0.172286 0.231894
O O10 0.000000 0.131043 0.250000
O O11 0.826392 0.512781 0.641310
O O12 0.800637 0.423723 0.387673
O O13 0.755759 0.382923 0.614746
O O14 0.846317 0.328640 0.626408
O O15 0.654408 0.809645 0.283826
O O16 0.690579 0.625072 0.298425
O O17 0.662246 0.327118 0.544096
#
# Coordination Sequence:
#
# PCOD8151281 Si02
#       8
#     8   8   8   8   8   8   8   8
#     4  11  23  38  60  87 117 149 189 235 291 352
#     4  11  24  33  59  89 120 153 194 234 284 355
#     4  11  23  39  59  86 118 152 184 239 292 347
#     4  11  24  39  59  81 119 155 199 242 285 333
#     4  12  24  38  60  83 121 155 198 236 287 347
#     4  11  24  41  55  85 117 156 199 244 282 332
#     4  11  20  38  56  85 119 157 186 236 285 346
#     4  12  22  39  60  83 116 160 192 235 292 341
#
# _framework density 18.822693999999998
#
# number of rings (size 3 to 8) (size 9 to 14) (size 15 to 20)
#    0.000    0.750    3.750    5.250   10.500    0.000 
#    0.000    0.000    0.000    0.750    0.000    3.500 
#    0.000    0.000    0.000    0.000    0.000    0.000 
#
# Total GULP energy -396836.715216 kJ/mol
# GULP energy per Si atom -12401.147350 kJ/mol
# Density = 1.877985 g / cm^3
# Si number density = 18.822694 Si / 1000 Ang^3
#
#
#
# Elastic Constant Matrix: (Units=GPa)
#
#
# Indices 1 2 3 4 5 6 
#
# 1 89.6035 64.4173 37.9274 0.0000 15.8301 0.0000
# 2 64.4173 110.0060 37.9055 0.0000 6.7655 0.0000
# 3 37.9274 37.9055 86.3232 0.0000 3.7863 0.0000
# 4 0.0000 0.0000 0.0000 29.1807 0.0000 2.1160
# 5 15.8301 6.7655 3.7863 0.0000 24.2327 0.0000
# 6 0.0000 0.0000 0.0000 2.1160 0.0000 33.9015
#
#
#
# Elastic Compliance Matrix: (Units=1/GPa)
#
#
# Indices 1 2 3 4 5 6 
#
# 1 0.023315 -0.011309 -0.004781 0.000000 -0.011326 0.000000
# 2 -0.011309 0.016322 -0.002339 0.000000 0.003196 0.000000
# 3 -0.004781 -0.002339 0.014647 0.000000 0.001488 0.000000
# 4 0.000000 0.000000 0.000000 0.034425 0.000000 -0.002149
# 5 -0.011326 0.003196 0.001488 0.000000 0.047541 0.000000
# 6 0.000000 0.000000 0.000000 -0.002149 0.000000 0.029631
#
#
# Mechanical properties :
#
#
# Convention : Reuss Voigt Hill
#
# Bulk Modulus (GPa) = 57.38403 62.93703 60.16053
# Shear Modulus (GPa) = 23.97541 27.17517 25.57529
#
# Velocity S-wave (km/s) = 3.57284 3.80379 3.69012
# Velocity P-wave (km/s) = 6.89732 7.26644 7.08428
#
# Compressibility (1/GPa) = 0.01742645
#
# Stress axis : x y z
#
# Youngs Moduli (GPa) = 42.89053 61.26740 68.27456
#
# Poissons Ratio (x) = 0.69286 0.32644
# Poissons Ratio (y) = 0.48504 0.15967
# Poissons Ratio (z) = 0.20507 0.14328
#
# Static dielectric constant tensor:
#      x y z
#    x 3.323450 0.000000 -0.094440 
#    y 0.000000 3.330350 0.000000 
#    z -0.094440 0.000000 3.632060 
# 
# 
# High freq. dielectric constant tensor:
#      x y z
#    x 1.709860 0.000000 -0.010040 
#    y 0.000000 1.716950 0.000000 
#    z -0.010040 0.000000 1.753590 
# 
# From -- ./inp_files/66232.got.cif
#   From: 2010.06.25/outbox.cif.g09.slc.cpg/sg15_34_cif.got.tgz:66232.got - 2010.06.28 07:06:18.
