data_PCOD8151191
_publ_section_title
;
Structure prediction by ZEFSAII (Michael W. Deem and Ramdas Pophale) SiO2 
 PCOD8151191
Probable space group: C 2/C
;
_chemical_formula_sum "Si O2"
_cell_formula_units_Z 64
_cell_length_a 21.626263
_cell_length_b 12.030126
_cell_length_c 22.982904
_cell_angle_alpha 90.000000
_cell_angle_beta 147.308985
_cell_angle_gamma 90.000000
_cell_volume 3229.516075
_symmetry_space_group_name_H-M "C 2/C"
_symmetry_group_IT_number 15
_symmetry_cell_setting 'monoclinic'
loop_
_space_group_symop_operation_xyz
x,y,z
-x,y,1/2-z
-x,-y,-z
x,-y,1/2+z
1/2+x,1/2+y,z
1/2-x,1/2+y,1/2-z
1/2-x,1/2-y,-z
1/2+x,1/2-y,1/2+z
loop_
_atom_site_type_symbol
_atom_site_label
_atom_site_fract_x
_atom_site_fract_y
_atom_site_fract_z
Si Si1 0.487294 0.681098 0.967974
Si Si2 0.313754 0.192965 0.840771
Si Si3 0.165984 0.632790 0.190823
Si Si4 0.714383 0.510533 0.314647
Si Si5 0.245050 0.373722 0.426126
Si Si6 0.526715 0.535466 0.429768
Si Si7 0.593221 0.074394 0.695628
Si Si8 0.330911 0.128788 0.505032
O O1 0.374283 0.739518 0.853443
O O2 0.529057 0.588406 0.956361
O O3 0.564127 0.793501 0.030995
O O4 0.467173 0.627697 0.015035
O O5 0.282750 0.326492 0.814493
O O6 0.329547 0.139990 0.789485
O O7 0.227865 0.120687 0.812891
O O8 0.190668 0.569025 0.150890
O O9 0.092161 0.556199 0.175992
O O10 0.585882 0.552760 0.199437
O O11 0.751316 0.537906 0.409593
O O12 0.358939 0.449848 0.517682
O O13 0.154751 0.411391 0.306062
O O14 0.283165 0.247155 0.446733
O O15 0.180465 0.390240 0.435609
O O16 0.464325 0.119303 0.594458
#
# Coordination Sequence:
#
# PCOD8151191 Si02
#       8
#     8   8   8   8   8   8   8   8
#     4  11  21  35  58  91 126 156 195 238 311 356
#     4  11  20  34  59  93 120 155 189 241 300 361
#     4  11  21  36  60  92 122 155 190 240 305 366
#     4  11  22  37  59  94 125 154 195 241 306 356
#     4  11  25  41  63  87 116 161 207 245 299 349
#     4  11  22  36  60  92 126 157 193 248 297 365
#     4  11  23  41  62  88 124 158 199 250 298 354
#     4  11  25  42  62  87 118 161 203 250 294 355
#
# _framework density 19.817211
#
# number of rings (size 3 to 8) (size 9 to 14) (size 15 to 20)
#    0.000    1.000    2.500    5.625    5.250    2.500 
#    0.000    0.000    0.000    8.250    0.000    0.000 
#    0.000    0.000    0.000    0.000    0.000    0.000 
#
# Total GULP energy -396693.395463 kJ/mol
# GULP energy per Si atom -12396.668608 kJ/mol
# Density = 1.977211 g / cm^3
# Si number density = 19.817211 Si / 1000 Ang^3
#
#
#
# Elastic Constant Matrix: (Units=GPa)
#
#
# Indices 1 2 3 4 5 6 
#
# 1 57.9565 29.6566 33.8872 0.0000 1.8000 0.0000
# 2 29.6566 92.3144 32.2413 0.0000 -4.9817 0.0000
# 3 33.8872 32.2413 104.7458 0.0001 -12.0187 0.0000
# 4 0.0000 0.0000 0.0001 39.7843 0.0001 3.9723
# 5 1.8000 -4.9817 -12.0187 0.0001 25.9591 0.0000
# 6 0.0000 0.0000 0.0000 3.9723 0.0000 27.6900
#
#
#
# Elastic Compliance Matrix: (Units=1/GPa)
#
#
# Indices 1 2 3 4 5 6 
#
# 1 0.024362 -0.005777 -0.006785 0.000000 -0.005939 0.000000
# 2 -0.005777 0.013517 -0.002057 0.000000 0.002042 0.000000
# 3 -0.006785 -0.002057 0.013079 0.000000 0.006131 0.000000
# 4 0.000000 0.000000 0.000000 0.025501 0.000000 -0.003658
# 5 -0.005939 0.002042 0.006131 0.000000 0.042164 0.000000
# 6 0.000000 0.000000 0.000000 -0.003658 0.000000 0.036639
#
#
# Mechanical properties :
#
#
# Convention : Reuss Voigt Hill
#
# Bulk Modulus (GPa) = 46.04227 49.62079 47.83153
# Shear Modulus (GPa) = 26.07688 29.30212 27.68950
#
# Velocity S-wave (km/s) = 3.63143 3.84945 3.74203
# Velocity P-wave (km/s) = 6.39273 6.69711 6.54669
#
# Compressibility (1/GPa) = 0.02171917
#
# Stress axis : x y z
#
# Youngs Moduli (GPa) = 41.04730 73.97931 76.46066
#
# Poissons Ratio (x) = 0.42741 0.51877
# Poissons Ratio (y) = 0.23715 0.15730
# Poissons Ratio (z) = 0.27850 0.15220
#
# Static dielectric constant tensor:
#      x y z
#    x 3.345080 0.000000 0.085230 
#    y 0.000000 3.647690 0.000000 
#    z 0.085230 0.000000 3.702300 
# 
# 
# High freq. dielectric constant tensor:
#      x y z
#    x 1.738450 0.000000 0.011210 
#    y 0.000000 1.777460 0.000000 
#    z 0.011210 0.000000 1.799090 
# 
# From -- ./inp_files/281970.got.cif
#   From: 2010.06.25/outbox.cif.g09.slc.cpg/sg15_141_cif.got.tgz:281970.got - 2010.06.28 07:06:18.
