data_PCOD8151712
_publ_section_title
;
Structure prediction by ZEFSAII (Michael W. Deem and Ramdas Pophale) SiO2 
 PCOD8151712
Probable space group: C 2/C
;
_chemical_formula_sum "Si O2"
_cell_formula_units_Z 48
_cell_length_a 16.943401
_cell_length_b 9.988611
_cell_length_c 23.055815
_cell_angle_alpha 90.000000
_cell_angle_beta 145.408841
_cell_angle_gamma 90.000000
_cell_volume 2215.225065
_symmetry_space_group_name_H-M "C 2/C"
_symmetry_group_IT_number 15
_symmetry_cell_setting 'monoclinic'
loop_
_space_group_symop_operation_xyz
x,y,z
-x,y,1/2-z
-x,-y,-z
x,-y,1/2+z
1/2+x,1/2+y,z
1/2-x,1/2+y,1/2-z
1/2-x,1/2-y,-z
1/2+x,1/2-y,1/2+z
loop_
_atom_site_type_symbol
_atom_site_label
_atom_site_fract_x
_atom_site_fract_y
_atom_site_fract_z
Si Si1 0.105332 0.369777 0.512630
Si Si2 0.332685 0.389007 0.916026
Si Si3 0.554101 0.253201 0.868539
Si Si4 0.547934 0.498865 0.128125
Si Si5 0.701070 0.837162 0.342546
Si Si6 0.210389 0.604641 0.644167
O O1 0.138346 0.336831 0.465536
O O2 0.149732 0.236635 0.576948
O O3 0.207036 0.489934 0.593097
O O4 0.942842 0.397548 0.420811
O O5 0.393898 0.409445 0.888616
O O6 0.219882 0.504377 0.861826
O O7 0.257789 0.244719 0.869035
O O8 0.446982 0.389731 0.036803
O O9 0.539991 0.407193 0.881294
O O10 0.398217 0.191683 0.771684
O O11 0.632074 0.237999 0.855388
O O12 0.672346 0.423390 0.236727
#
# Coordination Sequence:
#
# PCOD8151712 Si02
#       6
#     8   8   8   8   8   8
#     4  11  21  39  63  95 123 173 218 263 321 395
#     4  11  23  39  63  98 128 167 214 278 329 371
#     4  11  22  41  67  95 125 179 221 263 311 410
#     4  11  22  40  64  94 133 170 217 270 325 391
#     4  11  23  40  69  93 130 171 225 261 326 395
#     4  11  24  38  64  97 135 162 216 279 334 375
#
# _framework density 21.668227000000002
#
# number of rings (size 3 to 8) (size 9 to 14) (size 15 to 20)
#    0.000    1.000    5.000    2.500    0.000    4.000 
#    0.000    0.833    7.333    0.000    0.000    0.000 
#    0.000    0.000    0.000    0.000    0.000    0.000 
#
# Total GULP energy -297459.056967 kJ/mol
# GULP energy per Si atom -12394.127374 kJ/mol
# Density = 2.161891 g / cm^3
# Si number density = 21.668227 Si / 1000 Ang^3
#
#
#
# Elastic Constant Matrix: (Units=GPa)
#
#
# Indices 1 2 3 4 5 6 
#
# 1 32.4126 24.0634 -0.1026 0.0001 0.0203 0.0000
# 2 24.0634 157.0912 71.1035 0.0001 -12.9475 0.0000
# 3 -0.1026 71.1035 171.9171 0.0007 -17.8802 0.0001
# 4 0.0001 0.0001 0.0007 38.2585 0.0002 -1.8183
# 5 0.0203 -12.9475 -17.8802 0.0002 21.1128 0.0000
# 6 0.0000 0.0000 0.0001 -1.8183 0.0000 33.3703
#
#
#
# Elastic Compliance Matrix: (Units=1/GPa)
#
#
# Indices 1 2 3 4 5 6 
#
# 1 0.035968 -0.006878 0.002658 0.000000 -0.002001 0.000000
# 2 -0.006878 0.009246 -0.003551 0.000000 0.002670 0.000000
# 3 0.002658 -0.003551 0.007742 0.000000 0.004377 0.000000
# 4 0.000000 0.000000 0.000000 0.026206 0.000000 0.001428
# 5 -0.002001 0.002670 0.004377 0.000000 0.052711 0.000000
# 6 0.000000 0.000000 0.000000 0.001428 0.000000 0.030045
#
#
# Mechanical properties :
#
#
# Convention : Reuss Voigt Hill
#
# Bulk Modulus (GPa) = 26.72687 61.28326 44.00507
# Shear Modulus (GPa) = 26.32552 36.30544 31.31548
#
# Velocity S-wave (km/s) = 3.48937 4.09775 3.80574
# Velocity P-wave (km/s) = 5.34749 7.12268 6.29795
#
# Compressibility (1/GPa) = 0.03741552
#
# Stress axis : x y z
#
# Youngs Moduli (GPa) = 27.80262 108.15000 129.16469
#
# Poissons Ratio (x) = 0.74381 -0.34329
# Poissons Ratio (y) = 0.19121 0.45862
# Poissons Ratio (z) = -0.07389 0.38400
#
# Static dielectric constant tensor:
#      x y z
#    x 3.533760 0.000000 -0.006370 
#    y 0.000000 3.988970 0.000000 
#    z -0.006370 0.000000 4.674610 
# 
# 
# High freq. dielectric constant tensor:
#      x y z
#    x 1.814140 0.000000 -0.009000 
#    y 0.000000 1.844480 0.000000 
#    z -0.009000 0.000000 1.886740 
# 
# From -- ./inp_files/300544.got.cif
#   From: 2010.06.25/outbox.cif.g09.slc.cpg/sg15_151_cif.got.tgz:300544.got - 2010.06.28 07:06:18.
