data_PCOD8151537
_publ_section_title
;
Structure prediction by ZEFSAII (Michael W. Deem and Ramdas Pophale) SiO2 
 PCOD8151537
Probable space group: C 2/C
;
_chemical_formula_sum "Si O2"
_cell_formula_units_Z 56
_cell_length_a 13.961849
_cell_length_b 19.909253
_cell_length_c 11.159191
_cell_angle_alpha 90.000000
_cell_angle_beta 63.763792
_cell_angle_gamma 90.000000
_cell_volume 2782.357792
_symmetry_space_group_name_H-M "C 2/C"
_symmetry_group_IT_number 15
_symmetry_cell_setting 'monoclinic'
loop_
_space_group_symop_operation_xyz
x,y,z
-x,y,1/2-z
-x,-y,-z
x,-y,1/2+z
1/2+x,1/2+y,z
1/2-x,1/2+y,1/2-z
1/2-x,1/2-y,-z
1/2+x,1/2-y,1/2+z
loop_
_atom_site_type_symbol
_atom_site_label
_atom_site_fract_x
_atom_site_fract_y
_atom_site_fract_z
Si Si1 0.995632 0.239547 0.109463
Si Si2 0.341510 0.635949 0.476607
Si Si3 0.009407 0.389227 0.059514
Si Si4 0.975861 0.966279 0.639802
Si Si5 0.897906 0.413728 0.736193
Si Si6 0.155568 0.438202 0.188703
Si Si7 0.691369 0.640473 0.267539
O O1 0.992612 0.310218 0.043011
O O2 0.888575 0.197030 0.136426
O O3 0.000000 0.249683 0.250000
O O4 0.105207 0.204027 0.000411
O O5 0.444733 0.594961 0.379313
O O6 0.274675 0.592883 0.610936
O O7 0.276749 0.652844 0.390017
O O8 0.892210 0.419326 0.154902
O O9 0.087573 0.400107 0.126998
O O10 0.058724 0.428873 0.920618
O O11 0.000000 0.010660 0.750000
O O12 0.857096 0.935403 0.696490
O O13 0.000000 0.000000 0.500000
O O14 0.853015 0.481634 0.823111
O O15 0.800922 0.359964 0.784322
O O16 0.000000 0.383910 0.750000
#
# Coordination Sequence:
#
# PCOD8151537 Si02
#       7
#     8   8   8   8   8   8   8
#     4   9  18  36  61  90 114 144 192 249 301 338
#     4   9  18  33  58  87 115 148 186 250 300 343
#     4  11  22  37  55  86 118 149 194 244 283 345
#     4   9  17  32  53  82 115 150 196 243 298 354
#     4  12  24  38  56  80 119 163 195 233 293 351
#     4  11  21  35  56  84 118 146 191 240 287 342
#     4   9  19  35  57  82 116 150 192 242 296 346
#
# _framework density 20.126816000000002
#
# number of rings (size 3 to 8) (size 9 to 14) (size 15 to 20)
#    0.000    2.000    4.286    3.000    0.000    1.714 
#    0.000    2.143    0.000    3.429    0.000    0.000 
#    0.000    0.000    0.000    0.000    0.000    0.000 
#
# Total GULP energy -346866.067643 kJ/mol
# GULP energy per Si atom -12388.073844 kJ/mol
# Density = 2.008101 g / cm^3
# Si number density = 20.126816 Si / 1000 Ang^3
#
#
#
# Elastic Constant Matrix: (Units=GPa)
#
#
# Indices 1 2 3 4 5 6 
#
# 1 113.4222 30.7719 18.4914 0.0000 -8.8116 0.0000
# 2 30.7719 68.7818 13.5792 0.0000 0.5142 0.0000
# 3 18.4914 13.5792 75.9861 0.0000 -7.0651 0.0000
# 4 0.0000 0.0000 0.0000 18.5428 0.0000 -7.7908
# 5 -8.8116 0.5142 -7.0651 0.0000 31.3990 0.0000
# 6 0.0000 0.0000 0.0000 -7.7908 0.0000 9.1877
#
#
#
# Elastic Compliance Matrix: (Units=1/GPa)
#
#
# Indices 1 2 3 4 5 6 
#
# 1 0.010465 -0.004403 -0.001512 0.000000 0.002669 0.000000
# 2 -0.004403 0.016947 -0.002142 0.000000 -0.001995 0.000000
# 3 -0.001512 -0.002142 0.014171 0.000000 0.002800 0.000000
# 4 0.000000 0.000000 0.000000 0.083776 0.000000 0.071038
# 5 0.002669 -0.001995 0.002800 0.000000 0.033260 0.000000
# 6 0.000000 0.000000 0.000000 0.071038 0.000000 0.169079
#
#
# Mechanical properties :
#
#
# Convention : Reuss Voigt Hill
#
# Bulk Modulus (GPa) = 39.26486 42.65280 40.95883
# Shear Modulus (GPa) = 14.19238 24.84907 19.52072
#
# Velocity S-wave (km/s) = 2.65834 3.51753 3.11768
# Velocity P-wave (km/s) = 5.38270 6.14292 5.77533
#
# Compressibility (1/GPa) = 0.02546807
#
# Stress axis : x y z
#
# Youngs Moduli (GPa) = 95.55602 59.00871 70.56508
#
# Poissons Ratio (x) = 0.25984 0.10667
# Poissons Ratio (y) = 0.42077 0.15118
# Poissons Ratio (z) = 0.14444 0.12642
#
# Static dielectric constant tensor:
#      x y z
#    x 3.664930 0.000000 -0.277670 
#    y 0.000000 3.463350 0.000000 
#    z -0.277670 0.000000 3.797100 
# 
# 
# High freq. dielectric constant tensor:
#      x y z
#    x 1.771860 0.000000 -0.028940 
#    y 0.000000 1.764610 0.000000 
#    z -0.028940 0.000000 1.772690 
# 
# From -- ./inp_files/98688.got.cif
#   From: 2010.06.25/outbox.cif.g09.slc.cpg/sg15_50_cif.got.tgz:98688.got - 2010.06.28 07:06:18.
