data_PCOD8151183
_publ_section_title
;
Structure prediction by ZEFSAII (Michael W. Deem and Ramdas Pophale) SiO2 
 PCOD8151183
Probable space group: C 2/C
;
_chemical_formula_sum "Si O2"
_cell_formula_units_Z 64
_cell_length_a 24.708993
_cell_length_b 18.068994
_cell_length_c 21.390729
_cell_angle_alpha 90.000000
_cell_angle_beta 19.459427
_cell_angle_gamma 90.000000
_cell_volume 3181.562237
_symmetry_space_group_name_H-M "C 2/C"
_symmetry_group_IT_number 15
_symmetry_cell_setting 'monoclinic'
loop_
_space_group_symop_operation_xyz
x,y,z
-x,y,1/2-z
-x,-y,-z
x,-y,1/2+z
1/2+x,1/2+y,z
1/2-x,1/2+y,1/2-z
1/2-x,1/2-y,-z
1/2+x,1/2-y,1/2+z
loop_
_atom_site_type_symbol
_atom_site_label
_atom_site_fract_x
_atom_site_fract_y
_atom_site_fract_z
Si Si1 0.727048 0.519903 0.811478
Si Si2 0.735674 0.691178 0.571725
Si Si3 0.114892 0.537886 0.073572
Si Si4 0.126893 0.804694 0.993883
Si Si5 0.409822 0.899626 0.687700
Si Si6 0.221083 0.817741 0.748190
Si Si7 0.423162 0.164516 0.603663
Si Si8 0.364744 0.534207 0.219716
O O1 0.841428 0.452598 0.707280
O O2 0.811105 0.595050 0.742807
O O3 0.705764 0.516986 0.759545
O O4 0.549044 0.511914 0.036183
O O5 0.750000 0.750000 0.500000
O O6 0.818515 0.612872 0.466350
O O7 0.830124 0.721732 0.530197
O O8 0.550624 0.673499 0.790178
O O9 0.000000 0.498221 0.250000
O O10 0.007241 0.552701 0.130304
O O11 0.258749 0.482216 0.897008
O O12 0.260501 0.856774 0.883525
O O13 0.147876 0.819382 0.897720
O O14 0.524651 0.839698 0.526686
O O15 0.412828 0.832549 0.534162
O O16 0.181002 0.736720 0.765861
O O17 0.133344 0.879683 0.801917
#
# Coordination Sequence:
#
# PCOD8151183 Si02
#       8
#     8   8   8   8   8   8   8   8
#     4  11  21  38  62  92 123 160 196 270 322 381
#     4  12  24  39  55  82 123 173 220 255 298 362
#     4  12  25  40  60  85 118 169 213 255 301 374
#     4  11  21  34  54  79 116 162 206 255 305 356
#     4  11  21  38  58  90 123 161 208 254 314 370
#     4  11  22  35  56  90 122 161 201 259 318 378
#     4  11  20  34  56  88 126 155 197 246 323 377
#     4  11  23  39  62  89 126 158 212 258 327 374
#
# _framework density 20.115904
#
# number of rings (size 3 to 8) (size 9 to 14) (size 15 to 20)
#    0.000    0.750    3.750    7.500    1.750    0.000 
#    0.000    1.875    0.000    0.000    0.000    7.875 
#    0.000    0.000    0.000    0.000    0.000    0.000 
#
# Total GULP energy -396793.551716 kJ/mol
# GULP energy per Si atom -12399.798491 kJ/mol
# Density = 2.007012 g / cm^3
# Si number density = 20.115904 Si / 1000 Ang^3
#
#
#
# Elastic Constant Matrix: (Units=GPa)
#
#
# Indices 1 2 3 4 5 6 
#
# 1 41.0379 11.8636 23.3458 -0.0243 1.9641 0.0161
# 2 11.8636 100.2800 28.0969 -0.0321 8.2585 0.0399
# 3 23.3458 28.0969 128.8967 -0.0668 8.8212 0.0529
# 4 -0.0243 -0.0321 -0.0668 38.5629 0.0326 -4.0862
# 5 1.9641 8.2585 8.8212 0.0326 29.1941 -0.0222
# 6 0.0161 0.0399 0.0529 -4.0862 -0.0222 24.7069
#
#
#
# Elastic Compliance Matrix: (Units=1/GPa)
#
#
# Indices 1 2 3 4 5 6 
#
# 1 0.027532 -0.001987 -0.004559 0.000007 0.000087 -0.000004
# 2 -0.001987 0.010925 -0.001858 0.000005 -0.002396 -0.000014
# 3 -0.004559 -0.001858 0.009121 0.000012 -0.001924 -0.000013
# 4 0.000007 0.000005 0.000012 0.026394 -0.000032 0.004365
# 5 0.000087 -0.002396 -0.001924 -0.000032 0.035507 0.000035
# 6 -0.000004 -0.000014 -0.000013 0.004365 0.000035 0.041197
#
#
# Mechanical properties :
#
#
# Convention : Reuss Voigt Hill
#
# Bulk Modulus (GPa) = 32.49984 44.09191 38.29587
# Shear Modulus (GPa) = 28.13118 32.28667 30.20892
#
# Velocity S-wave (km/s) = 3.74365 4.01063 3.87944
# Velocity P-wave (km/s) = 5.90575 6.58888 6.25665
#
# Compressibility (1/GPa) = 0.03076938
#
# Stress axis : x y z
#
# Youngs Moduli (GPa) = 36.32176 91.53415 109.64272
#
# Poissons Ratio (x) = 0.18186 0.49991
# Poissons Ratio (y) = 0.07217 0.20367
# Poissons Ratio (z) = 0.16561 0.17003
#
# Static dielectric constant tensor:
#      x y z
#    x 3.354790 -0.000130 -0.247020 
#    y -0.000130 3.675660 0.000250 
#    z -0.247020 0.000250 3.931950 
# 
# 
# High freq. dielectric constant tensor:
#      x y z
#    x 1.746190 -0.000010 -0.029660 
#    y -0.000010 1.778900 0.000020 
#    z -0.029660 0.000020 1.799920 
# 
# From -- ./inp_files/255967.got.cif
#   From: 2010.06.25/outbox.cif.g09.slc.cpg/sg15_128_cif.got.tgz:255967.got - 2010.06.28 07:06:18.
