data_PCOD8151231
_publ_section_title
;
Structure prediction by ZEFSAII (Michael W. Deem and Ramdas Pophale) SiO2 
 PCOD8151231
Probable space group: C 2/C
;
_chemical_formula_sum "Si O2"
_cell_formula_units_Z 48
_cell_length_a 21.059971
_cell_length_b 6.368515
_cell_length_c 22.797392
_cell_angle_alpha 90.000000
_cell_angle_beta 123.223557
_cell_angle_gamma 90.000000
_cell_volume 2557.804598
_symmetry_space_group_name_H-M "C 2/C"
_symmetry_group_IT_number 15
_symmetry_cell_setting 'monoclinic'
loop_
_space_group_symop_operation_xyz
x,y,z
-x,y,1/2-z
-x,-y,-z
x,-y,1/2+z
1/2+x,1/2+y,z
1/2-x,1/2+y,1/2-z
1/2-x,1/2-y,-z
1/2+x,1/2-y,1/2+z
loop_
_atom_site_type_symbol
_atom_site_label
_atom_site_fract_x
_atom_site_fract_y
_atom_site_fract_z
Si Si1 0.629640 0.013880 0.589112
Si Si2 0.519629 0.640593 0.066166
Si Si3 0.763291 0.314927 0.679911
Si Si4 0.734412 0.056880 0.448530
Si Si5 0.850546 0.875800 0.324104
Si Si6 0.138914 0.280029 0.478701
O O1 0.552886 0.145990 0.556091
O O2 0.700912 0.134551 0.651245
O O3 0.618166 0.796390 0.615878
O O4 0.646366 0.962897 0.530288
O O5 0.580741 0.542448 0.142465
O O6 0.446835 0.695449 0.069093
O O7 0.500000 0.500000 0.000000
O O8 0.790578 0.358244 0.627650
O O9 0.835438 0.229237 0.753094
O O10 0.727904 0.524104 0.691349
O O11 0.750000 0.250000 0.500000
O O12 0.811431 0.924342 0.480818
O O13 0.667590 0.897033 0.434538
#
# Coordination Sequence:
#
# PCOD8151231 Si02
#       6
#     8   8   8   8   8   8
#     4  11  20  36  64  91 119 152 196 261 301 352
#     4  11  23  36  60  95 122 154 202 253 310 358
#     4  11  21  38  58  94 120 152 210 243 312 370
#     4  11  23  37  63  90 120 164 199 252 298 367
#     4  11  22  35  62  92 120 157 194 263 308 353
#     4  11  22  38  59  93 123 156 205 247 306 363
#
# _framework density 18.766093000000001
#
# number of rings (size 3 to 8) (size 9 to 14) (size 15 to 20)
#    0.000    1.000    6.667    1.500    0.000    0.000 
#    0.000    0.000    0.000    6.000    0.000    0.000 
#    0.000    0.000    0.000    0.000    0.000    0.000 
#
# Total GULP energy -297580.742398 kJ/mol
# GULP energy per Si atom -12399.197600 kJ/mol
# Density = 1.872338 g / cm^3
# Si number density = 18.766093 Si / 1000 Ang^3
#
#
#
# Elastic Constant Matrix: (Units=GPa)
#
#
# Indices 1 2 3 4 5 6 
#
# 1 112.9616 44.9665 49.5702 0.0000 5.5458 0.0002
# 2 44.9665 101.2495 40.3118 0.0000 2.7856 0.0012
# 3 49.5702 40.3118 108.2329 0.0000 -5.7777 0.0000
# 4 0.0000 0.0000 0.0000 38.9149 0.0000 0.2254
# 5 5.5458 2.7856 -5.7777 0.0000 27.6825 0.0000
# 6 0.0002 0.0012 0.0000 0.2254 0.0000 27.8138
#
#
#
# Elastic Compliance Matrix: (Units=1/GPa)
#
#
# Indices 1 2 3 4 5 6 
#
# 1 0.012427 -0.003644 -0.004498 0.000000 -0.003062 0.000000
# 2 -0.003644 0.012786 -0.003158 0.000000 -0.001216 -0.000001
# 3 -0.004498 -0.003158 0.012682 0.000000 0.003866 0.000000
# 4 0.000000 0.000000 0.000000 0.025698 0.000000 -0.000208
# 5 -0.003062 -0.001216 0.003866 0.000000 0.037666 0.000000
# 6 0.000000 -0.000001 0.000000 -0.000208 0.000000 0.035955
#
#
# Mechanical properties :
#
#
# Convention : Reuss Voigt Hill
#
# Bulk Modulus (GPa) = 65.38069 65.79343 65.58706
# Shear Modulus (GPa) = 30.31906 31.38862 30.85384
#
# Velocity S-wave (km/s) = 4.02385 4.09421 4.05918
# Velocity P-wave (km/s) = 7.51691 7.58195 7.54950
#
# Compressibility (1/GPa) = 0.01529503
#
# Stress axis : x y z
#
# Youngs Moduli (GPa) = 80.46857 78.21175 78.85272
#
# Poissons Ratio (x) = 0.28501 0.35466
# Poissons Ratio (y) = 0.29324 0.24902
# Poissons Ratio (z) = 0.36193 0.24699
#
# Static dielectric constant tensor:
#      x y z
#    x 3.354290 0.000000 0.021290 
#    y 0.000000 3.702600 0.000000 
#    z 0.021290 0.000000 3.343040 
# 
# 
# High freq. dielectric constant tensor:
#      x y z
#    x 1.712140 0.000000 0.003590 
#    y 0.000000 1.754880 0.000000 
#    z 0.003590 0.000000 1.713410 
# 
# From -- ./inp_files/278598.got.cif
#   From: 2010.06.25/outbox.cif.g09.slc.cpg/sg15_140_cif.got.tgz:278598.got - 2010.06.28 07:06:18.
