data_PCOD8151726
_publ_section_title
;
Structure prediction by ZEFSAII (Michael W. Deem and Ramdas Pophale) SiO2 
 PCOD8151726
Probable space group: C 2/C
;
_chemical_formula_sum "Si O2"
_cell_formula_units_Z 60
_cell_length_a 24.428871
_cell_length_b 17.990638
_cell_length_c 10.739109
_cell_angle_alpha 90.000000
_cell_angle_beta 34.129102
_cell_angle_gamma 90.000000
_cell_volume 2648.055870
_symmetry_space_group_name_H-M "C 2/C"
_symmetry_group_IT_number 15
_symmetry_cell_setting 'monoclinic'
loop_
_space_group_symop_operation_xyz
x,y,z
-x,y,1/2-z
-x,-y,-z
x,-y,1/2+z
1/2+x,1/2+y,z
1/2-x,1/2+y,1/2-z
1/2-x,1/2-y,-z
1/2+x,1/2-y,1/2+z
loop_
_atom_site_type_symbol
_atom_site_label
_atom_site_fract_x
_atom_site_fract_y
_atom_site_fract_z
Si Si1 0.939156 0.823075 0.966642
Si Si2 0.424275 0.540291 0.229370
Si Si3 0.500000 0.278091 0.250000
Si Si4 0.429735 0.804166 0.668123
Si Si5 0.346285 0.597902 0.984662
Si Si6 0.746685 0.384026 0.108546
Si Si7 0.736012 0.050332 0.416230
Si Si8 0.522546 0.937519 0.354048
O O1 0.000000 0.774477 0.750000
O O2 0.024746 0.884083 0.825687
O O3 0.906259 0.771213 0.140372
O O4 0.833801 0.860948 0.133545
O O5 0.403270 0.481934 0.381985
O O6 0.324551 0.561141 0.345154
O O7 0.500000 0.500000 0.000000
O O8 0.487325 0.221842 0.390701
O O9 0.592697 0.331341 0.086242
O O10 0.459723 0.866780 0.513959
O O11 0.335050 0.826498 0.927854
O O12 0.311534 0.609417 0.910618
O O13 0.256250 0.592259 0.248558
O O14 0.788191 0.464073 0.067918
O O15 0.635873 0.084516 0.657129
O O16 0.500000 0.959035 0.250000
O O17 0.500000 0.000000 0.500000
#
# Coordination Sequence:
#
# PCOD8151726 Si02
#       8
#     8   8   4   8   8   8   8   8
#     4  12  24  42  69 105 143 189 234 303 366 445
#     4  11  21  39  66 106 145 178 235 298 368 437
#     4  12  26  44  74  98 152 186 234 306 362 442
#     4  12  26  50  68 103 144 197 246 295 368 432
#     4  11  22  40  71 101 141 182 236 297 366 433
#     4  11  23  44  70  98 142 187 238 295 365 447
#     4  11  23  41  72 105 135 187 241 298 362 427
#     4  12  28  51  78 104 148 195 252 308 354 431
#
# _framework density 22.658131999999998
#
# number of rings (size 3 to 8) (size 9 to 14) (size 15 to 20)
#    0.000    0.533    5.333    4.000    3.733    0.000 
#    2.400    1.333    0.000    0.000    0.000    0.000 
#    0.000    0.000    0.000    0.000    0.000    0.000 
#
# Total GULP energy -371691.582414 kJ/mol
# GULP energy per Si atom -12389.719414 kJ/mol
# Density = 2.260656 g / cm^3
# Si number density = 22.658132 Si / 1000 Ang^3
#
#
#
# Elastic Constant Matrix: (Units=GPa)
#
#
# Indices 1 2 3 4 5 6 
#
# 1 67.1415 22.9096 25.4003 0.0000 -2.9265 0.0000
# 2 22.9096 93.5753 25.7959 0.0000 3.7212 0.0000
# 3 25.4003 25.7959 158.4215 0.0000 -5.4089 0.0000
# 4 0.0000 0.0000 0.0000 37.5547 0.0000 6.0113
# 5 -2.9265 3.7212 -5.4089 0.0000 36.6427 0.0000
# 6 0.0000 0.0000 0.0000 6.0113 0.0000 19.0478
#
#
#
# Elastic Compliance Matrix: (Units=1/GPa)
#
#
# Indices 1 2 3 4 5 6 
#
# 1 0.016986 -0.003641 -0.002082 0.000000 0.001419 0.000000
# 2 -0.003641 0.012042 -0.001436 0.000000 -0.001726 0.000000
# 3 -0.002082 -0.001436 0.006914 0.000000 0.001000 0.000000
# 4 0.000000 0.000000 0.000000 0.028045 0.000000 -0.008851
# 5 0.001419 -0.001726 0.001000 0.000000 0.027727 0.000000
# 6 0.000000 0.000000 0.000000 -0.008851 0.000000 0.055293
#
#
# Mechanical properties :
#
#
# Convention : Reuss Voigt Hill
#
# Bulk Modulus (GPa) = 46.24468 51.92779 49.08624
# Shear Modulus (GPa) = 29.66786 34.98456 32.32621
#
# Velocity S-wave (km/s) = 3.62245 3.93366 3.78126
# Velocity P-wave (km/s) = 6.16037 6.60298 6.38551
#
# Compressibility (1/GPa) = 0.02162411
#
# Stress axis : x y z
#
# Youngs Moduli (GPa) = 58.87273 83.03933 144.63247
#
# Poissons Ratio (x) = 0.30235 0.30114
# Poissons Ratio (y) = 0.21436 0.20770
# Poissons Ratio (z) = 0.12258 0.11925
#
# Static dielectric constant tensor:
#      x y z
#    x 3.672320 0.000000 -0.056490 
#    y 0.000000 3.935860 0.000000 
#    z -0.056490 0.000000 4.200670 
# 
# 
# High freq. dielectric constant tensor:
#      x y z
#    x 1.877010 0.000000 0.005180 
#    y 0.000000 1.895600 0.000000 
#    z 0.005180 0.000000 1.911410 
# 
# From -- ./inp_files/123983.got.cif
#   From: 2010.06.25/outbox.cif.g09.slc.cpg/sg15_62_cif.got.tgz:123983.got - 2010.06.28 07:06:18.
