data_PCOD8151805
_publ_section_title
;
Structure prediction by ZEFSAII (Michael W. Deem and Ramdas Pophale) SiO2 
 PCOD8151805
Probable space group: C 2/C
;
_chemical_formula_sum "Si O2"
_cell_formula_units_Z 56
_cell_length_a 19.584824
_cell_length_b 11.551372
_cell_length_c 12.075668
_cell_angle_alpha 90.000000
_cell_angle_beta 122.767701
_cell_angle_gamma 90.000000
_cell_volume 2297.175724
_symmetry_space_group_name_H-M "C 2/C"
_symmetry_group_IT_number 15
_symmetry_cell_setting 'monoclinic'
loop_
_space_group_symop_operation_xyz
x,y,z
-x,y,1/2-z
-x,-y,-z
x,-y,1/2+z
1/2+x,1/2+y,z
1/2-x,1/2+y,1/2-z
1/2-x,1/2-y,-z
1/2+x,1/2-y,1/2+z
loop_
_atom_site_type_symbol
_atom_site_label
_atom_site_fract_x
_atom_site_fract_y
_atom_site_fract_z
Si Si1 0.581908 0.884128 0.928281
Si Si2 0.000000 0.822694 0.750000
Si Si3 0.159832 0.636533 0.263668
Si Si4 0.500000 0.298285 0.250000
Si Si5 0.625845 0.506806 0.812811
Si Si6 0.251607 0.147805 0.801231
Si Si7 0.401427 0.864207 0.034043
Si Si8 0.239330 0.583840 0.918169
O O1 0.599719 0.861851 0.814057
O O2 0.517043 0.778947 0.880024
O O3 0.547225 0.015112 0.910140
O O4 0.658323 0.879759 0.076669
O O5 0.954835 0.742549 0.621866
O O6 0.938444 0.903397 0.768661
O O7 0.224993 0.737659 0.342308
O O8 0.203151 0.513410 0.304958
O O9 0.115665 0.656530 0.108870
O O10 0.421244 0.375517 0.202770
O O11 0.690974 0.538628 0.774181
O O12 0.675545 0.461320 0.962186
O O13 0.247785 0.180858 0.665840
O O14 0.319493 0.872774 0.036307
#
# Coordination Sequence:
#
# PCOD8151805 Si02
#       8
#     8   4   8   4   8   8   8   8
#     4  11  22  43  70 101 137 180 237 284 348 412
#     4  11  27  46  66 102 151 189 220 292 362 425
#     4  11  21  40  70 100 134 178 234 291 337 409
#     4  11  23  42  68 104 139 181 222 300 352 405
#     4  11  23  46  68 100 144 180 240 282 350 420
#     4  12  22  42  73 102 137 185 238 290 342 414
#     4  11  24  47  68 103 141 183 235 284 354 421
#     4  11  23  43  73 102 136 186 237 289 339 420
#
# _framework density 24.377759000000001
#
# number of rings (size 3 to 8) (size 9 to 14) (size 15 to 20)
#    0.000    0.857    5.714    2.571    0.000    3.429 
#    5.143    4.286    0.000    0.000    0.000    0.000 
#    0.000    0.000    0.000    0.000    0.000    0.000 
#
# Total GULP energy -346906.491319 kJ/mol
# GULP energy per Si atom -12389.517547 kJ/mol
# Density = 2.432227 g / cm^3
# Si number density = 24.377759 Si / 1000 Ang^3
#
#
#
# Elastic Constant Matrix: (Units=GPa)
#
#
# Indices 1 2 3 4 5 6 
#
# 1 71.3441 20.2101 55.5027 0.0000 6.5121 0.0000
# 2 20.2101 111.6125 31.2458 0.0000 14.9902 0.0000
# 3 55.5027 31.2458 125.5263 0.0000 -2.6562 0.0000
# 4 0.0000 0.0000 0.0000 22.8196 0.0000 -10.1626
# 5 6.5121 14.9902 -2.6562 0.0000 41.8353 0.0000
# 6 0.0000 0.0000 0.0000 -10.1626 0.0000 -31.0616
#
#
#
# Elastic Compliance Matrix: (Units=1/GPa)
#
#
# Indices 1 2 3 4 5 6 
#
# 1 0.022093 -0.000793 -0.009651 0.000000 -0.003768 0.000000
# 2 -0.000793 0.010235 -0.002275 0.000000 -0.003689 0.000000
# 3 -0.009651 -0.002275 0.012867 0.000000 0.003135 0.000000
# 4 0.000000 0.000000 0.000000 0.038249 0.000000 -0.012514
# 5 -0.003768 -0.003689 0.003135 0.000000 0.026010 0.000000
# 6 0.000000 0.000000 0.000000 -0.012514 0.000000 -0.028100
#
#
# Mechanical properties :
#
#
# Convention : Reuss Voigt Hill
#
# Bulk Modulus (GPa) = 50.61528 58.04447 54.32988
# Shear Modulus (GPa) = 44.09993 20.15361 32.12677
#
# Velocity S-wave (km/s) = 4.25788 2.87840 3.63419
# Velocity P-wave (km/s) = 6.70676 5.90838 6.32019
#
# Compressibility (1/GPa) = 0.01975688
#
# Stress axis : x y z
#
# Youngs Moduli (GPa) = 45.26271 97.69935 77.72100
#
# Poissons Ratio (x) = 0.07744 0.75010
# Poissons Ratio (y) = 0.03588 0.17685
# Poissons Ratio (z) = 0.43684 0.22230
#
# Static dielectric constant tensor:
#      x y z
#    x 4.659130 0.000000 0.231050 
#    y 0.000000 4.961940 0.000000 
#    z 0.231050 0.000000 4.216190 
# 
# 
# High freq. dielectric constant tensor:
#      x y z
#    x 1.966380 0.000000 0.013470 
#    y 0.000000 1.990450 0.000000 
#    z 0.013470 0.000000 1.966840 
# 
# From -- ./inp_files/117707.got.cif
#   From: 2010.06.25/outbox.cif.g09.slc.cpg/sg15_59_cif.got.tgz:117707.got - 2010.06.28 07:06:18.
