data_PCOD8151065
_publ_section_title
;
Structure prediction by ZEFSAII (Michael W. Deem and Ramdas Pophale) SiO2 
 PCOD8151065
Probable space group: C 2/C
;
_chemical_formula_sum "Si O2"
_cell_formula_units_Z 56
_cell_length_a 19.790640
_cell_length_b 11.576401
_cell_length_c 14.995573
_cell_angle_alpha 90.000000
_cell_angle_beta 55.892451
_cell_angle_gamma 90.000000
_cell_volume 2844.590147
_symmetry_space_group_name_H-M "C 2/C"
_symmetry_group_IT_number 15
_symmetry_cell_setting 'monoclinic'
loop_
_space_group_symop_operation_xyz
x,y,z
-x,y,1/2-z
-x,-y,-z
x,-y,1/2+z
1/2+x,1/2+y,z
1/2-x,1/2+y,1/2-z
1/2-x,1/2-y,-z
1/2+x,1/2-y,1/2+z
loop_
_atom_site_type_symbol
_atom_site_label
_atom_site_fract_x
_atom_site_fract_y
_atom_site_fract_z
Si Si1 0.692600 0.382397 0.212782
Si Si2 0.633284 0.026897 0.860877
Si Si3 0.174706 0.378098 0.665302
Si Si4 0.052083 0.273123 0.634097
Si Si5 0.157532 0.934967 0.044410
Si Si6 0.575267 0.417094 0.465958
Si Si7 0.519588 0.165320 0.492485
O O1 0.786517 0.421057 0.152508
O O2 0.688763 0.244241 0.204368
O O3 0.654602 0.445488 0.153950
O O4 0.639113 0.420436 0.337058
O O5 0.657102 0.978914 0.747423
O O6 0.592709 0.926892 0.953377
O O7 0.565138 0.126862 0.898747
O O8 0.103312 0.373278 0.644730
O O9 0.251109 0.415452 0.551777
O O10 0.107777 0.176899 0.546447
O O11 0.000000 0.209543 0.750000
O O12 0.992481 0.329678 0.605945
O O13 0.119793 0.046071 0.024223
O O14 0.500000 0.500000 0.500000
O O15 0.544248 0.289269 0.511495
#
# Coordination Sequence:
#
# PCOD8151065 Si02
#       7
#     8   8   8   8   8   8   8
#     4  11  23  41  63  94 129 164 212 263 314 376
#     4  11  22  38  65  88 131 166 202 262 316 375
#     4  11  21  39  63  95 119 161 215 265 314 364
#     4  11  19  36  63  96 120 150 213 272 308 355
#     4  11  23  38  64  93 123 162 210 264 314 366
#     4  12  24  39  65  95 131 166 211 259 317 382
#     4  11  22  40  60  95 125 167 206 258 322 371
#
# _framework density 19.686491
#
# number of rings (size 3 to 8) (size 9 to 14) (size 15 to 20)
#    0.000    0.857    5.714    4.286    0.000    0.000 
#    0.000    0.714    0.000    8.571    0.000    0.000 
#    0.000    0.000    0.000    0.000    0.000    0.000 
#
# Total GULP energy -347178.345330 kJ/mol
# GULP energy per Si atom -12399.226619 kJ/mol
# Density = 1.964168 g / cm^3
# Si number density = 19.686491 Si / 1000 Ang^3
#
#
#
# Elastic Constant Matrix: (Units=GPa)
#
#
# Indices 1 2 3 4 5 6 
#
# 1 98.5948 40.4860 35.0738 0.0000 -1.6686 0.0000
# 2 40.4860 88.8400 42.0679 0.0000 5.1166 0.0000
# 3 35.0738 42.0679 97.7994 0.0000 -2.4436 0.0000
# 4 0.0000 0.0000 0.0000 30.1851 0.0000 -10.7166
# 5 -1.6686 5.1166 -2.4436 0.0000 36.3427 0.0000
# 6 0.0000 0.0000 0.0000 -10.7166 0.0000 30.7200
#
#
#
# Elastic Compliance Matrix: (Units=1/GPa)
#
#
# Indices 1 2 3 4 5 6 
#
# 1 0.013047 -0.004780 -0.002596 0.000000 0.001097 0.000000
# 2 -0.004780 0.016099 -0.005282 0.000000 -0.002841 0.000000
# 3 -0.002596 -0.005282 0.013466 0.000000 0.001530 0.000000
# 4 0.000000 0.000000 0.000000 0.037812 0.000000 0.013191
# 5 0.001097 -0.002841 0.001530 0.000000 0.028069 0.000000
# 6 0.000000 0.000000 0.000000 0.013191 0.000000 0.037154
#
#
# Mechanical properties :
#
#
# Convention : Reuss Voigt Hill
#
# Bulk Modulus (GPa) = 57.81089 57.83216 57.82153
# Shear Modulus (GPa) = 28.29210 30.62332 29.45771
#
# Velocity S-wave (km/s) = 3.79507 3.94832 3.87245
# Velocity P-wave (km/s) = 6.97373 7.08703 7.03061
#
# Compressibility (1/GPa) = 0.01729778
#
# Stress axis : x y z
#
# Youngs Moduli (GPa) = 76.64445 62.11504 74.26114
#
# Poissons Ratio (x) = 0.29691 0.19275
# Poissons Ratio (y) = 0.36636 0.39223
# Poissons Ratio (z) = 0.19894 0.32807
#
# Static dielectric constant tensor:
#      x y z
#    x 3.820260 0.000000 -0.207380 
#    y 0.000000 3.645060 0.000000 
#    z -0.207380 0.000000 3.724330 
# 
# 
# High freq. dielectric constant tensor:
#      x y z
#    x 1.775880 0.000000 -0.022880 
#    y 0.000000 1.749770 0.000000 
#    z -0.022880 0.000000 1.776720 
# 
# From -- ./inp_files/161252.got.cif
#   From: 2010.06.25/outbox.cif.g09.slc.cpg/sg15_81_cif.got.tgz:161252.got - 2010.06.28 07:06:18.
