data_PCOD8151224
_publ_section_title
;
Structure prediction by ZEFSAII (Michael W. Deem and Ramdas Pophale) SiO2 
 PCOD8151224
Probable space group: C 2/C
;
_chemical_formula_sum "Si O2"
_cell_formula_units_Z 64
_cell_length_a 19.573803
_cell_length_b 18.844109
_cell_length_c 8.990388
_cell_angle_alpha 90.000000
_cell_angle_beta 79.617084
_cell_angle_gamma 90.000000
_cell_volume 3261.811997
_symmetry_space_group_name_H-M "C 2/C"
_symmetry_group_IT_number 15
_symmetry_cell_setting 'monoclinic'
loop_
_space_group_symop_operation_xyz
x,y,z
-x,y,1/2-z
-x,-y,-z
x,-y,1/2+z
1/2+x,1/2+y,z
1/2-x,1/2+y,1/2-z
1/2-x,1/2-y,-z
1/2+x,1/2-y,1/2+z
loop_
_atom_site_type_symbol
_atom_site_label
_atom_site_fract_x
_atom_site_fract_y
_atom_site_fract_z
Si Si1 0.229682 0.641767 0.691746
Si Si2 0.245910 0.986741 0.785876
Si Si3 0.877791 0.783844 0.137983
Si Si4 0.646115 0.500363 0.584172
Si Si5 0.801687 0.765053 0.617110
Si Si6 0.960974 0.878449 0.921664
Si Si7 0.583344 0.649435 0.589971
Si Si8 0.298318 0.148816 0.145401
O O1 0.223172 0.563836 0.766473
O O2 0.305608 0.674993 0.687747
O O3 0.177835 0.691169 0.808898
O O4 0.211694 0.639408 0.525659
O O5 0.304976 0.927263 0.727887
O O6 0.175068 0.966498 0.724692
O O7 0.217676 0.992041 0.963631
O O8 0.928498 0.803955 0.256155
O O9 0.865997 0.698741 0.142741
O O10 0.912363 0.809345 0.968596
O O11 0.585873 0.449422 0.543811
O O12 0.620192 0.578315 0.629345
O O13 0.750000 0.750000 0.500000
O O14 0.871488 0.803493 0.539947
O O15 0.768292 0.814246 0.756401
O O16 0.000000 0.874200 0.750000
O O17 0.014544 0.878003 0.036432
#
# Coordination Sequence:
#
# PCOD8151224 Si02
#       8
#     8   8   8   8   8   8   8   8
#     4  11  22  36  60  86 126 155 203 262 324 374
#     4  12  21  36  61  87 122 166 197 257 322 375
#     4  11  22  41  57  84 120 163 206 266 304 368
#     4  12  22  39  54  84 127 163 213 249 296 365
#     4  11  20  36  60  90 113 160 208 261 316 379
#     4  12  27  39  58  85 121 176 220 250 294 360
#     4  12  23  38  60  83 121 165 212 252 301 372
#     4  11  23  36  61  87 124 158 202 262 333 366
#
# _framework density 19.620996999999999
#
# number of rings (size 3 to 8) (size 9 to 14) (size 15 to 20)
#    0.000    0.500    7.500    3.000    3.500    1.000 
#    0.000    0.000    0.000    0.000    0.000    0.875 
#    0.000    0.000    0.000    0.000    0.000    0.000 
#
# Total GULP energy -396565.884367 kJ/mol
# GULP energy per Si atom -12392.683886 kJ/mol
# Density = 1.957634 g / cm^3
# Si number density = 19.620997 Si / 1000 Ang^3
#
#
#
# Elastic Constant Matrix: (Units=GPa)
#
#
# Indices 1 2 3 4 5 6 
#
# 1 33.3586 35.1319 20.2527 0.0000 0.6534 0.0000
# 2 35.1319 154.9401 47.4319 0.0000 -7.4271 0.0000
# 3 20.2527 47.4319 89.2545 0.0000 -5.7602 0.0000
# 4 0.0000 0.0000 0.0000 34.1633 0.0000 -1.6074
# 5 0.6534 -7.4271 -5.7602 0.0000 31.8440 0.0000
# 6 0.0000 0.0000 0.0000 -1.6074 0.0000 27.7962
#
#
#
# Elastic Compliance Matrix: (Units=1/GPa)
#
#
# Indices 1 2 3 4 5 6 
#
# 1 0.041773 -0.007971 -0.005482 0.000000 -0.003708 0.000000
# 2 -0.007971 0.009265 -0.003000 0.000000 0.001782 0.000000
# 3 -0.005482 -0.003000 0.014170 0.000000 0.001976 0.000000
# 4 0.000000 0.000000 0.000000 0.029351 0.000000 0.001697
# 5 -0.003708 0.001782 0.001976 0.000000 0.032252 0.000000
# 6 0.000000 0.000000 0.000000 0.001697 0.000000 0.036074
#
#
# Mechanical properties :
#
#
# Convention : Reuss Voigt Hill
#
# Bulk Modulus (GPa) = 30.95823 53.68733 42.32278
# Shear Modulus (GPa) = 24.20607 30.40981 27.30794
#
# Velocity S-wave (km/s) = 3.51619 3.94110 3.73469
# Velocity P-wave (km/s) = 5.68306 6.93767 6.34147
#
# Compressibility (1/GPa) = 0.03230159
#
# Stress axis : x y z
#
# Youngs Moduli (GPa) = 23.93876 107.92814 70.57350
#
# Poissons Ratio (x) = 0.86034 0.38687
# Poissons Ratio (y) = 0.19083 0.21172
# Poissons Ratio (z) = 0.13123 0.32379
#
# Static dielectric constant tensor:
#      x y z
#    x 3.404880 0.000000 -0.074250 
#    y 0.000000 4.016250 0.000000 
#    z -0.074250 0.000000 3.864600 
# 
# 
# High freq. dielectric constant tensor:
#      x y z
#    x 1.709840 0.000000 0.002880 
#    y 0.000000 1.770190 0.000000 
#    z 0.002880 0.000000 1.788330 
# 
# From -- ./inp_files/56628.got.cif
#   From: 2010.06.25/outbox.cif.g09.slc.cpg/sg15_29_cif.got.tgz:56628.got - 2010.06.28 07:06:18.
