data_PCOD8151411
_publ_section_title
;
Structure prediction by ZEFSAII (Michael W. Deem and Ramdas Pophale) SiO2 
 PCOD8151411
Probable space group: C 2/C
;
_chemical_formula_sum "Si O2"
_cell_formula_units_Z 48
_cell_length_a 19.450910
_cell_length_b 13.044539
_cell_length_c 18.328039
_cell_angle_alpha 90.000000
_cell_angle_beta 149.973475
_cell_angle_gamma 90.000000
_cell_volume 2327.033941
_symmetry_space_group_name_H-M "C 2/C"
_symmetry_group_IT_number 15
_symmetry_cell_setting 'monoclinic'
loop_
_space_group_symop_operation_xyz
x,y,z
-x,y,1/2-z
-x,-y,-z
x,-y,1/2+z
1/2+x,1/2+y,z
1/2-x,1/2+y,1/2-z
1/2-x,1/2-y,-z
1/2+x,1/2-y,1/2+z
loop_
_atom_site_type_symbol
_atom_site_label
_atom_site_fract_x
_atom_site_fract_y
_atom_site_fract_z
Si Si1 0.409725 0.401487 0.066153
Si Si2 0.284101 0.157987 0.382518
Si Si3 0.193050 0.443211 0.750006
Si Si4 0.695671 0.531306 0.876308
Si Si5 0.070997 0.678311 0.464158
Si Si6 0.907047 0.326765 0.348725
O O1 0.332181 0.443540 0.065516
O O2 0.565454 0.441242 0.206176
O O3 0.413385 0.278176 0.071726
O O4 0.332332 0.443660 0.924181
O O5 0.272009 0.086473 0.300238
O O6 0.194728 0.260543 0.294139
O O7 0.439706 0.193142 0.539588
O O8 0.227967 0.089798 0.398134
O O9 0.125358 0.554165 0.688248
O O10 0.084844 0.362754 0.684852
O O11 0.827964 0.592241 0.971725
O O12 0.107239 0.708593 0.580519
#
# Coordination Sequence:
#
# PCOD8151411 Si02
#       6
#     8   8   8   8   8   8
#     4  11  25  38  65  94 126 177 214 256 327 388
#     4  11  23  42  67  95 130 169 215 272 316 382
#     4  11  22  41  65  98 131 166 217 265 325 380
#     4  11  24  43  59  93 139 164 210 275 317 376
#     4  11  20  41  64  97 133 164 209 270 325 378
#     4  11  23  39  67 100 127 169 214 266 327 374
#
# _framework density 20.627116999999998
#
# number of rings (size 3 to 8) (size 9 to 14) (size 15 to 20)
#    0.000    1.000    5.000    2.500    4.667    2.667 
#    0.000    0.833    0.000    0.000    0.000    0.000 
#    0.000    0.000    0.000    0.000    0.000    0.000 
#
# Total GULP energy -297747.080927 kJ/mol
# GULP energy per Si atom -12406.128372 kJ/mol
# Density = 2.058017 g / cm^3
# Si number density = 20.627117 Si / 1000 Ang^3
#
#
#
# Elastic Constant Matrix: (Units=GPa)
#
#
# Indices 1 2 3 4 5 6 
#
# 1 62.8416 35.2889 5.4655 0.0002 4.0321 0.0001
# 2 35.2889 94.9141 24.7565 0.0000 -0.4797 0.0000
# 3 5.4655 24.7565 78.7710 0.0002 6.3898 0.0001
# 4 0.0002 0.0000 0.0002 30.3632 0.0002 -3.0334
# 5 4.0321 -0.4797 6.3898 0.0002 15.9927 0.0001
# 6 0.0001 0.0000 0.0001 -3.0334 0.0001 34.3881
#
#
#
# Elastic Compliance Matrix: (Units=1/GPa)
#
#
# Indices 1 2 3 4 5 6 
#
# 1 0.020753 -0.008171 0.001625 0.000000 -0.006127 0.000000
# 2 -0.008171 0.014747 -0.004414 0.000000 0.004266 0.000000
# 3 0.001625 -0.004414 0.014483 0.000000 -0.006329 0.000000
# 4 0.000000 0.000000 0.000000 0.033227 0.000000 0.002931
# 5 -0.006127 0.004266 -0.006329 0.000000 0.066730 0.000000
# 6 0.000000 0.000000 0.000000 0.002931 0.000000 0.029338
#
#
# Mechanical properties :
#
#
# Convention : Reuss Voigt Hill
#
# Bulk Modulus (GPa) = 35.63356 40.83872 38.23614
# Shear Modulus (GPa) = 23.74713 27.54985 25.64849
#
# Velocity S-wave (km/s) = 3.39670 3.65857 3.53006
# Velocity P-wave (km/s) = 5.71804 6.13909 5.93230
#
# Compressibility (1/GPa) = 0.02806344
#
# Stress axis : x y z
#
# Youngs Moduli (GPa) = 48.18542 67.81258 69.04740
#
# Poissons Ratio (x) = 0.55408 -0.11220
# Poissons Ratio (y) = 0.39371 0.30476
# Poissons Ratio (z) = -0.07830 0.29931
#
# Static dielectric constant tensor:
#      x y z
#    x 3.615060 0.000000 0.133570 
#    y 0.000000 3.702740 0.000000 
#    z 0.133570 0.000000 3.872420 
# 
# 
# High freq. dielectric constant tensor:
#      x y z
#    x 1.791130 0.000000 0.017080 
#    y 0.000000 1.812680 0.000000 
#    z 0.017080 0.000000 1.816580 
# 
# From -- ./inp_files/252520.got.cif
#   From: 2010.06.25/outbox.cif.g09.slc.cpg/sg15_127_cif.got.tgz:252520.got - 2010.06.28 07:06:18.
