data_PCOD8151590
_publ_section_title
;
Structure prediction by ZEFSAII (Michael W. Deem and Ramdas Pophale) SiO2 
 PCOD8151590
Probable space group: C 2/C
;
_chemical_formula_sum "Si O2"
_cell_formula_units_Z 44
_cell_length_a 22.545624
_cell_length_b 20.204782
_cell_length_c 14.390640
_cell_angle_alpha 90.000000
_cell_angle_beta 20.303603
_cell_angle_gamma 90.000000
_cell_volume 2274.674666
_symmetry_space_group_name_H-M "C 2/C"
_symmetry_group_IT_number 15
_symmetry_cell_setting 'monoclinic'
loop_
_space_group_symop_operation_xyz
x,y,z
-x,y,1/2-z
-x,-y,-z
x,-y,1/2+z
1/2+x,1/2+y,z
1/2-x,1/2+y,1/2-z
1/2-x,1/2-y,-z
1/2+x,1/2-y,1/2+z
loop_
_atom_site_type_symbol
_atom_site_label
_atom_site_fract_x
_atom_site_fract_y
_atom_site_fract_z
Si Si1 0.695160 0.803012 0.472471
Si Si2 0.811242 0.338224 0.809572
Si Si3 0.000000 0.075071 0.750000
Si Si4 0.609452 0.935466 0.330201
Si Si5 0.335511 0.520178 0.341084
Si Si6 0.183967 0.070340 0.794084
O O1 0.500000 0.780110 0.750000
O O2 0.812371 0.738945 0.279181
O O3 0.726855 0.838439 0.524428
O O4 0.744167 0.856373 0.324234
O O5 0.994714 0.370026 0.513903
O O6 0.659288 0.379017 0.982910
O O7 0.935040 0.032019 0.759376
O O8 0.756586 0.947193 0.189899
O O9 0.500000 0.000000 0.500000
O O10 0.696356 0.935992 0.100653
O O11 0.244500 0.480902 0.389458
O O12 0.477839 0.570136 0.091270
#
# Coordination Sequence:
#
# PCOD8151590 Si02
#       6
#     8   8   4   8   8   8
#     4  11  21  37  58  85 112 156 202 240 289 351
#     4  11  23  34  58  87 118 150 197 249 290 342
#     4  12  18  38  52  86 120 144 186 246 294 336
#     4  12  21  37  61  91 121 153 197 246 299 353
#     4  11  23  37  61  90 119 155 193 243 301 357
#     4  11  22  39  60  87 121 158 194 242 299 353
#
# _framework density 19.343425
#
# number of rings (size 3 to 8) (size 9 to 14) (size 15 to 20)
#    0.000    0.727    8.182    0.000    0.000    0.000 
#    0.000    0.909    0.000    0.000    0.000    0.000 
#    0.000    0.000    0.000    0.000    0.000    0.000 
#
# Total GULP energy -272750.467656 kJ/mol
# GULP energy per Si atom -12397.748530 kJ/mol
# Density = 1.929940 g / cm^3
# Si number density = 19.343425 Si / 1000 Ang^3
#
#
#
# Elastic Constant Matrix: (Units=GPa)
#
#
# Indices 1 2 3 4 5 6 
#
# 1 46.8711 12.8283 25.5710 -0.0004 5.0825 0.0050
# 2 12.8283 91.7585 56.2783 0.0098 4.6324 -0.0071
# 3 25.5710 56.2783 101.5935 0.0350 6.0389 -0.0209
# 4 -0.0004 0.0098 0.0350 40.0838 -0.0029 -6.3241
# 5 5.0825 4.6324 6.0389 -0.0029 29.2806 -0.0059
# 6 0.0050 -0.0071 -0.0209 -6.3241 -0.0059 18.4626
#
#
#
# Elastic Compliance Matrix: (Units=1/GPa)
#
#
# Indices 1 2 3 4 5 6 
#
# 1 0.025026 0.000618 -0.006457 0.000003 -0.003110 -0.000014
# 2 0.000618 0.016537 -0.009268 0.000003 -0.000812 -0.000003
# 3 -0.006457 -0.009268 0.016653 -0.000010 -0.000847 0.000013
# 4 0.000003 0.000003 -0.000010 0.026373 0.000005 0.009034
# 5 -0.003110 -0.000812 -0.000847 0.000005 0.034995 0.000013
# 6 -0.000014 -0.000003 0.000013 0.009034 0.000013 0.057258
#
#
# Mechanical properties :
#
#
# Convention : Reuss Voigt Hill
#
# Bulk Modulus (GPa) = 35.71090 47.73092 41.72091
# Shear Modulus (GPa) = 23.10652 27.26844 25.18748
#
# Velocity S-wave (km/s) = 3.45996 3.75867 3.61241
# Velocity P-wave (km/s) = 5.87055 6.60045 6.24617
#
# Compressibility (1/GPa) = 0.02800265
#
# Stress axis : x y z
#
# Youngs Moduli (GPa) = 39.95917 60.46959 60.04985
#
# Poissons Ratio (x) = -0.03739 0.38771
# Poissons Ratio (y) = -0.02471 0.55656
# Poissons Ratio (z) = 0.25800 0.56045
#
# Static dielectric constant tensor:
#      x y z
#    x 3.314790 0.000180 -0.605300 
#    y 0.000180 3.448790 0.000170 
#    z -0.605300 0.000170 3.902280 
# 
# 
# High freq. dielectric constant tensor:
#      x y z
#    x 1.753730 0.000000 -0.012660 
#    y 0.000000 1.744850 0.000010 
#    z -0.012660 0.000010 1.742400 
# 
# From -- ./inp_files/174177.got.cif
#   From: 2010.06.25/outbox.cif.g09.slc.cpg/sg15_88_cif.got.tgz:174177.got - 2010.06.28 07:06:18.
