data_PCOD8151149
_publ_section_title
;
Structure prediction by ZEFSAII (Michael W. Deem and Ramdas Pophale) SiO2 
 PCOD8151149
Probable space group: C 2/C
;
_chemical_formula_sum "Si O2"
_cell_formula_units_Z 64
_cell_length_a 11.398137
_cell_length_b 23.102260
_cell_length_c 20.391542
_cell_angle_alpha 90.000000
_cell_angle_beta 140.754061
_cell_angle_gamma 90.000000
_cell_volume 3397.052215
_symmetry_space_group_name_H-M "C 2/C"
_symmetry_group_IT_number 15
_symmetry_cell_setting 'monoclinic'
loop_
_space_group_symop_operation_xyz
x,y,z
-x,y,1/2-z
-x,-y,-z
x,-y,1/2+z
1/2+x,1/2+y,z
1/2-x,1/2+y,1/2-z
1/2-x,1/2-y,-z
1/2+x,1/2-y,1/2+z
loop_
_atom_site_type_symbol
_atom_site_label
_atom_site_fract_x
_atom_site_fract_y
_atom_site_fract_z
Si Si1 0.338150 0.867743 0.837011
Si Si2 0.545916 0.408870 0.192248
Si Si3 0.540738 0.717641 0.193641
Si Si4 0.253446 0.629041 0.050778
Si Si5 0.888305 0.672320 0.843528
Si Si6 0.241958 0.161519 0.003238
Si Si7 0.200395 0.248961 0.869626
Si Si8 0.051339 0.040719 0.196757
O O1 0.238241 0.811835 0.760895
O O2 0.308678 0.869862 0.901244
O O3 0.242768 0.925182 0.764928
O O4 0.552510 0.863608 0.913622
O O5 0.500000 0.400661 0.250000
O O6 0.719585 0.368475 0.251792
O O7 0.388299 0.392478 0.071202
O O8 0.585448 0.474999 0.190263
O O9 0.500000 0.701299 0.250000
O O10 0.372638 0.686227 0.081961
O O11 0.554955 0.786254 0.191745
O O12 0.375700 0.572156 0.085171
O O13 0.060469 0.629515 0.928693
O O14 0.846577 0.717918 0.884558
O O15 0.177417 0.208613 0.922482
O O16 0.220487 0.189615 0.067194
O O17 0.000000 0.257731 0.750000
O O18 0.000000 0.043566 0.250000
#
# Coordination Sequence:
#
# PCOD8151149 Si02
#       8
#     8   8   8   8   8   8   8   8
#     4   9  16  32  50  71  99 142 170 207 263 315
#     4  11  20  33  48  79 109 137 173 224 262 306
#     4   9  20  32  50  74 104 130 172 212 257 314
#     4   9  17  32  48  73  98 137 168 212 262 310
#     4  12  19  31  51  75 108 137 166 213 265 312
#     4  11  20  31  52  74 109 145 168 206 259 313
#     4  11  21  33  47  76 112 141 171 204 253 317
#     4   8  18  32  49  70 106 135 179 219 258 308
#
# _framework density 18.839863000000001
#
# number of rings (size 3 to 8) (size 9 to 14) (size 15 to 20)
#    0.000    2.000    3.750    2.625    1.750    1.000 
#    0.000    3.750    0.000    0.000    0.000   19.250 
#    0.000    0.000    0.000    0.000    0.000    0.000 
#
# Total GULP energy -396432.920418 kJ/mol
# GULP energy per Si atom -12388.528763 kJ/mol
# Density = 1.879698 g / cm^3
# Si number density = 18.839863 Si / 1000 Ang^3
#
#
#
# Elastic Constant Matrix: (Units=GPa)
#
#
# Indices 1 2 3 4 5 6 
#
# 1 35.0487 30.5513 33.0772 0.0002 21.6393 -0.0002
# 2 30.5513 124.5976 46.5105 -0.0002 18.6574 0.0000
# 3 33.0772 46.5105 113.0492 -0.0026 33.1979 0.0002
# 4 0.0002 -0.0002 -0.0026 26.6485 -0.0005 -2.8235
# 5 21.6393 18.6574 33.1979 -0.0005 25.9351 -0.0001
# 6 -0.0002 0.0000 0.0002 -2.8235 -0.0001 15.5358
#
#
#
# Elastic Compliance Matrix: (Units=1/GPa)
#
#
# Indices 1 2 3 4 5 6 
#
# 1 0.067151 -0.008568 -0.002371 -0.000002 -0.046830 0.000000
# 2 -0.008568 0.010716 -0.002784 0.000000 0.003003 0.000000
# 3 -0.002371 -0.002784 0.015247 0.000001 -0.015536 0.000000
# 4 -0.000002 0.000000 0.000001 0.038262 0.000001 0.006954
# 5 -0.046830 0.003003 -0.015536 0.000001 0.095358 0.000001
# 6 0.000000 0.000000 0.000000 0.006954 0.000001 0.065631
#
#
# Mechanical properties :
#
#
# Convention : Reuss Voigt Hill
#
# Bulk Modulus (GPa) = 15.22790 54.77484 35.00137
# Shear Modulus (GPa) = 14.63275 24.46099 19.54687
#
# Velocity S-wave (km/s) = 2.78994 3.60719 3.22456
# Velocity P-wave (km/s) = 4.29869 6.81807 5.69933
#
# Compressibility (1/GPa) = 0.06566893
#
# Stress axis : x y z
#
# Youngs Moduli (GPa) = 14.89188 93.31692 65.58682
#
# Poissons Ratio (x) = 0.79954 0.15548
# Poissons Ratio (y) = 0.12759 0.18258
# Poissons Ratio (z) = 0.03530 0.25978
#
# Static dielectric constant tensor:
#      x y z
#    x 3.187190 0.000000 0.158580 
#    y 0.000000 3.707230 0.000000 
#    z 0.158580 0.000000 3.670920 
# 
# 
# High freq. dielectric constant tensor:
#      x y z
#    x 1.691560 0.000000 0.025640 
#    y 0.000000 1.725660 0.000000 
#    z 0.025640 0.000000 1.734520 
# 
# From -- ./inp_files/240713.got.cif
#   From: 2010.06.25/outbox.cif.g09.slc.cpg/sg15_121_cif.got.tgz:240713.got - 2010.06.28 07:06:18.
