data_PCOD8151161
_publ_section_title
;
Structure prediction by ZEFSAII (Michael W. Deem and Ramdas Pophale) SiO2 
 PCOD8151161
Probable space group: C 2/C
;
_chemical_formula_sum "Si O2"
_cell_formula_units_Z 64
_cell_length_a 15.979359
_cell_length_b 30.583595
_cell_length_c 9.641036
_cell_angle_alpha 90.000000
_cell_angle_beta 53.133507
_cell_angle_gamma 90.000000
_cell_volume 3769.475573
_symmetry_space_group_name_H-M "C 2/C"
_symmetry_group_IT_number 15
_symmetry_cell_setting 'monoclinic'
loop_
_space_group_symop_operation_xyz
x,y,z
-x,y,1/2-z
-x,-y,-z
x,-y,1/2+z
1/2+x,1/2+y,z
1/2-x,1/2+y,1/2-z
1/2-x,1/2-y,-z
1/2+x,1/2-y,1/2+z
loop_
_atom_site_type_symbol
_atom_site_label
_atom_site_fract_x
_atom_site_fract_y
_atom_site_fract_z
Si Si1 0.900303 0.772111 0.938224
Si Si2 0.408292 0.137882 0.603728
Si Si3 0.629791 0.034023 0.270347
Si Si4 0.100125 0.225818 0.740828
Si Si5 0.117945 0.456313 0.471686
Si Si6 0.300449 0.180570 0.963425
Si Si7 0.652294 0.126888 0.333161
Si Si8 0.189410 0.315322 0.543283
O O1 0.867434 0.723045 0.934530
O O2 0.000000 0.785919 0.750000
O O3 0.931389 0.776084 0.067507
O O4 0.808746 0.806186 0.996089
O O5 0.356183 0.092573 0.604812
O O6 0.365414 0.149694 0.796807
O O7 0.532146 0.135307 0.490676
O O8 0.377729 0.176496 0.528259
O O9 0.505418 0.037652 0.395446
O O10 0.677252 0.075254 0.307167
O O11 0.666707 0.990071 0.311512
O O12 0.668837 0.034167 0.071876
O O13 0.142183 0.273818 0.667311
O O14 0.189790 0.190842 0.616874
O O15 0.000000 0.213345 0.750000
O O16 0.277126 0.152186 0.124580
O O17 0.678743 0.143259 0.153263
#
# Coordination Sequence:
#
# PCOD8151161 Si02
#       8
#     8   8   8   8   8   8   8   8
#     4  11  24  39  53  73 106 137 171 219 266 303
#     4  11  20  35  51  74 106 141 176 212 252 299
#     4   9  18  30  45  70 101 136 172 202 253 300
#     4  11  24  37  56  75 100 138 174 219 264 301
#     4   9  18  30  46  68 102 137 168 209 248 303
#     4  11  24  36  51  76 104 137 178 213 255 307
#     4  11  20  33  53  76 102 143 175 212 249 304
#     4  11  22  36  53  76 103 133 183 217 249 302
#
# _framework density 16.978489
#
# number of rings (size 3 to 8) (size 9 to 14) (size 15 to 20)
#    0.000    1.500    3.750    2.250    5.250    0.000 
#    0.000    0.000    0.000    0.000    0.000    0.000 
#    0.000    6.000    0.000    0.000    0.000    0.000 
#
# Total GULP energy -396896.824942 kJ/mol
# GULP energy per Si atom -12403.025779 kJ/mol
# Density = 1.693984 g / cm^3
# Si number density = 16.978489 Si / 1000 Ang^3
#
#
#
# Elastic Constant Matrix: (Units=GPa)
#
#
# Indices 1 2 3 4 5 6 
#
# 1 71.1685 24.1305 31.3854 0.0000 16.2327 0.0000
# 2 24.1305 80.6622 25.6474 0.0000 4.3922 0.0000
# 3 31.3854 25.6474 74.9680 0.0000 7.6453 0.0000
# 4 0.0000 0.0000 0.0000 15.2145 0.0000 3.9276
# 5 16.2327 4.3922 7.6453 0.0000 25.7930 0.0000
# 6 0.0000 0.0000 0.0000 3.9276 0.0000 16.7076
#
#
#
# Elastic Compliance Matrix: (Units=1/GPa)
#
#
# Indices 1 2 3 4 5 6 
#
# 1 0.020378 -0.003540 -0.006263 0.000000 -0.010365 0.000000
# 2 -0.003540 0.014550 -0.003578 0.000000 0.000811 0.000000
# 3 -0.006263 -0.003578 0.017242 0.000000 -0.000560 0.000000
# 4 0.000000 0.000000 0.000000 0.069973 0.000000 -0.016449
# 5 -0.010365 0.000811 -0.000560 0.000000 0.045321 0.000000
# 6 0.000000 0.000000 0.000000 -0.016449 0.000000 0.063720
#
#
# Mechanical properties :
#
#
# Convention : Reuss Voigt Hill
#
# Bulk Modulus (GPa) = 39.35921 43.23617 41.29769
# Shear Modulus (GPa) = 18.76758 21.25203 20.00981
#
# Velocity S-wave (km/s) = 3.32832 3.54178 3.43671
# Velocity P-wave (km/s) = 6.16461 6.49970 6.33437
#
# Compressibility (1/GPa) = 0.02540702
#
# Stress axis : x y z
#
# Youngs Moduli (GPa) = 49.07319 68.72813 57.99697
#
# Poissons Ratio (x) = 0.24332 0.36323
# Poissons Ratio (y) = 0.17374 0.20753
# Poissons Ratio (z) = 0.30734 0.24593
#
# Static dielectric constant tensor:
#      x y z
#    x 3.021510 0.000000 0.227860 
#    y 0.000000 3.242120 0.000000 
#    z 0.227860 0.000000 3.212370 
# 
# 
# High freq. dielectric constant tensor:
#      x y z
#    x 1.627950 0.000000 0.033520 
#    y 0.000000 1.650270 0.000000 
#    z 0.033520 0.000000 1.655880 
# 
# From -- ./inp_files/44556.got.cif
#   From: 2010.06.25/outbox.cif.g09.slc.cpg/sg15_23_cif.got.tgz:44556.got - 2010.06.28 07:06:18.
