data_PCOD8151840
_publ_section_title
;
Structure prediction by ZEFSAII (Michael W. Deem and Ramdas Pophale) SiO2 
 PCOD8151840
Probable space group: C 2/C
;
_chemical_formula_sum "Si O2"
_cell_formula_units_Z 56
_cell_length_a 8.775190
_cell_length_b 21.698700
_cell_length_c 15.563543
_cell_angle_alpha 90.000000
_cell_angle_beta 58.920442
_cell_angle_gamma 90.000000
_cell_volume 2538.057147
_symmetry_space_group_name_H-M "C 2/C"
_symmetry_group_IT_number 15
_symmetry_cell_setting 'monoclinic'
loop_
_space_group_symop_operation_xyz
x,y,z
-x,y,1/2-z
-x,-y,-z
x,-y,1/2+z
1/2+x,1/2+y,z
1/2-x,1/2+y,1/2-z
1/2-x,1/2-y,-z
1/2+x,1/2-y,1/2+z
loop_
_atom_site_type_symbol
_atom_site_label
_atom_site_fract_x
_atom_site_fract_y
_atom_site_fract_z
Si Si1 0.161788 0.078227 0.964298
Si Si2 0.325975 0.967011 0.587204
Si Si3 0.366137 0.713278 0.225227
Si Si4 0.193406 0.505372 0.220023
Si Si5 0.963231 0.663205 0.091352
Si Si6 0.707852 0.374069 0.896739
Si Si7 0.390269 0.197926 0.931488
O O1 0.291509 0.137267 0.923740
O O2 0.178946 0.033939 0.877695
O O3 0.187091 0.041463 0.048616
O O4 0.957984 0.095985 0.007155
O O5 0.259599 0.005093 0.691615
O O6 0.366882 0.902133 0.619124
O O7 0.500000 0.000000 0.500000
O O8 0.500000 0.676181 0.250000
O O9 0.165996 0.713557 0.323033
O O10 0.373800 0.681903 0.131798
O O11 0.465330 0.779442 0.181361
O O12 0.200183 0.577630 0.193861
O O13 0.000000 0.480634 0.250000
O O14 0.152927 0.657039 0.080133
O O15 0.003872 0.682392 0.982703
O O16 0.250000 0.250000 0.000000
#
# Coordination Sequence:
#
# PCOD8151840 Si02
#       7
#     8   8   8   8   8   8   8
#     4  11  25  42  67 101 143 184 233 297 355 435
#     4  11  21  41  67  99 134 180 234 287 354 426
#     4  12  22  41  70  97 130 179 241 283 347 420
#     4  12  22  40  68 103 136 183 228 293 363 418
#     4  11  23  42  67  97 137 175 228 297 348 426
#     4  12  23  41  68 102 138 178 233 289 359 434
#     4  11  23  45  65  98 133 182 237 294 348 419
#
# _framework density 22.064121
#
# number of rings (size 3 to 8) (size 9 to 14) (size 15 to 20)
#    0.000    0.571    7.143    1.714    0.000    1.143 
#    0.000    0.000    0.000    0.000    0.000    0.000 
#    0.000    0.000    0.000    0.000    0.000    0.000 
#
# Total GULP energy -346936.091768 kJ/mol
# GULP energy per Si atom -12390.574706 kJ/mol
# Density = 2.201390 g / cm^3
# Si number density = 22.064121 Si / 1000 Ang^3
#
#
#
# Elastic Constant Matrix: (Units=GPa)
#
#
# Indices 1 2 3 4 5 6 
#
# 1 158.3708 34.9939 69.9170 0.0000 2.4390 0.0000
# 2 34.9939 62.7566 42.2664 0.0000 11.4865 0.0000
# 3 69.9170 42.2664 136.7845 0.0000 14.8238 0.0000
# 4 0.0000 0.0000 0.0000 38.0867 0.0000 -13.8379
# 5 2.4390 11.4865 14.8238 0.0000 38.0003 0.0000
# 6 0.0000 0.0000 0.0000 -13.8379 0.0000 24.2704
#
#
#
# Elastic Compliance Matrix: (Units=1/GPa)
#
#
# Indices 1 2 3 4 5 6 
#
# 1 0.008500 -0.002524 -0.003747 0.000000 0.001679 0.000000
# 2 -0.002524 0.021416 -0.004849 0.000000 -0.004420 0.000000
# 3 -0.003747 -0.004849 0.011005 0.000000 -0.002587 0.000000
# 4 0.000000 0.000000 0.000000 0.033116 0.000000 0.018881
# 5 0.001679 -0.004420 -0.002587 0.000000 0.028553 0.000000
# 6 0.000000 0.000000 0.000000 0.018881 0.000000 0.051968
#
#
# Mechanical properties :
#
#
# Convention : Reuss Voigt Hill
#
# Bulk Modulus (GPa) = 53.52557 72.47402 62.99980
# Shear Modulus (GPa) = 27.31882 34.12046 30.71964
#
# Velocity S-wave (km/s) = 3.52256 3.93672 3.73539
# Velocity P-wave (km/s) = 6.39190 7.31998 6.87162
#
# Compressibility (1/GPa) = 0.01868266
#
# Stress axis : x y z
#
# Youngs Moduli (GPa) = 117.64309 46.69325 90.87052
#
# Poissons Ratio (x) = 0.11783 0.34050
# Poissons Ratio (y) = 0.29687 0.44061
# Poissons Ratio (z) = 0.44082 0.22640
#
# Static dielectric constant tensor:
#      x y z
#    x 4.938890 0.000000 0.417550 
#    y 0.000000 4.069510 0.000000 
#    z 0.417550 0.000000 4.194990 
# 
# 
# High freq. dielectric constant tensor:
#      x y z
#    x 1.866720 0.000000 0.010720 
#    y 0.000000 1.850750 0.000000 
#    z 0.010720 0.000000 1.877490 
# 
# From -- ./inp_files/137734.got.cif
#   From: 2010.06.25/outbox.cif.g09.slc.cpg/sg15_69_cif.got.tgz:137734.got - 2010.06.28 07:06:18.
