data_PCOD8151354
_publ_section_title
;
Structure prediction by ZEFSAII (Michael W. Deem and Ramdas Pophale) SiO2 
 PCOD8151354
Probable space group: C 2/C
;
_chemical_formula_sum "Si O2"
_cell_formula_units_Z 56
_cell_length_a 13.942981
_cell_length_b 13.739159
_cell_length_c 15.427124
_cell_angle_alpha 90.000000
_cell_angle_beta 62.610800
_cell_angle_gamma 90.000000
_cell_volume 2624.012176
_symmetry_space_group_name_H-M "C 2/C"
_symmetry_group_IT_number 15
_symmetry_cell_setting 'monoclinic'
loop_
_space_group_symop_operation_xyz
x,y,z
-x,y,1/2-z
-x,-y,-z
x,-y,1/2+z
1/2+x,1/2+y,z
1/2-x,1/2+y,1/2-z
1/2-x,1/2-y,-z
1/2+x,1/2-y,1/2+z
loop_
_atom_site_type_symbol
_atom_site_label
_atom_site_fract_x
_atom_site_fract_y
_atom_site_fract_z
Si Si1 0.749404 0.593262 0.960658
Si Si2 0.611204 0.783627 0.342189
Si Si3 0.500000 0.347470 0.750000
Si Si4 0.798697 0.478408 0.250733
Si Si5 0.836505 0.694943 0.221523
Si Si6 0.348072 0.488006 0.353830
Si Si7 0.608617 0.771021 0.993915
Si Si8 0.000000 0.177165 0.750000
O O1 0.753952 0.554547 0.861540
O O2 0.856194 0.652308 0.945699
O O3 0.736385 0.500826 0.031842
O O4 0.646239 0.664602 0.007292
O O5 0.571150 0.722359 0.278410
O O6 0.730835 0.741212 0.312955
O O7 0.523046 0.772557 0.456476
O O8 0.616973 0.898421 0.318539
O O9 0.578073 0.417406 0.663788
O O10 0.854460 0.582956 0.240374
O O11 0.702106 0.487857 0.221581
O O12 0.940620 0.755427 0.205644
O O13 0.830844 0.700169 0.119828
O O14 0.416368 0.389653 0.338622
#
# Coordination Sequence:
#
# PCOD8151354 Si02
#       8
#     8   8   4   8   8   8   8   4
#     4  11  22  43  74 110 140 181 250 296 357 423
#     4  12  23  41  73 105 138 186 240 297 361 422
#     4  11  20  39  72 104 134 175 240 301 350 404
#     4  12  25  44  72 103 147 189 233 303 356 430
#     4  12  26  49  67 104 154 187 242 300 361 431
#     4  11  22  44  72 102 141 189 239 294 356 425
#     4  11  23  43  74 107 143 186 239 310 353 418
#     4  11  26  47  68  96 154 199 228 303 366 422
#
# _framework density 21.341363999999999
#
# number of rings (size 3 to 8) (size 9 to 14) (size 15 to 20)
#    0.000    0.571    7.143    0.857    0.000    3.429 
#    2.571    4.286    0.000    0.000    0.000    0.000 
#    0.000    0.000    0.000    0.000    0.000    0.000 
#
# Total GULP energy -347101.988858 kJ/mol
# GULP energy per Si atom -12396.499602 kJ/mol
# Density = 2.129279 g / cm^3
# Si number density = 21.341364 Si / 1000 Ang^3
#
#
#
# Elastic Constant Matrix: (Units=GPa)
#
#
# Indices 1 2 3 4 5 6 
#
# 1 84.8568 43.4620 42.2544 0.0000 1.6406 0.0000
# 2 43.4620 158.2889 34.0650 0.0000 -5.0974 0.0000
# 3 42.2544 34.0650 105.3231 0.0000 -4.3217 0.0000
# 4 0.0000 0.0000 0.0000 50.4034 0.0000 -11.9765
# 5 1.6406 -5.0974 -4.3217 0.0000 29.4152 0.0000
# 6 0.0000 0.0000 0.0000 -11.9765 0.0000 50.2595
#
#
#
# Elastic Compliance Matrix: (Units=1/GPa)
#
#
# Indices 1 2 3 4 5 6 
#
# 1 0.016315 -0.003359 -0.005554 0.000000 -0.002308 0.000000
# 2 -0.003359 0.007503 -0.001024 0.000000 0.001337 0.000000
# 3 -0.005554 -0.001024 0.012133 0.000000 0.001915 0.000000
# 4 0.000000 0.000000 0.000000 0.021031 0.000000 0.005011
# 5 -0.002308 0.001337 0.001915 0.000000 0.034638 0.000000
# 6 0.000000 0.000000 0.000000 0.005011 0.000000 0.021091
#
#
# Mechanical properties :
#
#
# Convention : Reuss Voigt Hill
#
# Bulk Modulus (GPa) = 62.20087 65.33683 63.76885
# Shear Modulus (GPa) = 36.24682 41.26146 38.75414
#
# Velocity S-wave (km/s) = 4.12567 4.40182 4.26598
# Velocity P-wave (km/s) = 7.20443 7.51773 7.36275
#
# Compressibility (1/GPa) = 0.01607695
#
# Stress axis : x y z
#
# Youngs Moduli (GPa) = 61.29346 133.27426 82.42262
#
# Poissons Ratio (x) = 0.44764 0.45775
# Poissons Ratio (y) = 0.20587 0.08444
# Poissons Ratio (z) = 0.34041 0.13653
#
# Static dielectric constant tensor:
#      x y z
#    x 3.506410 0.000000 -0.186790 
#    y 0.000000 4.130300 0.000000 
#    z -0.186790 0.000000 3.767730 
# 
# 
# High freq. dielectric constant tensor:
#      x y z
#    x 1.825790 0.000000 -0.006760 
#    y 0.000000 1.850660 0.000000 
#    z -0.006760 0.000000 1.828440 
# 
# From -- ./inp_files/173814.got.cif
#   From: 2010.06.25/outbox.cif.g09.slc.cpg/sg15_87_cif.got.tgz:173814.got - 2010.06.28 07:06:18.
