data_PCOD8151646
_publ_section_title
;
Structure prediction by ZEFSAII (Michael W. Deem and Ramdas Pophale) SiO2 
 PCOD8151646
Probable space group: C 2/C
;
_chemical_formula_sum "Si O2"
_cell_formula_units_Z 48
_cell_length_a 8.687832
_cell_length_b 15.542713
_cell_length_c 24.647042
_cell_angle_alpha 90.000000
_cell_angle_beta 134.988743
_cell_angle_gamma 90.000000
_cell_volume 2353.820598
_symmetry_space_group_name_H-M "C 2/C"
_symmetry_group_IT_number 15
_symmetry_cell_setting 'monoclinic'
loop_
_space_group_symop_operation_xyz
x,y,z
-x,y,1/2-z
-x,-y,-z
x,-y,1/2+z
1/2+x,1/2+y,z
1/2-x,1/2+y,1/2-z
1/2-x,1/2-y,-z
1/2+x,1/2-y,1/2+z
loop_
_atom_site_type_symbol
_atom_site_label
_atom_site_fract_x
_atom_site_fract_y
_atom_site_fract_z
Si Si1 0.491895 0.223993 0.579917
Si Si2 0.560224 0.532609 0.575060
Si Si3 0.522384 0.201519 0.111323
Si Si4 0.833315 0.626378 0.161626
Si Si5 0.128143 0.314183 0.333430
Si Si6 0.756654 0.641496 0.944051
O O1 0.250000 0.250000 0.500000
O O2 0.640019 0.306345 0.605143
O O3 0.517455 0.201683 0.649788
O O4 0.589002 0.140409 0.571309
O O5 0.500000 0.500000 0.500000
O O6 0.721813 0.465694 0.644297
O O7 0.680656 0.623236 0.598481
O O8 0.349007 0.550402 0.561832
O O9 0.480699 0.124759 0.143633
O O10 0.775546 0.221547 0.162102
O O11 0.434834 0.290704 0.115498
O O12 0.411443 0.178898 0.028058
O O13 0.000000 0.651087 0.250000
O O14 0.000000 0.354348 0.250000
#
# Coordination Sequence:
#
# PCOD8151646 Si02
#       6
#     8   8   8   8   8   8
#     4  11  21  38  63  93 119 157 211 259 302 371
#     4  11  21  38  60  84 115 163 206 246 300 376
#     4   9  17  34  57  81 113 153 197 242 293 354
#     4  11  22  37  59  88 123 158 201 253 315 366
#     4  11  22  37  59  88 121 155 200 255 312 365
#     4   9  18  34  58  85 112 150 201 248 291 355
#
# _framework density 20.392378999999998
#
# number of rings (size 3 to 8) (size 9 to 14) (size 15 to 20)
#    0.000    1.667    3.333    2.500    0.000    0.000 
#    0.000    5.000    0.000    2.000    0.000    0.000 
#    0.000    0.000    0.000    0.000    0.000    0.000 
#
# Total GULP energy -297369.063192 kJ/mol
# GULP energy per Si atom -12390.377633 kJ/mol
# Density = 2.034596 g / cm^3
# Si number density = 20.392379 Si / 1000 Ang^3
#
#
#
# Elastic Constant Matrix: (Units=GPa)
#
#
# Indices 1 2 3 4 5 6 
#
# 1 163.4934 47.9242 46.2855 0.0000 -21.6788 0.0000
# 2 47.9242 67.3273 16.9201 0.0000 3.5492 0.0000
# 3 46.2855 16.9201 97.7185 0.0000 -7.0122 0.0000
# 4 0.0000 0.0000 0.0000 26.9696 0.0000 5.9768
# 5 -21.6788 3.5492 -7.0122 0.0000 33.6490 0.0000
# 6 0.0000 0.0000 0.0000 5.9768 0.0000 38.5923
#
#
#
# Elastic Compliance Matrix: (Units=1/GPa)
#
#
# Indices 1 2 3 4 5 6 
#
# 1 0.009710 -0.006484 -0.003024 0.000000 0.006309 0.000000
# 2 -0.006484 0.020026 -0.000860 0.000000 -0.006469 0.000000
# 3 -0.003024 -0.000860 0.011859 0.000000 0.000614 0.000000
# 4 0.000000 0.000000 0.000000 0.038397 0.000000 -0.005947
# 5 0.006309 -0.006469 0.000614 0.000000 0.034594 0.000000
# 6 0.000000 0.000000 0.000000 -0.005947 0.000000 0.026833
#
#
# Mechanical properties :
#
#
# Convention : Reuss Voigt Hill
#
# Bulk Modulus (GPa) = 47.94410 61.19987 54.57199
# Shear Modulus (GPa) = 29.56717 34.33613 31.95165
#
# Velocity S-wave (km/s) = 3.81190 4.10783 3.96263
# Velocity P-wave (km/s) = 6.55255 7.25089 6.91055
#
# Compressibility (1/GPa) = 0.02085762
#
# Stress axis : x y z
#
# Youngs Moduli (GPa) = 102.98894 49.93603 84.32645
#
# Poissons Ratio (x) = 0.32380 0.25497
# Poissons Ratio (y) = 0.66781 0.07255
# Poissons Ratio (z) = 0.31140 0.04296
#
# Static dielectric constant tensor:
#      x y z
#    x 4.195270 0.000000 0.005420 
#    y 0.000000 3.567030 0.000000 
#    z 0.005420 0.000000 3.521610 
# 
# 
# High freq. dielectric constant tensor:
#      x y z
#    x 1.807330 0.000000 -0.002610 
#    y 0.000000 1.762790 0.000000 
#    z -0.002610 0.000000 1.794500 
# 
# From -- ./inp_files/289310.got.cif
#   From: 2010.06.25/outbox.cif.g09.slc.cpg/sg15_145_cif.got.tgz:289310.got - 2010.06.28 07:06:18.
