data_PCOD8151747
_publ_section_title
;
Structure prediction by ZEFSAII (Michael W. Deem and Ramdas Pophale) SiO2 
 PCOD8151747
Probable space group: C 2/C
;
_chemical_formula_sum "Si O2"
_cell_formula_units_Z 56
_cell_length_a 18.148321
_cell_length_b 12.092571
_cell_length_c 12.800094
_cell_angle_alpha 90.000000
_cell_angle_beta 64.942141
_cell_angle_gamma 90.000000
_cell_volume 2544.715256
_symmetry_space_group_name_H-M "C 2/C"
_symmetry_group_IT_number 15
_symmetry_cell_setting 'monoclinic'
loop_
_space_group_symop_operation_xyz
x,y,z
-x,y,1/2-z
-x,-y,-z
x,-y,1/2+z
1/2+x,1/2+y,z
1/2-x,1/2+y,1/2-z
1/2-x,1/2-y,-z
1/2+x,1/2-y,1/2+z
loop_
_atom_site_type_symbol
_atom_site_label
_atom_site_fract_x
_atom_site_fract_y
_atom_site_fract_z
Si Si1 0.724442 0.340027 0.236082
Si Si2 0.613077 0.032763 0.835326
Si Si3 0.186825 0.371495 0.632388
Si Si4 0.051206 0.237397 0.615220
Si Si5 0.158370 0.954341 0.082821
Si Si6 0.827973 0.190152 0.499255
Si Si7 0.541092 0.149901 0.517577
O O1 0.816932 0.381139 0.176188
O O2 0.719551 0.213673 0.200139
O O3 0.668725 0.418445 0.197217
O O4 0.687557 0.348118 0.373284
O O5 0.634870 0.968579 0.716596
O O6 0.598667 0.947278 0.938747
O O7 0.529639 0.099951 0.867158
O O8 0.132859 0.311015 0.577022
O O9 0.261899 0.425277 0.529877
O O10 0.079900 0.110123 0.582875
O O11 0.000000 0.252876 0.750000
O O12 0.997100 0.277370 0.552363
O O13 0.145705 0.085321 0.085912
O O14 0.750000 0.250000 0.500000
O O15 0.903352 0.273327 0.444143
#
# Coordination Sequence:
#
# PCOD8151747 Si02
#       7
#     8   8   8   8   8   8   8
#     4  11  22  44  67 100 136 180 230 282 337 408
#     4  11  21  39  68  96 136 181 220 287 348 398
#     4  11  21  41  68 103 129 182 238 279 332 415
#     4  11  21  41  65  98 134 176 234 288 331 409
#     4  11  24  41  71  98 134 185 234 275 344 414
#     4  12  26  45  68  99 140 177 229 285 344 415
#     4  11  23  42  63 100 142 179 225 288 350 399
#
# _framework density 22.006392000000002
#
# number of rings (size 3 to 8) (size 9 to 14) (size 15 to 20)
#    0.000    0.857    4.286    5.143    0.000    1.714 
#    2.571    1.429    0.000    0.000    0.000    0.000 
#    0.000    0.000    0.000    0.000    0.000    0.000 
#
# Total GULP energy -347343.987754 kJ/mol
# GULP energy per Si atom -12405.142420 kJ/mol
# Density = 2.195630 g / cm^3
# Si number density = 22.006392 Si / 1000 Ang^3
#
#
#
# Elastic Constant Matrix: (Units=GPa)
#
#
# Indices 1 2 3 4 5 6 
#
# 1 106.1930 64.1755 18.3799 0.0000 -4.6535 0.0000
# 2 64.1755 140.7454 34.1830 0.0000 -0.8078 0.0000
# 3 18.3799 34.1830 70.9147 0.0000 4.9587 0.0000
# 4 0.0000 0.0000 0.0000 31.1263 0.0000 -14.2618
# 5 -4.6535 -0.8078 4.9587 0.0000 29.4822 0.0000
# 6 0.0000 0.0000 0.0000 -14.2618 0.0000 41.4565
#
#
#
# Elastic Compliance Matrix: (Units=1/GPa)
#
#
# Indices 1 2 3 4 5 6 
#
# 1 0.013140 -0.005796 -0.000754 0.000000 0.002042 0.000000
# 2 -0.005796 0.010627 -0.003619 0.000000 -0.000015 0.000000
# 3 -0.000754 -0.003619 0.016248 0.000000 -0.002951 0.000000
# 4 0.000000 0.000000 0.000000 0.038139 0.000000 0.013121
# 5 0.002042 -0.000015 -0.002951 0.000000 0.034737 0.000000
# 6 0.000000 0.000000 0.000000 0.013121 0.000000 0.028635
#
#
# Mechanical properties :
#
#
# Convention : Reuss Voigt Hill
#
# Bulk Modulus (GPa) = 50.82647 61.25888 56.04268
# Shear Modulus (GPa) = 29.68700 33.82063 31.75381
#
# Velocity S-wave (km/s) = 3.67688 3.92453 3.80272
# Velocity P-wave (km/s) = 6.41657 6.95939 6.69349
#
# Compressibility (1/GPa) = 0.01967479
#
# Stress axis : x y z
#
# Youngs Moduli (GPa) = 76.10463 94.10091 61.54665
#
# Poissons Ratio (x) = 0.54545 0.04643
# Poissons Ratio (y) = 0.44113 0.22274
# Poissons Ratio (z) = 0.05741 0.34056
#
# Static dielectric constant tensor:
#      x y z
#    x 4.199110 0.000000 -0.105800 
#    y 0.000000 4.276930 0.000000 
#    z -0.105800 0.000000 3.951870 
# 
# 
# High freq. dielectric constant tensor:
#      x y z
#    x 1.864490 0.000000 -0.012000 
#    y 0.000000 1.872220 0.000000 
#    z -0.012000 0.000000 1.860940 
# 
# From -- ./inp_files/161253.got.cif
#   From: 2010.06.25/outbox.cif.g09.slc.cpg/sg15_81_cif.got.tgz:161253.got - 2010.06.28 07:06:18.
