data_PCOD8151223
_publ_section_title
;
Structure prediction by ZEFSAII (Michael W. Deem and Ramdas Pophale) SiO2 
 PCOD8151223
Probable space group: C 2/C
;
_chemical_formula_sum "Si O2"
_cell_formula_units_Z 56
_cell_length_a 21.284325
_cell_length_b 6.342755
_cell_length_c 22.681464
_cell_angle_alpha 90.000000
_cell_angle_beta 117.896152
_cell_angle_gamma 90.000000
_cell_volume 2706.209729
_symmetry_space_group_name_H-M "C 2/C"
_symmetry_group_IT_number 15
_symmetry_cell_setting 'monoclinic'
loop_
_space_group_symop_operation_xyz
x,y,z
-x,y,1/2-z
-x,-y,-z
x,-y,1/2+z
1/2+x,1/2+y,z
1/2-x,1/2+y,1/2-z
1/2-x,1/2-y,-z
1/2+x,1/2-y,1/2+z
loop_
_atom_site_type_symbol
_atom_site_label
_atom_site_fract_x
_atom_site_fract_y
_atom_site_fract_z
Si Si1 0.027015 0.585537 0.600271
Si Si2 0.386732 0.955767 0.474171
Si Si3 0.241636 0.129688 0.435649
Si Si4 0.363789 0.712768 0.572587
Si Si5 0.624217 0.094261 0.836812
Si Si6 0.947143 0.324793 0.776599
Si Si7 0.487047 0.417565 0.669945
O O1 0.091627 0.601844 0.582724
O O2 0.036281 0.387526 0.648828
O O3 0.952100 0.574690 0.534008
O O4 0.030513 0.799860 0.638467
O O5 0.318495 0.107373 0.439648
O O6 0.363683 0.749257 0.501824
O O7 0.250000 0.250000 0.500000
O O8 0.194046 0.260096 0.368316
O O9 0.207440 0.901194 0.435869
O O10 0.431485 0.575346 0.617150
O O11 0.373767 0.945252 0.604761
O O12 0.554681 0.248871 0.807587
O O13 0.624975 0.941707 0.778545
O O14 0.000000 0.420955 0.750000
O O15 0.952497 0.068074 0.771828
#
# Coordination Sequence:
#
# PCOD8151223 Si02
#       7
#     8   8   8   8   8   8   8
#     4  11  24  40  63  95 137 164 208 270 333 385
#     4  11  21  43  61  96 136 167 210 267 322 391
#     4  11  23  39  68  94 127 173 218 259 321 383
#     4  11  20  38  62  94 124 167 212 259 318 380
#     4  11  23  38  64  97 126 165 219 272 315 384
#     4  12  22  38  63  91 127 163 218 269 317 385
#     4  11  20  36  59  96 125 163 209 263 331 376
#
# _framework density 20.693148000000001
#
# number of rings (size 3 to 8) (size 9 to 14) (size 15 to 20)
#    0.000    0.857    7.143    1.286    2.000    0.571 
#    2.571    0.000    3.143    0.000    0.000    0.000 
#    0.000    0.000    0.000    0.000    0.000    0.000 
#
# Total GULP energy -346934.058775 kJ/mol
# GULP energy per Si atom -12390.502099 kJ/mol
# Density = 2.064605 g / cm^3
# Si number density = 20.693148 Si / 1000 Ang^3
#
#
#
# Elastic Constant Matrix: (Units=GPa)
#
#
# Indices 1 2 3 4 5 6 
#
# 1 123.9842 51.1119 51.1095 0.0001 -1.4294 0.0001
# 2 51.1119 133.3692 46.3223 -0.0004 6.2640 -0.0003
# 3 51.1095 46.3223 94.3807 0.0001 -2.9780 0.0001
# 4 0.0001 -0.0004 0.0001 47.4461 0.0000 5.5056
# 5 -1.4294 6.2640 -2.9780 0.0000 27.9035 0.0000
# 6 0.0001 -0.0003 0.0001 5.5056 0.0000 24.5334
#
#
#
# Elastic Compliance Matrix: (Units=1/GPa)
#
#
# Indices 1 2 3 4 5 6 
#
# 1 0.011100 -0.002658 -0.004686 0.000000 0.000665 0.000000
# 2 -0.002658 0.009854 -0.003483 0.000000 -0.002720 0.000000
# 3 -0.004686 -0.003483 0.014910 0.000000 0.002133 0.000000
# 4 0.000000 0.000000 0.000000 0.021640 0.000000 -0.004856
# 5 0.000665 -0.002720 0.002133 0.000000 0.036710 0.000000
# 6 0.000000 0.000000 0.000000 -0.004856 0.000000 0.041851
#
#
# Mechanical properties :
#
#
# Convention : Reuss Voigt Hill
#
# Bulk Modulus (GPa) = 70.36769 72.09129 71.22949
# Shear Modulus (GPa) = 30.77779 33.52263 32.15021
#
# Velocity S-wave (km/s) = 3.86079 4.02927 3.94593
# Velocity P-wave (km/s) = 7.34530 7.52068 7.43351
#
# Compressibility (1/GPa) = 0.01421107
#
# Stress axis : x y z
#
# Youngs Moduli (GPa) = 90.08621 101.48133 67.07126
#
# Poissons Ratio (x) = 0.26973 0.31428
# Poissons Ratio (y) = 0.23944 0.23360
# Poissons Ratio (z) = 0.42212 0.35345
#
# Static dielectric constant tensor:
#      x y z
#    x 3.712010 0.000000 0.173860 
#    y 0.000000 4.232770 0.000000 
#    z 0.173860 0.000000 4.074050 
# 
# 
# High freq. dielectric constant tensor:
#      x y z
#    x 1.766920 0.000000 0.011580 
#    y 0.000000 1.825840 0.000000 
#    z 0.011580 0.000000 1.812700 
# 
# From -- ./inp_files/281030.got.cif
#   From: 2010.06.25/outbox.cif.g09.slc.cpg/sg15_141_cif.got.tgz:281030.got - 2010.06.28 07:06:18.
