data_PCOD8151222
_publ_section_title
;
Structure prediction by ZEFSAII (Michael W. Deem and Ramdas Pophale) SiO2 
 PCOD8151222
Probable space group: C 2/C
;
_chemical_formula_sum "Si O2"
_cell_formula_units_Z 56
_cell_length_a 13.056190
_cell_length_b 22.252933
_cell_length_c 13.646624
_cell_angle_alpha 90.000000
_cell_angle_beta 136.418425
_cell_angle_gamma 90.000000
_cell_volume 2733.328343
_symmetry_space_group_name_H-M "C 2/C"
_symmetry_group_IT_number 15
_symmetry_cell_setting 'monoclinic'
loop_
_space_group_symop_operation_xyz
x,y,z
-x,y,1/2-z
-x,-y,-z
x,-y,1/2+z
1/2+x,1/2+y,z
1/2-x,1/2+y,1/2-z
1/2-x,1/2-y,-z
1/2+x,1/2-y,1/2+z
loop_
_atom_site_type_symbol
_atom_site_label
_atom_site_fract_x
_atom_site_fract_y
_atom_site_fract_z
Si Si1 0.098133 0.085138 0.095679
Si Si2 0.089476 0.968204 0.209357
Si Si3 0.829600 0.643369 0.134128
Si Si4 0.915726 0.801301 0.788969
Si Si5 0.890572 0.767915 0.256463
Si Si6 0.812259 0.628272 0.900136
Si Si7 0.439413 0.792895 0.978146
O O1 0.257762 0.094410 0.156226
O O2 0.044617 0.147491 0.105122
O O3 0.110575 0.036819 0.191506
O O4 0.988467 0.067209 0.932620
O O5 0.253347 0.937972 0.331645
O O6 0.000000 0.964833 0.250000
O O7 0.798277 0.710547 0.152082
O O8 0.000000 0.626570 0.250000
O O9 0.769490 0.638102 0.983403
O O10 0.739410 0.797620 0.642396
O O11 0.000000 0.820045 0.750000
O O12 0.988069 0.738589 0.876536
O O13 0.781195 0.819421 0.219177
O O14 0.987165 0.745877 0.416150
O O15 0.000000 0.794009 0.250000
O O16 0.983827 0.640762 0.986137
#
# Coordination Sequence:
#
# PCOD8151222 Si02
#       7
#     8   8   8   8   8   8   8
#     4  11  23  43  67  90 126 172 218 263 324 375
#     4  11  24  41  67  95 123 171 222 267 310 380
#     4  11  20  36  59  93 132 160 200 263 327 386
#     4  12  26  45  65  92 131 175 219 266 315 389
#     4  11  21  32  61  99 132 161 195 253 331 395
#     4  12  21  36  62  96 133 160 209 261 320 382
#     4  12  23  40  65  97 130 170 207 261 328 381
#
# _framework density 20.487843999999999
#
# number of rings (size 3 to 8) (size 9 to 14) (size 15 to 20)
#    0.000    0.571    7.143    2.571    2.000    0.000 
#    0.000    2.857    0.000    0.000    0.000    0.000 
#    0.000    0.000    0.000    0.000    0.000    0.000 
#
# Total GULP energy -347031.101914 kJ/mol
# GULP energy per Si atom -12393.967925 kJ/mol
# Density = 2.044121 g / cm^3
# Si number density = 20.487844 Si / 1000 Ang^3
#
#
#
# Elastic Constant Matrix: (Units=GPa)
#
#
# Indices 1 2 3 4 5 6 
#
# 1 107.4225 35.8503 35.1242 0.0000 6.8839 0.0000
# 2 35.8503 76.8926 37.3159 0.0000 1.8051 0.0000
# 3 35.1242 37.3159 78.4746 0.0000 3.9032 0.0000
# 4 0.0000 0.0000 0.0000 -24.6098 0.0000 -43.1399
# 5 6.8839 1.8051 3.9032 0.0000 31.0139 0.0000
# 6 0.0000 0.0000 0.0000 -43.1399 0.0000 -5.7021
#
#
#
# Elastic Compliance Matrix: (Units=1/GPa)
#
#
# Indices 1 2 3 4 5 6 
#
# 1 0.011815 -0.003826 -0.003370 0.000000 -0.001976 0.000000
# 2 -0.003826 0.018146 -0.006949 0.000000 0.000668 0.000000
# 3 -0.003370 -0.006949 0.017609 0.000000 -0.001064 0.000000
# 4 0.000000 0.000000 0.000000 0.003314 0.000000 -0.025071
# 5 -0.001976 0.000668 -0.001064 0.000000 0.032777 0.000000
# 6 0.000000 0.000000 0.000000 -0.025071 0.000000 0.014302
#
#
# Mechanical properties :
#
#
# Convention : Reuss Voigt Hill
#
# Bulk Modulus (GPa) = 51.87394 53.26339 52.56867
# Shear Modulus (GPa) = 37.68460 10.44034 24.06247
#
# Velocity S-wave (km/s) = 4.29343 2.25985 3.43078
# Velocity P-wave (km/s) = 7.06770 5.73265 6.43489
#
# Compressibility (1/GPa) = 0.01927750
#
# Stress axis : x y z
#
# Youngs Moduli (GPa) = 84.64082 55.10857 56.78966
#
# Poissons Ratio (x) = 0.21087 0.19140
# Poissons Ratio (y) = 0.32388 0.39465
# Poissons Ratio (z) = 0.28526 0.38296
#
# Static dielectric constant tensor:
#      x y z
#    x 3.804780 0.000000 -0.063000 
#    y 0.000000 3.647920 0.000000 
#    z -0.063000 0.000000 3.872040 
# 
# 
# High freq. dielectric constant tensor:
#      x y z
#    x 1.797360 0.000000 -0.003140 
#    y 0.000000 1.778140 0.000000 
#    z -0.003140 0.000000 1.809400 
# 
# From -- ./inp_files/156222.got.cif
#   From: 2010.06.25/outbox.cif.g09.slc.cpg/sg15_79_cif.got.tgz:156222.got - 2010.06.28 07:06:18.
