data_PCOD8151240
_publ_section_title
;
Structure prediction by ZEFSAII (Michael W. Deem and Ramdas Pophale) SiO2 
 PCOD8151240
Probable space group: C 2/C
;
_chemical_formula_sum "Si O2"
_cell_formula_units_Z 40
_cell_length_a 10.304606
_cell_length_b 15.300682
_cell_length_c 14.307971
_cell_angle_alpha 90.000000
_cell_angle_beta 119.872879
_cell_angle_gamma 90.000000
_cell_volume 1956.166202
_symmetry_space_group_name_H-M "C 2/C"
_symmetry_group_IT_number 15
_symmetry_cell_setting 'monoclinic'
loop_
_space_group_symop_operation_xyz
x,y,z
-x,y,1/2-z
-x,-y,-z
x,-y,1/2+z
1/2+x,1/2+y,z
1/2-x,1/2+y,1/2-z
1/2-x,1/2-y,-z
1/2+x,1/2-y,1/2+z
loop_
_atom_site_type_symbol
_atom_site_label
_atom_site_fract_x
_atom_site_fract_y
_atom_site_fract_z
Si Si1 0.500000 0.291891 0.250000
Si Si2 0.241924 0.657793 0.545278
Si Si3 0.459211 0.028053 0.128544
Si Si4 0.000000 0.778080 0.750000
Si Si5 0.538799 0.162893 0.936672
Si Si6 0.318744 0.828215 0.828836
O O1 0.593118 0.357096 0.351272
O O2 0.609915 0.229146 0.228984
O O3 0.250000 0.750000 0.500000
O O4 0.186800 0.588651 0.446759
O O5 0.133984 0.662319 0.595708
O O6 0.500000 0.012302 0.250000
O O7 0.608134 0.074984 0.142107
O O8 0.418451 0.937793 0.065092
O O9 0.067423 0.717298 0.854149
O O10 0.137882 0.834966 0.757475
O O11 0.637578 0.209082 0.053181
#
# Coordination Sequence:
#
# PCOD8151240 Si02
#       6
#     4   8   8   4   8   8
#     4  12  20  37  65 100 122 156 220 268 300 365
#     4  11  20  36  66  96 121 164 218 264 306 368
#     4  11  22  41  66  92 127 170 213 257 322 382
#     4  12  24  39  65  90 130 166 210 260 322 375
#     4  11  23  41  62  93 130 171 204 259 327 384
#     4  11  22  39  65  94 123 166 213 263 308 377
#
# _framework density 20.448160000000001
#
# number of rings (size 3 to 8) (size 9 to 14) (size 15 to 20)
#    0.000    0.800    8.000    3.000    0.000    0.000 
#    0.000    4.000    0.000    3.600    0.000    0.000 
#    0.000    0.000    0.000    0.000    0.000    0.000 
#
# Total GULP energy -247780.894794 kJ/mol
# GULP energy per Si atom -12389.044740 kJ/mol
# Density = 2.040162 g / cm^3
# Si number density = 20.448160 Si / 1000 Ang^3
#
#
#
# Elastic Constant Matrix: (Units=GPa)
#
#
# Indices 1 2 3 4 5 6 
#
# 1 96.0302 16.8651 47.7075 0.0000 20.5418 0.0000
# 2 16.8651 68.0740 41.9666 0.0000 11.6588 0.0000
# 3 47.7075 41.9666 120.6732 0.0000 1.3904 0.0000
# 4 0.0000 0.0000 0.0000 19.2865 0.0000 -1.5430
# 5 20.5418 11.6588 1.3904 0.0000 44.0046 0.0000
# 6 0.0000 0.0000 0.0000 -1.5430 0.0000 23.5580
#
#
#
# Elastic Compliance Matrix: (Units=1/GPa)
#
#
# Indices 1 2 3 4 5 6 
#
# 1 0.014787 0.001403 -0.006252 0.000000 -0.007077 0.000000
# 2 0.001403 0.019880 -0.007403 0.000000 -0.005688 0.000000
# 3 -0.006252 -0.007403 0.013282 0.000000 0.004460 0.000000
# 4 0.000000 0.000000 0.000000 0.052123 0.000000 0.003414
# 5 -0.007077 -0.005688 0.004460 0.000000 0.027395 0.000000
# 6 0.000000 0.000000 0.000000 0.003414 0.000000 0.042672
#
#
# Mechanical properties :
#
#
# Convention : Reuss Voigt Hill
#
# Bulk Modulus (GPa) = 42.65368 55.31734 48.98551
# Shear Modulus (GPa) = 24.69652 29.25239 26.97446
#
# Velocity S-wave (km/s) = 3.47906 3.78638 3.63597
# Velocity P-wave (km/s) = 6.08631 6.79903 6.45252
#
# Compressibility (1/GPa) = 0.02344464
#
# Stress axis : x y z
#
# Youngs Moduli (GPa) = 67.62724 50.30104 75.29090
#
# Poissons Ratio (x) = -0.07058 0.47075
# Poissons Ratio (y) = -0.09489 0.55738
# Poissons Ratio (z) = 0.42283 0.37238
#
# Static dielectric constant tensor:
#      x y z
#    x 3.332590 0.000000 -0.390310 
#    y 0.000000 2.016970 0.000000 
#    z -0.390310 0.000000 4.036170 
# 
# 
# High freq. dielectric constant tensor:
#      x y z
#    x 1.785650 0.000000 -0.007510 
#    y 0.000000 1.766920 0.000000 
#    z -0.007510 0.000000 1.830220 
# 
# From -- ./inp_files/133132.got.cif
#   From: 2010.06.25/outbox.cif.g09.slc.cpg/sg15_67_cif.got.tgz:133132.got - 2010.06.28 07:06:18.
