data_PCOD8151473
_publ_section_title
;
Structure prediction by ZEFSAII (Michael W. Deem and Ramdas Pophale) SiO2 
 PCOD8151473
Probable space group: C 2/C
;
_chemical_formula_sum "Si O2"
_cell_formula_units_Z 48
_cell_length_a 21.277548
_cell_length_b 9.868579
_cell_length_c 22.075828
_cell_angle_alpha 90.000000
_cell_angle_beta 151.503417
_cell_angle_gamma 90.000000
_cell_volume 2211.609253
_symmetry_space_group_name_H-M "C 2/C"
_symmetry_group_IT_number 15
_symmetry_cell_setting 'monoclinic'
loop_
_space_group_symop_operation_xyz
x,y,z
-x,y,1/2-z
-x,-y,-z
x,-y,1/2+z
1/2+x,1/2+y,z
1/2-x,1/2+y,1/2-z
1/2-x,1/2-y,-z
1/2+x,1/2-y,1/2+z
loop_
_atom_site_type_symbol
_atom_site_label
_atom_site_fract_x
_atom_site_fract_y
_atom_site_fract_z
Si Si1 0.372126 0.929368 0.103253
Si Si2 0.775349 0.635994 0.208180
Si Si3 0.025740 0.689450 0.341407
Si Si4 0.299930 0.172521 0.747282
Si Si5 0.362300 0.547526 0.521403
Si Si6 0.588441 0.730113 0.463386
O O1 0.500000 0.888108 0.250000
O O2 0.337941 0.802381 0.030876
O O3 0.384281 0.058802 0.066808
O O4 0.264220 0.965309 0.062204
O O5 0.733467 0.748527 0.220111
O O6 0.789505 0.488438 0.250579
O O7 0.662118 0.626913 0.061759
O O8 0.904386 0.691912 0.283974
O O9 0.091264 0.837384 0.393361
O O10 0.000000 0.653046 0.250000
O O11 0.453725 0.191800 0.862904
O O12 0.196193 0.222796 0.608713
O O13 0.462637 0.423114 0.595714
#
# Coordination Sequence:
#
# PCOD8151473 Si02
#       6
#     8   8   8   8   8   8
#     4  11  20  43  68  95 138 174 221 279 344 394
#     4  11  25  46  66  97 135 181 221 284 335 397
#     4  11  23  41  67  97 135 173 223 278 343 394
#     4  11  27  45  69  99 137 181 228 272 340 397
#     4  11  24  40  68  99 135 174 226 283 334 399
#     4  11  25  46  68 102 138 179 225 278 334 405
#
# _framework density 21.703652000000002
#
# number of rings (size 3 to 8) (size 9 to 14) (size 15 to 20)
#    0.000    1.000    5.000    2.000    4.667    5.333 
#    0.000    0.000    0.000    0.000    0.000    0.000 
#    0.000    0.000    0.000    0.000    0.000    0.000 
#
# Total GULP energy -297370.807036 kJ/mol
# GULP energy per Si atom -12390.450293 kJ/mol
# Density = 2.165425 g / cm^3
# Si number density = 21.703652 Si / 1000 Ang^3
#
#
#
# Elastic Constant Matrix: (Units=GPa)
#
#
# Indices 1 2 3 4 5 6 
#
# 1 102.7427 35.7985 25.1939 0.0001 -16.2847 -0.0001
# 2 35.7985 115.6059 31.8307 0.0013 -17.4546 0.0001
# 3 25.1939 31.8307 64.4889 0.0017 0.6322 0.0002
# 4 0.0001 0.0013 0.0017 25.9484 0.0008 -5.0801
# 5 -16.2847 -17.4546 0.6322 0.0008 22.4832 0.0000
# 6 -0.0001 0.0001 0.0002 -5.0801 0.0000 42.5145
#
#
#
# Elastic Compliance Matrix: (Units=1/GPa)
#
#
# Indices 1 2 3 4 5 6 
#
# 1 0.012578 -0.001508 -0.004248 0.000000 0.008058 0.000000
# 2 -0.001508 0.011829 -0.005330 0.000000 0.008241 0.000000
# 3 -0.004248 -0.005330 0.019873 -0.000001 -0.007774 0.000000
# 4 0.000000 0.000000 -0.000001 0.039461 -0.000002 0.004715
# 5 0.008058 0.008241 -0.007774 -0.000002 0.056930 0.000000
# 6 0.000000 0.000000 0.000000 0.004715 0.000000 0.024085
#
#
# Mechanical properties :
#
#
# Convention : Reuss Voigt Hill
#
# Bulk Modulus (GPa) = 45.23561 52.05375 48.64468
# Shear Modulus (GPa) = 25.73364 30.85686 28.29525
#
# Velocity S-wave (km/s) = 3.44711 3.77468 3.61461
# Velocity P-wave (km/s) = 6.06062 6.56000 6.31524
#
# Compressibility (1/GPa) = 0.02210648
#
# Stress axis : x y z
#
# Youngs Moduli (GPa) = 79.50643 84.53843 50.31897
#
# Poissons Ratio (x) = 0.12752 0.21376
# Poissons Ratio (y) = 0.11993 0.26820
# Poissons Ratio (z) = 0.33776 0.45060
#
# Static dielectric constant tensor:
#      x y z
#    x 3.972580 0.000000 0.026210 
#    y 0.000000 4.219790 0.000000 
#    z 0.026210 0.000000 3.736200 
# 
# 
# High freq. dielectric constant tensor:
#      x y z
#    x 1.857620 0.000000 0.002270 
#    y 0.000000 1.881580 0.000000 
#    z 0.002270 0.000000 1.829040 
# 
# From -- ./inp_files/281709.got.cif
#   From: 2010.06.25/outbox.cif.g09.slc.cpg/sg15_141_cif.got.tgz:281709.got - 2010.06.28 07:06:18.
