data_PCOD8151904
_publ_section_title
;
Structure prediction by ZEFSAII (Michael W. Deem and Ramdas Pophale) SiO2 
 PCOD8151904
Probable space group: C 2/C
;
_chemical_formula_sum "Si O2"
_cell_formula_units_Z 60
_cell_length_a 9.593678
_cell_length_b 14.923767
_cell_length_c 21.667998
_cell_angle_alpha 90.000000
_cell_angle_beta 68.653169
_cell_angle_gamma 90.000000
_cell_volume 2889.454271
_symmetry_space_group_name_H-M "C 2/C"
_symmetry_group_IT_number 15
_symmetry_cell_setting 'monoclinic'
loop_
_space_group_symop_operation_xyz
x,y,z
-x,y,1/2-z
-x,-y,-z
x,-y,1/2+z
1/2+x,1/2+y,z
1/2-x,1/2+y,1/2-z
1/2-x,1/2-y,-z
1/2+x,1/2-y,1/2+z
loop_
_atom_site_type_symbol
_atom_site_label
_atom_site_fract_x
_atom_site_fract_y
_atom_site_fract_z
Si Si1 0.876626 0.197113 0.942662
Si Si2 0.365789 0.122846 0.590932
Si Si3 0.956140 0.678696 0.322209
Si Si4 0.323066 0.840966 0.516882
Si Si5 0.807439 0.569163 0.148486
Si Si6 0.948905 0.095543 0.487834
Si Si7 0.500000 0.384429 0.750000
Si Si8 0.872581 0.186566 0.148030
O O1 0.786604 0.116234 0.924778
O O2 0.962785 0.252588 0.877238
O O3 0.750000 0.250000 0.000000
O O4 0.008759 0.166514 0.966123
O O5 0.503531 0.144510 0.523708
O O6 0.357867 0.206578 0.639151
O O7 0.378587 0.026964 0.620545
O O8 0.787731 0.640489 0.340771
O O9 0.000000 0.725284 0.250000
O O10 0.078563 0.602434 0.316945
O O11 0.250000 0.750000 0.500000
O O12 0.301949 0.858635 0.593350
O O13 0.228979 0.914838 0.493484
O O14 0.637987 0.555968 0.201668
O O15 0.013208 0.132856 0.413396
O O16 0.000000 0.000000 0.500000
O O17 0.571821 0.321721 0.790969
#
# Coordination Sequence:
#
# PCOD8151904 Si02
#       8
#     8   8   8   8   8   8   4   8
#     4  11  21  42  68  91 133 173 217 268 331 397
#     4  11  24  43  64 101 131 169 224 274 333 392
#     4  11  23  42  68  91 126 177 225 261 332 394
#     4  12  22  41  67 101 136 169 214 274 340 388
#     4  12  25  41  68  96 130 176 218 279 324 392
#     4  12  24  39  66 102 129 169 218 274 331 381
#     4  12  24  48  64  90 132 180 216 270 338 390
#     4  11  24  47  65  92 138 175 216 272 329 405
#
# _framework density 20.765167000000002
#
# number of rings (size 3 to 8) (size 9 to 14) (size 15 to 20)
#    0.000    0.533    6.667    2.800    1.867    0.000 
#    6.000    0.000    0.000    0.000    0.000    0.000 
#    0.000    0.000    0.000    0.000    0.000    0.000 
#
# Total GULP energy -371739.138706 kJ/mol
# GULP energy per Si atom -12391.304624 kJ/mol
# Density = 2.071790 g / cm^3
# Si number density = 20.765167 Si / 1000 Ang^3
#
#
#
# Elastic Constant Matrix: (Units=GPa)
#
#
# Indices 1 2 3 4 5 6 
#
# 1 128.3311 11.1550 26.1496 0.0000 7.4771 0.0000
# 2 11.1550 81.4488 39.3543 0.0000 2.8852 0.0000
# 3 26.1496 39.3543 114.7696 0.0000 7.1372 0.0000
# 4 0.0000 0.0000 0.0000 18.5518 0.0000 1.0470
# 5 7.4771 2.8852 7.1372 0.0000 43.3543 0.0000
# 6 0.0000 0.0000 0.0000 1.0470 0.0000 29.4650
#
#
#
# Elastic Compliance Matrix: (Units=1/GPa)
#
#
# Indices 1 2 3 4 5 6 
#
# 1 0.008230 -0.000258 -0.001717 0.000000 -0.001120 0.000000
# 2 -0.000258 0.014725 -0.004983 0.000000 -0.000115 0.000000
# 3 -0.001717 -0.004983 0.010885 0.000000 -0.001164 0.000000
# 4 0.000000 0.000000 0.000000 0.054011 0.000000 -0.001919
# 5 -0.001120 -0.000115 -0.001164 0.000000 0.023458 0.000000
# 6 0.000000 0.000000 0.000000 -0.001919 0.000000 0.034007
#
#
# Mechanical properties :
#
#
# Convention : Reuss Voigt Hill
#
# Bulk Modulus (GPa) = 50.19098 53.09638 51.64368
# Shear Modulus (GPa) = 30.14337 34.80027 32.47182
#
# Velocity S-wave (km/s) = 3.81416 4.09821 3.95874
# Velocity P-wave (km/s) = 6.60457 6.92959 6.76903
#
# Compressibility (1/GPa) = 0.01992390
#
# Stress axis : x y z
#
# Youngs Moduli (GPa) = 121.50860 67.91255 91.86551
#
# Poissons Ratio (x) = 0.01751 0.15774
# Poissons Ratio (y) = 0.03133 0.45779
# Poissons Ratio (z) = 0.20864 0.33842
#
# Static dielectric constant tensor:
#      x y z
#    x 4.273650 0.000000 0.051550 
#    y 0.000000 3.509900 0.000000 
#    z 0.051550 0.000000 3.844370 
# 
# 
# High freq. dielectric constant tensor:
#      x y z
#    x 1.848180 0.000000 0.005580 
#    y 0.000000 1.786450 0.000000 
#    z 0.005580 0.000000 1.812180 
# 
# From -- ./inp_files/264666.got.cif
#   From: 2010.06.25/outbox.cif.g09.slc.cpg/sg15_133_cif.got.tgz:264666.got - 2010.06.28 07:06:18.
