data_PCOD8151127
_publ_section_title
;
Structure prediction by ZEFSAII (Michael W. Deem and Ramdas Pophale) SiO2 
 PCOD8151127
Probable space group: C 2/C
;
_chemical_formula_sum "Si O2"
_cell_formula_units_Z 64
_cell_length_a 16.756534
_cell_length_b 18.034594
_cell_length_c 14.652242
_cell_angle_alpha 90.000000
_cell_angle_beta 42.018307
_cell_angle_gamma 90.000000
_cell_volume 2963.873094
_symmetry_space_group_name_H-M "C 2/C"
_symmetry_group_IT_number 15
_symmetry_cell_setting 'monoclinic'
loop_
_space_group_symop_operation_xyz
x,y,z
-x,y,1/2-z
-x,-y,-z
x,-y,1/2+z
1/2+x,1/2+y,z
1/2-x,1/2+y,1/2-z
1/2-x,1/2-y,-z
1/2+x,1/2-y,1/2+z
loop_
_atom_site_type_symbol
_atom_site_label
_atom_site_fract_x
_atom_site_fract_y
_atom_site_fract_z
Si Si1 0.494622 0.933753 0.854473
Si Si2 0.027080 0.657890 0.955439
Si Si3 0.523434 0.406007 0.130477
Si Si4 0.236802 0.968811 0.862985
Si Si5 0.655599 0.084588 0.509703
Si Si6 0.280101 0.869576 0.360642
Si Si7 0.460911 0.324602 0.005649
Si Si8 0.109589 0.052421 0.287302
O O1 0.500000 0.895653 0.750000
O O2 0.628937 0.946392 0.773208
O O3 0.418580 0.009135 0.908488
O O4 0.437014 0.878351 0.977603
O O5 0.125260 0.633556 0.799998
O O6 0.900308 0.626985 0.028971
O O7 0.022505 0.745760 0.968194
O O8 0.500000 0.369161 0.250000
O O9 0.451134 0.361373 0.114334
O O10 0.481567 0.491095 0.170686
O O11 0.665394 0.408194 0.985529
O O12 0.169461 0.980671 0.826013
O O13 0.230913 0.047527 0.917244
O O14 0.654928 0.142545 0.596548
O O15 0.792579 0.066605 0.372850
O O16 0.170190 0.815584 0.428549
O O17 0.542139 0.371142 0.867149
#
# Coordination Sequence:
#
# PCOD8151127 Si02
#       8
#     8   8   8   8   8   8   8   8
#     4  12  24  41  70 100 128 166 222 276 328 385
#     4  12  27  43  63  94 136 180 208 261 333 398
#     4  11  23  40  69  99 123 165 221 276 324 379
#     4  11  19  41  67  94 130 159 213 280 322 370
#     4  12  24  41  68 100 127 165 223 279 327 381
#     4  12  23  44  67  94 130 169 222 275 322 382
#     4  11  27  44  63  93 137 177 216 260 328 404
#     4  11  22  41  67  96 125 169 214 273 325 377
#
# _framework density 21.593368000000002
#
# number of rings (size 3 to 8) (size 9 to 14) (size 15 to 20)
#    0.000    0.500    6.250    3.000    1.750    1.000 
#    2.250    0.000    0.000    3.750    0.000    0.000 
#    0.000    0.000    0.000    0.000    0.000    0.000 
#
# Total GULP energy -396781.814101 kJ/mol
# GULP energy per Si atom -12399.431691 kJ/mol
# Density = 2.154422 g / cm^3
# Si number density = 21.593368 Si / 1000 Ang^3
#
#
#
# Elastic Constant Matrix: (Units=GPa)
#
#
# Indices 1 2 3 4 5 6 
#
# 1 96.0818 31.7313 48.4550 0.0001 13.9207 0.0000
# 2 31.7313 84.7802 25.6655 0.0001 7.4953 -0.0001
# 3 48.4550 25.6655 132.3530 0.0001 11.7069 -0.0001
# 4 0.0001 0.0001 0.0001 13.8993 -0.0001 -1.3976
# 5 13.9207 7.4953 11.7069 -0.0001 43.2034 0.0001
# 6 0.0000 -0.0001 -0.0001 -1.3976 0.0001 14.4412
#
#
#
# Elastic Compliance Matrix: (Units=1/GPa)
#
#
# Indices 1 2 3 4 5 6 
#
# 1 0.014186 -0.003789 -0.004214 0.000000 -0.002772 0.000000
# 2 -0.003789 0.013645 -0.001186 0.000000 -0.000825 0.000000
# 3 -0.004214 -0.001186 0.009416 0.000000 -0.000988 0.000000
# 4 0.000000 0.000000 0.000000 0.072653 0.000000 0.007031
# 5 -0.002772 -0.000825 -0.000988 0.000000 0.024450 0.000000
# 6 0.000000 0.000000 0.000000 0.007031 0.000000 0.069927
#
#
# Mechanical properties :
#
#
# Convention : Reuss Voigt Hill
#
# Bulk Modulus (GPa) = 52.99474 58.32430 55.65952
# Shear Modulus (GPa) = 21.83949 28.13297 24.98623
#
# Velocity S-wave (km/s) = 3.18370 3.61342 3.40534
# Velocity P-wave (km/s) = 6.17333 6.66918 6.42604
#
# Compressibility (1/GPa) = 0.01886980
#
# Stress axis : x y z
#
# Youngs Moduli (GPa) = 70.49439 73.28574 106.20774
#
# Poissons Ratio (x) = 0.27766 0.44751
# Poissons Ratio (y) = 0.26708 0.12596
# Poissons Ratio (z) = 0.29703 0.08692
#
# Static dielectric constant tensor:
#      x y z
#    x 4.173970 0.000000 0.008300 
#    y 0.000000 3.546890 0.000000 
#    z 0.008300 0.000000 4.080020 
# 
# 
# High freq. dielectric constant tensor:
#      x y z
#    x 1.860650 0.000000 0.003320 
#    y 0.000000 1.806670 0.000000 
#    z 0.003320 0.000000 1.863430 
# 
# From -- ./inp_files/163260.got.cif
#   From: 2010.06.25/outbox.cif.g09.slc.cpg/sg15_82_cif.got.tgz:163260.got - 2010.06.28 07:06:18.
