data_PCOD8151640
_publ_section_title
;
Structure prediction by ZEFSAII (Michael W. Deem and Ramdas Pophale) SiO2 
 PCOD8151640
Probable space group: C 2/C
;
_chemical_formula_sum "Si O2"
_cell_formula_units_Z 48
_cell_length_a 16.373219
_cell_length_b 29.814023
_cell_length_c 9.383856
_cell_angle_alpha 90.000000
_cell_angle_beta 149.327751
_cell_angle_gamma 90.000000
_cell_volume 2336.758226
_symmetry_space_group_name_H-M "C 2/C"
_symmetry_group_IT_number 15
_symmetry_cell_setting 'monoclinic'
loop_
_space_group_symop_operation_xyz
x,y,z
-x,y,1/2-z
-x,-y,-z
x,-y,1/2+z
1/2+x,1/2+y,z
1/2-x,1/2+y,1/2-z
1/2-x,1/2-y,-z
1/2+x,1/2-y,1/2+z
loop_
_atom_site_type_symbol
_atom_site_label
_atom_site_fract_x
_atom_site_fract_y
_atom_site_fract_z
Si Si1 0.297235 0.125975 0.788814
Si Si2 0.806028 0.457863 0.123366
Si Si3 0.227495 0.275367 0.320704
Si Si4 0.175124 0.372998 0.848683
Si Si5 0.863619 0.725110 0.275690
Si Si6 0.187966 0.456481 0.691389
O O1 0.231127 0.084742 0.595072
O O2 0.234367 0.171445 0.617709
O O3 0.239791 0.125145 0.867840
O O4 0.486669 0.120347 0.079378
O O5 0.746645 0.501712 0.118946
O O6 0.996882 0.456419 0.403898
O O7 0.742591 0.458760 0.865200
O O8 0.250000 0.250000 0.500000
O O9 0.352859 0.249712 0.409864
O O10 0.045033 0.271967 0.990766
O O11 0.202265 0.325500 0.812039
O O12 0.251183 0.411277 0.862569
O O13 0.750000 0.750000 0.000000
#
# Coordination Sequence:
#
# PCOD8151640 Si02
#       6
#     8   8   8   8   8   8
#     4   9  17  30  45  67  98 136 173 217 269 321
#     4   9  16  25  40  63  96 131 169 211 266 325
#     4  11  23  36  55  81 113 146 185 232 277 322
#     4   9  17  29  47  67  96 135 177 216 266 322
#     4  11  21  38  57  79 109 150 189 226 272 329
#     4   9  16  25  40  64  94 132 169 212 264 326
#
# _framework density 20.541277999999998
#
# number of rings (size 3 to 8) (size 9 to 14) (size 15 to 20)
#    0.000    2.333    1.667    2.000    2.333    4.000 
#    0.000    0.000    0.000    0.000    0.000    0.000 
#    0.000    8.000    0.000    0.000    0.000    0.000 
#
# Total GULP energy -297479.600698 kJ/mol
# GULP energy per Si atom -12394.983362 kJ/mol
# Density = 2.049452 g / cm^3
# Si number density = 20.541278 Si / 1000 Ang^3
#
#
#
# Elastic Constant Matrix: (Units=GPa)
#
#
# Indices 1 2 3 4 5 6 
#
# 1 71.2262 52.7764 15.2449 0.0000 -32.9708 0.0000
# 2 52.7764 195.8049 31.6343 0.0000 -30.4936 0.0000
# 3 15.2449 31.6343 35.3131 0.0000 -21.6094 0.0000
# 4 0.0000 0.0000 0.0000 29.0946 0.0000 -14.5593
# 5 -32.9708 -30.4936 -21.6094 0.0000 38.0967 0.0000
# 6 0.0000 0.0000 0.0000 -14.5593 0.0000 39.0992
#
#
#
# Elastic Compliance Matrix: (Units=1/GPa)
#
#
# Indices 1 2 3 4 5 6 
#
# 1 0.026909 -0.004726 0.006974 0.000000 0.023461 0.000000
# 2 -0.004726 0.006985 -0.005052 0.000000 -0.001365 0.000000
# 3 0.006974 -0.005052 0.047560 0.000000 0.028969 0.000000
# 4 0.000000 0.000000 0.000000 0.042242 0.000000 0.015729
# 5 0.023461 -0.001365 0.028969 0.000000 0.061893 0.000000
# 6 0.000000 0.000000 0.000000 0.015729 0.000000 0.031433
#
#
# Mechanical properties :
#
#
# Convention : Reuss Voigt Hill
#
# Bulk Modulus (GPa) = 13.18467 55.73951 34.46209
# Shear Modulus (GPa) = 20.16837 34.77068 27.46952
#
# Velocity S-wave (km/s) = 3.13684 4.11873 3.66086
# Velocity P-wave (km/s) = 4.42179 7.05783 5.88919
#
# Compressibility (1/GPa) = 0.07584563
#
# Stress axis : x y z
#
# Youngs Moduli (GPa) = 37.16185 143.17313 21.02585
#
# Poissons Ratio (x) = 0.67662 -0.14663
# Poissons Ratio (y) = 0.17562 0.10622
# Poissons Ratio (z) = -0.25915 0.72332
#
# Static dielectric constant tensor:
#      x y z
#    x 3.954570 0.000000 -0.323530 
#    y 0.000000 4.065470 0.000000 
#    z -0.323530 0.000000 3.327590 
# 
# 
# High freq. dielectric constant tensor:
#      x y z
#    x 1.786830 0.000000 -0.038420 
#    y 0.000000 1.820940 0.000000 
#    z -0.038420 0.000000 1.758850 
# 
# From -- ./inp_files/33788.got.cif
#   From: 2010.06.25/outbox.cif.g09.slc.cpg/sg15_17_cif.got.tgz:33788.got - 2010.06.28 07:06:18.
