data_PCOD8151791
_publ_section_title
;
Structure prediction by ZEFSAII (Michael W. Deem and Ramdas Pophale) SiO2 
 PCOD8151791
Probable space group: C 2/C
;
_chemical_formula_sum "Si O2"
_cell_formula_units_Z 48
_cell_length_a 19.189679
_cell_length_b 14.264892
_cell_length_c 11.663550
_cell_angle_alpha 90.000000
_cell_angle_beta 133.183652
_cell_angle_gamma 90.000000
_cell_volume 2328.049031
_symmetry_space_group_name_H-M "C 2/C"
_symmetry_group_IT_number 15
_symmetry_cell_setting 'monoclinic'
loop_
_space_group_symop_operation_xyz
x,y,z
-x,y,1/2-z
-x,-y,-z
x,-y,1/2+z
1/2+x,1/2+y,z
1/2-x,1/2+y,1/2-z
1/2-x,1/2-y,-z
1/2+x,1/2-y,1/2+z
loop_
_atom_site_type_symbol
_atom_site_label
_atom_site_fract_x
_atom_site_fract_y
_atom_site_fract_z
Si Si1 0.032013 0.762089 0.164494
Si Si2 0.607494 0.083156 0.847907
Si Si3 0.643309 0.227041 0.697198
Si Si4 0.184163 0.391271 0.865453
Si Si5 0.241098 0.090866 0.293319
Si Si6 0.296333 0.377896 0.220105
O O1 0.087479 0.667144 0.256570
O O2 0.097269 0.834651 0.165783
O O3 0.000000 0.808078 0.250000
O O4 0.941862 0.730274 0.989090
O O5 0.500000 0.052569 0.750000
O O6 0.609873 0.176886 0.775680
O O7 0.659858 0.000894 0.838155
O O8 0.658115 0.095376 0.027616
O O9 0.669699 0.332490 0.766942
O O10 0.734590 0.171864 0.749122
O O11 0.244915 0.372804 0.820089
O O12 0.247750 0.358618 0.043366
O O13 0.193961 0.988407 0.244111
#
# Coordination Sequence:
#
# PCOD8151791 Si02
#       6
#     8   8   8   8   8   8
#     4  12  23  38  68  98 128 161 214 264 313 371
#     4  11  25  40  64  97 128 163 214 259 319 374
#     4  12  24  43  65  92 131 169 210 258 313 381
#     4  11  21  40  67  97 127 158 211 271 315 363
#     4  11  24  43  65  89 130 171 208 257 312 380
#     4  11  24  42  64  97 127 168 209 260 319 367
#
# _framework density 20.618124000000002
#
# number of rings (size 3 to 8) (size 9 to 14) (size 15 to 20)
#    0.000    0.667    5.000    3.500    2.333    2.000 
#    0.000    0.833    0.000    0.000    0.000    0.000 
#    0.000    0.000    0.000    0.000    0.000    0.000 
#
# Total GULP energy -297733.574562 kJ/mol
# GULP energy per Si atom -12405.565607 kJ/mol
# Density = 2.057120 g / cm^3
# Si number density = 20.618124 Si / 1000 Ang^3
#
#
#
# Elastic Constant Matrix: (Units=GPa)
#
#
# Indices 1 2 3 4 5 6 
#
# 1 69.1372 7.8519 0.7530 0.0000 -0.4190 0.0000
# 2 7.8519 100.7761 7.0036 0.0000 5.5798 0.0000
# 3 0.7530 7.0036 35.6426 0.0000 -2.7409 0.0000
# 4 0.0000 0.0000 0.0000 15.2449 0.0000 -5.6392
# 5 -0.4190 5.5798 -2.7409 0.0000 30.2600 0.0000
# 6 0.0000 0.0000 0.0000 -5.6392 0.0000 28.7211
#
#
#
# Elastic Compliance Matrix: (Units=1/GPa)
#
#
# Indices 1 2 3 4 5 6 
#
# 1 0.014598 -0.001157 -0.000050 0.000000 0.000411 0.000000
# 2 -0.001157 0.010280 -0.002158 0.000000 -0.002107 0.000000
# 3 -0.000050 -0.002158 0.028712 0.000000 0.002998 0.000000
# 4 0.000000 0.000000 0.000000 0.070733 0.000000 0.013888
# 5 0.000411 -0.002107 0.002998 0.000000 0.033713 0.000000
# 6 0.000000 0.000000 0.000000 0.013888 0.000000 0.037544
#
#
# Mechanical properties :
#
#
# Convention : Reuss Voigt Hill
#
# Bulk Modulus (GPa) = 21.33906 26.30810 23.82358
# Shear Modulus (GPa) = 22.94331 27.50835 25.22583
#
# Velocity S-wave (km/s) = 3.33945 3.65661 3.50162
# Velocity P-wave (km/s) = 5.02407 5.53309 5.28472
#
# Compressibility (1/GPa) = 0.04686242
#
# Stress axis : x y z
#
# Youngs Moduli (GPa) = 68.50072 97.27896 34.82889
#
# Poissons Ratio (x) = 0.11253 0.00172
# Poissons Ratio (y) = 0.07924 0.07514
# Poissons Ratio (z) = 0.00339 0.20988
#
# Static dielectric constant tensor:
#      x y z
#    x 3.664870 0.000000 -0.048030 
#    y 0.000000 3.821710 0.000000 
#    z -0.048030 0.000000 3.657980 
# 
# 
# High freq. dielectric constant tensor:
#      x y z
#    x 1.804840 0.000000 -0.004610 
#    y 0.000000 1.817640 0.000000 
#    z -0.004610 0.000000 1.804380 
# 
# From -- ./inp_files/96545.got.cif
#   From: 2010.06.25/outbox.cif.g09.slc.cpg/sg15_49_cif.got.tgz:96545.got - 2010.06.28 07:06:18.
