data_PCOD8151368
_publ_section_title
;
Structure prediction by ZEFSAII (Michael W. Deem and Ramdas Pophale) SiO2 
 PCOD8151368
Probable space group: C 2/C
;
_chemical_formula_sum "Si O2"
_cell_formula_units_Z 56
_cell_length_a 11.204024
_cell_length_b 11.317144
_cell_length_c 22.534702
_cell_angle_alpha 90.000000
_cell_angle_beta 112.787676
_cell_angle_gamma 90.000000
_cell_volume 2634.319238
_symmetry_space_group_name_H-M "C 2/C"
_symmetry_group_IT_number 15
_symmetry_cell_setting 'monoclinic'
loop_
_space_group_symop_operation_xyz
x,y,z
-x,y,1/2-z
-x,-y,-z
x,-y,1/2+z
1/2+x,1/2+y,z
1/2-x,1/2+y,1/2-z
1/2-x,1/2-y,-z
1/2+x,1/2-y,1/2+z
loop_
_atom_site_type_symbol
_atom_site_label
_atom_site_fract_x
_atom_site_fract_y
_atom_site_fract_z
Si Si1 0.368554 0.481231 0.437567
Si Si2 0.932029 0.908039 0.824795
Si Si3 0.096862 0.334654 0.127081
Si Si4 0.641421 0.957485 0.468874
Si Si5 0.376130 0.202292 0.995158
Si Si6 0.347896 0.781829 0.925603
Si Si7 0.797763 0.039361 0.179173
O O1 0.500000 0.500000 0.500000
O O2 0.380773 0.531658 0.374486
O O3 0.253305 0.533823 0.455704
O O4 0.298010 0.351375 0.420960
O O5 0.930445 0.764528 0.828099
O O6 0.833328 0.942033 0.754182
O O7 0.075001 0.958293 0.838158
O O8 0.116943 0.254474 0.071661
O O9 0.225189 0.413181 0.162449
O O10 0.972022 0.419480 0.098101
O O11 0.685633 0.848749 0.519100
O O12 0.599742 0.060913 0.506530
O O13 0.250000 0.250000 0.000000
O O14 0.499763 0.246750 0.055768
O O15 0.293190 0.852677 0.858948
#
# Coordination Sequence:
#
# PCOD8151368 Si02
#       7
#     8   8   8   8   8   8   8
#     4  12  24  39  65 104 135 164 226 284 335 403
#     4  11  27  44  67 100 130 180 226 283 332 393
#     4  11  22  45  69  90 136 175 221 275 330 407
#     4  11  20  40  63  99 130 171 219 268 347 399
#     4  11  21  36  63 100 133 163 215 282 337 392
#     4  11  21  38  65  93 132 178 215 270 342 406
#     4  11  24  47  68  93 132 180 232 268 336 405
#
# _framework density 21.257863
#
# number of rings (size 3 to 8) (size 9 to 14) (size 15 to 20)
#    0.000    0.857    2.857    6.429    4.000    0.000 
#    0.000    0.000    0.000    0.000    0.000    0.000 
#    0.000    0.000    0.000    0.000    0.000    0.000 
#
# Total GULP energy -346969.263290 kJ/mol
# GULP energy per Si atom -12391.759403 kJ/mol
# Density = 2.120948 g / cm^3
# Si number density = 21.257863 Si / 1000 Ang^3
#
#
#
# Elastic Constant Matrix: (Units=GPa)
#
#
# Indices 1 2 3 4 5 6 
#
# 1 117.3357 14.3554 49.0804 0.0000 7.6948 0.0000
# 2 14.3554 95.2143 33.7466 0.0000 -2.6081 0.0000
# 3 49.0804 33.7466 123.5861 0.0000 9.0821 0.0000
# 4 0.0000 0.0000 0.0000 24.0767 0.0000 -1.8128
# 5 7.6948 -2.6081 9.0821 0.0000 32.3274 0.0000
# 6 0.0000 0.0000 0.0000 -1.8128 0.0000 33.4164
#
#
#
# Elastic Compliance Matrix: (Units=1/GPa)
#
#
# Indices 1 2 3 4 5 6 
#
# 1 0.010279 -0.000194 -0.003929 0.000000 -0.001358 0.000000
# 2 -0.000194 0.011743 -0.003270 0.000000 0.001912 0.000000
# 3 -0.003929 -0.003270 0.010717 0.000000 -0.002339 0.000000
# 4 0.000000 0.000000 0.000000 0.041704 0.000000 0.002262
# 5 -0.001358 0.001912 -0.002339 0.000000 0.032068 0.000000
# 6 0.000000 0.000000 0.000000 0.002262 0.000000 0.030048
#
#
# Mechanical properties :
#
#
# Convention : Reuss Voigt Hill
#
# Bulk Modulus (GPa) = 55.70442 58.94456 57.32449
# Shear Modulus (GPa) = 31.78016 33.89436 32.83726
#
# Velocity S-wave (km/s) = 3.87070 3.99737 3.93455
# Velocity P-wave (km/s) = 6.79981 7.00670 6.90403
#
# Compressibility (1/GPa) = 0.01795190
#
# Stress axis : x y z
#
# Youngs Moduli (GPa) = 97.28579 85.15513 93.31151
#
# Poissons Ratio (x) = 0.01655 0.36664
# Poissons Ratio (y) = 0.01891 0.30513
# Poissons Ratio (z) = 0.38226 0.27846
#
# Static dielectric constant tensor:
#      x y z
#    x 4.012050 0.000000 0.058910 
#    y 0.000000 4.449110 0.000000 
#    z 0.058910 0.000000 3.711210 
# 
# 
# High freq. dielectric constant tensor:
#      x y z
#    x 1.847310 0.000000 0.001330 
#    y 0.000000 1.853190 0.000000 
#    z 0.001330 0.000000 1.812580 
# 
# From -- ./inp_files/236963.got.cif
#   From: 2010.06.25/outbox.cif.g09.slc.cpg/sg15_119_cif.got.tgz:236963.got - 2010.06.28 07:06:18.
