data_PCOD8151322
_publ_section_title
;
Structure prediction by ZEFSAII (Michael W. Deem and Ramdas Pophale) SiO2 
 PCOD8151322
Probable space group: C 2/C
;
_chemical_formula_sum "Si O2"
_cell_formula_units_Z 64
_cell_length_a 18.640087
_cell_length_b 20.242055
_cell_length_c 11.738241
_cell_angle_alpha 90.000000
_cell_angle_beta 49.224196
_cell_angle_gamma 90.000000
_cell_volume 3353.951989
_symmetry_space_group_name_H-M "C 2/C"
_symmetry_group_IT_number 15
_symmetry_cell_setting 'monoclinic'
loop_
_space_group_symop_operation_xyz
x,y,z
-x,y,1/2-z
-x,-y,-z
x,-y,1/2+z
1/2+x,1/2+y,z
1/2-x,1/2+y,1/2-z
1/2-x,1/2-y,-z
1/2+x,1/2-y,1/2+z
loop_
_atom_site_type_symbol
_atom_site_label
_atom_site_fract_x
_atom_site_fract_y
_atom_site_fract_z
Si Si1 0.187210 0.073415 0.819609
Si Si2 0.990916 0.879950 0.124990
Si Si3 0.827290 0.075156 0.190359
Si Si4 0.887907 0.125414 0.366720
Si Si5 0.329232 0.815493 0.186309
Si Si6 0.887611 0.277260 0.368402
Si Si7 0.010667 0.271249 0.872979
Si Si8 0.194838 0.306741 0.806427
O O1 0.108611 0.088388 0.806036
O O2 0.280510 0.116477 0.698462
O O3 0.216560 0.997129 0.781644
O O4 0.147625 0.090011 0.984240
O O5 0.995135 0.804315 0.077169
O O6 0.000000 0.885031 0.250000
O O7 0.074500 0.920558 0.979534
O O8 0.844697 0.087479 0.305020
O O9 0.752217 0.127051 0.218335
O O10 0.853377 0.201302 0.398864
O O11 0.000000 0.121813 0.250000
O O12 0.344573 0.815919 0.306117
O O13 0.263901 0.754846 0.216032
O O14 0.428945 0.812319 0.019083
O O15 0.847934 0.310785 0.522817
O O16 0.000000 0.282106 0.250000
O O17 0.111252 0.301879 0.801629
O O18 0.000000 0.276073 0.750000
#
# Coordination Sequence:
#
# PCOD8151322 Si02
#       8
#     8   8   8   8   8   8   8   8
#     4  12  26  40  61  93 130 169 204 254 315 378
#     4  11  23  40  62  93 127 161 204 255 314 374
#     4  12  26  40  61  93 130 169 204 254 315 378
#     4  11  21  37  65  97 129 160 199 257 329 376
#     4  12  22  41  66  94 125 161 208 262 312 366
#     4  11  20  38  72 100 124 150 200 277 327 355
#     4  11  24  42  65  91 123 165 210 255 300 363
#     4  12  22  41  66  94 125 161 208 262 312 366
#
# _framework density 19.081966999999999
#
# number of rings (size 3 to 8) (size 9 to 14) (size 15 to 20)
#    0.000    0.500    7.500    1.500    1.750    1.500 
#    0.000    0.625    0.000    0.000    0.000    0.000 
#    0.000    0.000    0.000    0.000    0.000    0.000 
#
# Total GULP energy -397053.136343 kJ/mol
# GULP energy per Si atom -12407.910511 kJ/mol
# Density = 1.903854 g / cm^3
# Si number density = 19.081967 Si / 1000 Ang^3
#
#
#
# Elastic Constant Matrix: (Units=GPa)
#
#
# Indices 1 2 3 4 5 6 
#
# 1 116.1217 48.4924 23.9162 0.0000 -6.5630 0.0000
# 2 48.4924 124.5141 4.8637 0.0000 -7.3360 0.0000
# 3 23.9162 4.8637 30.2321 0.0000 3.9972 0.0000
# 4 0.0000 0.0000 0.0000 11.3547 0.0000 -11.0805
# 5 -6.5630 -7.3360 3.9972 0.0000 26.2453 0.0000
# 6 0.0000 0.0000 0.0000 -11.0805 0.0000 22.4669
#
#
#
# Elastic Compliance Matrix: (Units=1/GPa)
#
#
# Indices 1 2 3 4 5 6 
#
# 1 0.012621 -0.004333 -0.009740 0.000000 0.003428 0.000000
# 2 -0.004333 0.009734 0.001679 0.000000 0.001382 0.000000
# 3 -0.009740 0.001679 0.041611 0.000000 -0.008304 0.000000
# 4 0.000000 0.000000 0.000000 0.169782 0.000000 0.083735
# 5 0.003428 0.001382 -0.008304 0.000000 0.040610 0.000000
# 6 0.000000 0.000000 0.000000 0.083735 0.000000 0.085807
#
#
# Mechanical properties :
#
#
# Convention : Reuss Voigt Hill
#
# Bulk Modulus (GPa) = 25.52499 47.26806 36.39652
# Shear Modulus (GPa) = 12.56238 24.91976 18.74107
#
# Velocity S-wave (km/s) = 2.56859 3.61769 3.13730
# Velocity P-wave (km/s) = 4.71195 6.50193 5.67792
#
# Compressibility (1/GPa) = 0.03917729
#
# Stress axis : x y z
#
# Youngs Moduli (GPa) = 79.23351 102.72772 24.03226
#
# Poissons Ratio (x) = 0.44510 0.23409
# Poissons Ratio (y) = 0.34330 -0.04035
# Poissons Ratio (z) = 0.77177 -0.17246
#
# Static dielectric constant tensor:
#      x y z
#    x 3.641710 0.000000 -0.043330 
#    y 0.000000 3.439650 0.000000 
#    z -0.043330 0.000000 3.508870 
# 
# 
# High freq. dielectric constant tensor:
#      x y z
#    x 1.755440 0.000000 0.000510 
#    y 0.000000 1.722280 0.000000 
#    z 0.000510 0.000000 1.746440 
# 
# From -- ./inp_files/107505.got.cif
#   From: 2010.06.25/outbox.cif.g09.slc.cpg/sg15_54_cif.got.tgz:107505.got - 2010.06.28 07:06:18.
