data_PCOD8151973
_publ_section_title
;
Structure prediction by ZEFSAII (Michael W. Deem and Ramdas Pophale) SiO2 
 PCOD8151973
Probable space group: C 2/C
;
_chemical_formula_sum "Si O2"
_cell_formula_units_Z 60
_cell_length_a 21.523864
_cell_length_b 8.893180
_cell_length_c 19.611766
_cell_angle_alpha 90.000000
_cell_angle_beta 44.010238
_cell_angle_gamma 90.000000
_cell_volume 2608.228544
_symmetry_space_group_name_H-M "C 2/C"
_symmetry_group_IT_number 15
_symmetry_cell_setting 'monoclinic'
loop_
_space_group_symop_operation_xyz
x,y,z
-x,y,1/2-z
-x,-y,-z
x,-y,1/2+z
1/2+x,1/2+y,z
1/2-x,1/2+y,1/2-z
1/2-x,1/2-y,-z
1/2+x,1/2-y,1/2+z
loop_
_atom_site_type_symbol
_atom_site_label
_atom_site_fract_x
_atom_site_fract_y
_atom_site_fract_z
Si Si1 0.887436 0.165922 0.212835
Si Si2 0.602736 0.165296 0.276337
Si Si3 0.266191 0.578624 0.845185
Si Si4 0.500000 0.042039 0.750000
Si Si5 0.016252 0.072217 0.657980
Si Si6 0.217014 0.915807 0.016899
Si Si7 0.323286 0.829519 0.393962
Si Si8 0.593700 0.060941 0.899362
O O1 0.833878 0.260629 0.311353
O O2 0.912396 0.274099 0.130472
O O3 0.820538 0.026473 0.248233
O O4 0.978792 0.092689 0.169118
O O5 0.694000 0.251327 0.182325
O O6 0.554715 0.056560 0.260245
O O7 0.530641 0.297173 0.349637
O O8 0.629231 0.066723 0.320446
O O9 0.281245 0.507375 0.908859
O O10 0.162089 0.579540 0.908196
O O11 0.575810 0.149044 0.653810
O O12 0.120350 0.074146 0.559232
O O13 0.000000 0.109884 0.750000
O O14 0.250000 0.750000 0.000000
O O15 0.284200 0.002506 0.913671
O O16 0.250000 0.750000 0.500000
O O17 0.500000 0.000000 0.000000
#
# Coordination Sequence:
#
# PCOD8151973 Si02
#       8
#     8   8   8   4   8   8   8   8
#     4  11  25  46  70 101 144 193 231 301 373 431
#     4  11  22  45  74  99 136 192 231 301 368 427
#     4  11  24  48  68  96 146 188 243 290 362 444
#     4  12  24  42  74 108 150 174 246 304 380 432
#     4  11  21  43  73 104 142 176 227 301 376 436
#     4  12  25  40  71 113 140 177 241 301 367 440
#     4  12  25  40  70 110 146 185 227 304 382 434
#     4  12  29  46  69  99 140 198 250 296 354 440
#
# _framework density 23.004118999999999
#
# number of rings (size 3 to 8) (size 9 to 14) (size 15 to 20)
#    0.000    0.533    6.000    2.400    6.533    1.067 
#    0.000    2.667    0.000    0.000    0.000    0.000 
#    0.000    0.000    0.000    0.000    0.000    0.000 
#
# Total GULP energy -371732.766056 kJ/mol
# GULP energy per Si atom -12391.092202 kJ/mol
# Density = 2.295176 g / cm^3
# Si number density = 23.004119 Si / 1000 Ang^3
#
#
#
# Elastic Constant Matrix: (Units=GPa)
#
#
# Indices 1 2 3 4 5 6 
#
# 1 118.7711 28.3943 33.9909 0.0002 -35.6952 -0.0002
# 2 28.3943 102.6623 32.3760 0.0004 -14.6675 -0.0007
# 3 33.9909 32.3760 93.6591 0.0001 -39.8665 -0.0001
# 4 0.0002 0.0004 0.0001 43.1693 0.0000 -7.5317
# 5 -35.6952 -14.6675 -39.8665 0.0000 48.3236 0.0002
# 6 -0.0002 -0.0007 -0.0001 -7.5317 0.0002 36.7449
#
#
#
# Elastic Compliance Matrix: (Units=1/GPa)
#
#
# Indices 1 2 3 4 5 6 
#
# 1 0.011205 -0.001966 -0.000182 0.000000 0.007530 0.000000
# 2 -0.001966 0.011280 -0.003617 0.000000 -0.001012 0.000000
# 3 -0.000182 -0.003617 0.017676 0.000000 0.013350 0.000000
# 4 0.000000 0.000000 0.000000 0.024024 0.000000 0.004924
# 5 0.007530 -0.001012 0.013350 0.000000 0.036963 0.000000
# 6 0.000000 0.000000 0.000000 0.004924 0.000000 0.028224
#
#
# Mechanical properties :
#
#
# Convention : Reuss Voigt Hill
#
# Bulk Modulus (GPa) = 34.92556 56.06835 45.49695
# Shear Modulus (GPa) = 33.23500 40.33630 36.78565
#
# Velocity S-wave (km/s) = 3.80510 4.19195 4.00320
# Velocity P-wave (km/s) = 5.87540 6.91780 6.41780
#
# Compressibility (1/GPa) = 0.02863232
#
# Stress axis : x y z
#
# Youngs Moduli (GPa) = 89.24961 88.64942 56.57433
#
# Poissons Ratio (x) = 0.17427 0.01028
# Poissons Ratio (y) = 0.17545 0.20461
# Poissons Ratio (z) = 0.01622 0.32062
#
# Static dielectric constant tensor:
#      x y z
#    x 4.134330 0.000000 -0.190650 
#    y 0.000000 5.502770 0.000000 
#    z -0.190650 0.000000 4.342320 
# 
# 
# High freq. dielectric constant tensor:
#      x y z
#    x 1.887830 0.000000 -0.030910 
#    y 0.000000 1.941600 0.000000 
#    z -0.030910 0.000000 1.897390 
# 
# From -- ./inp_files/255156.got.cif
#   From: 2010.06.25/outbox.cif.g09.slc.cpg/sg15_128_cif.got.tgz:255156.got - 2010.06.28 07:06:18.
