data_PCOD8151120
_publ_section_title
;
Structure prediction by ZEFSAII (Michael W. Deem and Ramdas Pophale) SiO2 
 PCOD8151120
Probable space group: C 2/C
;
_chemical_formula_sum "Si O2"
_cell_formula_units_Z 64
_cell_length_a 17.603928
_cell_length_b 10.639555
_cell_length_c 28.835141
_cell_angle_alpha 90.000000
_cell_angle_beta 32.337641
_cell_angle_gamma 90.000000
_cell_volume 2888.908881
_symmetry_space_group_name_H-M "C 2/C"
_symmetry_group_IT_number 15
_symmetry_cell_setting 'monoclinic'
loop_
_space_group_symop_operation_xyz
x,y,z
-x,y,1/2-z
-x,-y,-z
x,-y,1/2+z
1/2+x,1/2+y,z
1/2-x,1/2+y,1/2-z
1/2-x,1/2-y,-z
1/2+x,1/2-y,1/2+z
loop_
_atom_site_type_symbol
_atom_site_label
_atom_site_fract_x
_atom_site_fract_y
_atom_site_fract_z
Si Si1 0.442148 0.159562 0.181685
Si Si2 0.250750 0.862587 0.936761
Si Si3 0.667752 0.267607 0.432299
Si Si4 0.537517 0.437803 0.568471
Si Si5 0.787025 0.011289 0.374458
Si Si6 0.223183 0.980707 0.856581
Si Si7 0.053352 0.945546 0.295897
Si Si8 0.544924 0.848954 0.531410
O O1 0.586517 0.136237 0.134244
O O2 0.327303 0.063976 0.262209
O O3 0.407016 0.308804 0.203451
O O4 0.445955 0.115912 0.126110
O O5 0.237294 0.874634 0.888298
O O6 0.168515 0.735347 0.991458
O O7 0.174115 0.973656 0.004129
O O8 0.594336 0.304003 0.519883
O O9 0.785646 0.161728 0.382327
O O10 0.753663 0.383881 0.364563
O O11 0.546585 0.218856 0.460349
O O12 0.436263 0.491326 0.580397
O O13 0.456058 0.444615 0.659744
O O14 0.820077 0.983355 0.303658
O O15 0.626174 0.967629 0.467608
O O16 0.903254 0.942472 0.346222
#
# Coordination Sequence:
#
# PCOD8151120 Si02
#       8
#     8   8   8   8   8   8   8   8
#     4  12  24  38  72 105 127 171 231 285 325 394
#     4  11  19  40  68  97 129 167 220 281 329 384
#     4  11  24  46  64  94 139 182 218 266 338 412
#     4  11  22  44  71  93 131 178 220 275 337 394
#     4  11  26  43  65  96 137 179 218 274 337 393
#     4  11  23  41  67 100 131 170 220 282 333 383
#     4  11  24  44  67  96 134 172 221 283 338 383
#     4  12  21  43  69  98 134 170 227 273 331 398
#
# _framework density 22.153693000000001
#
# number of rings (size 3 to 8) (size 9 to 14) (size 15 to 20)
#    0.000    0.750    5.000    3.375    3.500    0.500 
#   11.250    0.000    0.000    0.000    0.000    0.000 
#    0.000    0.000    0.000    0.000    0.000    0.000 
#
# Total GULP energy -396707.322228 kJ/mol
# GULP energy per Si atom -12397.103820 kJ/mol
# Density = 2.210327 g / cm^3
# Si number density = 22.153693 Si / 1000 Ang^3
#
#
#
# Elastic Constant Matrix: (Units=GPa)
#
#
# Indices 1 2 3 4 5 6 
#
# 1 57.1381 12.2553 21.5988 0.0005 24.3066 0.0009
# 2 12.2553 96.5055 55.1021 0.0006 15.8281 0.0005
# 3 21.5988 55.1021 112.5223 0.0004 39.5507 0.0001
# 4 0.0005 0.0006 0.0004 36.1822 -0.0001 0.3296
# 5 24.3066 15.8281 39.5507 -0.0001 49.7550 0.0001
# 6 0.0009 0.0005 0.0001 0.3296 0.0001 26.9062
#
#
#
# Elastic Compliance Matrix: (Units=1/GPa)
#
#
# Indices 1 2 3 4 5 6 
#
# 1 0.022203 -0.001068 -0.000063 0.000000 -0.010456 -0.000001
# 2 -0.001068 0.014508 -0.007578 0.000000 0.001930 0.000000
# 3 -0.000063 -0.007578 0.016309 0.000000 -0.010522 0.000000
# 4 0.000000 0.000000 0.000000 0.027641 0.000000 -0.000339
# 5 -0.010456 0.001930 -0.010522 0.000000 0.032957 0.000000
# 6 -0.000001 0.000000 0.000000 -0.000339 0.000000 0.037170
#
#
# Mechanical properties :
#
#
# Convention : Reuss Voigt Hill
#
# Bulk Modulus (GPa) = 28.08990 49.34203 38.71596
# Shear Modulus (GPa) = 27.76642 34.38268 31.07455
#
# Velocity S-wave (km/s) = 3.54411 3.94383 3.74930
# Velocity P-wave (km/s) = 5.42722 6.56196 6.02138
#
# Compressibility (1/GPa) = 0.03559999
#
# Stress axis : x y z
#
# Youngs Moduli (GPa) = 45.03951 68.92750 61.31684
#
# Poissons Ratio (x) = 0.07364 0.00388
# Poissons Ratio (y) = 0.04812 0.46466
# Poissons Ratio (z) = 0.00285 0.52233
#
# Static dielectric constant tensor:
#      x y z
#    x 3.878890 0.000000 0.246440 
#    y 0.000000 3.943770 0.000000 
#    z 0.246440 0.000000 4.127500 
# 
# 
# High freq. dielectric constant tensor:
#      x y z
#    x 1.870000 0.000000 0.012090 
#    y 0.000000 1.858520 0.000000 
#    z 0.012090 0.000000 1.878370 
# 
# From -- ./inp_files/316187.got.cif
#   From: 2010.06.25/outbox.cif.g09.slc.cpg/sg15_159_cif.got.tgz:316187.got - 2010.06.28 07:06:18.
