data_PCOD8151110
_publ_section_title
;
Structure prediction by ZEFSAII (Michael W. Deem and Ramdas Pophale) SiO2 
 PCOD8151110
Probable space group: C 2/C
;
_chemical_formula_sum "Si O2"
_cell_formula_units_Z 60
_cell_length_a 26.313583
_cell_length_b 11.447258
_cell_length_c 15.129723
_cell_angle_alpha 90.000000
_cell_angle_beta 139.158660
_cell_angle_gamma 90.000000
_cell_volume 2980.355139
_symmetry_space_group_name_H-M "C 2/C"
_symmetry_group_IT_number 15
_symmetry_cell_setting 'monoclinic'
loop_
_space_group_symop_operation_xyz
x,y,z
-x,y,1/2-z
-x,-y,-z
x,-y,1/2+z
1/2+x,1/2+y,z
1/2-x,1/2+y,1/2-z
1/2-x,1/2-y,-z
1/2+x,1/2-y,1/2+z
loop_
_atom_site_type_symbol
_atom_site_label
_atom_site_fract_x
_atom_site_fract_y
_atom_site_fract_z
Si Si1 0.342189 0.054813 0.795853
Si Si2 0.584544 0.829600 0.553812
Si Si3 0.463508 0.216967 0.029987
Si Si4 0.000000 0.598955 0.250000
Si Si5 0.083606 0.055912 0.118909
Si Si6 0.583329 0.630778 0.321892
Si Si7 0.829503 0.107405 0.895731
Si Si8 0.928152 0.607983 0.744035
O O1 0.263382 0.112099 0.727660
O O2 0.353980 0.084622 0.708456
O O3 0.348075 0.918324 0.826831
O O4 0.418284 0.102141 0.942905
O O5 0.547260 0.773547 0.592803
O O6 0.630563 0.732709 0.560353
O O7 0.512517 0.881167 0.402389
O O8 0.474357 0.197129 0.146989
O O9 0.412104 0.327730 0.934644
O O10 0.068893 0.509372 0.311871
O O11 0.099507 0.083025 0.243632
O O12 0.146841 0.972898 0.156337
O O13 0.000000 0.000000 0.000000
O O14 0.500000 0.591574 0.250000
O O15 0.643942 0.569512 0.469898
O O16 0.589107 0.772482 0.331163
#
# Coordination Sequence:
#
# PCOD8151110 Si02
#       8
#     8   8   8   4   8   8   8   8
#     4  11  24  41  63  96 138 170 212 277 351 390
#     4  11  19  43  68  90 129 172 224 271 320 395
#     4  11  22  40  64  97 126 174 222 270 326 394
#     4  12  20  34  68 102 126 166 222 284 320 390
#     4  12  23  44  67  92 132 171 221 275 326 395
#     4  12  21  40  70  98 121 171 236 276 315 395
#     4  12  27  42  66  99 136 180 214 278 343 395
#     4  11  19  39  68  98 125 166 233 278 315 391
#
# _framework density 20.131829
#
# number of rings (size 3 to 8) (size 9 to 14) (size 15 to 20)
#    0.000    0.533   10.000    0.800    1.867    1.600 
#    2.400    0.000    0.000    2.400    0.000    0.000 
#    0.000    0.000    0.000    0.000    0.000    0.000 
#
# Total GULP energy -371665.664189 kJ/mol
# GULP energy per Si atom -12388.855473 kJ/mol
# Density = 2.008601 g / cm^3
# Si number density = 20.131829 Si / 1000 Ang^3
#
#
#
# Elastic Constant Matrix: (Units=GPa)
#
#
# Indices 1 2 3 4 5 6 
#
# 1 140.7098 38.0798 42.8902 0.0000 -4.1247 0.0000
# 2 38.0798 63.9330 22.8462 0.0000 -7.0612 0.0000
# 3 42.8902 22.8462 55.8526 0.0000 -15.8602 0.0000
# 4 0.0000 0.0000 0.0000 26.6149 0.0000 -8.7620
# 5 -4.1247 -7.0612 -15.8602 0.0000 43.6412 0.0000
# 6 0.0000 0.0000 0.0000 -8.7620 0.0000 28.7976
#
#
#
# Elastic Compliance Matrix: (Units=1/GPa)
#
#
# Indices 1 2 3 4 5 6 
#
# 1 0.010173 -0.003850 -0.006848 0.000000 -0.002150 0.000000
# 2 -0.003850 0.019779 -0.004827 0.000000 0.001082 0.000000
# 3 -0.006848 -0.004827 0.027578 0.000000 0.008594 0.000000
# 4 0.000000 0.000000 0.000000 0.041755 0.000000 0.012704
# 5 -0.002150 0.001082 0.008594 0.000000 0.026009 0.000000
# 6 0.000000 0.000000 0.000000 0.012704 0.000000 0.038591
#
#
# Mechanical properties :
#
#
# Convention : Reuss Voigt Hill
#
# Bulk Modulus (GPa) = 37.76344 52.01421 44.88883
# Shear Modulus (GPa) = 24.53865 30.25602 27.39733
#
# Velocity S-wave (km/s) = 3.49506 3.88092 3.69304
# Velocity P-wave (km/s) = 5.92335 6.78049 6.36636
#
# Compressibility (1/GPa) = 0.02648064
#
# Stress axis : x y z
#
# Youngs Moduli (GPa) = 98.30011 50.55956 36.26117
#
# Poissons Ratio (x) = 0.19464 0.24831
# Poissons Ratio (y) = 0.37842 0.17503
# Poissons Ratio (z) = 0.67314 0.24404
#
# Static dielectric constant tensor:
#      x y z
#    x 3.972290 0.000000 -0.387650 
#    y 0.000000 4.010890 0.000000 
#    z -0.387650 0.000000 3.474800 
# 
# 
# High freq. dielectric constant tensor:
#      x y z
#    x 1.794800 0.000000 -0.023640 
#    y 0.000000 1.784960 0.000000 
#    z -0.023640 0.000000 1.756880 
# 
# From -- ./inp_files/173160.got.cif
#   From: 2010.06.25/outbox.cif.g09.slc.cpg/sg15_87_cif.got.tgz:173160.got - 2010.06.28 07:06:18.
