data_PCOD8151398
_publ_section_title
;
Structure prediction by ZEFSAII (Michael W. Deem and Ramdas Pophale) SiO2 
 PCOD8151398
Probable space group: C 2/C
;
_chemical_formula_sum "Si O2"
_cell_formula_units_Z 60
_cell_length_a 23.238310
_cell_length_b 27.229060
_cell_length_c 13.835523
_cell_angle_alpha 90.000000
_cell_angle_beta 161.452255
_cell_angle_gamma 90.000000
_cell_volume 2784.769978
_symmetry_space_group_name_H-M "C 2/C"
_symmetry_group_IT_number 15
_symmetry_cell_setting 'monoclinic'
loop_
_space_group_symop_operation_xyz
x,y,z
-x,y,1/2-z
-x,-y,-z
x,-y,1/2+z
1/2+x,1/2+y,z
1/2-x,1/2+y,1/2-z
1/2-x,1/2-y,-z
1/2+x,1/2-y,1/2+z
loop_
_atom_site_type_symbol
_atom_site_label
_atom_site_fract_x
_atom_site_fract_y
_atom_site_fract_z
Si Si1 0.193600 0.980171 0.521688
Si Si2 0.079120 0.429082 0.778900
Si Si3 0.757094 0.276952 0.295577
Si Si4 0.722521 0.911242 0.354509
Si Si5 0.366344 0.822859 0.652476
Si Si6 0.000000 0.829846 0.750000
Si Si7 0.073461 0.580755 0.970998
Si Si8 0.297108 0.668728 0.398894
O O1 0.267905 0.959270 0.537080
O O2 0.343122 0.967311 0.842149
O O3 0.166426 0.037943 0.462897
O O4 0.000000 0.958377 0.250000
O O5 0.167255 0.376772 0.947751
O O6 0.000000 0.455832 0.750000
O O7 0.906030 0.414746 0.441398
O O8 0.745434 0.286187 0.393571
O O9 0.786568 0.219208 0.322267
O O10 0.925441 0.306657 0.520612
O O11 0.575192 0.294868 0.954240
O O12 0.849667 0.864517 0.555768
O O13 0.607155 0.901686 0.265462
O O14 0.315842 0.824394 0.683581
O O15 0.218265 0.625132 0.206428
O O16 0.000000 0.565524 0.750000
O O17 0.500000 0.654360 0.750000
#
# Coordination Sequence:
#
# PCOD8151398 Si02
#       8
#     8   8   8   8   8   4   8   8
#     4  11  24  45  71 100 132 177 234 280 340 415
#     4  11  20  40  71  94 132 175 222 279 341 396
#     4  11  24  39  66  95 129 176 222 280 329 402
#     4  11  23  44  67  92 136 178 218 285 343 410
#     4  11  20  44  63  93 130 169 231 269 334 405
#     4  12  22  44  64  96 138 170 232 278 340 412
#     4  11  25  45  64  98 142 176 216 282 361 407
#     4  12  24  41  69  97 133 176 227 284 332 409
#
# _framework density 21.545764999999999
#
# number of rings (size 3 to 8) (size 9 to 14) (size 15 to 20)
#    0.000    0.800    7.333    2.400    0.933    3.200 
#    2.400    2.667    0.000    0.000    0.000    0.000 
#    0.000    0.000    0.000    0.000    0.000    0.000 
#
# Total GULP energy -371869.869008 kJ/mol
# GULP energy per Si atom -12395.662300 kJ/mol
# Density = 2.149673 g / cm^3
# Si number density = 21.545765 Si / 1000 Ang^3
#
#
#
# Elastic Constant Matrix: (Units=GPa)
#
#
# Indices 1 2 3 4 5 6 
#
# 1 113.6047 -1.0687 36.7910 0.0001 3.8881 -0.0001
# 2 -1.0687 98.4167 16.4809 0.0000 -4.6478 0.0000
# 3 36.7910 16.4809 94.4719 0.0001 0.6763 -0.0002
# 4 0.0001 0.0000 0.0001 18.8359 0.0000 2.0010
# 5 3.8881 -4.6478 0.6763 0.0000 36.9769 -0.0001
# 6 -0.0001 0.0000 -0.0002 2.0010 -0.0001 22.6438
#
#
#
# Elastic Compliance Matrix: (Units=1/GPa)
#
#
# Indices 1 2 3 4 5 6 
#
# 1 0.010162 0.000751 -0.004082 0.000000 -0.000899 0.000000
# 2 0.000751 0.010590 -0.002149 0.000000 0.001291 0.000000
# 3 -0.004082 -0.002149 0.012550 0.000000 -0.000070 0.000000
# 4 0.000000 0.000000 0.000000 0.053593 0.000000 -0.004736
# 5 -0.000899 0.001291 -0.000070 0.000000 0.027302 0.000000
# 6 0.000000 0.000000 0.000000 -0.004736 0.000000 0.044581
#
#
# Mechanical properties :
#
#
# Convention : Reuss Voigt Hill
#
# Bulk Modulus (GPa) = 44.75783 45.65553 45.20668
# Shear Modulus (GPa) = 28.21888 32.64401 30.43144
#
# Velocity S-wave (km/s) = 3.62293 3.89665 3.76228
# Velocity P-wave (km/s) = 6.19026 6.44059 6.31667
#
# Compressibility (1/GPa) = 0.02234246
#
# Stress axis : x y z
#
# Youngs Moduli (GPa) = 98.40242 94.42913 79.67867
#
# Poissons Ratio (x) = -0.07096 0.32527
# Poissons Ratio (y) = -0.07395 0.17126
# Poissons Ratio (z) = 0.40171 0.20296
#
# Static dielectric constant tensor:
#      x y z
#    x 3.638600 0.000000 0.113500 
#    y 0.000000 4.186880 0.000000 
#    z 0.113500 0.000000 3.826100 
# 
# 
# High freq. dielectric constant tensor:
#      x y z
#    x 1.838800 0.000000 0.010760 
#    y 0.000000 1.861170 0.000000 
#    z 0.010760 0.000000 1.833100 
# 
# From -- ./inp_files/174951.got.cif
#   From: 2010.06.25/outbox.cif.g09.slc.cpg/sg15_88_cif.got.tgz:174951.got - 2010.06.28 07:06:18.
