data_PCOD8151880
_publ_section_title
;
Structure prediction by ZEFSAII (Michael W. Deem and Ramdas Pophale) SiO2 
 PCOD8151880
Probable space group: C 2/C
;
_chemical_formula_sum "Si O2"
_cell_formula_units_Z 32
_cell_length_a 10.153687
_cell_length_b 10.081460
_cell_length_c 26.561560
_cell_angle_alpha 90.000000
_cell_angle_beta 30.750116
_cell_angle_gamma 90.000000
_cell_volume 1390.183658
_symmetry_space_group_name_H-M "C 2/C"
_symmetry_group_IT_number 15
_symmetry_cell_setting 'monoclinic'
loop_
_space_group_symop_operation_xyz
x,y,z
-x,y,1/2-z
-x,-y,-z
x,-y,1/2+z
1/2+x,1/2+y,z
1/2-x,1/2+y,1/2-z
1/2-x,1/2-y,-z
1/2+x,1/2-y,1/2+z
loop_
_atom_site_type_symbol
_atom_site_label
_atom_site_fract_x
_atom_site_fract_y
_atom_site_fract_z
Si Si1 0.538935 0.376395 0.680675
Si Si2 0.540496 0.126851 0.127457
Si Si3 0.792943 0.093848 0.948068
Si Si4 0.223073 0.587328 0.638950
O O1 0.500000 0.429692 0.750000
O O2 0.712150 0.473001 0.589358
O O3 0.669939 0.233161 0.634083
O O4 0.246492 0.371406 0.755241
O O5 0.669205 0.270459 0.095402
O O6 0.721232 0.018122 0.094398
O O7 0.534417 0.098749 0.068055
O O8 0.012018 0.082285 0.918487
O O9 0.000000 0.545854 0.750000
#
# Coordination Sequence:
#
# PCOD8151880 Si02
#       4
#     8   8   8   8
#     4  11  22  42  63  87 126 160 195 250 300 351
#     4  11  22  41  64  90 120 160 202 244 300 357
#     4  11  24  42  62  90 123 156 202 251 294 356
#     4  11  21  42  64  85 124 159 196 251 299 348
#
# _framework density 23.018543000000001
#
# number of rings (size 3 to 8) (size 9 to 14) (size 15 to 20)
#    0.000    1.000    7.500    0.750    0.000    3.000 
#    4.500    0.000    0.000    0.000    0.000    0.000 
#    0.000    0.000    0.000    0.000    0.000    0.000 
#
# Total GULP energy -198388.504788 kJ/mol
# GULP energy per Si atom -12399.281549 kJ/mol
# Density = 2.296615 g / cm^3
# Si number density = 23.018543 Si / 1000 Ang^3
#
#
#
# Elastic Constant Matrix: (Units=GPa)
#
#
# Indices 1 2 3 4 5 6 
#
# 1 61.1653 58.1529 -20.0933 -0.0012 13.3546 -0.0013
# 2 58.1529 150.5608 17.8576 0.0008 38.5104 -0.0017
# 3 -20.0933 17.8576 48.5467 0.0139 13.6391 -0.0008
# 4 -0.0012 0.0008 0.0139 36.8277 -0.0029 15.3285
# 5 13.3546 38.5104 13.6391 -0.0029 28.7004 0.0002
# 6 -0.0013 -0.0017 -0.0008 15.3285 0.0002 42.2486
#
#
#
# Elastic Compliance Matrix: (Units=1/GPa)
#
#
# Indices 1 2 3 4 5 6 
#
# 1 0.045069 -0.018211 0.028136 -0.000012 -0.009907 0.000006
# 2 -0.018211 0.017471 -0.011262 0.000003 -0.009618 -0.000001
# 3 0.028136 -0.011262 0.041338 -0.000019 -0.017625 0.000008
# 4 -0.000012 0.000003 -0.000019 0.031983 0.000014 -0.011604
# 5 -0.009907 -0.009618 -0.017625 0.000014 0.060733 -0.000006
# 6 0.000006 -0.000001 0.000008 -0.011604 -0.000006 0.027880
#
#
# Mechanical properties :
#
#
# Convention : Reuss Voigt Hill
#
# Bulk Modulus (GPa) = 9.88101 41.34524 25.61313
# Shear Modulus (GPa) = 19.16568 35.17904 27.17236
#
# Velocity S-wave (km/s) = 2.88864 3.91358 3.43950
# Velocity P-wave (km/s) = 3.92780 6.19856 5.18892
#
# Compressibility (1/GPa) = 0.10120423
#
# Stress axis : x y z
#
# Youngs Moduli (GPa) = 22.18843 57.23695 24.19060
#
# Poissons Ratio (x) = 1.04232 -0.68062
# Poissons Ratio (y) = 0.40406 0.27243
# Poissons Ratio (z) = -0.62428 0.64460
#
# Static dielectric constant tensor:
#      x y z
#    x 3.939520 0.000000 -0.203140 
#    y 0.000000 4.077150 -0.000020 
#    z -0.203140 -0.000020 4.988610 
# 
# 
# High freq. dielectric constant tensor:
#      x y z
#    x 1.896670 0.000000 -0.016430 
#    y 0.000000 1.904230 0.000000 
#    z -0.016430 0.000000 1.931130 
# 
# From -- ./inp_files/140518.got.cif
#   From: 2010.06.25/outbox.cif.g09.slc.cpg/sg15_71_cif.got.tgz:140518.got - 2010.06.28 07:06:18.
