data_PCOD8151600
_publ_section_title
;
Structure prediction by ZEFSAII (Michael W. Deem and Ramdas Pophale) SiO2 
 PCOD8151600
Probable space group: C 2/C
;
_chemical_formula_sum "Si O2"
_cell_formula_units_Z 40
_cell_length_a 25.300673
_cell_length_b 11.743709
_cell_length_c 8.616323
_cell_angle_alpha 90.000000
_cell_angle_beta 52.013070
_cell_angle_gamma 90.000000
_cell_volume 2017.756955
_symmetry_space_group_name_H-M "C 2/C"
_symmetry_group_IT_number 15
_symmetry_cell_setting 'monoclinic'
loop_
_space_group_symop_operation_xyz
x,y,z
-x,y,1/2-z
-x,-y,-z
x,-y,1/2+z
1/2+x,1/2+y,z
1/2-x,1/2+y,1/2-z
1/2-x,1/2-y,-z
1/2+x,1/2-y,1/2+z
loop_
_atom_site_type_symbol
_atom_site_label
_atom_site_fract_x
_atom_site_fract_y
_atom_site_fract_z
Si Si1 0.587274 0.406431 0.943790
Si Si2 0.854746 0.221516 0.868948
Si Si3 0.965179 0.842394 0.967090
Si Si4 0.222127 0.874999 0.520746
Si Si5 0.257346 0.907732 0.108324
O O1 0.520151 0.349062 0.002340
O O2 0.645633 0.389795 0.712226
O O3 0.607032 0.348577 0.068616
O O4 0.571446 0.538303 0.004087
O O5 0.906967 0.242562 0.633397
O O6 0.791295 0.147783 0.930925
O O7 0.828821 0.342982 0.979204
O O8 0.000000 0.792805 0.750000
O O9 0.250000 0.750000 0.500000
O O10 0.223876 0.904516 0.336866
O O11 0.268664 0.961602 0.535990
#
# Coordination Sequence:
#
# PCOD8151600 Si02
#       5
#     8   8   8   8   8
#     4  11  21  37  61  96 131 171 212 275 337 395
#     4  11  22  40  60  92 137 168 216 269 329 401
#     4  11  22  36  63  96 133 170 214 279 341 390
#     4  12  24  42  66  95 137 175 221 271 331 397
#     4  11  25  39  62  96 131 180 216 268 329 394
#
# _framework density 19.823992000000001
#
# number of rings (size 3 to 8) (size 9 to 14) (size 15 to 20)
#    0.000    0.800    4.000    5.400    2.800    0.000 
#    0.000    0.000    0.000    1.200    0.000    0.000 
#    0.000    0.000    0.000    0.000    0.000    0.000 
#
# Total GULP energy -248035.358027 kJ/mol
# GULP energy per Si atom -12401.767901 kJ/mol
# Density = 1.977887 g / cm^3
# Si number density = 19.823992 Si / 1000 Ang^3
#
#
#
# Elastic Constant Matrix: (Units=GPa)
#
#
# Indices 1 2 3 4 5 6 
#
# 1 90.6238 41.1094 31.6952 0.0000 4.0558 0.0000
# 2 41.1094 90.9352 47.4801 0.0000 3.4004 0.0000
# 3 31.6952 47.4801 154.1652 0.0000 -9.2528 0.0000
# 4 0.0000 0.0000 0.0000 28.7526 0.0000 -3.4758
# 5 4.0558 3.4004 -9.2528 0.0000 36.3735 0.0000
# 6 0.0000 0.0000 0.0000 -3.4758 0.0000 25.4194
#
#
#
# Elastic Compliance Matrix: (Units=1/GPa)
#
#
# Indices 1 2 3 4 5 6 
#
# 1 0.014103 -0.005683 -0.001231 0.000000 -0.001354 0.000000
# 2 -0.005683 0.015584 -0.003738 0.000000 -0.001774 0.000000
# 3 -0.001231 -0.003738 0.008043 0.000000 0.002533 0.000000
# 4 0.000000 0.000000 0.000000 0.035364 0.000000 0.004836
# 5 -0.001354 -0.001774 0.002533 0.000000 0.028454 0.000000
# 6 0.000000 0.000000 0.000000 0.004836 0.000000 0.040001
#
#
# Mechanical properties :
#
#
# Convention : Reuss Voigt Hill
#
# Bulk Modulus (GPa) = 60.87197 64.03263 62.45230
# Shear Modulus (GPa) = 29.70416 32.47173 31.08795
#
# Velocity S-wave (km/s) = 3.87511 4.05161 3.96434
# Velocity P-wave (km/s) = 7.12705 7.36601 7.24752
#
# Compressibility (1/GPa) = 0.01642792
#
# Stress axis : x y z
#
# Youngs Moduli (GPa) = 70.90472 64.16976 124.33612
#
# Poissons Ratio (x) = 0.36465 0.15302
# Poissons Ratio (y) = 0.40292 0.46473
# Poissons Ratio (z) = 0.08726 0.23985
#
# Static dielectric constant tensor:
#      x y z
#    x 3.684990 0.000000 -0.072560 
#    y 0.000000 3.538920 0.000000 
#    z -0.072560 0.000000 4.024690 
# 
# 
# High freq. dielectric constant tensor:
#      x y z
#    x 1.776700 0.000000 0.007170 
#    y 0.000000 1.733220 0.000000 
#    z 0.007170 0.000000 1.797640 
# 
# From -- ./inp_files/46212.got.cif
#   From: 2010.06.25/outbox.cif.g09.slc.cpg/sg15_24_cif.got.tgz:46212.got - 2010.06.28 07:06:18.
