data_PCOD8151490
_publ_section_title
;
Structure prediction by ZEFSAII (Michael W. Deem and Ramdas Pophale) SiO2 
 PCOD8151490
Probable space group: C 2/C
;
_chemical_formula_sum "Si O2"
_cell_formula_units_Z 52
_cell_length_a 7.660094
_cell_length_b 17.689001
_cell_length_c 16.853683
_cell_angle_alpha 90.000000
_cell_angle_beta 71.028213
_cell_angle_gamma 90.000000
_cell_volume 2159.612676
_symmetry_space_group_name_H-M "C 2/C"
_symmetry_group_IT_number 15
_symmetry_cell_setting 'monoclinic'
loop_
_space_group_symop_operation_xyz
x,y,z
-x,y,1/2-z
-x,-y,-z
x,-y,1/2+z
1/2+x,1/2+y,z
1/2-x,1/2+y,1/2-z
1/2-x,1/2-y,-z
1/2+x,1/2-y,1/2+z
loop_
_atom_site_type_symbol
_atom_site_label
_atom_site_fract_x
_atom_site_fract_y
_atom_site_fract_z
Si Si1 0.866329 0.563466 0.705438
Si Si2 0.070087 0.816523 0.411066
Si Si3 0.657866 0.846048 0.908474
Si Si4 0.500000 0.654618 0.750000
Si Si5 0.796317 0.442605 0.447272
Si Si6 0.296902 0.103917 0.262195
Si Si7 0.236184 0.887441 0.941721
O O1 0.684748 0.607204 0.706536
O O2 0.801673 0.486485 0.756142
O O3 0.000000 0.605786 0.750000
O O4 0.986801 0.548831 0.607293
O O5 0.171667 0.742231 0.430628
O O6 0.024640 0.796189 0.325860
O O7 0.197397 0.891349 0.394360
O O8 0.884147 0.831888 0.487272
O O9 0.776381 0.861330 0.810133
O O10 0.447688 0.868591 0.924737
O O11 0.739743 0.897661 0.965920
O O12 0.702009 0.524468 0.468640
O O13 0.500000 0.135911 0.250000
O O14 0.176613 0.125482 0.357846
#
# Coordination Sequence:
#
# PCOD8151490 Si02
#       7
#     8   8   8   4   8   8   8
#     4  11  20  44  69 104 133 181 233 298 338 413
#     4  12  27  42  64 106 145 180 232 291 353 426
#     4  11  24  42  68  97 140 187 227 287 362 417
#     4  12  26  40  74 100 142 182 244 280 360 412
#     4  12  23  45  71  97 140 185 234 294 349 409
#     4   9  19  40  70  91 136 176 233 282 354 403
#     4  11  22  43  71 101 132 186 240 292 341 417
#
# _framework density 24.078392000000001
#
# number of rings (size 3 to 8) (size 9 to 14) (size 15 to 20)
#    0.000    0.923    6.154    2.769    5.385    0.000 
#    0.000    0.000    0.000    0.000    0.000    0.000 
#    0.000    0.000    0.000    0.000    0.000    0.000 
#
# Total GULP energy -322315.025278 kJ/mol
# GULP energy per Si atom -12396.731741 kJ/mol
# Density = 2.402359 g / cm^3
# Si number density = 24.078392 Si / 1000 Ang^3
#
#
#
# Elastic Constant Matrix: (Units=GPa)
#
#
# Indices 1 2 3 4 5 6 
#
# 1 42.1292 -1.3211 8.6983 0.0000 6.0145 0.0000
# 2 -1.3211 93.4520 22.9473 0.0000 7.2196 0.0000
# 3 8.6983 22.9473 155.6290 0.0000 16.8910 0.0000
# 4 0.0000 0.0000 0.0000 23.1305 0.0000 4.0773
# 5 6.0145 7.2196 16.8910 0.0000 34.0524 0.0000
# 6 0.0000 0.0000 0.0000 4.0773 0.0000 19.1735
#
#
#
# Elastic Compliance Matrix: (Units=1/GPa)
#
#
# Indices 1 2 3 4 5 6 
#
# 1 0.024558 0.000920 -0.001074 0.000000 -0.004000 0.000000
# 2 0.000920 0.011223 -0.001512 0.000000 -0.001792 0.000000
# 3 -0.001074 -0.001512 0.007032 0.000000 -0.002978 0.000000
# 4 0.000000 0.000000 0.000000 0.044917 0.000000 -0.009552
# 5 -0.004000 -0.001792 -0.002978 0.000000 0.031930 0.000000
# 6 0.000000 0.000000 0.000000 -0.009552 0.000000 0.054186
#
#
# Mechanical properties :
#
#
# Convention : Reuss Voigt Hill
#
# Bulk Modulus (GPa) = 25.32851 39.09547 32.21199
# Shear Modulus (GPa) = 26.26900 32.66367 29.46634
#
# Velocity S-wave (km/s) = 3.30658 3.68714 3.50203
# Velocity P-wave (km/s) = 5.01198 5.86504 5.45521
#
# Compressibility (1/GPa) = 0.03948120
#
# Stress axis : x y z
#
# Youngs Moduli (GPa) = 40.71972 89.09993 142.21397
#
# Poissons Ratio (x) = -0.08197 0.15275
# Poissons Ratio (y) = -0.03746 0.21500
# Poissons Ratio (z) = 0.04374 0.13470
#
# Static dielectric constant tensor:
#      x y z
#    x 4.107460 0.000000 0.261240 
#    y 0.000000 4.103330 0.000000 
#    z 0.261240 0.000000 4.724500 
# 
# 
# High freq. dielectric constant tensor:
#      x y z
#    x 1.930670 0.000000 0.011510 
#    y 0.000000 1.940910 0.000000 
#    z 0.011510 0.000000 1.976900 
# 
# From -- ./inp_files/190831.got.cif
#   From: 2010.06.25/outbox.cif.g09.slc.cpg/sg15_96_cif.got.tgz:190831.got - 2010.06.28 07:06:18.
