data_PCOD8151885
_publ_section_title
;
Structure prediction by ZEFSAII (Michael W. Deem and Ramdas Pophale) SiO2 
 PCOD8151885
Probable space group: C 2/C
;
_chemical_formula_sum "Si O2"
_cell_formula_units_Z 64
_cell_length_a 21.886067
_cell_length_b 16.917671
_cell_length_c 19.873975
_cell_angle_alpha 90.000000
_cell_angle_beta 154.471228
_cell_angle_gamma 90.000000
_cell_volume 3171.278071
_symmetry_space_group_name_H-M "C 2/C"
_symmetry_group_IT_number 15
_symmetry_cell_setting 'monoclinic'
loop_
_space_group_symop_operation_xyz
x,y,z
-x,y,1/2-z
-x,-y,-z
x,-y,1/2+z
1/2+x,1/2+y,z
1/2-x,1/2+y,1/2-z
1/2-x,1/2-y,-z
1/2+x,1/2-y,1/2+z
loop_
_atom_site_type_symbol
_atom_site_label
_atom_site_fract_x
_atom_site_fract_y
_atom_site_fract_z
Si Si1 0.512534 0.653770 0.526082
Si Si2 0.842437 0.483816 0.004484
Si Si3 0.433719 0.170452 0.423172
Si Si4 0.297424 0.068651 0.825848
Si Si5 0.359054 0.792134 0.154284
Si Si6 0.697978 0.662603 0.298601
Si Si7 0.275070 0.565874 0.347556
Si Si8 0.836500 0.532160 0.649578
O O1 0.497574 0.746161 0.529471
O O2 0.675825 0.630471 0.685735
O O3 0.430634 0.632484 0.375650
O O4 0.434266 0.600170 0.504270
O O5 0.821223 0.508732 0.061182
O O6 0.009232 0.468255 0.162721
O O7 0.802432 0.552485 0.911410
O O8 0.747230 0.405463 0.898925
O O9 0.558149 0.106658 0.559139
O O10 0.338105 0.184355 0.394663
O O11 0.335219 0.139250 0.263984
O O12 0.267427 0.985309 0.760470
O O13 0.500000 0.804461 0.250000
O O14 0.370789 0.738862 0.232822
O O15 0.292342 0.876533 0.106178
O O16 0.250000 0.750000 0.000000
O O17 0.271106 0.515822 0.411142
#
# Coordination Sequence:
#
# PCOD8151885 Si02
#       8
#     8   8   8   8   8   8   8   8
#     4  11  26  40  62  96 137 164 213 286 343 381
#     4  11  21  42  65  92 128 172 225 263 321 399
#     4  11  23  42  66  93 127 175 222 270 328 394
#     4  12  22  41  69  93 128 171 219 280 324 395
#     4  12  25  42  62  94 141 184 215 256 319 410
#     4  11  24  40  61  98 135 174 219 260 330 397
#     4  11  23  40  65  97 127 170 224 274 332 385
#     4  11  23  40  67  94 131 176 223 266 315 402
#
# _framework density 20.181138000000001
#
# number of rings (size 3 to 8) (size 9 to 14) (size 15 to 20)
#    0.000    0.750    6.250    3.000    7.000    0.000 
#    0.000    0.625    0.000    4.500    0.000    0.000 
#    0.000    0.000    0.000    0.000    0.000    0.000 
#
# Total GULP energy -396741.222690 kJ/mol
# GULP energy per Si atom -12398.163209 kJ/mol
# Density = 2.013520 g / cm^3
# Si number density = 20.181138 Si / 1000 Ang^3
#
#
#
# Elastic Constant Matrix: (Units=GPa)
#
#
# Indices 1 2 3 4 5 6 
#
# 1 109.6408 47.5110 29.5704 -0.0014 -6.8573 -0.0025
# 2 47.5110 90.8797 22.6748 -0.0015 -4.2776 -0.0031
# 3 29.5704 22.6748 78.3581 0.0049 -5.1281 0.0006
# 4 -0.0014 -0.0015 0.0049 36.9916 0.0007 3.7241
# 5 -6.8573 -4.2776 -5.1281 0.0007 29.5488 -0.0011
# 6 -0.0025 -0.0031 0.0006 3.7241 -0.0011 37.8823
#
#
#
# Elastic Compliance Matrix: (Units=1/GPa)
#
#
# Indices 1 2 3 4 5 6 
#
# 1 0.012495 -0.005721 -0.002958 0.000001 0.001558 0.000000
# 2 -0.005721 0.014517 -0.002014 0.000001 0.000424 0.000001
# 3 -0.002958 -0.002014 0.014562 -0.000002 0.001549 0.000000
# 4 0.000001 0.000001 -0.000002 0.027303 -0.000001 -0.002684
# 5 0.001558 0.000424 0.001549 -0.000001 0.034534 0.000001
# 6 0.000000 0.000001 0.000000 -0.002684 0.000001 0.026661
#
#
# Mechanical properties :
#
#
# Convention : Reuss Voigt Hill
#
# Bulk Modulus (GPa) = 49.53315 53.15456 51.34385
# Shear Modulus (GPa) = 31.60791 32.82606 32.21698
#
# Velocity S-wave (km/s) = 3.96183 4.03745 3.99982
# Velocity P-wave (km/s) = 6.74727 6.93762 6.84311
#
# Compressibility (1/GPa) = 0.02018850
#
# Stress axis : x y z
#
# Youngs Moduli (GPa) = 80.03247 68.88529 68.67026
#
# Poissons Ratio (x) = 0.39409 0.20311
# Poissons Ratio (y) = 0.45786 0.13831
# Poissons Ratio (z) = 0.23672 0.13874
#
# Static dielectric constant tensor:
#      x y z
#    x 3.539810 -0.000110 -0.022180 
#    y -0.000110 5.418970 0.000000 
#    z -0.022180 0.000000 3.674350 
# 
# 
# High freq. dielectric constant tensor:
#      x y z
#    x 1.773340 0.000000 0.006310 
#    y 0.000000 1.785350 0.000000 
#    z 0.006310 0.000000 1.792500 
# 
# From -- ./inp_files/216188.got.cif
#   From: 2010.06.25/outbox.cif.g09.slc.cpg/sg15_109_cif.got.tgz:216188.got - 2010.06.28 07:06:18.
