data_PCOD8151194
_publ_section_title
;
Structure prediction by ZEFSAII (Michael W. Deem and Ramdas Pophale) SiO2 
 PCOD8151194
Probable space group: C 2/C
;
_chemical_formula_sum "Si O2"
_cell_formula_units_Z 48
_cell_length_a 17.110191
_cell_length_b 29.849001
_cell_length_c 9.515525
_cell_angle_alpha 90.000000
_cell_angle_beta 149.456745
_cell_angle_gamma 90.000000
_cell_volume 2469.689841
_symmetry_space_group_name_H-M "C 2/C"
_symmetry_group_IT_number 15
_symmetry_cell_setting 'monoclinic'
loop_
_space_group_symop_operation_xyz
x,y,z
-x,y,1/2-z
-x,-y,-z
x,-y,1/2+z
1/2+x,1/2+y,z
1/2-x,1/2+y,1/2-z
1/2-x,1/2-y,-z
1/2+x,1/2-y,1/2+z
loop_
_atom_site_type_symbol
_atom_site_label
_atom_site_fract_x
_atom_site_fract_y
_atom_site_fract_z
Si Si1 0.546801 0.214645 0.098490
Si Si2 0.337486 0.523033 0.739962
Si Si3 0.747518 0.213010 0.689000
Si Si4 0.458535 0.884252 0.915449
Si Si5 0.261171 0.113953 0.828958
Si Si6 0.148277 0.474460 0.673809
O O1 0.648430 0.217066 0.395148
O O2 0.610683 0.251952 0.089108
O O3 0.562962 0.165410 0.052220
O O4 0.367746 0.223313 0.859566
O O5 0.358000 0.572857 0.839204
O O6 0.205951 0.495719 0.618756
O O7 0.286730 0.524262 0.499943
O O8 0.500000 0.500000 0.000000
O O9 0.819512 0.162769 0.809208
O O10 0.367929 0.887130 0.629958
O O11 0.397614 0.922450 0.926969
O O12 0.636808 0.893450 0.153077
O O13 0.000000 0.500000 0.500000
#
# Coordination Sequence:
#
# PCOD8151194 Si02
#       6
#     8   8   8   8   8   8
#     4   8  13  22  36  58  87 117 152 193 240 292
#     4  11  22  35  50  76 108 134 165 215 261 295
#     4   8  13  22  37  57  85 120 153 190 239 296
#     4   8  14  26  45  65  87 124 169 202 234 292
#     4   8  14  27  44  62  91 129 161 194 249 302
#     4  11  20  35  56  74  98 138 178 207 243 304
#
# _framework density 19.435638999999998
#
# number of rings (size 3 to 8) (size 9 to 14) (size 15 to 20)
#    0.000    3.000    1.667    3.000    0.000    0.000 
#    3.000    0.000    0.000    0.000    0.000    0.000 
#    0.000    8.000    0.000    0.000    0.000    0.000 
#
# Total GULP energy -297384.288550 kJ/mol
# GULP energy per Si atom -12391.012023 kJ/mol
# Density = 1.939140 g / cm^3
# Si number density = 19.435639 Si / 1000 Ang^3
#
#
#
# Elastic Constant Matrix: (Units=GPa)
#
#
# Indices 1 2 3 4 5 6 
#
# 1 46.0786 44.4311 7.6095 0.0000 19.9005 0.0000
# 2 44.4311 185.2324 35.9895 0.0000 34.1633 0.0000
# 3 7.6095 35.9895 43.7612 0.0000 19.1363 0.0000
# 4 0.0000 0.0000 0.0000 26.9381 0.0000 13.2527
# 5 19.9005 34.1633 19.1363 0.0000 26.6946 0.0000
# 6 0.0000 0.0000 0.0000 13.2527 0.0000 30.3839
#
#
#
# Elastic Compliance Matrix: (Units=1/GPa)
#
#
# Indices 1 2 3 4 5 6 
#
# 1 0.037888 -0.005944 0.010670 0.000000 -0.028287 0.000000
# 2 -0.005944 0.008226 -0.004466 0.000000 -0.002895 0.000000
# 3 0.010670 -0.004466 0.037359 0.000000 -0.029020 0.000000
# 4 0.000000 0.000000 0.000000 0.047264 0.000000 -0.020616
# 5 -0.028287 -0.002895 -0.029020 0.000000 0.083057 0.000000
# 6 0.000000 0.000000 0.000000 -0.020616 0.000000 0.041904
#
#
# Mechanical properties :
#
#
# Convention : Reuss Voigt Hill
#
# Bulk Modulus (GPa) = 11.90576 50.12582 31.01579
# Shear Modulus (GPa) = 17.65689 29.27278 23.46483
#
# Velocity S-wave (km/s) = 3.01737 3.88511 3.47841
# Velocity P-wave (km/s) = 4.27532 6.78027 5.66791
#
# Compressibility (1/GPa) = 0.08399297
#
# Stress axis : x y z
#
# Youngs Moduli (GPa) = 26.39346 121.56584 26.76757
#
# Poissons Ratio (x) = 0.72260 -0.28560
# Poissons Ratio (y) = 0.15689 0.11953
# Poissons Ratio (z) = -0.28161 0.54285
#
# Static dielectric constant tensor:
#      x y z
#    x 3.908240 0.000000 0.526330 
#    y 0.000000 4.198810 0.000000 
#    z 0.526330 0.000000 3.209090 
# 
# 
# High freq. dielectric constant tensor:
#      x y z
#    x 1.724550 0.000000 0.022380 
#    y 0.000000 1.777350 0.000000 
#    z 0.022380 0.000000 1.708040 
# 
# From -- ./inp_files/108516.got.cif
#   From: 2010.06.25/outbox.cif.g09.slc.cpg/sg15_55_cif.got.tgz:108516.got - 2010.06.28 07:06:18.
