data_PCOD8151814
_publ_section_title
;
Structure prediction by ZEFSAII (Michael W. Deem and Ramdas Pophale) SiO2 
 PCOD8151814
Probable space group: C 2/C
;
_chemical_formula_sum "Si O2"
_cell_formula_units_Z 40
_cell_length_a 17.800712
_cell_length_b 13.239927
_cell_length_c 7.409609
_cell_angle_alpha 90.000000
_cell_angle_beta 128.099928
_cell_angle_gamma 90.000000
_cell_volume 1374.224089
_symmetry_space_group_name_H-M "C 2/C"
_symmetry_group_IT_number 15
_symmetry_cell_setting 'monoclinic'
loop_
_space_group_symop_operation_xyz
x,y,z
-x,y,1/2-z
-x,-y,-z
x,-y,1/2+z
1/2+x,1/2+y,z
1/2-x,1/2+y,1/2-z
1/2-x,1/2-y,-z
1/2+x,1/2-y,1/2+z
loop_
_atom_site_type_symbol
_atom_site_label
_atom_site_fract_x
_atom_site_fract_y
_atom_site_fract_z
Si Si1 0.419306 0.395634 0.493705
Si Si2 0.310106 0.069725 0.693617
Si Si3 0.900500 0.390782 0.690501
Si Si4 0.642170 0.590780 0.969307
Si Si5 0.204378 0.718138 0.149325
O O1 0.418349 0.518783 0.486670
O O2 0.319693 0.339405 0.413805
O O3 0.500000 0.354095 0.750000
O O4 0.427586 0.369452 0.294105
O O5 0.309948 0.167704 0.565265
O O6 0.404518 0.004378 0.780522
O O7 0.225337 0.987604 0.530033
O O8 0.319928 0.109320 0.913302
O O9 0.871527 0.315566 0.811270
O O10 0.000000 0.356747 0.750000
O O11 0.687890 0.690996 0.125131
#
# Coordination Sequence:
#
# PCOD8151814 Si02
#       5
#     8   8   8   8   8
#     4  12  27  46  76 109 146 192 247 313 366 430
#     4  11  21  40  71 101 142 200 243 290 363 444
#     4  11  22  36  66 106 152 193 236 300 378 427
#     4  11  22  51  70 102 147 196 243 297 369 443
#     4  11  25  45  74 106 146 191 256 299 358 445
#
# _framework density 29.107334999999999
#
# number of rings (size 3 to 8) (size 9 to 14) (size 15 to 20)
#    0.000    0.800    6.000    3.000    2.800    0.800 
#    3.600    1.000    0.000    0.000    0.000    0.000 
#    0.000    0.000    0.000    0.000    0.000    0.000 
#
# Total GULP energy -247790.588244 kJ/mol
# GULP energy per Si atom -12389.529412 kJ/mol
# Density = 2.904109 g / cm^3
# Si number density = 29.107335 Si / 1000 Ang^3
#
#
#
# Elastic Constant Matrix: (Units=GPa)
#
#
# Indices 1 2 3 4 5 6 
#
# 1 61.2296 -12.7154 11.8566 0.0000 -11.9978 0.0000
# 2 -12.7154 141.2139 51.0018 0.0000 -7.1801 0.0000
# 3 11.8566 51.0018 165.4834 0.0000 -8.1326 0.0000
# 4 0.0000 0.0000 0.0000 29.5295 0.0000 0.1680
# 5 -11.9978 -7.1801 -8.1326 0.0000 52.1360 0.0000
# 6 0.0000 0.0000 0.0000 0.1680 0.0000 41.3879
#
#
#
# Elastic Compliance Matrix: (Units=1/GPa)
#
#
# Indices 1 2 3 4 5 6 
#
# 1 0.018037 0.002509 -0.001859 0.000000 0.004206 0.000000
# 2 0.002509 0.008344 -0.002687 0.000000 0.001307 0.000000
# 3 -0.001859 -0.002687 0.007019 0.000000 0.000297 0.000000
# 4 0.000000 0.000000 0.000000 0.033865 0.000000 -0.000137
# 5 0.004206 0.001307 0.000297 0.000000 0.020375 0.000000
# 6 0.000000 0.000000 0.000000 -0.000137 0.000000 0.024162
#
#
# Mechanical properties :
#
#
# Convention : Reuss Voigt Hill
#
# Bulk Modulus (GPa) = 34.09834 52.02366 43.06100
# Shear Modulus (GPa) = 39.79227 45.79626 42.79427
#
# Velocity S-wave (km/s) = 3.70143 3.97086 3.83851
# Velocity P-wave (km/s) = 5.47791 6.23983 5.87124
#
# Compressibility (1/GPa) = 0.02932694
#
# Stress axis : x y z
#
# Youngs Moduli (GPa) = 55.44058 119.84003 142.47216
#
# Poissons Ratio (x) = -0.30073 0.26486
# Poissons Ratio (y) = -0.13912 0.38286
# Poissons Ratio (z) = 0.10307 0.32205
#
# Static dielectric constant tensor:
#      x y z
#    x 5.475120 0.000000 -0.097960 
#    y 0.000000 5.760770 0.000000 
#    z -0.097960 0.000000 5.219510 
# 
# 
# High freq. dielectric constant tensor:
#      x y z
#    x 2.191320 0.000000 -0.014380 
#    y 0.000000 2.197080 0.000000 
#    z -0.014380 0.000000 2.185330 
# 
# From -- ./inp_files/61758.got.cif
#   From: 2010.06.25/outbox.cif.g09.slc.cpg/sg15_31_cif.got.tgz:61758.got - 2010.06.28 07:06:18.
