data_PCOD8151363
_publ_section_title
;
Structure prediction by ZEFSAII (Michael W. Deem and Ramdas Pophale) SiO2 
 PCOD8151363
Probable space group: C 2/C
;
_chemical_formula_sum "Si O2"
_cell_formula_units_Z 48
_cell_length_a 12.819297
_cell_length_b 14.124354
_cell_length_c 14.193053
_cell_angle_alpha 90.000000
_cell_angle_beta 102.908655
_cell_angle_gamma 90.000000
_cell_volume 2504.908282
_symmetry_space_group_name_H-M "C 2/C"
_symmetry_group_IT_number 15
_symmetry_cell_setting 'monoclinic'
loop_
_space_group_symop_operation_xyz
x,y,z
-x,y,1/2-z
-x,-y,-z
x,-y,1/2+z
1/2+x,1/2+y,z
1/2-x,1/2+y,1/2-z
1/2-x,1/2-y,-z
1/2+x,1/2-y,1/2+z
loop_
_atom_site_type_symbol
_atom_site_label
_atom_site_fract_x
_atom_site_fract_y
_atom_site_fract_z
Si Si1 0.499083 0.757758 0.852970
Si Si2 0.704130 0.592235 0.460152
Si Si3 0.451273 0.103931 0.496763
Si Si4 0.915538 0.735309 0.657314
Si Si5 0.892509 0.071093 0.676560
Si Si6 0.710005 0.640407 0.670058
O O1 0.500000 0.806525 0.750000
O O2 0.521788 0.836492 0.935821
O O3 0.586276 0.672449 0.869733
O O4 0.382817 0.717336 0.851859
O O5 0.824892 0.601959 0.445457
O O6 0.633528 0.683334 0.418678
O O7 0.645895 0.499829 0.410393
O O8 0.706111 0.579667 0.573138
O O9 0.467221 0.153538 0.601753
O O10 0.500000 0.000000 0.500000
O O11 0.822634 0.692028 0.702529
O O12 0.000000 0.775990 0.750000
O O13 0.802137 0.075517 0.739668
O O14 0.000000 0.035163 0.750000
#
# Coordination Sequence:
#
# PCOD8151363 Si02
#       6
#     8   8   8   8   8   8
#     4   9  18  39  63  82 116 159 192 237 299 346
#     4  11  20  40  63  87 118 160 194 244 298 346
#     4  11  23  40  60  86 119 159 199 242 296 358
#     4  11  22  37  64  88 118 154 201 248 289 349
#     4   9  21  35  62  91 118 153 198 245 294 349
#     4   9  18  39  59  83 124 155 191 239 296 349
#
# _framework density 19.162378
#
# number of rings (size 3 to 8) (size 9 to 14) (size 15 to 20)
#    0.000    2.333    3.333    1.500    2.333    3.333 
#    6.000    0.833    0.000    0.000    0.000    0.000 
#    0.000    0.000    0.000    0.000    0.000    0.000 
#
# Total GULP energy -297474.054520 kJ/mol
# GULP energy per Si atom -12394.752272 kJ/mol
# Density = 1.911876 g / cm^3
# Si number density = 19.162378 Si / 1000 Ang^3
#
#
#
# Elastic Constant Matrix: (Units=GPa)
#
#
# Indices 1 2 3 4 5 6 
#
# 1 70.8017 41.3258 50.2572 0.0000 -12.1143 0.0000
# 2 41.3258 101.8529 52.1880 0.0000 -5.3899 0.0000
# 3 50.2572 52.1880 78.9220 0.0000 -13.9436 0.0000
# 4 0.0000 0.0000 0.0000 31.6656 0.0000 -1.2113
# 5 -12.1143 -5.3899 -13.9436 0.0000 35.5320 0.0000
# 6 0.0000 0.0000 0.0000 -1.2113 0.0000 16.5813
#
#
#
# Elastic Compliance Matrix: (Units=1/GPa)
#
#
# Indices 1 2 3 4 5 6 
#
# 1 0.026731 -0.003383 -0.014254 0.000000 0.003007 0.000000
# 2 -0.003383 0.015376 -0.008386 0.000000 -0.002112 0.000000
# 3 -0.014254 -0.008386 0.028162 0.000000 0.004920 0.000000
# 4 0.000000 0.000000 0.000000 0.031669 0.000000 0.002313
# 5 0.003007 -0.002112 0.004920 0.000000 0.030779 0.000000
# 6 0.000000 0.000000 0.000000 0.002313 0.000000 0.060478
#
#
# Mechanical properties :
#
#
# Convention : Reuss Voigt Hill
#
# Bulk Modulus (GPa) = 54.87672 59.90207 57.38940
# Shear Modulus (GPa) = 19.89537 23.94284 21.91911
#
# Velocity S-wave (km/s) = 3.22569 3.53862 3.38577
# Velocity P-wave (km/s) = 6.52482 6.92993 6.73042
#
# Compressibility (1/GPa) = 0.01822266
#
# Stress axis : x y z
#
# Youngs Moduli (GPa) = 37.40994 65.03624 35.50882
#
# Poissons Ratio (x) = 0.22004 0.50613
# Poissons Ratio (y) = 0.12657 0.29779
# Poissons Ratio (z) = 0.53323 0.54541
#
# Static dielectric constant tensor:
#      x y z
#    x 3.564660 0.000000 -0.296330 
#    y 0.000000 3.378840 0.000000 
#    z -0.296330 0.000000 3.596490 
# 
# 
# High freq. dielectric constant tensor:
#      x y z
#    x 1.742350 0.000000 -0.018270 
#    y 0.000000 1.730720 0.000000 
#    z -0.018270 0.000000 1.747060 
# 
# From -- ./inp_files/143663.got.cif
#   From: 2010.06.25/outbox.cif.g09.slc.cpg/sg15_72_cif.got.tgz:143663.got - 2010.06.28 07:06:18.
