data_PCOD8151082
_publ_section_title
;
Structure prediction by ZEFSAII (Michael W. Deem and Ramdas Pophale) SiO2 
 PCOD8151082
Probable space group: C 2/C
;
_chemical_formula_sum "Si O2"
_cell_formula_units_Z 44
_cell_length_a 16.044290
_cell_length_b 13.433031
_cell_length_c 27.027401
_cell_angle_alpha 90.000000
_cell_angle_beta 159.144460
_cell_angle_gamma 90.000000
_cell_volume 2073.789307
_symmetry_space_group_name_H-M "C 2/C"
_symmetry_group_IT_number 15
_symmetry_cell_setting 'monoclinic'
loop_
_space_group_symop_operation_xyz
x,y,z
-x,y,1/2-z
-x,-y,-z
x,-y,1/2+z
1/2+x,1/2+y,z
1/2-x,1/2+y,1/2-z
1/2-x,1/2-y,-z
1/2+x,1/2-y,1/2+z
loop_
_atom_site_type_symbol
_atom_site_label
_atom_site_fract_x
_atom_site_fract_y
_atom_site_fract_z
Si Si1 0.894606 0.008106 0.038131
Si Si2 0.173929 0.352323 0.984796
Si Si3 0.000000 0.440278 0.250000
Si Si4 0.258830 0.738931 0.387527
Si Si5 0.165337 0.198201 0.182548
Si Si6 0.214534 0.138648 0.677486
O O1 0.941213 0.126966 0.069500
O O2 0.691492 0.991834 0.884147
O O3 0.153643 0.969991 0.165533
O O4 0.810390 0.950324 0.040737
O O5 0.898006 0.365486 0.823051
O O6 0.250000 0.250000 0.000000
O O7 0.237018 0.343352 0.078762
O O8 0.130602 0.366847 0.285058
O O9 0.332183 0.745623 0.371062
O O10 0.449821 0.673953 0.521760
O O11 0.000000 0.691279 0.250000
O O12 0.143730 0.292824 0.206195
#
# Coordination Sequence:
#
# PCOD8151082 Si02
#       6
#     8   8   4   8   8   8
#     4  12  23  40  65 101 131 170 220 282 329 400
#     4  11  21  37  65  99 132 169 225 274 334 391
#     4  12  26  38  68 100 134 164 226 284 346 378
#     4  11  19  37  67  95 127 176 216 270 330 388
#     4  11  23  41  67  94 136 175 221 273 334 399
#     4  11  24  41  62  98 133 173 219 273 340 394
#
# _framework density 21.217199999999998
#
# number of rings (size 3 to 8) (size 9 to 14) (size 15 to 20)
#    0.000    0.727    7.273    1.636    3.818    0.727 
#    0.000    0.000    6.000    9.818    0.000    0.000 
#    0.000    0.000    0.000    0.000    0.000    0.000 
#
# Total GULP energy -272595.952753 kJ/mol
# GULP energy per Si atom -12390.725125 kJ/mol
# Density = 2.116891 g / cm^3
# Si number density = 21.217200 Si / 1000 Ang^3
#
#
#
# Elastic Constant Matrix: (Units=GPa)
#
#
# Indices 1 2 3 4 5 6 
#
# 1 138.6289 61.6725 31.4961 0.0144 -8.6235 0.0099
# 2 61.6725 92.2343 45.2706 0.0034 -10.4749 -0.0052
# 3 31.4961 45.2706 74.5827 0.0173 -7.6698 -0.0198
# 4 0.0144 0.0034 0.0173 24.8579 -0.0053 8.2767
# 5 -8.6235 -10.4749 -7.6698 -0.0053 32.0231 0.0125
# 6 0.0099 -0.0052 -0.0198 8.2767 0.0125 35.5048
#
#
#
# Elastic Compliance Matrix: (Units=1/GPa)
#
#
# Indices 1 2 3 4 5 6 
#
# 1 0.010279 -0.006708 -0.000215 -0.000004 0.000522 -0.000003
# 2 -0.006708 0.020083 -0.009092 0.000009 0.002585 -0.000003
# 3 -0.000215 -0.009092 0.019178 -0.000016 0.001561 0.000013
# 4 -0.000004 0.000009 -0.000016 0.043614 0.000009 -0.010167
# 5 0.000522 0.002585 0.001561 0.000009 0.032588 -0.000013
# 6 -0.000003 -0.000003 0.000013 -0.010167 -0.000013 0.030535
#
#
# Mechanical properties :
#
#
# Convention : Reuss Voigt Hill
#
# Bulk Modulus (GPa) = 57.10973 64.70270 60.90621
# Shear Modulus (GPa) = 25.75399 29.61094 27.68247
#
# Velocity S-wave (km/s) = 3.48778 3.73984 3.61601
# Velocity P-wave (km/s) = 6.57226 7.01499 6.79723
#
# Compressibility (1/GPa) = 0.01751015
#
# Stress axis : x y z
#
# Youngs Moduli (GPa) = 97.28357 49.79247 52.14319
#
# Poissons Ratio (x) = 0.33402 0.01123
# Poissons Ratio (y) = 0.65259 0.47407
# Poissons Ratio (z) = 0.02096 0.45269
#
# Static dielectric constant tensor:
#      x y z
#    x 3.979590 0.000010 -0.149690 
#    y 0.000010 3.595430 -0.000030 
#    z -0.149690 -0.000030 4.079570 
# 
# 
# High freq. dielectric constant tensor:
#      x y z
#    x 1.827970 0.000000 0.003710 
#    y 0.000000 1.803600 0.000000 
#    z 0.003710 0.000000 1.843260 
# 
# From -- ./inp_files/105512.got.cif
#   From: 2010.06.25/outbox.cif.g09.slc.cpg/sg15_53_cif.got.tgz:105512.got - 2010.06.28 07:06:18.
