data_PCOD8151336
_publ_section_title
;
Structure prediction by ZEFSAII (Michael W. Deem and Ramdas Pophale) SiO2 
 PCOD8151336
Probable space group: C 2/C
;
_chemical_formula_sum "Si O2"
_cell_formula_units_Z 52
_cell_length_a 8.921951
_cell_length_b 16.086125
_cell_length_c 25.665439
_cell_angle_alpha 90.000000
_cell_angle_beta 136.950671
_cell_angle_gamma 90.000000
_cell_volume 2514.455309
_symmetry_space_group_name_H-M "C 2/C"
_symmetry_group_IT_number 15
_symmetry_cell_setting 'monoclinic'
loop_
_space_group_symop_operation_xyz
x,y,z
-x,y,1/2-z
-x,-y,-z
x,-y,1/2+z
1/2+x,1/2+y,z
1/2-x,1/2+y,1/2-z
1/2-x,1/2-y,-z
1/2+x,1/2-y,1/2+z
loop_
_atom_site_type_symbol
_atom_site_label
_atom_site_fract_x
_atom_site_fract_y
_atom_site_fract_z
Si Si1 0.822144 0.607072 0.660984
Si Si2 0.838093 0.786407 0.638234
Si Si3 0.500000 0.525391 0.750000
Si Si4 0.535535 0.043115 0.153787
Si Si5 0.942808 0.870656 0.136809
Si Si6 0.015905 0.412429 0.975322
Si Si7 0.188414 0.296160 0.717012
O O1 0.778130 0.688587 0.613710
O O2 0.604092 0.582291 0.637223
O O3 0.000000 0.633113 0.750000
O O4 0.899840 0.531319 0.645054
O O5 0.697609 0.853268 0.568967
O O6 0.777578 0.808527 0.681600
O O7 0.097774 0.795341 0.691081
O O8 0.703453 0.472814 0.781291
O O9 0.602269 0.576213 0.823536
O O10 0.435449 0.064634 0.072200
O O11 0.526791 0.125699 0.188122
O O12 0.044148 0.786010 0.184667
O O13 0.715067 0.857603 0.048789
O O14 0.000000 0.500000 0.000000
#
# Coordination Sequence:
#
# PCOD8151336 Si02
#       7
#     8   8   4   8   8   8   8
#     4  11  20  39  63  91 123 165 211 263 314 371
#     4   9  17  36  62  87 123 169 209 245 317 381
#     4  12  20  38  66  88 118 170 218 256 300 386
#     4  11  22  36  65  92 124 166 212 260 317 369
#     4  11  23  40  65  88 125 163 213 262 315 378
#     4  11  23  39  62  98 128 161 213 270 316 365
#     4   9  18  36  61  89 117 166 213 252 299 381
#
# _framework density 20.680423000000001
#
# number of rings (size 3 to 8) (size 9 to 14) (size 15 to 20)
#    0.000    1.538    6.154    1.846    0.000    6.154 
#    1.385    0.769    3.385    0.000    0.000    0.000 
#    0.000    0.000    0.000    0.000    0.000    0.000 
#
# Total GULP energy -322183.547435 kJ/mol
# GULP energy per Si atom -12391.674901 kJ/mol
# Density = 2.063335 g / cm^3
# Si number density = 20.680423 Si / 1000 Ang^3
#
#
#
# Elastic Constant Matrix: (Units=GPa)
#
#
# Indices 1 2 3 4 5 6 
#
# 1 44.1032 33.5531 20.5182 0.0000 6.9116 0.0000
# 2 33.5531 117.8316 34.6741 0.0000 9.5460 0.0000
# 3 20.5182 34.6741 126.8855 -0.0001 18.5342 0.0000
# 4 0.0000 0.0000 -0.0001 33.0560 0.0000 5.5198
# 5 6.9116 9.5460 18.5342 0.0000 26.0091 0.0000
# 6 0.0000 0.0000 0.0000 5.5198 0.0000 20.3468
#
#
#
# Elastic Compliance Matrix: (Units=1/GPa)
#
#
# Indices 1 2 3 4 5 6 
#
# 1 0.030077 -0.007609 -0.002260 0.000000 -0.003589 0.000000
# 2 -0.007609 0.011228 -0.001709 0.000000 -0.000881 0.000000
# 3 -0.002260 -0.001709 0.009526 0.000000 -0.005560 0.000000
# 4 0.000000 0.000000 0.000000 0.031687 0.000000 -0.008596
# 5 -0.003589 -0.000881 -0.005560 0.000000 0.043687 0.000000
# 6 0.000000 0.000000 0.000000 -0.008596 0.000000 0.051480
#
#
# Mechanical properties :
#
#
# Convention : Reuss Voigt Hill
#
# Bulk Modulus (GPa) = 36.13445 51.81234 43.97340
# Shear Modulus (GPa) = 23.80217 29.22071 26.51144
#
# Velocity S-wave (km/s) = 3.39625 3.76302 3.58433
# Velocity P-wave (km/s) = 5.73499 6.63239 6.19995
#
# Compressibility (1/GPa) = 0.02767442
#
# Stress axis : x y z
#
# Youngs Moduli (GPa) = 33.24849 89.06636 104.97777
#
# Poissons Ratio (x) = 0.67767 0.23726
# Poissons Ratio (y) = 0.25297 0.17942
# Poissons Ratio (z) = 0.07514 0.15223
#
# Static dielectric constant tensor:
#      x y z
#    x 3.485090 0.000000 0.285210 
#    y 0.000000 4.081430 0.000000 
#    z 0.285210 0.000000 3.972280 
# 
# 
# High freq. dielectric constant tensor:
#      x y z
#    x 1.770190 0.000000 0.016740 
#    y 0.000000 1.829080 0.000000 
#    z 0.016740 0.000000 1.800340 
# 
# From -- ./inp_files/289633.got.cif
#   From: 2010.06.25/outbox.cif.g09.slc.cpg/sg15_145_cif.got.tgz:289633.got - 2010.06.28 07:06:18.
