data_PCOD8151569
_publ_section_title
;
Structure prediction by ZEFSAII (Michael W. Deem and Ramdas Pophale) SiO2 
 PCOD8151569
Probable space group: C 2/C
;
_chemical_formula_sum "Si O2"
_cell_formula_units_Z 64
_cell_length_a 23.300817
_cell_length_b 13.184003
_cell_length_c 12.839906
_cell_angle_alpha 90.000000
_cell_angle_beta 116.495182
_cell_angle_gamma 90.000000
_cell_volume 3530.121686
_symmetry_space_group_name_H-M "C 2/C"
_symmetry_group_IT_number 15
_symmetry_cell_setting 'monoclinic'
loop_
_space_group_symop_operation_xyz
x,y,z
-x,y,1/2-z
-x,-y,-z
x,-y,1/2+z
1/2+x,1/2+y,z
1/2-x,1/2+y,1/2-z
1/2-x,1/2-y,-z
1/2+x,1/2-y,1/2+z
loop_
_atom_site_type_symbol
_atom_site_label
_atom_site_fract_x
_atom_site_fract_y
_atom_site_fract_z
Si Si1 0.967378 0.560167 0.830964
Si Si2 0.488150 0.625387 0.863566
Si Si3 0.098127 0.971699 0.590667
Si Si4 0.333846 0.876980 0.154392
Si Si5 0.192659 0.097668 0.537864
Si Si6 0.668607 0.174167 0.077577
Si Si7 0.810675 0.850808 0.692996
Si Si8 0.463013 0.848442 0.924363
O O1 0.890566 0.568963 0.762759
O O2 0.983262 0.443329 0.869164
O O3 0.000000 0.591845 0.750000
O O4 0.995298 0.640478 0.936780
O O5 0.500000 0.608143 0.750000
O O6 0.427485 0.558801 0.851820
O O7 0.478518 0.744460 0.877426
O O8 0.545609 0.586197 0.981099
O O9 0.136134 0.889051 0.686011
O O10 0.147208 0.014922 0.548220
O O11 0.265606 0.923594 0.134343
O O12 0.332927 0.760014 0.181090
O O13 0.343691 0.889253 0.038173
O O14 0.167276 0.207107 0.551444
O O15 0.189762 0.082683 0.411775
O O16 0.738454 0.146557 0.182240
O O17 0.612907 0.146741 0.113514
#
# Coordination Sequence:
#
# PCOD8151569 Si02
#       8
#     8   8   8   8   8   8   8   8
#     4  11  22  35  56  83 110 146 197 232 262 326
#     4  11  24  40  57  80 117 144 178 228 277 330
#     4  11  21  36  60  85 105 147 185 215 273 335
#     4   9  18  35  56  81 110 140 179 239 270 311
#     4   9  18  34  56  82 109 139 179 221 280 322
#     4   9  17  35  56  78 110 142 179 224 279 315
#     4   9  19  33  56  85 112 137 177 234 269 321
#     4  11  22  37  55  79 111 155 184 225 283 324
#
# _framework density 18.129686
#
# number of rings (size 3 to 8) (size 9 to 14) (size 15 to 20)
#    0.000    2.000    2.500    3.375    1.750    0.000 
#    0.000    0.625    0.000    0.750    0.000    0.000 
#    0.000    0.000    0.000    0.000    0.000    0.000 
#
# Total GULP energy -396691.742153 kJ/mol
# GULP energy per Si atom -12396.616942 kJ/mol
# Density = 1.808842 g / cm^3
# Si number density = 18.129686 Si / 1000 Ang^3
#
#
#
# Elastic Constant Matrix: (Units=GPa)
#
#
# Indices 1 2 3 4 5 6 
#
# 1 83.6960 22.3379 23.1935 0.0000 4.9381 0.0000
# 2 22.3379 53.9724 23.1039 0.0000 -0.4275 0.0000
# 3 23.1935 23.1039 79.6226 0.0000 9.2544 0.0000
# 4 0.0000 0.0000 0.0000 25.4460 0.0000 6.5863
# 5 4.9381 -0.4275 9.2544 0.0000 28.6518 0.0000
# 6 0.0000 0.0000 0.0000 6.5863 0.0000 28.1396
#
#
#
# Elastic Compliance Matrix: (Units=1/GPa)
#
#
# Indices 1 2 3 4 5 6 
#
# 1 0.014006 -0.004735 -0.002512 0.000000 -0.001673 0.000000
# 2 -0.004735 0.022915 -0.005615 0.000000 0.002972 0.000000
# 3 -0.002512 -0.005615 0.015460 0.000000 -0.004644 0.000000
# 4 0.000000 0.000000 0.000000 0.041833 0.000000 -0.009791
# 5 -0.001673 0.002972 -0.004644 0.000000 0.036735 0.000000
# 6 0.000000 0.000000 0.000000 -0.009791 0.000000 0.037829
#
#
# Mechanical properties :
#
#
# Convention : Reuss Voigt Hill
#
# Bulk Modulus (GPa) = 37.51263 39.39574 38.45419
# Shear Modulus (GPa) = 24.58355 26.35786 25.47071
#
# Velocity S-wave (km/s) = 3.68636 3.81708 3.75229
# Velocity P-wave (km/s) = 6.23340 6.41903 6.32689
#
# Compressibility (1/GPa) = 0.02665769
#
# Stress axis : x y z
#
# Youngs Moduli (GPa) = 71.39546 43.63952 64.68301
#
# Poissons Ratio (x) = 0.20664 0.16245
# Poissons Ratio (y) = 0.33807 0.36321
# Poissons Ratio (z) = 0.17931 0.24505
#
# Static dielectric constant tensor:
#      x y z
#    x 3.519400 0.000000 0.398220 
#    y 0.000000 3.143050 0.000000 
#    z 0.398220 0.000000 5.737420 
# 
# 
# High freq. dielectric constant tensor:
#      x y z
#    x 1.714700 0.000000 0.008840 
#    y 0.000000 1.690150 0.000000 
#    z 0.008840 0.000000 1.696640 
# 
# From -- ./inp_files/117979.got.cif
#   From: 2010.06.25/outbox.cif.g09.slc.cpg/sg15_59_cif.got.tgz:117979.got - 2010.06.28 07:06:18.
