data_PCOD8151253
_publ_section_title
;
Structure prediction by ZEFSAII (Michael W. Deem and Ramdas Pophale) SiO2 
 PCOD8151253
Probable space group: C 2/C
;
_chemical_formula_sum "Si O2"
_cell_formula_units_Z 48
_cell_length_a 17.185646
_cell_length_b 14.621638
_cell_length_c 9.675251
_cell_angle_alpha 90.000000
_cell_angle_beta 84.899014
_cell_angle_gamma 90.000000
_cell_volume 2421.590515
_symmetry_space_group_name_H-M "C 2/C"
_symmetry_group_IT_number 15
_symmetry_cell_setting 'monoclinic'
loop_
_space_group_symop_operation_xyz
x,y,z
-x,y,1/2-z
-x,-y,-z
x,-y,1/2+z
1/2+x,1/2+y,z
1/2-x,1/2+y,1/2-z
1/2-x,1/2-y,-z
1/2+x,1/2-y,1/2+z
loop_
_atom_site_type_symbol
_atom_site_label
_atom_site_fract_x
_atom_site_fract_y
_atom_site_fract_z
Si Si1 0.730263 0.822065 0.888131
Si Si2 0.277127 0.990652 0.960848
Si Si3 0.053097 0.349804 0.864020
Si Si4 0.543603 0.220591 0.868580
Si Si5 0.304079 0.686856 0.086596
Si Si6 0.119451 0.539484 0.813970
O O1 0.641630 0.813270 0.847523
O O2 0.784006 0.800026 0.750006
O O3 0.750000 0.750000 0.000000
O O4 0.750517 0.920228 0.951595
O O5 0.313596 0.012676 0.806001
O O6 0.205539 0.919737 0.953682
O O7 0.343054 0.940985 0.041537
O O8 0.055421 0.459616 0.843273
O O9 0.000000 0.307223 0.750000
O O10 0.017057 0.321089 0.014188
O O11 0.500000 0.275129 0.750000
O O12 0.605052 0.284934 0.939530
O O13 0.581939 0.135496 0.778687
O O14 0.250000 0.750000 0.000000
#
# Coordination Sequence:
#
# PCOD8151253 Si02
#       6
#     8   8   8   8   8   8
#     4  11  24  41  65  91 127 169 218 261 310 376
#     4  11  21  39  61  93 121 168 213 257 306 367
#     4  11  21  37  57  92 131 159 201 254 325 385
#     4  12  23  36  60  93 128 166 204 260 325 376
#     4  12  23  41  63  90 128 168 214 256 305 381
#     4  11  20  37  60  91 130 163 203 251 326 382
#
# _framework density 19.821681999999999
#
# number of rings (size 3 to 8) (size 9 to 14) (size 15 to 20)
#    0.000    0.667    5.000    7.000    0.000    0.000 
#    0.000    0.000    0.000    5.000    0.000    0.000 
#    0.000    0.000    0.000    0.000    0.000    0.000 
#
# Total GULP energy -297546.388715 kJ/mol
# GULP energy per Si atom -12397.766196 kJ/mol
# Density = 1.977657 g / cm^3
# Si number density = 19.821682 Si / 1000 Ang^3
#
#
#
# Elastic Constant Matrix: (Units=GPa)
#
#
# Indices 1 2 3 4 5 6 
#
# 1 63.5335 21.1453 8.2929 0.0000 15.9531 0.0000
# 2 21.1453 58.8645 26.5463 0.0000 4.5464 0.0000
# 3 8.2929 26.5463 97.6644 0.0000 10.4454 0.0000
# 4 0.0000 0.0000 0.0000 28.7940 0.0000 4.3875
# 5 15.9531 4.5464 10.4454 0.0000 42.6558 0.0000
# 6 0.0000 0.0000 0.0000 4.3875 0.0000 26.0275
#
#
#
# Elastic Compliance Matrix: (Units=1/GPa)
#
#
# Indices 1 2 3 4 5 6 
#
# 1 0.019650 -0.006961 0.000955 0.000000 -0.006841 0.000000
# 2 -0.006961 0.021854 -0.005523 0.000000 0.001627 0.000000
# 3 0.000955 -0.005523 0.011947 0.000000 -0.002694 0.000000
# 4 0.000000 0.000000 0.000000 0.035645 0.000000 -0.006009
# 5 -0.006841 0.001627 -0.002694 0.000000 0.026488 0.000000
# 6 0.000000 0.000000 0.000000 -0.006009 0.000000 0.039434
#
#
# Mechanical properties :
#
#
# Convention : Reuss Voigt Hill
#
# Bulk Modulus (GPa) = 32.90204 36.89238 34.89721
# Shear Modulus (GPa) = 26.56658 30.43398 28.50028
#
# Velocity S-wave (km/s) = 3.66495 3.92265 3.79599
# Velocity P-wave (km/s) = 5.87743 6.25850 6.07096
#
# Compressibility (1/GPa) = 0.03039326
#
# Stress axis : x y z
#
# Youngs Moduli (GPa) = 50.89182 45.75873 83.70023
#
# Poissons Ratio (x) = 0.31852 -0.07995
# Poissons Ratio (y) = 0.35425 0.46228
# Poissons Ratio (z) = -0.04861 0.25272
#
# Static dielectric constant tensor:
#      x y z
#    x 6.034680 0.000000 1.716590 
#    y 0.000000 3.615480 0.000000 
#    z 1.716590 0.000000 4.732260 
# 
# 
# High freq. dielectric constant tensor:
#      x y z
#    x 1.757170 0.000000 0.014910 
#    y 0.000000 1.749310 0.000000 
#    z 0.014910 0.000000 1.799670 
# 
# From -- ./inp_files/47440.got.cif
#   From: 2010.06.25/outbox.cif.g09.slc.cpg/sg15_24_cif.got.tgz:47440.got - 2010.06.28 07:06:18.
