data_PCOD8151727
_publ_section_title
;
Structure prediction by ZEFSAII (Michael W. Deem and Ramdas Pophale) SiO2 
 PCOD8151727
Probable space group: C 2/C
;
_chemical_formula_sum "Si O2"
_cell_formula_units_Z 48
_cell_length_a 10.495398
_cell_length_b 25.219004
_cell_length_c 10.637671
_cell_angle_alpha 90.000000
_cell_angle_beta 125.307996
_cell_angle_gamma 90.000000
_cell_volume 2297.702828
_symmetry_space_group_name_H-M "C 2/C"
_symmetry_group_IT_number 15
_symmetry_cell_setting 'monoclinic'
loop_
_space_group_symop_operation_xyz
x,y,z
-x,y,1/2-z
-x,-y,-z
x,-y,1/2+z
1/2+x,1/2+y,z
1/2-x,1/2+y,1/2-z
1/2-x,1/2-y,-z
1/2+x,1/2-y,1/2+z
loop_
_atom_site_type_symbol
_atom_site_label
_atom_site_fract_x
_atom_site_fract_y
_atom_site_fract_z
Si Si1 0.586929 0.197092 0.166156
Si Si2 0.500000 0.524034 0.750000
Si Si3 0.234283 0.106558 0.771048
Si Si4 0.000000 0.480828 0.750000
Si Si5 0.566061 0.911719 0.556257
Si Si6 0.717055 0.221296 0.613886
Si Si7 0.285859 0.453376 0.476859
O O1 0.500000 0.198081 0.250000
O O2 0.645910 0.138423 0.170435
O O3 0.730333 0.238124 0.247183
O O4 0.468270 0.212950 0.986417
O O5 0.646064 0.561145 0.798943
O O6 0.442221 0.486782 0.600610
O O7 0.194202 0.164867 0.807925
O O8 0.178456 0.097827 0.593057
O O9 0.422265 0.101211 0.882011
O O10 0.987167 0.447763 0.616220
O O11 0.159857 0.513323 0.825548
O O12 0.708441 0.937879 0.564723
O O13 0.750000 0.250000 0.500000
#
# Coordination Sequence:
#
# PCOD8151727 Si02
#       7
#     8   4   8   4   8   8   8
#     4   9  18  36  57  90 116 148 201 257 303 365
#     4  12  26  40  59  96 131 166 214 256 316 370
#     4  11  23  41  63  94 126 168 206 263 321 368
#     4  12  20  38  65  86 119 162 218 256 296 368
#     4  11  21  39  66  91 118 167 218 253 307 380
#     4   9  20  36  61  89 121 150 203 258 314 362
#     4  12  24  42  61  88 130 167 210 260 310 379
#
# _framework density 20.890431
#
# number of rings (size 3 to 8) (size 9 to 14) (size 15 to 20)
#    0.000    1.333    4.167    2.000    3.500    0.000 
#    3.000    0.833    0.000    0.000    0.000    0.000 
#    0.000    0.000    0.000    0.000    0.000    0.000 
#
# Total GULP energy -297339.008410 kJ/mol
# GULP energy per Si atom -12389.125350 kJ/mol
# Density = 2.084288 g / cm^3
# Si number density = 20.890431 Si / 1000 Ang^3
#
#
#
# Elastic Constant Matrix: (Units=GPa)
#
#
# Indices 1 2 3 4 5 6 
#
# 1 43.4880 24.7406 14.6421 0.0000 -11.0699 0.0000
# 2 24.7406 137.9679 65.4209 0.0000 -1.1221 0.0000
# 3 14.6421 65.4209 104.0005 0.0000 4.0095 0.0000
# 4 0.0000 0.0000 0.0000 44.3894 0.0000 1.7091
# 5 -11.0699 -1.1221 4.0095 0.0000 31.0207 0.0000
# 6 0.0000 0.0000 0.0000 1.7091 0.0000 10.2329
#
#
#
# Elastic Compliance Matrix: (Units=1/GPa)
#
#
# Indices 1 2 3 4 5 6 
#
# 1 0.028603 -0.004201 -0.001781 0.000000 0.010285 0.000000
# 2 -0.004201 0.010992 -0.006312 0.000000 -0.000286 0.000000
# 3 -0.001781 -0.006312 0.013939 0.000000 -0.002666 0.000000
# 4 0.000000 0.000000 0.000000 0.022674 0.000000 -0.003787
# 5 0.010285 -0.000286 -0.002666 0.000000 0.036241 0.000000
# 6 0.000000 0.000000 0.000000 -0.003787 0.000000 0.098357
#
#
# Mechanical properties :
#
#
# Convention : Reuss Voigt Hill
#
# Bulk Modulus (GPa) = 34.54677 55.00707 44.77692
# Shear Modulus (GPa) = 20.40469 29.17211 24.78840
#
# Velocity S-wave (km/s) = 3.12869 3.74094 3.44843
# Velocity P-wave (km/s) = 5.44285 6.71178 6.11034
#
# Compressibility (1/GPa) = 0.02894627
#
# Stress axis : x y z
#
# Youngs Moduli (GPa) = 34.96197 90.97465 71.73924
#
# Poissons Ratio (x) = 0.38218 0.12776
# Poissons Ratio (y) = 0.14687 0.45282
# Poissons Ratio (z) = 0.06226 0.57424
#
# Static dielectric constant tensor:
#      x y z
#    x 3.390970 0.000000 0.163030 
#    y 0.000000 4.207110 0.000000 
#    z 0.163030 0.000000 4.189260 
# 
# 
# High freq. dielectric constant tensor:
#      x y z
#    x 1.776730 0.000000 0.005730 
#    y 0.000000 1.824580 0.000000 
#    z 0.005730 0.000000 1.825930 
# 
# From -- ./inp_files/91001.got.cif
#   From: 2010.06.25/outbox.cif.g09.slc.cpg/sg15_46_cif.got.tgz:91001.got - 2010.06.28 07:06:18.
