data_PCOD8151036
_publ_section_title
;
Structure prediction by ZEFSAII (Michael W. Deem and Ramdas Pophale) SiO2 
 PCOD8151036
Probable space group: C 2/C
;
_chemical_formula_sum "Si O2"
_cell_formula_units_Z 56
_cell_length_a 8.746789
_cell_length_b 27.414413
_cell_length_c 11.627571
_cell_angle_alpha 90.000000
_cell_angle_beta 122.997010
_cell_angle_gamma 90.000000
_cell_volume 2338.421099
_symmetry_space_group_name_H-M "C 2/C"
_symmetry_group_IT_number 15
_symmetry_cell_setting 'monoclinic'
loop_
_space_group_symop_operation_xyz
x,y,z
-x,y,1/2-z
-x,-y,-z
x,-y,1/2+z
1/2+x,1/2+y,z
1/2-x,1/2+y,1/2-z
1/2-x,1/2-y,-z
1/2+x,1/2-y,1/2+z
loop_
_atom_site_type_symbol
_atom_site_label
_atom_site_fract_x
_atom_site_fract_y
_atom_site_fract_z
Si Si1 0.341586 0.946835 0.608306
Si Si2 0.109507 0.447846 0.407955
Si Si3 0.201365 0.688740 0.779974
Si Si4 0.568971 0.132136 0.511694
Si Si5 0.222211 0.703273 0.191342
Si Si6 0.451661 0.664127 0.076707
Si Si7 0.992544 0.942879 0.874326
O O1 0.500000 0.923293 0.750000
O O2 0.289722 0.902398 0.500918
O O3 0.171015 0.963829 0.615493
O O4 0.431912 0.994707 0.582644
O O5 0.325443 0.449588 0.477146
O O6 0.000000 0.430194 0.250000
O O7 0.069824 0.408079 0.490486
O O8 0.185844 0.661945 0.651860
O O9 0.316139 0.738996 0.818715
O O10 0.000000 0.696927 0.750000
O O11 0.331518 0.655636 0.913313
O O12 0.461799 0.170608 0.385664
O O13 0.322622 0.691984 0.112864
O O14 0.357603 0.694076 0.355942
O O15 0.533169 0.614133 0.158302
O O16 0.000000 0.968551 0.750000
#
# Coordination Sequence:
#
# PCOD8151036 Si02
#       7
#     8   8   8   8   8   8   8
#     4  11  26  43  68 100 139 186 232 283 350 420
#     4  11  23  44  68 102 139 179 232 286 340 409
#     4  12  21  34  60 100 134 170 229 287 339 397
#     4  12  23  42  66  99 140 183 223 285 352 404
#     4  11  20  34  62  95 129 173 229 277 331 400
#     4  11  19  34  58  95 125 166 221 284 325 393
#     4  12  22  43  71  98 129 177 233 285 341 415
#
# _framework density 23.947783000000001
#
# number of rings (size 3 to 8) (size 9 to 14) (size 15 to 20)
#    0.000    0.571    5.714    5.143    0.000    1.143 
#    0.000    4.286    0.000    9.429    0.000    0.000 
#    0.000    0.000    0.000    0.000    0.000    0.000 
#
# Total GULP energy -346897.558256 kJ/mol
# GULP energy per Si atom -12389.198509 kJ/mol
# Density = 2.389328 g / cm^3
# Si number density = 23.947783 Si / 1000 Ang^3
#
#
#
# Elastic Constant Matrix: (Units=GPa)
#
#
# Indices 1 2 3 4 5 6 
#
# 1 75.0167 13.9717 42.1653 0.0000 0.1892 0.0000
# 2 13.9717 123.3661 26.2050 0.0000 -16.1869 0.0000
# 3 42.1653 26.2050 134.5437 0.0000 23.4138 0.0000
# 4 0.0000 0.0000 0.0000 98.8459 0.0000 7.2897
# 5 0.1892 -16.1869 23.4138 0.0000 28.7186 0.0000
# 6 0.0000 0.0000 0.0000 7.2897 0.0000 24.2673
#
#
#
# Elastic Compliance Matrix: (Units=1/GPa)
#
#
# Indices 1 2 3 4 5 6 
#
# 1 0.016743 0.000043 -0.006107 0.000000 0.004893 0.000000
# 2 0.000043 0.009921 -0.003402 0.000000 0.008365 0.000000
# 3 -0.006107 -0.003402 0.012044 0.000000 -0.011697 0.000000
# 4 0.000000 0.000000 0.000000 0.010346 0.000000 -0.003108
# 5 0.004893 0.008365 -0.011697 0.000000 0.049039 0.000000
# 6 0.000000 0.000000 0.000000 -0.003108 0.000000 0.042141
#
#
# Mechanical properties :
#
#
# Convention : Reuss Voigt Hill
#
# Bulk Modulus (GPa) = 50.56275 55.29004 52.92639
# Shear Modulus (GPa) = 30.16455 47.07202 38.61828
#
# Velocity S-wave (km/s) = 3.55293 4.43833 4.02008
# Velocity P-wave (km/s) = 6.16366 7.02872 6.61035
#
# Compressibility (1/GPa) = 0.01977741
#
# Stress axis : x y z
#
# Youngs Moduli (GPa) = 59.72807 100.79455 83.02640
#
# Poissons Ratio (x) = -0.00434 0.50703
# Poissons Ratio (y) = -0.00257 0.28241
# Poissons Ratio (z) = 0.36475 0.34285
#
# Static dielectric constant tensor:
#      x y z
#    x 3.865880 0.000000 0.135290 
#    y 0.000000 4.526220 0.000000 
#    z 0.135290 0.000000 4.433980 
# 
# 
# High freq. dielectric constant tensor:
#      x y z
#    x 1.897690 0.000000 0.018240 
#    y 0.000000 1.965900 0.000000 
#    z 0.018240 0.000000 1.954650 
# 
# From -- ./inp_files/82669.got.cif
#   From: 2010.06.25/outbox.cif.g09.slc.cpg/sg15_42_cif.got.tgz:82669.got - 2010.06.28 07:06:18.
