data_PCOD8151017
_publ_section_title
;
Structure prediction by ZEFSAII (Michael W. Deem and Ramdas Pophale) SiO2 
 PCOD8151017
Probable space group: C 2/C
;
_chemical_formula_sum "Si O2"
_cell_formula_units_Z 32
_cell_length_a 19.523663
_cell_length_b 8.477377
_cell_length_c 8.045289
_cell_angle_alpha 90.000000
_cell_angle_beta 65.664972
_cell_angle_gamma 90.000000
_cell_volume 1213.263286
_symmetry_space_group_name_H-M "C 2/C"
_symmetry_group_IT_number 15
_symmetry_cell_setting 'monoclinic'
loop_
_space_group_symop_operation_xyz
x,y,z
-x,y,1/2-z
-x,-y,-z
x,-y,1/2+z
1/2+x,1/2+y,z
1/2-x,1/2+y,1/2-z
1/2-x,1/2-y,-z
1/2+x,1/2-y,1/2+z
loop_
_atom_site_type_symbol
_atom_site_label
_atom_site_fract_x
_atom_site_fract_y
_atom_site_fract_z
Si Si1 0.835172 0.288544 0.232355
Si Si2 0.588187 0.165930 0.161807
Si Si3 0.835172 0.288539 0.597313
Si Si4 0.912609 0.965685 0.837397
O O1 0.840373 0.377451 0.409634
O O2 0.750000 0.250010 0.269242
O O3 0.879135 0.121785 0.206796
O O4 0.872641 0.394793 0.048336
O O5 0.500000 0.121853 0.250000
O O6 0.627365 0.105208 0.293595
O O7 0.606756 0.351624 0.143235
O O8 0.879142 0.121789 0.534944
O O9 0.000000 0.933461 0.750000
#
# Coordination Sequence:
#
# PCOD8151017 Si02
#       4
#     8   8   8   8
#     4   9  19  31  42  61  97 129 150 176 214 275
#     4  11  19  28  48  72  95 119 144 186 232 271
#     4   9  19  31  42  61  97 129 150 176 214 275
#     4   9  17  30  46  70  97 117 144 184 230 271
#
# _framework density 26.375146999999998
#
# number of rings (size 3 to 8) (size 9 to 14) (size 15 to 20)
#    1.500    1.000    0.000    3.750    0.000    4.000 
#    0.000    0.000    0.000    0.000    0.000    0.000 
#    0.000  140.000    0.000    0.000    0.000    0.000 
#
# Total GULP energy -198240.051489 kJ/mol
# GULP energy per Si atom -12390.003218 kJ/mol
# Density = 2.631512 g / cm^3
# Si number density = 26.375147 Si / 1000 Ang^3
#
#
#
# Elastic Constant Matrix: (Units=GPa)
#
#
# Indices 1 2 3 4 5 6 
#
# 1 183.2340 9.8611 126.1442 0.0000 -6.7186 0.0000
# 2 9.8611 46.4865 24.4083 0.0000 15.7414 0.0000
# 3 126.1442 24.4083 189.8406 0.0000 13.7765 0.0000
# 4 0.0000 0.0000 0.0000 18.5348 0.0000 36.0484
# 5 -6.7186 15.7414 13.7765 0.0000 47.6728 0.0000
# 6 0.0000 0.0000 0.0000 36.0484 0.0000 -14.7372
#
#
#
# Elastic Compliance Matrix: (Units=1/GPa)
#
#
# Indices 1 2 3 4 5 6 
#
# 1 0.010644 0.000437 -0.007382 0.000000 0.003489 0.000000
# 2 0.000437 0.025550 -0.003031 0.000000 -0.007499 0.000000
# 3 -0.007382 -0.003031 0.010792 0.000000 -0.003158 0.000000
# 4 0.000000 0.000000 0.000000 0.009371 0.000000 0.022922
# 5 0.003489 -0.007499 -0.003158 0.000000 0.024857 0.000000
# 6 0.000000 0.000000 0.000000 0.022922 0.000000 -0.011786
#
#
# Mechanical properties :
#
#
# Convention : Reuss Voigt Hill
#
# Bulk Modulus (GPa) = 36.99218 82.26535 59.62877
# Shear Modulus (GPa) = 50.81783 27.57058 39.19421
#
# Velocity S-wave (km/s) = 4.39422 3.23666 3.85909
# Velocity P-wave (km/s) = 6.30883 6.72504 6.52026
#
# Compressibility (1/GPa) = 0.02703274
#
# Stress axis : x y z
#
# Youngs Moduli (GPa) = 93.95051 39.13929 92.66502
#
# Poissons Ratio (x) = -0.01709 0.68405
# Poissons Ratio (y) = -0.04102 0.28086
# Poissons Ratio (z) = 0.69354 0.11863
#
# Static dielectric constant tensor:
#      x y z
#    x 4.619820 0.000000 0.412510 
#    y 0.000000 4.516090 0.000000 
#    z 0.412510 0.000000 5.000780 
# 
# 
# High freq. dielectric constant tensor:
#      x y z
#    x 2.054840 0.000000 0.022420 
#    y 0.000000 2.062290 0.000000 
#    z 0.022420 0.000000 2.075540 
# 
# From -- ./inp_files/37376.got.cif
#   From: 2010.06.25/outbox.cif.g09.slc.cpg/sg15_19_cif.got.tgz:37376.got - 2010.06.28 07:06:18.
