data_PCOD8151561
_publ_section_title
;
Structure prediction by ZEFSAII (Michael W. Deem and Ramdas Pophale) SiO2 
 PCOD8151561
Probable space group: C 2/C
;
_chemical_formula_sum "Si O2"
_cell_formula_units_Z 40
_cell_length_a 17.290511
_cell_length_b 9.270225
_cell_length_c 16.309262
_cell_angle_alpha 90.000000
_cell_angle_beta 127.948271
_cell_angle_gamma 90.000000
_cell_volume 2061.439596
_symmetry_space_group_name_H-M "C 2/C"
_symmetry_group_IT_number 15
_symmetry_cell_setting 'monoclinic'
loop_
_space_group_symop_operation_xyz
x,y,z
-x,y,1/2-z
-x,-y,-z
x,-y,1/2+z
1/2+x,1/2+y,z
1/2-x,1/2+y,1/2-z
1/2-x,1/2-y,-z
1/2+x,1/2-y,1/2+z
loop_
_atom_site_type_symbol
_atom_site_label
_atom_site_fract_x
_atom_site_fract_y
_atom_site_fract_z
Si Si1 0.695066 0.605748 0.437363
Si Si2 0.645223 0.948193 0.060263
Si Si3 0.500000 0.737115 0.250000
Si Si4 0.000000 0.282588 0.750000
Si Si5 0.546648 0.979880 0.160379
Si Si6 0.656073 0.677155 0.974946
O O1 0.750000 0.750000 0.500000
O O2 0.753291 0.520987 0.403162
O O3 0.585581 0.636648 0.338507
O O4 0.681525 0.492733 0.505375
O O5 0.631549 0.982561 0.147102
O O6 0.635095 0.772723 0.042591
O O7 0.560545 0.018619 0.950090
O O8 0.551636 0.832612 0.213909
O O9 0.934942 0.385418 0.767042
O O10 0.931077 0.184099 0.648953
O O11 0.750000 0.750000 0.000000
#
# Coordination Sequence:
#
# PCOD8151561 Si02
#       6
#     8   8   4   4   8   8
#     4  11  21  37  57  83 114 152 192 239 287 341
#     4   9  18  38  58  84 111 147 192 237 283 344
#     4  11  21  36  58  84 118 152 188 236 294 340
#     4   9  17  34  58  82 110 148 186 230 282 344
#     4   9  18  34  62  83 112 150 188 233 290 345
#     4   9  19  34  57  79 109 148 187 227 280 336
#
# _framework density 19.403915000000001
#
# number of rings (size 3 to 8) (size 9 to 14) (size 15 to 20)
#    0.000    2.400    2.000    0.600    2.800    0.000 
#    7.200    1.000    0.000    0.000    0.000    0.000 
#    0.000    0.000    0.000    0.000    0.000    0.000 
#
# Total GULP energy -247794.469273 kJ/mol
# GULP energy per Si atom -12389.723464 kJ/mol
# Density = 1.935975 g / cm^3
# Si number density = 19.403915 Si / 1000 Ang^3
#
#
#
# Elastic Constant Matrix: (Units=GPa)
#
#
# Indices 1 2 3 4 5 6 
#
# 1 77.8190 37.4970 15.1503 0.0000 -9.5936 0.0000
# 2 37.4970 150.0701 28.6672 0.0000 -2.6609 0.0000
# 3 15.1503 28.6672 37.1753 0.0000 4.6985 0.0000
# 4 0.0000 0.0000 0.0000 24.1894 0.0000 4.5322
# 5 -9.5936 -2.6609 4.6985 0.0000 38.4244 0.0000
# 6 0.0000 0.0000 0.0000 4.5322 0.0000 20.5822
#
#
#
# Elastic Compliance Matrix: (Units=1/GPa)
#
#
# Indices 1 2 3 4 5 6 
#
# 1 0.015713 -0.002959 -0.004664 0.000000 0.004288 0.000000
# 2 -0.002959 0.008436 -0.005363 0.000000 0.000501 0.000000
# 3 -0.004664 -0.005363 0.033650 0.000000 -0.005651 0.000000
# 4 0.000000 0.000000 0.000000 0.043119 0.000000 -0.009495
# 5 0.004288 0.000501 -0.005651 0.000000 0.027822 0.000000
# 6 0.000000 0.000000 0.000000 -0.009495 0.000000 0.050676
#
#
# Mechanical properties :
#
#
# Convention : Reuss Voigt Hill
#
# Bulk Modulus (GPa) = 31.41930 47.52148 39.47039
# Shear Modulus (GPa) = 23.14847 28.88919 26.01883
#
# Velocity S-wave (km/s) = 3.45770 3.86273 3.66581
# Velocity P-wave (km/s) = 5.67171 6.66619 6.18896
#
# Compressibility (1/GPa) = 0.03182757
#
# Stress axis : x y z
#
# Youngs Moduli (GPa) = 63.64226 118.53587 29.71775
#
# Poissons Ratio (x) = 0.35076 0.13859
# Poissons Ratio (y) = 0.18833 0.15937
# Poissons Ratio (z) = 0.29681 0.63569
#
# Static dielectric constant tensor:
#      x y z
#    x 3.755560 0.000000 -0.124450 
#    y 0.000000 4.571820 0.000000 
#    z -0.124450 0.000000 3.410110 
# 
# 
# High freq. dielectric constant tensor:
#      x y z
#    x 1.740200 0.000000 0.015010 
#    y 0.000000 1.765030 0.000000 
#    z 0.015010 0.000000 1.738660 
# 
# From -- ./inp_files/159139.got.cif
#   From: 2010.06.25/outbox.cif.g09.slc.cpg/sg15_80_cif.got.tgz:159139.got - 2010.06.28 07:06:18.
