data_PCOD8151364
_publ_section_title
;
Structure prediction by ZEFSAII (Michael W. Deem and Ramdas Pophale) SiO2 
 PCOD8151364
Probable space group: C 2/C
;
_chemical_formula_sum "Si O2"
_cell_formula_units_Z 56
_cell_length_a 26.116159
_cell_length_b 17.372841
_cell_length_c 9.365387
_cell_angle_alpha 90.000000
_cell_angle_beta 43.981797
_cell_angle_gamma 90.000000
_cell_volume 2950.762300
_symmetry_space_group_name_H-M "C 2/C"
_symmetry_group_IT_number 15
_symmetry_cell_setting 'monoclinic'
loop_
_space_group_symop_operation_xyz
x,y,z
-x,y,1/2-z
-x,-y,-z
x,-y,1/2+z
1/2+x,1/2+y,z
1/2-x,1/2+y,1/2-z
1/2-x,1/2-y,-z
1/2+x,1/2-y,1/2+z
loop_
_atom_site_type_symbol
_atom_site_label
_atom_site_fract_x
_atom_site_fract_y
_atom_site_fract_z
Si Si1 0.356754 0.770661 0.631775
Si Si2 0.645272 0.267560 0.044738
Si Si3 0.554114 0.928187 0.397443
Si Si4 0.776074 0.538913 0.947403
Si Si5 0.256304 0.404902 0.683403
Si Si6 0.500000 0.187207 0.250000
Si Si7 0.740212 0.305194 0.384510
Si Si8 0.500000 0.163835 0.750000
O O1 0.334317 0.738215 0.830048
O O2 0.313114 0.848970 0.690610
O O3 0.335838 0.711670 0.546674
O O4 0.444388 0.783971 0.453147
O O5 0.560775 0.246457 0.187117
O O6 0.668066 0.354892 0.954701
O O7 0.692822 0.206451 0.859844
O O8 0.636353 0.958761 0.256843
O O9 0.531406 0.867881 0.564430
O O10 0.550452 0.887054 0.252321
O O11 0.500000 0.000000 0.500000
O O12 0.741963 0.459734 0.957732
O O13 0.736953 0.607991 0.942723
O O14 0.755321 0.542039 0.154896
O O15 0.750000 0.250000 0.500000
#
# Coordination Sequence:
#
# PCOD8151364 Si02
#       8
#     8   8   8   8   8   4   8   4
#     4  11  23  40  62  90 129 161 211 264 310 377
#     4  11  24  42  62  92 123 166 220 260 317 371
#     4  12  25  38  58  93 135 166 203 251 325 394
#     4  12  25  39  63  90 129 166 212 251 329 375
#     4  11  25  40  61  91 126 168 209 265 304 386
#     4  12  25  40  68  89 124 176 210 266 314 383
#     4  11  20  40  63  88 118 166 211 260 305 379
#     4  12  21  40  56  91 126 160 202 256 318 371
#
# _framework density 18.978147
#
# number of rings (size 3 to 8) (size 9 to 14) (size 15 to 20)
#    0.000    0.571    7.143    3.000    6.000    0.000 
#    0.000    0.000    0.000    1.714    0.000    0.000 
#    0.000    0.000    0.000    0.000    0.000    0.000 
#
# Total GULP energy -347243.855097 kJ/mol
# GULP energy per Si atom -12401.566253 kJ/mol
# Density = 1.893495 g / cm^3
# Si number density = 18.978147 Si / 1000 Ang^3
#
#
#
# Elastic Constant Matrix: (Units=GPa)
#
#
# Indices 1 2 3 4 5 6 
#
# 1 96.4500 40.4195 31.7554 0.0000 5.3198 0.0000
# 2 40.4195 78.3510 23.2947 0.0000 -6.1269 0.0000
# 3 31.7554 23.2947 81.6253 0.0000 11.5531 0.0000
# 4 0.0000 0.0000 0.0000 20.2590 0.0000 7.7661
# 5 5.3198 -6.1269 11.5531 0.0000 35.1336 0.0000
# 6 0.0000 0.0000 0.0000 7.7661 0.0000 38.6508
#
#
#
# Elastic Compliance Matrix: (Units=1/GPa)
#
#
# Indices 1 2 3 4 5 6 
#
# 1 0.014363 -0.006571 -0.003401 0.000000 -0.002202 0.000000
# 2 -0.006571 0.017488 -0.003154 0.000000 0.005082 0.000000
# 3 -0.003401 -0.003154 0.015186 0.000000 -0.005029 0.000000
# 4 0.000000 0.000000 0.000000 0.053480 0.000000 -0.010746
# 5 -0.002202 0.005082 -0.005029 0.000000 0.031336 0.000000
# 6 0.000000 0.000000 0.000000 -0.010746 0.000000 0.028032
#
#
# Mechanical properties :
#
#
# Convention : Reuss Voigt Hill
#
# Bulk Modulus (GPa) = 48.10902 49.70727 48.90815
# Shear Modulus (GPa) = 25.89826 29.53914 27.71870
#
# Velocity S-wave (km/s) = 3.69811 3.94951 3.82587
# Velocity P-wave (km/s) = 6.60601 6.85907 6.73373
#
# Compressibility (1/GPa) = 0.02078612
#
# Stress axis : x y z
#
# Youngs Moduli (GPa) = 69.62451 57.18304 65.85037
#
# Poissons Ratio (x) = 0.37572 0.22395
# Poissons Ratio (y) = 0.45747 0.20768
# Poissons Ratio (z) = 0.23678 0.18034
#
# Static dielectric constant tensor:
#      x y z
#    x 3.633090 0.000000 0.163000 
#    y 0.000000 3.592910 0.000000 
#    z 0.163000 0.000000 3.526450 
# 
# 
# High freq. dielectric constant tensor:
#      x y z
#    x 1.744400 0.000000 0.021110 
#    y 0.000000 1.723130 0.000000 
#    z 0.021110 0.000000 1.741670 
# 
# From -- ./inp_files/62698.got.cif
#   From: 2010.06.25/outbox.cif.g09.slc.cpg/sg15_32_cif.got.tgz:62698.got - 2010.06.28 07:06:18.
