data_PCOD8151643
_publ_section_title
;
Structure prediction by ZEFSAII (Michael W. Deem and Ramdas Pophale) SiO2 
 PCOD8151643
Probable space group: C 2/C
;
_chemical_formula_sum "Si O2"
_cell_formula_units_Z 64
_cell_length_a 26.090837
_cell_length_b 13.999196
_cell_length_c 9.654577
_cell_angle_alpha 90.000000
_cell_angle_beta 100.304453
_cell_angle_gamma 90.000000
_cell_volume 3469.465531
_symmetry_space_group_name_H-M "C 2/C"
_symmetry_group_IT_number 15
_symmetry_cell_setting 'monoclinic'
loop_
_space_group_symop_operation_xyz
x,y,z
-x,y,1/2-z
-x,-y,-z
x,-y,1/2+z
1/2+x,1/2+y,z
1/2-x,1/2+y,1/2-z
1/2-x,1/2-y,-z
1/2+x,1/2-y,1/2+z
loop_
_atom_site_type_symbol
_atom_site_label
_atom_site_fract_x
_atom_site_fract_y
_atom_site_fract_z
Si Si1 0.121283 0.334580 0.275941
Si Si2 0.262697 0.481378 0.156638
Si Si3 0.617818 0.160231 0.263517
Si Si4 0.052376 0.604190 0.974317
Si Si5 0.704920 0.289537 0.178790
Si Si6 0.192975 0.502753 0.366115
Si Si7 0.059205 0.615580 0.482839
Si Si8 0.305100 0.325871 0.647838
O O1 0.072606 0.332393 0.356471
O O2 0.167411 0.397661 0.369651
O O3 0.103814 0.376550 0.120860
O O4 0.144385 0.228174 0.267359
O O5 0.282470 0.379719 0.218299
O O6 0.212866 0.514441 0.219763
O O7 0.307855 0.562151 0.189921
O O8 0.242205 0.481186 0.989519
O O9 0.590959 0.110494 0.121637
O O10 0.654066 0.245791 0.228774
O O11 0.650097 0.083124 0.368955
O O12 0.574121 0.184946 0.359525
O O13 0.050916 0.493540 0.927207
O O14 0.996232 0.648851 0.983176
O O15 0.753267 0.216967 0.195467
O O16 0.693043 0.320408 0.017344
#
# Coordination Sequence:
#
# PCOD8151643 Si02
#       8
#     8   8   8   8   8   8   8   8
#     4  12  21  37  59  83 118 161 192 226 292 350
#     4  12  23  38  55  82 120 156 201 238 274 335
#     4  12  22  36  57  84 117 160 189 233 293 342
#     4  11  21  38  58  82 122 157 187 238 292 348
#     4  11  23  38  58  83 116 157 196 234 289 343
#     4  12  21  33  56  84 118 157 196 232 278 342
#     4  11  23  35  56  91 118 148 198 241 282 347
#     4  11  22  38  58  83 116 157 194 233 288 348
#
# _framework density 18.446646000000001
#
# number of rings (size 3 to 8) (size 9 to 14) (size 15 to 20)
#    0.000    0.500    7.500    3.000    0.000    3.500 
#    0.000    0.000    0.000    0.000    0.000    5.250 
#    0.000    0.000    0.000    0.000    0.000    0.000 
#
# Total GULP energy -396740.261605 kJ/mol
# GULP energy per Si atom -12398.133175 kJ/mol
# Density = 1.840466 g / cm^3
# Si number density = 18.446646 Si / 1000 Ang^3
#
#
#
# Elastic Constant Matrix: (Units=GPa)
#
#
# Indices 1 2 3 4 5 6 
#
# 1 88.3602 33.5502 28.8638 0.0000 -20.3161 0.0000
# 2 33.5502 78.9837 29.0184 0.0000 0.4668 0.0000
# 3 28.8638 29.0184 67.7592 0.0000 -13.0190 0.0000
# 4 0.0000 0.0000 0.0000 18.8588 0.0000 -3.9844
# 5 -20.3161 0.4668 -13.0190 0.0000 33.5590 0.0000
# 6 0.0000 0.0000 0.0000 -3.9844 0.0000 23.0212
#
#
#
# Elastic Compliance Matrix: (Units=1/GPa)
#
#
# Indices 1 2 3 4 5 6 
#
# 1 0.016616 -0.006115 -0.002712 0.000000 0.009092 0.000000
# 2 -0.006115 0.017546 -0.006124 0.000000 -0.006322 0.000000
# 3 -0.002712 -0.006124 0.019706 0.000000 0.006088 0.000000
# 4 0.000000 0.000000 0.000000 0.055038 0.000000 0.009526
# 5 0.009092 -0.006322 0.006088 0.000000 0.037752 0.000000
# 6 0.000000 0.000000 0.000000 0.009526 0.000000 0.045087
#
#
# Mechanical properties :
#
#
# Convention : Reuss Voigt Hill
#
# Bulk Modulus (GPa) = 41.72791 46.44089 44.08440
# Shear Modulus (GPa) = 21.77372 24.66583 23.21977
#
# Velocity S-wave (km/s) = 3.43937 3.66067 3.55174
# Velocity P-wave (km/s) = 6.20019 6.56489 6.38514
#
# Compressibility (1/GPa) = 0.02396478
#
# Stress axis : x y z
#
# Youngs Moduli (GPa) = 60.18450 56.99427 50.74664
#
# Poissons Ratio (x) = 0.34853 0.13763
# Poissons Ratio (y) = 0.36804 0.31076
# Poissons Ratio (z) = 0.16323 0.34902
#
# Static dielectric constant tensor:
#      x y z
#    x 3.505510 0.000000 -0.195710 
#    y 0.000000 3.228100 0.000000 
#    z -0.195710 0.000000 3.394380 
# 
# 
# High freq. dielectric constant tensor:
#      x y z
#    x 1.710070 0.000000 -0.017060 
#    y 0.000000 1.676520 0.000000 
#    z -0.017060 0.000000 1.727680 
# 
# From -- ./inp_files/66225.got.cif
#   From: 2010.06.25/outbox.cif.g09.slc.cpg/sg15_34_cif.got.tgz:66225.got - 2010.06.28 07:06:18.
