data_PCOD8151541
_publ_section_title
;
Structure prediction by ZEFSAII (Michael W. Deem and Ramdas Pophale) SiO2 
 PCOD8151541
Probable space group: C 2/C
;
_chemical_formula_sum "Si O2"
_cell_formula_units_Z 40
_cell_length_a 21.740131
_cell_length_b 11.959089
_cell_length_c 19.008908
_cell_angle_alpha 90.000000
_cell_angle_beta 26.861226
_cell_angle_gamma 90.000000
_cell_volume 2233.024768
_symmetry_space_group_name_H-M "C 2/C"
_symmetry_group_IT_number 15
_symmetry_cell_setting 'monoclinic'
loop_
_space_group_symop_operation_xyz
x,y,z
-x,y,1/2-z
-x,-y,-z
x,-y,1/2+z
1/2+x,1/2+y,z
1/2-x,1/2+y,1/2-z
1/2-x,1/2-y,-z
1/2+x,1/2-y,1/2+z
loop_
_atom_site_type_symbol
_atom_site_label
_atom_site_fract_x
_atom_site_fract_y
_atom_site_fract_z
Si Si1 0.141343 0.384328 0.640561
Si Si2 0.160999 0.515021 0.256333
Si Si3 0.705235 0.344352 0.147969
Si Si4 0.417722 0.159564 0.557178
Si Si5 0.955180 0.093076 0.991844
O O1 0.124074 0.491026 0.710385
O O2 0.248706 0.411075 0.469215
O O3 0.190824 0.285093 0.641684
O O4 0.000000 0.348062 0.750000
O O5 0.148945 0.393476 0.304588
O O6 0.313540 0.559078 0.103283
O O7 0.062951 0.602203 0.396032
O O8 0.819005 0.359031 0.091689
O O9 0.563167 0.395741 0.318350
O O10 0.443044 0.289851 0.545937
O O11 0.000000 0.000000 0.000000
#
# Coordination Sequence:
#
# PCOD8151541 Si02
#       5
#     8   8   8   8   8
#     4  11  21  35  59  90 124 157 190 250 309 354
#     4  11  23  36  59  85 121 158 194 246 294 358
#     4  11  21  35  57  89 123 150 195 247 303 350
#     4  11  21  40  57  87 119 157 202 238 300 355
#     4  12  22  37  60  90 119 155 198 252 295 348
#
# _framework density 17.912924
#
# number of rings (size 3 to 8) (size 9 to 14) (size 15 to 20)
#    0.000    0.800    8.000    0.000    2.800    0.000 
#    0.000    0.000    0.000    1.200    0.000    0.000 
#    0.000    0.000    0.000    0.000    0.000    0.000 
#
# Total GULP energy -247974.492841 kJ/mol
# GULP energy per Si atom -12398.724642 kJ/mol
# Density = 1.787215 g / cm^3
# Si number density = 17.912924 Si / 1000 Ang^3
#
#
#
# Elastic Constant Matrix: (Units=GPa)
#
#
# Indices 1 2 3 4 5 6 
#
# 1 98.9678 39.7670 49.3842 0.0000 15.1442 0.0000
# 2 39.7670 88.1342 49.1120 0.0000 19.2118 0.0000
# 3 49.3842 49.1120 148.7593 0.0000 11.9766 0.0000
# 4 0.0000 0.0000 0.0000 23.8812 0.0000 3.3005
# 5 15.1442 19.2118 11.9766 0.0000 42.0003 0.0000
# 6 0.0000 0.0000 0.0000 3.3005 0.0000 30.5167
#
#
#
# Elastic Compliance Matrix: (Units=1/GPa)
#
#
# Indices 1 2 3 4 5 6 
#
# 1 0.013531 -0.003944 -0.003011 0.000000 -0.002216 0.000000
# 2 -0.003944 0.016245 -0.003654 0.000000 -0.004967 0.000000
# 3 -0.003011 -0.003654 0.008911 0.000000 0.000216 0.000000
# 4 0.000000 0.000000 0.000000 0.042509 0.000000 -0.004598
# 5 -0.002216 -0.004967 0.000216 0.000000 0.026819 0.000000
# 6 0.000000 0.000000 0.000000 -0.004598 0.000000 0.033266
#
#
# Mechanical properties :
#
#
# Convention : Reuss Voigt Hill
#
# Bulk Modulus (GPa) = 57.24861 68.04308 62.64584
# Shear Modulus (GPa) = 29.70500 32.45284 31.07892
#
# Velocity S-wave (km/s) = 4.07664 4.26102 4.16985
# Velocity P-wave (km/s) = 7.36121 7.89154 7.63098
#
# Compressibility (1/GPa) = 0.01746767
#
# Stress axis : x y z
#
# Youngs Moduli (GPa) = 73.90506 61.55858 112.22276
#
# Poissons Ratio (x) = 0.24280 0.33794
# Poissons Ratio (y) = 0.29149 0.41005
# Poissons Ratio (z) = 0.22255 0.22493
#
# Static dielectric constant tensor:
#      x y z
#    x 3.383510 0.000000 0.130560 
#    y 0.000000 3.215600 0.000000 
#    z 0.130560 0.000000 3.648660 
# 
# 
# High freq. dielectric constant tensor:
#      x y z
#    x 1.697860 0.000000 -0.009120 
#    y 0.000000 1.654230 0.000000 
#    z -0.009120 0.000000 1.716440 
# 
# From -- ./inp_files/54078.got.cif
#   From: 2010.06.25/outbox.cif.g09.slc.cpg/sg15_28_cif.got.tgz:54078.got - 2010.06.28 07:06:18.
