data_PCOD8151169
_publ_section_title
;
Structure prediction by ZEFSAII (Michael W. Deem and Ramdas Pophale) SiO2 
 PCOD8151169
Probable space group: C 2/C
;
_chemical_formula_sum "Si O2"
_cell_formula_units_Z 60
_cell_length_a 22.990139
_cell_length_b 11.496397
_cell_length_c 19.050278
_cell_angle_alpha 90.000000
_cell_angle_beta 33.317979
_cell_angle_gamma 90.000000
_cell_volume 2765.683350
_symmetry_space_group_name_H-M "C 2/C"
_symmetry_group_IT_number 15
_symmetry_cell_setting 'monoclinic'
loop_
_space_group_symop_operation_xyz
x,y,z
-x,y,1/2-z
-x,-y,-z
x,-y,1/2+z
1/2+x,1/2+y,z
1/2-x,1/2+y,1/2-z
1/2-x,1/2-y,-z
1/2+x,1/2-y,1/2+z
loop_
_atom_site_type_symbol
_atom_site_label
_atom_site_fract_x
_atom_site_fract_y
_atom_site_fract_z
Si Si1 0.341531 0.942159 0.692307
Si Si2 0.380172 0.575182 0.763645
Si Si3 0.825987 0.222004 0.140682
Si Si4 0.140284 0.391745 0.516712
Si Si5 0.486518 0.093189 0.917949
Si Si6 0.500000 0.734421 0.750000
Si Si7 0.528227 0.350654 0.884238
Si Si8 0.329822 0.611682 0.663503
O O1 0.262770 0.853393 0.813665
O O2 0.426938 0.886451 0.552663
O O3 0.402148 0.025563 0.684964
O O4 0.250697 0.006349 0.738597
O O5 0.458984 0.650627 0.730560
O O6 0.415128 0.438733 0.726589
O O7 0.390701 0.630803 0.675678
O O8 0.261700 0.583878 0.913260
O O9 0.913387 0.154773 0.098364
O O10 0.748342 0.281699 0.276980
O O11 0.877436 0.317448 0.037205
O O12 0.082478 0.516993 0.566381
O O13 0.092099 0.318526 0.629039
O O14 0.514707 0.223036 0.862226
O O15 0.412551 0.406013 0.017165
#
# Coordination Sequence:
#
# PCOD8151169 Si02
#       8
#     8   8   8   8   8   4   8   8
#     4  11  20  33  57  97 142 167 199 243 326 406
#     4  11  25  44  64  94 128 172 219 272 316 369
#     4  11  20  35  60  99 137 169 200 261 324 396
#     4  11  25  44  68  92 132 171 219 272 319 377
#     4  11  21  37  60  97 134 171 203 252 325 402
#     4  12  28  48  68  88 118 176 238 278 312 362
#     4  12  22  36  64  98 140 167 204 261 333 403
#     4  11  21  34  61  99 136 171 202 252 328 403
#
# _framework density 21.694458000000001
#
# number of rings (size 3 to 8) (size 9 to 14) (size 15 to 20)
#    0.000    0.800    6.667    2.400    5.600    0.000 
#    0.000    0.667    0.000    1.600    0.000    0.000 
#    0.000    0.000    0.000    0.000    0.000    0.000 
#
# Total GULP energy -371646.168666 kJ/mol
# GULP energy per Si atom -12388.205622 kJ/mol
# Density = 2.164508 g / cm^3
# Si number density = 21.694458 Si / 1000 Ang^3
#
#
#
# Elastic Constant Matrix: (Units=GPa)
#
#
# Indices 1 2 3 4 5 6 
#
# 1 35.7747 15.2794 18.3435 0.0000 -6.5071 0.0000
# 2 15.2794 117.9871 56.3771 0.0000 -2.0874 0.0000
# 3 18.3435 56.3771 105.4909 0.0000 -13.6875 0.0000
# 4 0.0000 0.0000 0.0000 42.1338 0.0000 -11.3937
# 5 -6.5071 -2.0874 -13.6875 0.0000 23.3320 0.0000
# 6 0.0000 0.0000 0.0000 -11.3937 0.0000 30.7633
#
#
#
# Elastic Compliance Matrix: (Units=1/GPa)
#
#
# Indices 1 2 3 4 5 6 
#
# 1 0.031938 -0.002389 -0.003408 0.000000 0.006694 0.000000
# 2 -0.002389 0.011727 -0.006280 0.000000 -0.003301 0.000000
# 3 -0.003408 -0.006280 0.014322 0.000000 0.006890 0.000000
# 4 0.000000 0.000000 0.000000 0.026376 0.000000 0.009769
# 5 0.006694 -0.003301 0.006890 0.000000 0.048473 0.000000
# 6 0.000000 0.000000 0.000000 0.009769 0.000000 0.036124
#
#
# Mechanical properties :
#
#
# Convention : Reuss Voigt Hill
#
# Bulk Modulus (GPa) = 29.55717 48.80586 39.18151
# Shear Modulus (GPa) = 24.46257 30.52933 27.49595
#
# Velocity S-wave (km/s) = 3.36161 3.75539 3.56394
# Velocity P-wave (km/s) = 5.35921 6.43037 5.91907
#
# Compressibility (1/GPa) = 0.03383274
#
# Stress axis : x y z
#
# Youngs Moduli (GPa) = 31.31037 85.27051 69.82028
#
# Poissons Ratio (x) = 0.20371 0.23797
# Poissons Ratio (y) = 0.07480 0.43850
# Poissons Ratio (z) = 0.10672 0.53553
#
# Static dielectric constant tensor:
#      x y z
#    x 3.363520 0.000000 -0.430610 
#    y 0.000000 4.536110 0.000000 
#    z -0.430610 0.000000 4.020810 
# 
# 
# High freq. dielectric constant tensor:
#      x y z
#    x 1.792390 0.000000 -0.050150 
#    y 0.000000 1.874060 0.000000 
#    z -0.050150 0.000000 1.854120 
# 
# From -- ./inp_files/255547.got.cif
#   From: 2010.06.25/outbox.cif.g09.slc.cpg/sg15_128_cif.got.tgz:255547.got - 2010.06.28 07:06:18.
