data_PCOD8151086
_publ_section_title
;
Structure prediction by ZEFSAII (Michael W. Deem and Ramdas Pophale) SiO2 
 PCOD8151086
Probable space group: C 2/C
;
_chemical_formula_sum "Si O2"
_cell_formula_units_Z 48
_cell_length_a 9.092077
_cell_length_b 16.490573
_cell_length_c 17.524329
_cell_angle_alpha 90.000000
_cell_angle_beta 73.687132
_cell_angle_gamma 90.000000
_cell_volume 2521.708345
_symmetry_space_group_name_H-M "C 2/C"
_symmetry_group_IT_number 15
_symmetry_cell_setting 'monoclinic'
loop_
_space_group_symop_operation_xyz
x,y,z
-x,y,1/2-z
-x,-y,-z
x,-y,1/2+z
1/2+x,1/2+y,z
1/2-x,1/2+y,1/2-z
1/2-x,1/2-y,-z
1/2+x,1/2-y,1/2+z
loop_
_atom_site_type_symbol
_atom_site_label
_atom_site_fract_x
_atom_site_fract_y
_atom_site_fract_z
Si Si1 0.104584 0.993014 0.307166
Si Si2 0.322052 0.122321 0.713139
Si Si3 0.383619 0.807252 0.359800
Si Si4 0.889608 0.237656 0.833459
Si Si5 0.912705 0.161708 0.112493
Si Si6 0.441382 0.645757 0.567616
O O1 0.102091 0.086293 0.329112
O O2 0.000000 0.978199 0.250000
O O3 0.276597 0.964316 0.256429
O O4 0.051852 0.937007 0.385211
O O5 0.487209 0.121259 0.646948
O O6 0.334413 0.192149 0.777679
O O7 0.186031 0.151533 0.678194
O O8 0.458264 0.722169 0.373396
O O9 0.232916 0.829265 0.430630
O O10 0.755807 0.301021 0.870628
O O11 0.000000 0.270199 0.750000
O O12 0.987410 0.221147 0.895465
O O13 0.962688 0.130872 0.022372
#
# Coordination Sequence:
#
# PCOD8151086 Si02
#       6
#     8   8   8   8   8   8
#     4  11  21  37  61  83 116 159 199 235 287 353
#     4   9  17  36  59  82 103 156 200 226 276 353
#     4   9  19  34  63  82 111 146 201 235 285 342
#     4  11  19  38  61  85 111 154 199 233 279 354
#     4  11  25  34  59  94 119 144 193 257 291 333
#     4  11  20  41  60  84 120 158 189 233 306 357
#
# _framework density 19.034714999999998
#
# number of rings (size 3 to 8) (size 9 to 14) (size 15 to 20)
#    0.000    1.667    5.000    1.500    4.667    0.000 
#    6.000    0.000    0.000    1.000    0.000    0.000 
#    0.000    0.000    0.000    0.000    0.000    0.000 
#
# Total GULP energy -297420.478797 kJ/mol
# GULP energy per Si atom -12392.519950 kJ/mol
# Density = 1.899139 g / cm^3
# Si number density = 19.034715 Si / 1000 Ang^3
#
#
#
# Elastic Constant Matrix: (Units=GPa)
#
#
# Indices 1 2 3 4 5 6 
#
# 1 103.4549 39.2317 45.3953 0.0000 -21.5411 0.0000
# 2 39.2317 95.4795 32.0755 0.0000 -8.6345 0.0000
# 3 45.3953 32.0755 77.4960 0.0000 -17.0112 0.0000
# 4 0.0000 0.0000 0.0000 18.7561 0.0000 2.9294
# 5 -21.5411 -8.6345 -17.0112 0.0000 32.2700 0.0000
# 6 0.0000 0.0000 0.0000 2.9294 0.0000 22.7357
#
#
#
# Elastic Compliance Matrix: (Units=1/GPa)
#
#
# Indices 1 2 3 4 5 6 
#
# 1 0.014838 -0.003577 -0.005934 0.000000 0.005820 0.000000
# 2 -0.003577 0.013040 -0.003461 0.000000 -0.000723 0.000000
# 3 -0.005934 -0.003461 0.018930 0.000000 0.005092 0.000000
# 4 0.000000 0.000000 0.000000 0.054411 0.000000 -0.007011
# 5 0.005820 -0.000723 0.005092 0.000000 0.037364 0.000000
# 6 0.000000 0.000000 0.000000 -0.007011 0.000000 0.044887
#
#
# Mechanical properties :
#
#
# Convention : Reuss Voigt Hill
#
# Bulk Modulus (GPa) = 47.92662 56.64836 52.28749
# Shear Modulus (GPa) = 23.10871 25.40088 24.25479
#
# Velocity S-wave (km/s) = 3.48807 3.65698 3.57352
# Velocity P-wave (km/s) = 6.43859 6.90337 6.67502
#
# Compressibility (1/GPa) = 0.02086523
#
# Stress axis : x y z
#
# Youngs Moduli (GPa) = 67.39473 76.68426 52.82663
#
# Poissons Ratio (x) = 0.27431 0.31346
# Poissons Ratio (y) = 0.24108 0.18282
# Poissons Ratio (z) = 0.39990 0.26538
#
# Static dielectric constant tensor:
#      x y z
#    x 3.808260 0.000000 -0.217910 
#    y 0.000000 3.198320 0.000000 
#    z -0.217910 0.000000 3.475090 
# 
# 
# High freq. dielectric constant tensor:
#      x y z
#    x 1.757640 0.000000 -0.008500 
#    y 0.000000 1.707340 0.000000 
#    z -0.008500 0.000000 1.732520 
# 
# From -- ./inp_files/231074.got.cif
#   From: 2010.06.25/outbox.cif.g09.slc.cpg/sg15_116_cif.got.tgz:231074.got - 2010.06.28 07:06:18.
