data_PCOD8151930
_publ_section_title
;
Structure prediction by ZEFSAII (Michael W. Deem and Ramdas Pophale) SiO2 
 PCOD8151930
Probable space group: C 2/C
;
_chemical_formula_sum "Si O2"
_cell_formula_units_Z 48
_cell_length_a 18.721778
_cell_length_b 16.865494
_cell_length_c 16.181664
_cell_angle_alpha 90.000000
_cell_angle_beta 156.814600
_cell_angle_gamma 90.000000
_cell_volume 2011.607417
_symmetry_space_group_name_H-M "C 2/C"
_symmetry_group_IT_number 15
_symmetry_cell_setting 'monoclinic'
loop_
_space_group_symop_operation_xyz
x,y,z
-x,y,1/2-z
-x,-y,-z
x,-y,1/2+z
1/2+x,1/2+y,z
1/2-x,1/2+y,1/2-z
1/2-x,1/2-y,-z
1/2+x,1/2-y,1/2+z
loop_
_atom_site_type_symbol
_atom_site_label
_atom_site_fract_x
_atom_site_fract_y
_atom_site_fract_z
Si Si1 0.409897 0.589414 0.234824
Si Si2 0.808265 0.178540 0.692972
Si Si3 0.697915 0.056656 0.448853
Si Si4 0.225704 0.854962 0.629615
Si Si5 0.275378 0.654245 0.839396
Si Si6 0.383462 0.833336 0.970043
O O1 0.500000 0.631638 0.250000
O O2 0.571858 0.588714 0.475318
O O3 0.231085 0.635962 0.073929
O O4 0.352597 0.500595 0.149512
O O5 0.703187 0.138849 0.505317
O O6 0.804754 0.272843 0.678076
O O7 0.714408 0.149202 0.678688
O O8 0.012897 0.150594 0.913387
O O9 0.500000 0.017623 0.250000
O O10 0.728993 0.074143 0.385259
O O11 0.308152 0.874564 0.806879
O O12 0.372793 0.738785 0.955041
O O13 0.096200 0.643649 0.705425
#
# Coordination Sequence:
#
# PCOD8151930 Si02
#       6
#     8   8   8   8   8   8
#     4  12  28  47  66 102 143 187 230 294 351 416
#     4  11  21  42  74 106 139 180 231 294 344 417
#     4  12  27  46  64 104 145 186 231 282 359 426
#     4  11  21  43  74 105 140 179 234 287 350 416
#     4  11  22  45  75 105 137 177 243 287 350 408
#     4  11  22  46  75 106 133 182 233 297 342 413
#
# _framework density 23.861515000000001
#
# number of rings (size 3 to 8) (size 9 to 14) (size 15 to 20)
#    0.000    0.667    3.333    7.000    2.333    1.333 
#    3.000    1.667    0.000    0.000    0.000    0.000 
#    0.000    0.000    0.000    0.000    0.000    0.000 
#
# Total GULP energy -297674.355994 kJ/mol
# GULP energy per Si atom -12403.098166 kJ/mol
# Density = 2.380721 g / cm^3
# Si number density = 23.861515 Si / 1000 Ang^3
#
#
#
# Elastic Constant Matrix: (Units=GPa)
#
#
# Indices 1 2 3 4 5 6 
#
# 1 132.4874 45.6798 35.9317 0.0311 21.4733 -0.0037
# 2 45.6798 66.1174 31.7019 0.0122 -4.9213 0.0037
# 3 35.9317 31.7019 123.2269 0.0458 28.3978 0.0036
# 4 0.0311 0.0122 0.0458 28.5229 0.0272 -1.2966
# 5 21.4733 -4.9213 28.3978 0.0272 52.8883 -0.0010
# 6 -0.0037 0.0037 0.0036 -1.2966 -0.0010 27.6534
#
#
#
# Elastic Compliance Matrix: (Units=1/GPa)
#
#
# Indices 1 2 3 4 5 6 
#
# 1 0.011218 -0.008181 0.000067 -0.000004 -0.005352 0.000002
# 2 -0.008181 0.024235 -0.005860 0.000000 0.008723 -0.000003
# 3 0.000067 -0.005860 0.011110 -0.000009 -0.006538 -0.000001
# 4 -0.000004 0.000000 -0.000009 0.035134 -0.000012 0.001647
# 5 -0.005352 0.008723 -0.006538 -0.000012 0.025403 -0.000001
# 6 0.000002 -0.000003 -0.000001 0.001647 -0.000001 0.036239
#
#
# Mechanical properties :
#
#
# Convention : Reuss Voigt Hill
#
# Bulk Modulus (GPa) = 53.71732 60.93984 57.32858
# Shear Modulus (GPa) = 28.17043 35.71414 31.94228
#
# Velocity S-wave (km/s) = 3.43968 3.87295 3.66273
# Velocity P-wave (km/s) = 6.19163 6.75234 6.47805
#
# Compressibility (1/GPa) = 0.01861597
#
# Stress axis : x y z
#
# Youngs Moduli (GPa) = 89.14498 41.26203 90.01129
#
# Poissons Ratio (x) = 0.33755 -0.00602
# Poissons Ratio (y) = 0.72926 0.52744
# Poissons Ratio (z) = -0.00596 0.24178
#
# Static dielectric constant tensor:
#      x y z
#    x 4.591890 -0.000050 0.086140 
#    y -0.000050 4.061190 -0.000070 
#    z 0.086140 -0.000070 4.359490 
# 
# 
# High freq. dielectric constant tensor:
#      x y z
#    x 1.957090 0.000000 0.015650 
#    y 0.000000 1.913640 0.000000 
#    z 0.015650 0.000000 1.958940 
# 
# From -- ./inp_files/216302.got.cif
#   From: 2010.06.25/outbox.cif.g09.slc.cpg/sg15_109_cif.got.tgz:216302.got - 2010.06.28 07:06:18.
