data_PCOD8151992
_publ_section_title
;
Structure prediction by ZEFSAII (Michael W. Deem and Ramdas Pophale) SiO2 
 PCOD8151992
Probable space group: C 2/C
;
_chemical_formula_sum "Si O2"
_cell_formula_units_Z 44
_cell_length_a 25.577872
_cell_length_b 10.906835
_cell_length_c 10.741338
_cell_angle_alpha 90.000000
_cell_angle_beta 139.481562
_cell_angle_gamma 90.000000
_cell_volume 1946.836740
_symmetry_space_group_name_H-M "C 2/C"
_symmetry_group_IT_number 15
_symmetry_cell_setting 'monoclinic'
loop_
_space_group_symop_operation_xyz
x,y,z
-x,y,1/2-z
-x,-y,-z
x,-y,1/2+z
1/2+x,1/2+y,z
1/2-x,1/2+y,1/2-z
1/2-x,1/2-y,-z
1/2+x,1/2-y,1/2+z
loop_
_atom_site_type_symbol
_atom_site_label
_atom_site_fract_x
_atom_site_fract_y
_atom_site_fract_z
Si Si1 0.500000 0.156468 0.250000
Si Si2 0.814929 0.334215 0.053276
Si Si3 0.805715 0.241448 0.778510
Si Si4 0.657576 0.108325 0.393479
Si Si5 0.064090 0.057417 0.475286
Si Si6 0.943579 0.187748 0.423376
O O1 0.571788 0.083055 0.308345
O O2 0.544523 0.235575 0.431919
O O3 0.810279 0.474955 0.090174
O O4 0.899132 0.270388 0.240796
O O5 0.750000 0.250000 0.000000
O O6 0.797928 0.339217 0.875050
O O7 0.719149 0.183239 0.591726
O O8 0.849832 0.309598 0.744036
O O9 0.859510 0.132202 0.934991
O O10 0.000000 0.026247 0.250000
O O11 0.026490 0.143455 0.513502
O O12 0.100376 0.935885 0.607034
#
# Coordination Sequence:
#
# PCOD8151992 Si02
#       6
#     4   8   8   8   8   8
#     4  12  24  46  70 110 148 184 232 302 368 416
#     4  12  27  47  71 102 140 187 240 296 357 424
#     4  11  25  48  72 102 141 189 239 289 358 428
#     4  11  28  47  73 105 146 188 237 297 359 431
#     4  11  21  44  69 103 139 184 236 290 343 422
#     4  11  24  40  70 103 140 183 232 290 354 416
#
# _framework density 22.600764999999999
#
# number of rings (size 3 to 8) (size 9 to 14) (size 15 to 20)
#    0.000    0.727    4.545    2.182    5.091    2.182 
#    3.273    0.000    0.000    0.000    0.000    0.000 
#    0.000    0.000    0.000    0.000    0.000    0.000 
#
# Total GULP energy -272670.953538 kJ/mol
# GULP energy per Si atom -12394.134252 kJ/mol
# Density = 2.254932 g / cm^3
# Si number density = 22.600765 Si / 1000 Ang^3
#
#
#
# Elastic Constant Matrix: (Units=GPa)
#
#
# Indices 1 2 3 4 5 6 
#
# 1 101.9457 25.3792 35.9585 0.0000 -1.6621 0.0000
# 2 25.3792 124.3680 47.2355 0.0000 1.1828 0.0000
# 3 35.9585 47.2355 102.8380 0.0000 -18.1214 0.0000
# 4 0.0000 0.0000 0.0000 37.7583 0.0000 20.0108
# 5 -1.6621 1.1828 -18.1214 0.0000 36.8480 0.0000
# 6 0.0000 0.0000 0.0000 20.0108 0.0000 64.1625
#
#
#
# Elastic Compliance Matrix: (Units=1/GPa)
#
#
# Indices 1 2 3 4 5 6 
#
# 1 0.011344 -0.000856 -0.003808 0.000000 -0.001334 0.000000
# 2 -0.000856 0.010066 -0.004804 0.000000 -0.002724 0.000000
# 3 -0.003808 -0.004804 0.014517 0.000000 0.007122 0.000000
# 4 0.000000 0.000000 0.000000 0.031729 0.000000 -0.009895
# 5 -0.001334 -0.002724 0.007122 0.000000 0.030668 0.000000
# 6 0.000000 0.000000 0.000000 -0.009895 0.000000 0.018672
#
#
# Mechanical properties :
#
#
# Convention : Reuss Voigt Hill
#
# Bulk Modulus (GPa) = 58.85805 60.69982 59.77894
# Shear Modulus (GPa) = 35.31178 42.45898 38.88538
#
# Velocity S-wave (km/s) = 3.95703 4.33904 4.15243
# Velocity P-wave (km/s) = 6.85394 7.21241 7.03546
#
# Compressibility (1/GPa) = 0.01699003
#
# Stress axis : x y z
#
# Youngs Moduli (GPa) = 88.15428 99.34542 68.88289
#
# Poissons Ratio (x) = 0.08501 0.26234
# Poissons Ratio (y) = 0.07543 0.33094
# Poissons Ratio (z) = 0.33573 0.47729
#
# Static dielectric constant tensor:
#      x y z
#    x 4.054660 0.000000 -0.106650 
#    y 0.000000 4.229670 0.000000 
#    z -0.106650 0.000000 9.900800 
# 
# 
# High freq. dielectric constant tensor:
#      x y z
#    x 1.891390 0.000000 -0.009280 
#    y 0.000000 1.893540 0.000000 
#    z -0.009280 0.000000 1.894430 
# 
# From -- ./inp_files/118105.got.cif
#   From: 2010.06.25/outbox.cif.g09.slc.cpg/sg15_60_cif.got.tgz:118105.got - 2010.06.28 07:06:18.
