data_PCOD8151796
_publ_section_title
;
Structure prediction by ZEFSAII (Michael W. Deem and Ramdas Pophale) SiO2 
 PCOD8151796
Probable space group: C 2/C
;
_chemical_formula_sum "Si O2"
_cell_formula_units_Z 60
_cell_length_a 20.503147
_cell_length_b 10.732209
_cell_length_c 14.720405
_cell_angle_alpha 90.000000
_cell_angle_beta 62.194122
_cell_angle_gamma 90.000000
_cell_volume 2865.124555
_symmetry_space_group_name_H-M "C 2/C"
_symmetry_group_IT_number 15
_symmetry_cell_setting 'monoclinic'
loop_
_space_group_symop_operation_xyz
x,y,z
-x,y,1/2-z
-x,-y,-z
x,-y,1/2+z
1/2+x,1/2+y,z
1/2-x,1/2+y,1/2-z
1/2-x,1/2-y,-z
1/2+x,1/2-y,1/2+z
loop_
_atom_site_type_symbol
_atom_site_label
_atom_site_fract_x
_atom_site_fract_y
_atom_site_fract_z
Si Si1 0.968329 0.384195 0.076753
Si Si2 0.000000 0.527848 0.750000
Si Si3 0.296567 0.588790 0.104654
Si Si4 0.656554 0.562552 0.765754
Si Si5 0.984809 0.133270 0.556950
Si Si6 0.352154 0.885040 0.882656
Si Si7 0.184040 0.366918 0.397991
Si Si8 0.609451 0.605669 0.611551
O O1 0.994791 0.386033 0.163939
O O2 0.879802 0.402342 0.131788
O O3 0.000000 0.500000 0.000000
O O4 0.992380 0.251396 0.018729
O O5 0.070330 0.439024 0.698725
O O6 0.324249 0.557803 0.187040
O O7 0.209295 0.569610 0.149888
O O8 0.327005 0.725570 0.066398
O O9 0.342145 0.524358 0.992442
O O10 0.601772 0.649201 0.861647
O O11 0.735727 0.624228 0.697828
O O12 0.613547 0.522767 0.701405
O O13 0.028487 0.132897 0.624632
O O14 0.000000 0.000000 0.500000
O O15 0.353903 0.735425 0.877864
O O16 0.328525 0.938469 0.997742
#
# Coordination Sequence:
#
# PCOD8151796 Si02
#       8
#     8   4   8   8   8   8   8   8
#     4  12  25  46  72 103 148 180 235 297 349 420
#     4  12  26  42  70 108 138 190 214 298 378 404
#     4  11  21  42  63  99 137 169 235 295 345 401
#     4  12  24  37  70  99 128 185 231 291 350 408
#     4  12  25  47  66 100 143 182 236 288 342 426
#     4  11  21  41  71  96 136 175 241 282 345 428
#     4  11  21  42  66  95 136 181 228 293 342 415
#     4  11  21  40  68  95 127 182 235 281 335 421
#
# _framework density 20.941497999999999
#
# number of rings (size 3 to 8) (size 9 to 14) (size 15 to 20)
#    0.000    0.533    8.000    2.000    3.733    1.067 
#    4.800    0.000    0.000    2.400    0.000    0.000 
#    0.000    0.000    0.000    0.000    0.000    0.000 
#
# Total GULP energy -371687.343790 kJ/mol
# GULP energy per Si atom -12389.578126 kJ/mol
# Density = 2.089383 g / cm^3
# Si number density = 20.941498 Si / 1000 Ang^3
#
#
#
# Elastic Constant Matrix: (Units=GPa)
#
#
# Indices 1 2 3 4 5 6 
#
# 1 163.2674 38.0200 74.4991 0.0000 0.2744 0.0000
# 2 38.0200 75.2702 45.1606 0.0000 8.6600 0.0000
# 3 74.4991 45.1606 134.5587 0.0000 2.5801 0.0000
# 4 0.0000 0.0000 0.0000 23.7432 0.0000 3.5235
# 5 0.2744 8.6600 2.5801 0.0000 55.9208 0.0000
# 6 0.0000 0.0000 0.0000 3.5235 0.0000 29.1061
#
#
#
# Elastic Compliance Matrix: (Units=1/GPa)
#
#
# Indices 1 2 3 4 5 6 
#
# 1 0.008399 -0.001875 -0.004029 0.000000 0.000435 0.000000
# 2 -0.001875 0.017360 -0.004741 0.000000 -0.002461 0.000000
# 3 -0.004029 -0.004741 0.011249 0.000000 0.000235 0.000000
# 4 0.000000 0.000000 0.000000 0.042888 0.000000 -0.005192
# 5 0.000435 -0.002461 0.000235 0.000000 0.018250 0.000000
# 6 0.000000 0.000000 0.000000 -0.005192 0.000000 0.034986
#
#
# Mechanical properties :
#
#
# Convention : Reuss Voigt Hill
#
# Bulk Modulus (GPa) = 63.62239 76.49506 70.05873
# Shear Modulus (GPa) = 31.31587 36.11514 33.71551
#
# Velocity S-wave (km/s) = 3.87123 4.15730 4.01682
# Velocity P-wave (km/s) = 7.10133 7.72344 7.41891
#
# Compressibility (1/GPa) = 0.01571774
#
# Stress axis : x y z
#
# Youngs Moduli (GPa) = 119.05484 57.60269 88.89449
#
# Poissons Ratio (x) = 0.10802 0.35819
# Poissons Ratio (y) = 0.22325 0.42145
# Poissons Ratio (z) = 0.47972 0.27310
#
# Static dielectric constant tensor:
#      x y z
#    x 4.196300 0.000000 0.136060 
#    y 0.000000 3.438680 0.000000 
#    z 0.136060 0.000000 4.145690 
# 
# 
# High freq. dielectric constant tensor:
#      x y z
#    x 1.846010 0.000000 -0.004180 
#    y 0.000000 1.767640 0.000000 
#    z -0.004180 0.000000 1.836360 
# 
# From -- ./inp_files/167616.got.cif
#   From: 2010.06.25/outbox.cif.g09.slc.cpg/sg15_84_cif.got.tgz:167616.got - 2010.06.28 07:06:18.
