data_PCOD8151356
_publ_section_title
;
Structure prediction by ZEFSAII (Michael W. Deem and Ramdas Pophale) SiO2 
 PCOD8151356
Probable space group: C 2/C
;
_chemical_formula_sum "Si O2"
_cell_formula_units_Z 40
_cell_length_a 13.153946
_cell_length_b 13.493879
_cell_length_c 12.778040
_cell_angle_alpha 90.000000
_cell_angle_beta 122.293981
_cell_angle_gamma 90.000000
_cell_volume 1917.243205
_symmetry_space_group_name_H-M "C 2/C"
_symmetry_group_IT_number 15
_symmetry_cell_setting 'monoclinic'
loop_
_space_group_symop_operation_xyz
x,y,z
-x,y,1/2-z
-x,-y,-z
x,-y,1/2+z
1/2+x,1/2+y,z
1/2-x,1/2+y,1/2-z
1/2-x,1/2-y,-z
1/2+x,1/2-y,1/2+z
loop_
_atom_site_type_symbol
_atom_site_label
_atom_site_fract_x
_atom_site_fract_y
_atom_site_fract_z
Si Si1 0.276572 0.621455 0.910894
Si Si2 0.000000 0.716371 0.250000
Si Si3 0.781280 0.162486 0.153421
Si Si4 0.527332 0.623532 0.937487
Si Si5 0.500000 0.536623 0.250000
Si Si6 0.218430 0.592073 0.325892
O O1 0.218430 0.719135 0.827012
O O2 0.417995 0.607576 0.959632
O O3 0.205497 0.525682 0.832379
O O4 0.249540 0.632076 0.018674
O O5 0.010212 0.781980 0.151377
O O6 0.884165 0.647886 0.165948
O O7 0.691042 0.115184 0.188633
O O8 0.906041 0.110770 0.250893
O O9 0.549166 0.530532 0.871906
O O10 0.652571 0.636715 0.067331
#
# Coordination Sequence:
#
# PCOD8151356 Si02
#       6
#     8   4   8   8   4   8
#     4  11  23  42  68 101 129 170 213 270 329 384
#     4  11  26  43  64  98 134 171 216 271 328 382
#     4  11  23  39  67 101 134 159 220 272 320 375
#     4  11  22  42  71  96 124 172 230 259 314 394
#     4  11  20  39  72  98 124 175 216 271 310 384
#     4  12  23  44  68  94 131 175 216 269 324 390
#
# _framework density 20.863289999999999
#
# number of rings (size 3 to 8) (size 9 to 14) (size 15 to 20)
#    0.000    0.800    6.000    2.400    0.000    0.800 
#    3.600    1.000    0.000    0.000    0.000    0.000 
#    0.000    0.000    0.000    0.000    0.000    0.000 
#
# Total GULP energy -247905.184016 kJ/mol
# GULP energy per Si atom -12395.259201 kJ/mol
# Density = 2.081580 g / cm^3
# Si number density = 20.863290 Si / 1000 Ang^3
#
#
#
# Elastic Constant Matrix: (Units=GPa)
#
#
# Indices 1 2 3 4 5 6 
#
# 1 76.3835 41.5797 30.1485 0.0000 5.6182 0.0000
# 2 41.5797 165.4758 46.3251 0.0000 1.6801 0.0000
# 3 30.1485 46.3251 80.9351 0.0000 -13.3844 0.0000
# 4 0.0000 0.0000 0.0000 17.0148 0.0000 2.7062
# 5 5.6182 1.6801 -13.3844 0.0000 32.4102 0.0000
# 6 0.0000 0.0000 0.0000 2.7062 0.0000 40.8835
#
#
#
# Elastic Compliance Matrix: (Units=1/GPa)
#
#
# Indices 1 2 3 4 5 6 
#
# 1 0.017190 -0.002658 -0.005744 0.000000 -0.005214 0.000000
# 2 -0.002658 0.007760 -0.003694 0.000000 -0.001467 0.000000
# 3 -0.005744 -0.003694 0.018038 0.000000 0.008636 0.000000
# 4 0.000000 0.000000 0.000000 0.059398 0.000000 -0.003932
# 5 -0.005214 -0.001467 0.008636 0.000000 0.035401 0.000000
# 6 0.000000 0.000000 0.000000 -0.003932 0.000000 0.024720
#
#
# Mechanical properties :
#
#
# Convention : Reuss Voigt Hill
#
# Bulk Modulus (GPa) = 53.20578 62.10013 57.65295
# Shear Modulus (GPa) = 25.91162 31.71109 28.81135
#
# Velocity S-wave (km/s) = 3.52799 3.90288 3.72016
# Velocity P-wave (km/s) = 6.49254 7.08095 6.79312
#
# Compressibility (1/GPa) = 0.01879495
#
# Stress axis : x y z
#
# Youngs Moduli (GPa) = 58.17505 128.86233 55.43924
#
# Poissons Ratio (x) = 0.34256 0.31843
# Poissons Ratio (y) = 0.15465 0.20480
# Poissons Ratio (z) = 0.33415 0.47603
#
# Static dielectric constant tensor:
#      x y z
#    x 3.831080 0.000000 -0.325510 
#    y 0.000000 4.054750 0.000000 
#    z -0.325510 0.000000 3.647520 
# 
# 
# High freq. dielectric constant tensor:
#      x y z
#    x 1.810720 0.000000 -0.028460 
#    y 0.000000 1.832820 0.000000 
#    z -0.028460 0.000000 1.811270 
# 
# From -- ./inp_files/85567.got.cif
#   From: 2010.06.25/outbox.cif.g09.slc.cpg/sg15_43_cif.got.tgz:85567.got - 2010.06.28 07:06:18.
