data_PCOD8151415
_publ_section_title
;
Structure prediction by ZEFSAII (Michael W. Deem and Ramdas Pophale) SiO2 
 PCOD8151415
Probable space group: C 2/C
;
_chemical_formula_sum "Si O2"
_cell_formula_units_Z 60
_cell_length_a 18.126138
_cell_length_b 12.607081
_cell_length_c 14.786813
_cell_angle_alpha 90.000000
_cell_angle_beta 57.356509
_cell_angle_gamma 90.000000
_cell_volume 2845.304666
_symmetry_space_group_name_H-M "C 2/C"
_symmetry_group_IT_number 15
_symmetry_cell_setting 'monoclinic'
loop_
_space_group_symop_operation_xyz
x,y,z
-x,y,1/2-z
-x,-y,-z
x,-y,1/2+z
1/2+x,1/2+y,z
1/2-x,1/2+y,1/2-z
1/2-x,1/2-y,-z
1/2+x,1/2-y,1/2+z
loop_
_atom_site_type_symbol
_atom_site_label
_atom_site_fract_x
_atom_site_fract_y
_atom_site_fract_z
Si Si1 0.458012 0.712969 0.452318
Si Si2 0.131749 0.513420 0.173961
Si Si3 0.680287 0.457996 0.408187
Si Si4 0.500000 0.587717 0.250000
Si Si5 0.121025 0.059605 0.759377
Si Si6 0.835894 0.253063 0.882707
Si Si7 0.558257 0.641421 0.548055
Si Si8 0.482926 0.954260 0.410907
O O1 0.369256 0.654405 0.544284
O O2 0.491964 0.663520 0.338986
O O3 0.538696 0.701489 0.468248
O O4 0.443954 0.836940 0.447012
O O5 0.221701 0.447089 0.118503
O O6 0.151141 0.637492 0.179952
O O7 0.092424 0.512180 0.098128
O O8 0.070596 0.463505 0.292311
O O9 0.682655 0.485206 0.298643
O O10 0.635337 0.556057 0.488672
O O11 0.407995 0.521005 0.301515
O O12 0.170175 0.162079 0.688758
O O13 0.027423 0.078580 0.867385
O O14 0.918996 0.229539 0.891993
O O15 0.750000 0.250000 0.000000
O O16 0.500000 0.000000 0.500000
#
# Coordination Sequence:
#
# PCOD8151415 Si02
#       8
#     8   8   8   4   8   8   8   8
#     4  11  23  40  71  95 129 181 219 274 343 401
#     4  11  27  47  66 100 141 172 231 285 322 415
#     4  11  22  44  67 104 138 159 226 292 336 392
#     4  12  18  36  64 100 134 168 216 274 338 402
#     4  11  22  36  67 102 135 175 219 278 347 397
#     4  12  24  39  69  99 135 183 227 277 337 391
#     4  11  20  41  66 104 132 169 222 284 337 397
#     4  11  27  50  70  93 134 191 228 266 342 423
#
# _framework density 21.087372999999999
#
# number of rings (size 3 to 8) (size 9 to 14) (size 15 to 20)
#    0.000    0.800    5.333    2.400    7.467    2.667 
#    0.000    0.000    0.000    0.000    0.000    0.000 
#    0.000    0.000    0.000    0.000    0.000    0.000 
#
# Total GULP energy -371912.633863 kJ/mol
# GULP energy per Si atom -12397.087795 kJ/mol
# Density = 2.103938 g / cm^3
# Si number density = 21.087373 Si / 1000 Ang^3
#
#
#
# Elastic Constant Matrix: (Units=GPa)
#
#
# Indices 1 2 3 4 5 6 
#
# 1 111.6390 16.1365 38.3813 0.0000 -0.8195 0.0000
# 2 16.1365 109.5704 21.8053 0.0000 -3.2745 0.0000
# 3 38.3813 21.8053 86.0358 0.0000 12.9422 0.0000
# 4 0.0000 0.0000 0.0000 37.3803 0.0000 -0.6144
# 5 -0.8195 -3.2745 12.9422 0.0000 34.8245 0.0000
# 6 0.0000 0.0000 0.0000 -0.6144 0.0000 25.2941
#
#
#
# Elastic Compliance Matrix: (Units=1/GPa)
#
#
# Indices 1 2 3 4 5 6 
#
# 1 0.010759 -0.000534 -0.004973 0.000000 0.002051 0.000000
# 2 -0.000534 0.009760 -0.002512 0.000000 0.001839 0.000000
# 3 -0.004973 -0.002512 0.015392 0.000000 -0.006074 0.000000
# 4 0.000000 0.000000 0.000000 0.026763 0.000000 0.000650
# 5 0.002051 0.001839 -0.006074 0.000000 0.031194 0.000000
# 6 0.000000 0.000000 0.000000 0.000650 0.000000 0.039551
#
#
# Mechanical properties :
#
#
# Convention : Reuss Voigt Hill
#
# Bulk Modulus (GPa) = 50.31826 51.09904 50.70865
# Shear Modulus (GPa) = 32.03464 34.89459 33.46462
#
# Velocity S-wave (km/s) = 3.90184 4.07229 3.98798
# Velocity P-wave (km/s) = 6.64927 6.81147 6.73085
#
# Compressibility (1/GPa) = 0.01987350
#
# Stress axis : x y z
#
# Youngs Moduli (GPa) = 92.94204 102.45877 64.96891
#
# Poissons Ratio (x) = 0.05467 0.32310
# Poissons Ratio (y) = 0.04959 0.16322
# Poissons Ratio (z) = 0.46222 0.25740
#
# Static dielectric constant tensor:
#      x y z
#    x 4.236880 0.000000 0.413550 
#    y 0.000000 4.017610 0.000000 
#    z 0.413550 0.000000 3.965060 
# 
# 
# High freq. dielectric constant tensor:
#      x y z
#    x 1.824750 0.000000 0.021010 
#    y 0.000000 1.821610 0.000000 
#    z 0.021010 0.000000 1.831840 
# 
# From -- ./inp_files/161324.got.cif
#   From: 2010.06.25/outbox.cif.g09.slc.cpg/sg15_81_cif.got.tgz:161324.got - 2010.06.28 07:06:18.
