data_PCOD8151455
_publ_section_title
;
Structure prediction by ZEFSAII (Michael W. Deem and Ramdas Pophale) SiO2 
 PCOD8151455
Probable space group: C 2/C
;
_chemical_formula_sum "Si O2"
_cell_formula_units_Z 32
_cell_length_a 6.656879
_cell_length_b 19.310222
_cell_length_c 11.611335
_cell_angle_alpha 90.000000
_cell_angle_beta 83.728820
_cell_angle_gamma 90.000000
_cell_volume 1483.656868
_symmetry_space_group_name_H-M "C 2/C"
_symmetry_group_IT_number 15
_symmetry_cell_setting 'monoclinic'
loop_
_space_group_symop_operation_xyz
x,y,z
-x,y,1/2-z
-x,-y,-z
x,-y,1/2+z
1/2+x,1/2+y,z
1/2-x,1/2+y,1/2-z
1/2-x,1/2-y,-z
1/2+x,1/2-y,1/2+z
loop_
_atom_site_type_symbol
_atom_site_label
_atom_site_fract_x
_atom_site_fract_y
_atom_site_fract_z
Si Si1 0.684449 0.810682 0.827466
Si Si2 0.500000 0.196642 0.750000
Si Si3 0.009858 0.384718 0.033773
Si Si4 0.000000 0.926164 0.750000
Si Si5 0.833542 0.484148 0.863923
O O1 0.500000 0.810099 0.750000
O O2 0.817139 0.879460 0.805213
O O3 0.813618 0.741568 0.806917
O O4 0.608814 0.818654 0.963103
O O5 0.592084 0.148958 0.846453
O O6 0.164501 0.443234 0.068893
O O7 0.859604 0.421151 0.953098
O O8 0.897094 0.977010 0.663918
O O9 0.000000 0.481200 0.750000
#
# Coordination Sequence:
#
# PCOD8151455 Si02
#       5
#     8   4   8   4   8
#     4  11  23  45  64  92 134 173 216 266 310 381
#     4  11  26  42  66  96 128 177 218 252 322 387
#     4  11  22  45  67  95 133 166 214 272 321 379
#     4  11  20  42  70  98 126 169 216 258 338 379
#     4  11  22  43  70  95 131 166 210 277 326 380
#
# _framework density 21.568328999999999
#
# number of rings (size 3 to 8) (size 9 to 14) (size 15 to 20)
#    0.000    1.000    6.250    0.750    0.000    2.000 
#    6.750    0.000    0.000    0.000    0.000    0.000 
#    0.000    0.000    0.000    0.000    0.000    0.000 
#
# Total GULP energy -198248.688516 kJ/mol
# GULP energy per Si atom -12390.543032 kJ/mol
# Density = 2.151924 g / cm^3
# Si number density = 21.568329 Si / 1000 Ang^3
#
#
#
# Elastic Constant Matrix: (Units=GPa)
#
#
# Indices 1 2 3 4 5 6 
#
# 1 108.3846 36.8132 47.4989 0.0000 37.1400 0.0000
# 2 36.8132 111.3612 63.7323 0.0000 13.0338 0.0000
# 3 47.4989 63.7323 155.5794 0.0000 20.0669 0.0000
# 4 0.0000 0.0000 0.0000 31.1000 0.0000 -0.2450
# 5 37.1400 13.0338 20.0669 0.0000 34.6795 0.0000
# 6 0.0000 0.0000 0.0000 -0.2450 0.0000 64.8646
#
#
#
# Elastic Compliance Matrix: (Units=1/GPa)
#
#
# Indices 1 2 3 4 5 6 
#
# 1 0.016129 -0.002424 -0.001968 0.000000 -0.015223 0.000000
# 2 -0.002424 0.012194 -0.004321 0.000000 0.000513 0.000000
# 3 -0.001968 -0.004321 0.008988 0.000000 -0.001469 0.000000
# 4 0.000000 0.000000 0.000000 0.032155 0.000000 0.000121
# 5 -0.015223 0.000513 -0.001469 0.000000 0.045796 0.000000
# 6 0.000000 0.000000 0.000000 0.000121 0.000000 0.015417
#
#
# Mechanical properties :
#
#
# Convention : Reuss Voigt Hill
#
# Bulk Modulus (GPa) = 50.28954 74.60155 62.44554
# Shear Modulus (GPa) = 32.31356 41.28087 36.79721
#
# Velocity S-wave (km/s) = 3.87485 4.37963 4.13495
# Velocity P-wave (km/s) = 6.58683 7.76134 7.19808
#
# Compressibility (1/GPa) = 0.01988485
#
# Stress axis : x y z
#
# Youngs Moduli (GPa) = 62.00192 82.00646 111.25795
#
# Poissons Ratio (x) = 0.19877 0.21892
# Poissons Ratio (y) = 0.15028 0.48080
# Poissons Ratio (z) = 0.12200 0.35439
#
# Static dielectric constant tensor:
#      x y z
#    x 3.731610 0.000000 0.171230 
#    y 0.000000 3.991260 0.000000 
#    z 0.171230 0.000000 4.195660 
# 
# 
# High freq. dielectric constant tensor:
#      x y z
#    x 1.816980 0.000000 0.015910 
#    y 0.000000 1.856810 0.000000 
#    z 0.015910 0.000000 1.865050 
# 
# From -- ./inp_files/71917.got.cif
#   From: 2010.06.25/outbox.cif.g09.slc.cpg/sg15_36_cif.got.tgz:71917.got - 2010.06.28 07:06:18.
