data_PCOD8151556
_publ_section_title
;
Structure prediction by ZEFSAII (Michael W. Deem and Ramdas Pophale) SiO2 
 PCOD8151556
Probable space group: C 2/C
;
_chemical_formula_sum "Si O2"
_cell_formula_units_Z 64
_cell_length_a 20.419047
_cell_length_b 18.642981
_cell_length_c 15.382244
_cell_angle_alpha 90.000000
_cell_angle_beta 34.277389
_cell_angle_gamma 90.000000
_cell_volume 3297.867215
_symmetry_space_group_name_H-M "C 2/C"
_symmetry_group_IT_number 15
_symmetry_cell_setting 'monoclinic'
loop_
_space_group_symop_operation_xyz
x,y,z
-x,y,1/2-z
-x,-y,-z
x,-y,1/2+z
1/2+x,1/2+y,z
1/2-x,1/2+y,1/2-z
1/2-x,1/2-y,-z
1/2+x,1/2-y,1/2+z
loop_
_atom_site_type_symbol
_atom_site_label
_atom_site_fract_x
_atom_site_fract_y
_atom_site_fract_z
Si Si1 0.525394 0.560922 0.620676
Si Si2 0.589937 0.418473 0.802811
Si Si3 0.552868 0.829896 0.947645
Si Si4 0.108325 0.291915 0.077529
Si Si5 0.300062 0.104279 0.736328
Si Si6 0.923625 0.167129 0.602290
Si Si7 0.808466 0.146252 0.469735
Si Si8 0.258842 0.057865 0.270418
O O1 0.500000 0.558216 0.750000
O O2 0.478691 0.493041 0.617634
O O3 0.462700 0.630285 0.649163
O O4 0.663273 0.562392 0.451684
O O5 0.614644 0.407351 0.672916
O O6 0.704827 0.421183 0.736079
O O7 0.507563 0.355660 0.930469
O O8 0.596859 0.825180 0.996827
O O9 0.420416 0.855262 0.087303
O O10 0.566616 0.751925 0.889108
O O11 0.638646 0.888561 0.811024
O O12 0.110474 0.205164 0.071618
O O13 0.000000 0.321094 0.250000
O O14 0.228188 0.316463 0.986717
O O15 0.207707 0.144786 0.776664
O O16 0.312602 0.021088 0.698886
O O17 0.264431 0.105495 0.877016
#
# Coordination Sequence:
#
# PCOD8151556 Si02
#       8
#     8   8   8   8   8   8   8   8
#     4  11  23  43  69  89 115 157 212 273 311 345
#     4  11  21  39  63  94 126 158 205 258 300 368
#     4  12  25  38  64  88 133 169 198 249 306 370
#     4  11  21  36  51  93 129 164 193 235 302 373
#     4  12  23  40  60  91 130 171 202 241 303 372
#     4  11  24  40  62  96 120 162 211 256 306 366
#     4  11  23  31  60  89 128 159 200 243 297 364
#     4  11  23  43  62  91 123 163 211 249 306 371
#
# _framework density 19.406482
#
# number of rings (size 3 to 8) (size 9 to 14) (size 15 to 20)
#    0.000    0.750    6.250    2.625    5.250    0.000 
#    0.000    0.625    0.000    0.000    0.000    0.000 
#    0.000    0.000    0.000    0.000    0.000    0.000 
#
# Total GULP energy -396827.291289 kJ/mol
# GULP energy per Si atom -12400.852853 kJ/mol
# Density = 1.936231 g / cm^3
# Si number density = 19.406482 Si / 1000 Ang^3
#
#
#
# Elastic Constant Matrix: (Units=GPa)
#
#
# Indices 1 2 3 4 5 6 
#
# 1 68.9205 35.0695 31.6240 0.0000 -13.2346 0.0000
# 2 35.0695 138.4734 42.5218 0.0000 -15.5032 0.0000
# 3 31.6240 42.5218 90.9096 0.0000 -6.0991 0.0000
# 4 0.0000 0.0000 0.0000 31.5040 -0.0001 -4.0722
# 5 -13.2346 -15.5032 -6.0991 -0.0001 27.1269 0.0000
# 6 0.0000 0.0000 0.0000 -4.0722 0.0000 35.4451
#
#
#
# Elastic Compliance Matrix: (Units=1/GPa)
#
#
# Indices 1 2 3 4 5 6 
#
# 1 0.019495 -0.002600 -0.005104 0.000000 0.006878 0.000000
# 2 -0.002600 0.009228 -0.003191 0.000000 0.003288 0.000000
# 3 -0.005104 -0.003191 0.014193 0.000000 -0.001123 0.000000
# 4 0.000000 0.000000 0.000000 0.032220 0.000000 0.003702
# 5 0.006878 0.003288 -0.001123 0.000000 0.041846 0.000000
# 6 0.000000 0.000000 0.000000 0.003702 0.000000 0.028638
#
#
# Mechanical properties :
#
#
# Convention : Reuss Voigt Hill
#
# Bulk Modulus (GPa) = 47.33648 57.41490 52.37569
# Shear Modulus (GPa) = 28.66102 31.42108 30.04105
#
# Velocity S-wave (km/s) = 3.84719 4.02817 3.93872
# Velocity P-wave (km/s) = 6.64677 7.16132 6.90884
#
# Compressibility (1/GPa) = 0.02112535
#
# Stress axis : x y z
#
# Youngs Moduli (GPa) = 51.29485 108.36401 70.45811
#
# Poissons Ratio (x) = 0.28174 0.35963
# Poissons Ratio (y) = 0.13336 0.22486
# Poissons Ratio (z) = 0.26181 0.34583
#
# Static dielectric constant tensor:
#      x y z
#    x 3.378840 0.000000 -0.115900 
#    y 0.000000 3.667400 0.000000 
#    z -0.115900 0.000000 3.432130 
# 
# 
# High freq. dielectric constant tensor:
#      x y z
#    x 1.750570 0.000000 -0.016650 
#    y 0.000000 1.760190 0.000000 
#    z -0.016650 0.000000 1.749290 
# 
# From -- ./inp_files/219899.got.cif
#   From: 2010.06.25/outbox.cif.g09.slc.cpg/sg15_110_cif.got.tgz:219899.got - 2010.06.28 07:06:18.
