data_PCOD8151454
_publ_section_title
;
Structure prediction by ZEFSAII (Michael W. Deem and Ramdas Pophale) SiO2 
 PCOD8151454
Probable space group: C 2/C
;
_chemical_formula_sum "Si O2"
_cell_formula_units_Z 48
_cell_length_a 8.240073
_cell_length_b 18.576527
_cell_length_c 19.612647
_cell_angle_alpha 90.000000
_cell_angle_beta 128.442147
_cell_angle_gamma 90.000000
_cell_volume 2351.389724
_symmetry_space_group_name_H-M "C 2/C"
_symmetry_group_IT_number 15
_symmetry_cell_setting 'monoclinic'
loop_
_space_group_symop_operation_xyz
x,y,z
-x,y,1/2-z
-x,-y,-z
x,-y,1/2+z
1/2+x,1/2+y,z
1/2-x,1/2+y,1/2-z
1/2-x,1/2-y,-z
1/2+x,1/2-y,1/2+z
loop_
_atom_site_type_symbol
_atom_site_label
_atom_site_fract_x
_atom_site_fract_y
_atom_site_fract_z
Si Si1 0.246425 0.547180 0.001901
Si Si2 0.023429 0.680400 0.333479
Si Si3 0.884846 0.899558 0.988017
Si Si4 0.313620 0.918572 0.334720
Si Si5 0.773715 0.924132 0.669102
Si Si6 0.968430 0.848217 0.336742
O O1 0.467005 0.572974 0.032799
O O2 0.240652 0.559688 0.080747
O O3 0.233714 0.462283 0.978654
O O4 0.053590 0.590986 0.918770
O O5 0.252833 0.663755 0.419870
O O6 0.000000 0.652219 0.250000
O O7 0.868041 0.640971 0.343704
O O8 0.989886 0.764844 0.327264
O O9 0.031180 0.864744 0.083449
O O10 0.253803 0.873533 0.251464
O O11 0.159332 0.892317 0.353958
O O12 0.276198 0.001681 0.305380
O O13 0.000000 0.898605 0.750000
#
# Coordination Sequence:
#
# PCOD8151454 Si02
#       6
#     8   8   8   8   8   8
#     4  11  23  40  66 103 129 167 226 283 324 390
#     4  12  25  43  65  99 135 173 217 281 337 394
#     4  11  23  42  66  98 134 170 222 274 333 393
#     4  11  20  42  70  91 127 177 226 266 323 401
#     4  12  22  42  69  98 130 174 227 280 329 390
#     4  11  23  44  68  92 132 181 220 265 338 408
#
# _framework density 20.413459
#
# number of rings (size 3 to 8) (size 9 to 14) (size 15 to 20)
#    0.000    0.667    6.667    3.000    0.000    2.000 
#    3.000    1.667    0.000    0.000    0.000    0.000 
#    0.000    0.000    0.000    0.000    0.000    0.000 
#
# Total GULP energy -297615.223378 kJ/mol
# GULP energy per Si atom -12400.634307 kJ/mol
# Density = 2.036700 g / cm^3
# Si number density = 20.413459 Si / 1000 Ang^3
#
#
#
# Elastic Constant Matrix: (Units=GPa)
#
#
# Indices 1 2 3 4 5 6 
#
# 1 60.2415 28.7143 30.2972 0.0000 3.1497 -0.0001
# 2 28.7143 100.8133 50.2350 0.0000 7.9465 0.0000
# 3 30.2972 50.2350 161.3746 0.0000 5.7473 0.0000
# 4 0.0000 0.0000 0.0000 31.9676 0.0000 2.6059
# 5 3.1497 7.9465 5.7473 0.0000 37.8288 0.0000
# 6 -0.0001 0.0000 0.0000 2.6059 0.0000 15.0193
#
#
#
# Elastic Compliance Matrix: (Units=1/GPa)
#
#
# Indices 1 2 3 4 5 6 
#
# 1 0.019930 -0.004486 -0.002332 0.000000 -0.000363 0.000000
# 2 -0.004486 0.012891 -0.003104 0.000000 -0.001863 0.000000
# 3 -0.002332 -0.003104 0.007612 0.000000 -0.000310 0.000000
# 4 0.000000 0.000000 0.000000 0.031730 0.000000 -0.005505
# 5 -0.000363 -0.001863 -0.000310 0.000000 0.026904 0.000000
# 6 0.000000 0.000000 0.000000 -0.005505 0.000000 0.067536
#
#
# Mechanical properties :
#
#
# Convention : Reuss Voigt Hill
#
# Bulk Modulus (GPa) = 48.57249 60.10250 54.33749
# Shear Modulus (GPa) = 25.86514 31.17533 28.52024
#
# Velocity S-wave (km/s) = 3.56344 3.91217 3.74187
# Velocity P-wave (km/s) = 6.38568 7.06494 6.73388
#
# Compressibility (1/GPa) = 0.02058779
#
# Stress axis : x y z
#
# Youngs Moduli (GPa) = 50.17559 77.57544 131.37062
#
# Poissons Ratio (x) = 0.34799 0.30641
# Poissons Ratio (y) = 0.22508 0.40781
# Poissons Ratio (z) = 0.11703 0.24082
#
# Static dielectric constant tensor:
#      x y z
#    x 3.581540 0.000000 -0.016430 
#    y 0.000000 3.677640 0.000000 
#    z -0.016430 0.000000 3.959950 
# 
# 
# High freq. dielectric constant tensor:
#      x y z
#    x 1.785690 0.000000 0.001240 
#    y 0.000000 1.791540 0.000000 
#    z 0.001240 0.000000 1.819610 
# 
# From -- ./inp_files/232879.got.cif
#   From: 2010.06.25/outbox.cif.g09.slc.cpg/sg15_117_cif.got.tgz:232879.got - 2010.06.28 07:06:18.
