data_PCOD8151116
_publ_section_title
;
Structure prediction by ZEFSAII (Michael W. Deem and Ramdas Pophale) SiO2 
 PCOD8151116
Probable space group: C 2/C
;
_chemical_formula_sum "Si O2"
_cell_formula_units_Z 44
_cell_length_a 16.756848
_cell_length_b 16.547187
_cell_length_c 14.284669
_cell_angle_alpha 90.000000
_cell_angle_beta 33.676325
_cell_angle_gamma 90.000000
_cell_volume 2196.285102
_symmetry_space_group_name_H-M "C 2/C"
_symmetry_group_IT_number 15
_symmetry_cell_setting 'monoclinic'
loop_
_space_group_symop_operation_xyz
x,y,z
-x,y,1/2-z
-x,-y,-z
x,-y,1/2+z
1/2+x,1/2+y,z
1/2-x,1/2+y,1/2-z
1/2-x,1/2-y,-z
1/2+x,1/2-y,1/2+z
loop_
_atom_site_type_symbol
_atom_site_label
_atom_site_fract_x
_atom_site_fract_y
_atom_site_fract_z
Si Si1 0.263943 0.431571 0.032408
Si Si2 0.833123 0.503906 0.181026
Si Si3 0.431452 0.578442 0.619182
Si Si4 0.500000 0.454708 0.250000
Si Si5 0.026240 0.194703 0.075330
Si Si6 0.792822 0.350140 0.590542
O O1 0.187747 0.484736 0.187843
O O2 0.365274 0.361155 0.972914
O O3 0.359314 0.491420 0.878199
O O4 0.160741 0.395202 0.051977
O O5 0.741392 0.436264 0.213676
O O6 0.782425 0.591966 0.192447
O O7 0.000000 0.500000 0.000000
O O8 0.500000 0.500000 0.500000
O O9 0.497826 0.595460 0.656393
O O10 0.474108 0.661632 0.529378
O O11 0.079816 0.286357 0.019176
O O12 0.862994 0.192349 0.273952
#
# Coordination Sequence:
#
# PCOD8151116 Si02
#       6
#     8   8   8   4   8   8
#     4  11  20  39  64  93 124 167 213 260 317 379
#     4  11  24  40  61  91 131 169 215 265 316 379
#     4  11  19  40  64  88 123 173 223 261 308 386
#     4  12  16  36  72  88 114 162 234 260 298 374
#     4  11  23  38  61  97 136 166 204 263 335 380
#     4  12  23  41  62  97 135 164 207 265 328 385
#
# _framework density 20.033829000000001
#
# number of rings (size 3 to 8) (size 9 to 14) (size 15 to 20)
#    0.000    0.727    9.091    0.545    5.091    0.727 
#    0.000    0.000    0.000    6.545    0.000    0.000 
#    0.000    0.000    0.000    0.000    0.000    0.000 
#
# Total GULP energy -272558.258424 kJ/mol
# GULP energy per Si atom -12389.011747 kJ/mol
# Density = 1.998823 g / cm^3
# Si number density = 20.033829 Si / 1000 Ang^3
#
#
#
# Elastic Constant Matrix: (Units=GPa)
#
#
# Indices 1 2 3 4 5 6 
#
# 1 126.6654 55.0197 46.0856 -0.0001 33.8970 0.0001
# 2 55.0197 83.2645 35.6805 -0.0002 16.8816 0.0001
# 3 46.0856 35.6805 101.5893 -0.0003 0.6871 0.0002
# 4 -0.0001 -0.0002 -0.0003 21.9361 0.0002 -6.1486
# 5 33.8970 16.8816 0.6871 0.0002 41.3721 -0.0001
# 6 0.0001 0.0001 0.0002 -6.1486 -0.0001 34.5661
#
#
#
# Elastic Compliance Matrix: (Units=1/GPa)
#
#
# Indices 1 2 3 4 5 6 
#
# 1 0.014603 -0.005775 -0.004532 0.000000 -0.009533 0.000000
# 2 -0.005775 0.017899 -0.003650 0.000000 -0.002512 0.000000
# 3 -0.004532 -0.003650 0.013148 0.000000 0.004984 0.000000
# 4 0.000000 0.000000 0.000000 0.047979 0.000000 0.008535
# 5 -0.009533 -0.002512 0.004984 0.000000 0.032924 0.000000
# 6 0.000000 0.000000 0.000000 0.008535 0.000000 0.030448
#
#
# Mechanical properties :
#
#
# Convention : Reuss Voigt Hill
#
# Bulk Modulus (GPa) = 56.38013 65.01010 60.69512
# Shear Modulus (GPa) = 26.20181 31.22375 28.71278
#
# Velocity S-wave (km/s) = 3.62038 3.95213 3.78989
# Velocity P-wave (km/s) = 6.75868 7.30386 7.03655
#
# Compressibility (1/GPa) = 0.01773674
#
# Stress axis : x y z
#
# Youngs Moduli (GPa) = 68.47783 55.86901 76.05883
#
# Poissons Ratio (x) = 0.32263 0.34470
# Poissons Ratio (y) = 0.39544 0.27761
# Poissons Ratio (z) = 0.31034 0.20392
#
# Static dielectric constant tensor:
#      x y z
#    x 3.780280 0.000000 -0.070010 
#    y 0.000000 3.493950 0.000000 
#    z -0.070010 0.000000 3.671870 
# 
# 
# High freq. dielectric constant tensor:
#      x y z
#    x 1.789900 0.000000 0.001890 
#    y 0.000000 1.746350 0.000000 
#    z 0.001890 0.000000 1.785450 
# 
# From -- ./inp_files/163025.got.cif
#   From: 2010.06.25/outbox.cif.g09.slc.cpg/sg15_82_cif.got.tgz:163025.got - 2010.06.28 07:06:18.
