data_PCOD8151319
_publ_section_title
;
Structure prediction by ZEFSAII (Michael W. Deem and Ramdas Pophale) SiO2 
 PCOD8151319
Probable space group: C 2/C
;
_chemical_formula_sum "Si O2"
_cell_formula_units_Z 48
_cell_length_a 6.663625
_cell_length_b 18.552837
_cell_length_c 20.178431
_cell_angle_alpha 90.000000
_cell_angle_beta 69.127285
_cell_angle_gamma 90.000000
_cell_volume 2330.929478
_symmetry_space_group_name_H-M "C 2/C"
_symmetry_group_IT_number 15
_symmetry_cell_setting 'monoclinic'
loop_
_space_group_symop_operation_xyz
x,y,z
-x,y,1/2-z
-x,-y,-z
x,-y,1/2+z
1/2+x,1/2+y,z
1/2-x,1/2+y,1/2-z
1/2-x,1/2-y,-z
1/2+x,1/2-y,1/2+z
loop_
_atom_site_type_symbol
_atom_site_label
_atom_site_fract_x
_atom_site_fract_y
_atom_site_fract_z
Si Si1 0.500000 0.133389 0.250000
Si Si2 0.000000 0.137083 0.750000
Si Si3 0.352195 0.414075 0.613097
Si Si4 0.243169 0.246687 0.202654
Si Si5 0.500297 0.940159 0.943330
Si Si6 0.273853 0.303514 0.936811
Si Si7 0.377711 0.499759 0.327877
O O1 0.322735 0.086871 0.308009
O O2 0.390574 0.180748 0.206224
O O3 0.172191 0.181383 0.771875
O O4 0.130375 0.086654 0.682309
O O5 0.489874 0.340176 0.593043
O O6 0.504559 0.480683 0.616487
O O7 0.241735 0.428450 0.555042
O O8 0.259947 0.249370 0.121593
O O9 0.000000 0.232196 0.250000
O O10 0.592334 0.865501 0.961593
O O11 0.639142 0.967801 0.863383
O O12 0.500000 0.000000 0.000000
O O13 0.250000 0.250000 0.000000
O O14 0.500000 0.536031 0.250000
#
# Coordination Sequence:
#
# PCOD8151319 Si02
#       7
#     4   4   8   8   8   8   8
#     4  11  20  38  70  96 118 157 218 274 321 372
#     4   9  24  38  60  98 132 165 208 272 323 380
#     4  11  22  39  70  93 125 168 214 270 320 384
#     4  11  22  40  65  94 128 167 216 264 322 386
#     4  11  25  43  65  94 130 176 219 265 330 392
#     4  11  26  43  63  97 131 176 220 267 328 400
#     4   9  22  42  63  96 126 164 212 260 321 390
#
# _framework density 20.592644
#
# number of rings (size 3 to 8) (size 9 to 14) (size 15 to 20)
#    0.500    1.000    3.333    1.000    2.333    8.667 
#    0.000    0.000    0.000    0.000    0.000    0.000 
#    0.000    0.000    0.000    0.000    0.000    0.000 
#
# Total GULP energy -297503.694057 kJ/mol
# GULP energy per Si atom -12395.987252 kJ/mol
# Density = 2.054577 g / cm^3
# Si number density = 20.592644 Si / 1000 Ang^3
#
#
#
# Elastic Constant Matrix: (Units=GPa)
#
#
# Indices 1 2 3 4 5 6 
#
# 1 118.9050 38.8944 37.7034 0.0000 24.3349 0.0000
# 2 38.8944 104.4779 42.0551 0.0000 15.9317 0.0000
# 3 37.7034 42.0551 111.5993 0.0000 17.8226 0.0000
# 4 0.0000 0.0000 0.0000 38.6758 0.0000 4.3822
# 5 24.3349 15.9317 17.8226 0.0000 34.6284 0.0000
# 6 0.0000 0.0000 0.0000 4.3822 0.0000 6.3730
#
#
#
# Elastic Compliance Matrix: (Units=1/GPa)
#
#
# Indices 1 2 3 4 5 6 
#
# 1 0.010959 -0.002470 -0.001877 0.000000 -0.005599 0.000000
# 2 -0.002470 0.012190 -0.003422 0.000000 -0.002111 0.000000
# 3 -0.001877 -0.003422 0.011356 0.000000 -0.002951 0.000000
# 4 0.000000 0.000000 0.000000 0.028041 0.000000 -0.019281
# 5 -0.005599 -0.002111 -0.002951 0.000000 0.035302 0.000000
# 6 0.000000 0.000000 0.000000 -0.019281 0.000000 0.170170
#
#
# Mechanical properties :
#
#
# Convention : Reuss Voigt Hill
#
# Bulk Modulus (GPa) = 52.72704 63.58755 58.15730
# Shear Modulus (GPa) = 17.24852 30.35741 23.80296
#
# Velocity S-wave (km/s) = 2.89728 3.84368 3.40354
# Velocity P-wave (km/s) = 6.07064 7.11648 6.61427
#
# Compressibility (1/GPa) = 0.01896560
#
# Stress axis : x y z
#
# Youngs Moduli (GPa) = 91.24663 82.03129 88.06101
#
# Poissons Ratio (x) = 0.20265 0.16533
# Poissons Ratio (y) = 0.22541 0.30135
# Poissons Ratio (z) = 0.17132 0.28072
#
# Static dielectric constant tensor:
#      x y z
#    x 3.976640 0.000000 0.075720 
#    y 0.000000 3.585970 0.000000 
#    z 0.075720 0.000000 3.750950 
# 
# 
# High freq. dielectric constant tensor:
#      x y z
#    x 1.819690 0.000000 0.010060 
#    y 0.000000 1.793860 0.000000 
#    z 0.010060 0.000000 1.798770 
# 
# From -- ./inp_files/227315.got.cif
#   From: 2010.06.25/outbox.cif.g09.slc.cpg/sg15_114_cif.got.tgz:227315.got - 2010.06.28 07:06:18.
