data_PCOD8151578
_publ_section_title
;
Structure prediction by ZEFSAII (Michael W. Deem and Ramdas Pophale) SiO2 
 PCOD8151578
Probable space group: C 2/C
;
_chemical_formula_sum "Si O2"
_cell_formula_units_Z 56
_cell_length_a 6.336930
_cell_length_b 20.822646
_cell_length_c 22.852458
_cell_angle_alpha 90.000000
_cell_angle_beta 69.915025
_cell_angle_gamma 90.000000
_cell_volume 2832.034812
_symmetry_space_group_name_H-M "C 2/C"
_symmetry_group_IT_number 15
_symmetry_cell_setting 'monoclinic'
loop_
_space_group_symop_operation_xyz
x,y,z
-x,y,1/2-z
-x,-y,-z
x,-y,1/2+z
1/2+x,1/2+y,z
1/2-x,1/2+y,1/2-z
1/2-x,1/2-y,-z
1/2+x,1/2-y,1/2+z
loop_
_atom_site_type_symbol
_atom_site_label
_atom_site_fract_x
_atom_site_fract_y
_atom_site_fract_z
Si Si1 0.198454 0.851183 0.400625
Si Si2 0.530058 0.274914 0.313650
Si Si3 0.743965 0.469425 0.465442
Si Si4 0.336023 0.659581 0.314972
Si Si5 0.541411 0.255409 0.890014
Si Si6 0.686498 0.681514 0.484045
Si Si7 0.576905 0.915242 0.933449
O O1 0.176077 0.829045 0.334837
O O2 0.273647 0.924700 0.404440
O O3 0.362352 0.801310 0.418276
O O4 0.955234 0.854827 0.453983
O O5 0.500000 0.297860 0.250000
O O6 0.635570 0.203264 0.307004
O O7 0.288316 0.274945 0.367001
O O8 0.500000 0.500000 0.500000
O O9 0.793275 0.426879 0.518316
O O10 0.927815 0.522886 0.433918
O O11 0.500000 0.629373 0.250000
O O12 0.493712 0.709155 0.334251
O O13 0.246822 0.600871 0.363685
O O14 0.531886 0.309887 0.941050
O O15 0.750000 0.750000 0.500000
O O16 0.920087 0.646514 0.451365
#
# Coordination Sequence:
#
# PCOD8151578 Si02
#       7
#     8   8   8   8   8   8   8
#     4  11  23  36  62  93 124 170 205 254 318 385
#     4  11  22  39  61  94 128 164 204 255 322 391
#     4  11  24  44  64  88 129 171 221 263 319 372
#     4  11  22  38  63  97 126 165 207 255 325 382
#     4  11  21  36  61  92 134 153 197 257 329 387
#     4  12  19  35  59  97 128 152 197 263 331 382
#     4  11  24  39  64  96 126 168 214 268 317 379
#
# _framework density 19.773766999999999
#
# number of rings (size 3 to 8) (size 9 to 14) (size 15 to 20)
#    0.000    0.857    5.714    3.000    0.000    0.000 
#    0.000    0.000    0.000    5.143    0.000    0.000 
#    0.000    0.000    0.000    0.000    0.000    0.000 
#
# Total GULP energy -347061.005756 kJ/mol
# GULP energy per Si atom -12395.035920 kJ/mol
# Density = 1.972876 g / cm^3
# Si number density = 19.773767 Si / 1000 Ang^3
#
#
#
# Elastic Constant Matrix: (Units=GPa)
#
#
# Indices 1 2 3 4 5 6 
#
# 1 92.5337 38.7029 38.3016 0.0000 7.7068 0.0000
# 2 38.7029 111.2596 52.3727 0.0000 6.7935 0.0000
# 3 38.3016 52.3727 114.4026 0.0000 1.6136 0.0000
# 4 0.0000 0.0000 0.0000 26.2452 0.0000 -1.2458
# 5 7.7068 6.7935 1.6136 0.0000 36.8628 0.0000
# 6 0.0000 0.0000 0.0000 -1.2458 0.0000 32.4536
#
#
#
# Elastic Compliance Matrix: (Units=1/GPa)
#
#
# Indices 1 2 3 4 5 6 
#
# 1 0.013571 -0.003144 -0.003074 0.000000 -0.002123 0.000000
# 2 -0.003144 0.012317 -0.004566 0.000000 -0.001413 0.000000
# 3 -0.003074 -0.004566 0.011847 0.000000 0.000966 0.000000
# 4 0.000000 0.000000 0.000000 0.038172 0.000000 0.001465
# 5 -0.002123 -0.001413 0.000966 0.000000 0.027790 0.000000
# 6 0.000000 0.000000 0.000000 0.001465 0.000000 0.030869
#
#
# Mechanical properties :
#
#
# Convention : Reuss Voigt Hill
#
# Bulk Modulus (GPa) = 61.85658 64.10559 62.98109
# Shear Modulus (GPa) = 30.95498 31.70023 31.32760
#
# Velocity S-wave (km/s) = 3.96088 4.00827 3.98465
# Velocity P-wave (km/s) = 7.22967 7.34245 7.28628
#
# Compressibility (1/GPa) = 0.01616643
#
# Stress axis : x y z
#
# Youngs Moduli (GPa) = 73.68495 81.18579 84.40876
#
# Poissons Ratio (x) = 0.25526 0.25950
# Poissons Ratio (y) = 0.23167 0.38543
# Poissons Ratio (z) = 0.22653 0.37072
#
# Static dielectric constant tensor:
#      x y z
#    x 3.257570 0.000000 -0.071890 
#    y 0.000000 3.075640 0.000000 
#    z -0.071890 0.000000 3.285100 
# 
# 
# High freq. dielectric constant tensor:
#      x y z
#    x 1.792920 0.000000 0.003120 
#    y 0.000000 1.751160 0.000000 
#    z 0.003120 0.000000 1.758340 
# 
# From -- ./inp_files/261133.got.cif
#   From: 2010.06.25/outbox.cif.g09.slc.cpg/sg15_131_cif.got.tgz:261133.got - 2010.06.28 07:06:18.
