data_PCOD8151430
_publ_section_title
;
Structure prediction by ZEFSAII (Michael W. Deem and Ramdas Pophale) SiO2 
 PCOD8151430
Probable space group: C 2/C
;
_chemical_formula_sum "Si O2"
_cell_formula_units_Z 64
_cell_length_a 8.572540
_cell_length_b 29.724560
_cell_length_c 18.496853
_cell_angle_alpha 90.000000
_cell_angle_beta 37.355082
_cell_angle_gamma 90.000000
_cell_volume 2859.793211
_symmetry_space_group_name_H-M "C 2/C"
_symmetry_group_IT_number 15
_symmetry_cell_setting 'monoclinic'
loop_
_space_group_symop_operation_xyz
x,y,z
-x,y,1/2-z
-x,-y,-z
x,-y,1/2+z
1/2+x,1/2+y,z
1/2-x,1/2+y,1/2-z
1/2-x,1/2-y,-z
1/2+x,1/2-y,1/2+z
loop_
_atom_site_type_symbol
_atom_site_label
_atom_site_fract_x
_atom_site_fract_y
_atom_site_fract_z
Si Si1 0.895717 0.085372 0.991816
Si Si2 0.642742 0.805518 0.769703
Si Si3 0.022529 0.106418 0.377575
Si Si4 0.337370 0.061191 0.739661
Si Si5 0.595659 0.961447 0.796921
Si Si6 0.535093 0.139257 0.914925
Si Si7 0.160878 0.716209 0.762510
Si Si8 0.296926 0.325773 0.459407
O O1 0.919883 0.137752 0.966495
O O2 0.055261 0.055409 0.876955
O O3 0.004128 0.084252 0.033240
O O4 0.612067 0.066597 0.081824
O O5 0.500000 0.789916 0.750000
O O6 0.768342 0.853937 0.707606
O O7 0.863529 0.768431 0.704442
O O8 0.448217 0.804413 0.909819
O O9 0.131174 0.064021 0.291097
O O10 0.747508 0.124561 0.452926
O O11 0.500000 0.075773 0.750000
O O12 0.342858 0.099233 0.676861
O O13 0.405319 0.013378 0.678130
O O14 0.500000 0.958817 0.750000
O O15 0.525707 0.184622 0.871459
O O16 0.713665 0.149246 0.916993
O O17 0.469491 0.708542 0.641434
O O18 0.000000 0.707733 0.750000
#
# Coordination Sequence:
#
# PCOD8151430 Si02
#       8
#     8   8   8   8   8   8   8   8
#     4  11  20  41  70  95 135 183 228 283 337 396
#     4  12  25  46  73  98 135 179 226 281 340 400
#     4  11  22  42  70 100 135 178 230 281 335 400
#     4  11  22  38  69 101 137 182 234 284 334 398
#     4   9  21  37  65 104 134 177 236 283 332 399
#     4  12  26  42  68  99 140 179 227 278 339 402
#     4  12  28  47  71 103 135 173 229 276 336 410
#     4  12  25  47  70  98 138 181 220 280 345 395
#
# _framework density 22.379242000000001
#
# number of rings (size 3 to 8) (size 9 to 14) (size 15 to 20)
#    0.000    0.750    5.000    3.000    3.500    2.000 
#    0.000    0.625    2.750    0.000    0.000    0.000 
#    0.000    0.000    0.000    0.000    0.000    0.000 
#
# Total GULP energy -396682.125277 kJ/mol
# GULP energy per Si atom -12396.316415 kJ/mol
# Density = 2.232831 g / cm^3
# Si number density = 22.379242 Si / 1000 Ang^3
#
#
#
# Elastic Constant Matrix: (Units=GPa)
#
#
# Indices 1 2 3 4 5 6 
#
# 1 88.8773 22.2157 31.6578 0.0000 -2.5003 0.0000
# 2 22.2157 106.5233 23.3105 0.0000 4.4629 0.0000
# 3 31.6578 23.3105 98.3709 -0.0001 -8.8345 0.0000
# 4 0.0000 0.0000 -0.0001 15.4860 0.0000 -5.8217
# 5 -2.5003 4.4629 -8.8345 0.0000 27.7172 0.0000
# 6 0.0000 0.0000 0.0000 -5.8217 0.0000 25.3921
#
#
#
# Elastic Compliance Matrix: (Units=1/GPa)
#
#
# Indices 1 2 3 4 5 6 
#
# 1 0.013067 -0.001923 -0.003722 0.000000 0.000302 0.000000
# 2 -0.001923 0.010343 -0.002056 0.000000 -0.002494 0.000000
# 3 -0.003722 -0.002056 0.012200 0.000000 0.003884 0.000000
# 4 0.000000 0.000000 0.000000 0.070665 0.000000 0.016202
# 5 0.000302 -0.002494 0.003884 0.000000 0.037745 0.000000
# 6 0.000000 0.000000 0.000000 0.016202 0.000000 0.043097
#
#
# Mechanical properties :
#
#
# Convention : Reuss Voigt Hill
#
# Bulk Modulus (GPa) = 49.48965 49.79326 49.64146
# Shear Modulus (GPa) = 23.89430 28.15822 26.02626
#
# Velocity S-wave (km/s) = 3.27111 3.55100 3.41393
# Velocity P-wave (km/s) = 6.03564 6.25387 6.14572
#
# Compressibility (1/GPa) = 0.02020625
#
# Stress axis : x y z
#
# Youngs Moduli (GPa) = 76.53149 96.68257 81.97057
#
# Poissons Ratio (x) = 0.18594 0.30511
# Poissons Ratio (y) = 0.14718 0.16854
# Poissons Ratio (z) = 0.28487 0.19878
#
# Static dielectric constant tensor:
#      x y z
#    x 3.731000 0.000000 -0.198590 
#    y 0.000000 4.093210 0.000000 
#    z -0.198590 0.000000 4.639980 
# 
# 
# High freq. dielectric constant tensor:
#      x y z
#    x 1.854030 0.000000 -0.008160 
#    y 0.000000 1.892530 0.000000 
#    z -0.008160 0.000000 1.891680 
# 
# From -- ./inp_files/194216.got.cif
#   From: 2010.06.25/outbox.cif.g09.slc.cpg/sg15_98_cif.got.tgz:194216.got - 2010.06.28 07:06:18.
