data_PCOD8151801
_publ_section_title
;
Structure prediction by ZEFSAII (Michael W. Deem and Ramdas Pophale) SiO2 
 PCOD8151801
Probable space group: C 2/C
;
_chemical_formula_sum "Si O2"
_cell_formula_units_Z 48
_cell_length_a 27.939862
_cell_length_b 11.865775
_cell_length_c 19.854482
_cell_angle_alpha 90.000000
_cell_angle_beta 159.893849
_cell_angle_gamma 90.000000
_cell_volume 2262.741336
_symmetry_space_group_name_H-M "C 2/C"
_symmetry_group_IT_number 15
_symmetry_cell_setting 'monoclinic'
loop_
_space_group_symop_operation_xyz
x,y,z
-x,y,1/2-z
-x,-y,-z
x,-y,1/2+z
1/2+x,1/2+y,z
1/2-x,1/2+y,1/2-z
1/2-x,1/2-y,-z
1/2+x,1/2-y,1/2+z
loop_
_atom_site_type_symbol
_atom_site_label
_atom_site_fract_x
_atom_site_fract_y
_atom_site_fract_z
Si Si1 0.993758 0.898583 0.043470
Si Si2 0.610572 0.614061 0.951059
Si Si3 0.725013 0.841958 0.130696
Si Si4 0.946933 0.564053 0.604683
Si Si5 0.251433 0.237691 0.692766
Si Si6 0.628524 0.971502 0.219147
O O1 0.149722 0.849548 0.257623
O O2 0.936996 0.939430 0.040709
O O3 0.897143 0.802278 0.885497
O O4 0.000000 0.000000 0.000000
O O5 0.500000 0.573084 0.750000
O O6 0.611589 0.750655 0.956049
O O7 0.767835 0.577886 0.140893
O O8 0.790779 0.802029 0.288437
O O9 0.656990 0.963555 0.051853
O O10 0.870961 0.683970 0.497707
O O11 0.000000 0.547839 0.750000
O O12 0.076065 0.557392 0.724409
O O13 0.274021 0.130967 0.675144
O O14 0.500000 0.000000 0.000000
#
# Coordination Sequence:
#
# PCOD8151801 Si02
#       6
#     8   8   8   8   8   8
#     4  11  21  40  69  95 128 175 233 277 332 416
#     4  11  27  41  66 104 138 184 226 290 358 402
#     4  11  23  43  70  98 139 180 238 281 341 423
#     4  12  27  44  69 107 139 180 229 295 358 402
#     4  11  23  43  70 102 130 185 236 275 349 419
#     4  12  24  47  72  98 144 185 236 282 347 429
#
# _framework density 21.213207000000001
#
# number of rings (size 3 to 8) (size 9 to 14) (size 15 to 20)
#    0.000    0.667    3.333    5.500    4.667    2.000 
#    0.000    0.000    0.000    0.000    0.000    0.000 
#    0.000    0.000    0.000    0.000    0.000    0.000 
#
# Total GULP energy -297706.421007 kJ/mol
# GULP energy per Si atom -12404.434209 kJ/mol
# Density = 2.116492 g / cm^3
# Si number density = 21.213207 Si / 1000 Ang^3
#
#
#
# Elastic Constant Matrix: (Units=GPa)
#
#
# Indices 1 2 3 4 5 6 
#
# 1 125.2782 34.7793 46.7066 0.0000 10.7006 0.0000
# 2 34.7793 96.5950 24.1680 0.0000 3.5788 0.0000
# 3 46.7066 24.1680 93.3579 0.0000 9.9377 0.0000
# 4 0.0000 0.0000 0.0000 34.5305 0.0000 7.5867
# 5 10.7006 3.5788 9.9377 0.0000 41.6392 0.0000
# 6 0.0000 0.0000 0.0000 7.5867 0.0000 32.2223
#
#
#
# Elastic Compliance Matrix: (Units=1/GPa)
#
#
# Indices 1 2 3 4 5 6 
#
# 1 0.010474 -0.002615 -0.004413 0.000000 -0.001414 0.000000
# 2 -0.002615 0.011725 -0.001736 0.000000 0.000078 0.000000
# 3 -0.004413 -0.001736 0.013577 0.000000 -0.001957 0.000000
# 4 0.000000 0.000000 0.000000 0.030540 0.000000 -0.007191
# 5 -0.001414 0.000078 -0.001957 0.000000 0.024839 0.000000
# 6 0.000000 0.000000 0.000000 -0.007191 0.000000 0.032727
#
#
# Mechanical properties :
#
#
# Convention : Reuss Voigt Hill
#
# Bulk Modulus (GPa) = 54.79465 58.50431 56.64948
# Shear Modulus (GPa) = 33.90008 35.65021 34.77515
#
# Velocity S-wave (km/s) = 4.00192 4.10392 4.05324
# Velocity P-wave (km/s) = 6.87316 7.07780 6.97623
#
# Compressibility (1/GPa) = 0.01824996
#
# Stress axis : x y z
#
# Youngs Moduli (GPa) = 95.47388 85.28575 73.65522
#
# Poissons Ratio (x) = 0.22300 0.32502
# Poissons Ratio (y) = 0.24964 0.12783
# Poissons Ratio (z) = 0.42130 0.14802
#
# Static dielectric constant tensor:
#      x y z
#    x 4.157700 0.000000 0.401060 
#    y 0.000000 4.167670 0.000000 
#    z 0.401060 0.000000 3.798570 
# 
# 
# High freq. dielectric constant tensor:
#      x y z
#    x 1.834260 0.000000 0.019100 
#    y 0.000000 1.843320 0.000000 
#    z 0.019100 0.000000 1.825520 
# 
# From -- ./inp_files/257635.got.cif
#   From: 2010.06.25/outbox.cif.g09.slc.cpg/sg15_129_cif.got.tgz:257635.got - 2010.06.28 07:06:18.
