data_PCOD8151396
_publ_section_title
;
Structure prediction by ZEFSAII (Michael W. Deem and Ramdas Pophale) SiO2 
 PCOD8151396
Probable space group: C 2/C
;
_chemical_formula_sum "Si O2"
_cell_formula_units_Z 40
_cell_length_a 10.985450
_cell_length_b 24.376759
_cell_length_c 14.060286
_cell_angle_alpha 90.000000
_cell_angle_beta 31.169924
_cell_angle_gamma 90.000000
_cell_volume 1948.784086
_symmetry_space_group_name_H-M "C 2/C"
_symmetry_group_IT_number 15
_symmetry_cell_setting 'monoclinic'
loop_
_space_group_symop_operation_xyz
x,y,z
-x,y,1/2-z
-x,-y,-z
x,-y,1/2+z
1/2+x,1/2+y,z
1/2-x,1/2+y,1/2-z
1/2-x,1/2-y,-z
1/2+x,1/2-y,1/2+z
loop_
_atom_site_type_symbol
_atom_site_label
_atom_site_fract_x
_atom_site_fract_y
_atom_site_fract_z
Si Si1 0.050322 0.888740 0.413095
Si Si2 0.709195 0.813783 0.539651
Si Si3 0.913689 0.596497 0.519485
Si Si4 0.960815 0.909889 0.674349
Si Si5 0.255421 0.980950 0.961655
O O1 0.301905 0.904919 0.199996
O O2 0.950170 0.837173 0.421929
O O3 0.069739 0.875160 0.513024
O O4 0.872888 0.940289 0.526226
O O5 0.500000 0.827774 0.750000
O O6 0.750000 0.750000 0.500000
O O7 0.639079 0.843079 0.488102
O O8 0.788881 0.550538 0.538831
O O9 0.184577 0.582070 0.345384
O O10 0.000000 0.879316 0.750000
O O11 0.093738 0.967515 0.590907
O O12 0.500000 0.999148 0.750000
#
# Coordination Sequence:
#
# PCOD8151396 Si02
#       5
#     8   8   8   8   8
#     4  11  22  41  60  90 126 157 202 264 306 361
#     4  11  20  40  70 101 119 148 197 261 328 357
#     4  11  23  42  60  89 130 153 208 268 295 364
#     4  12  26  39  57  86 125 178 207 244 299 371
#     4  11  22  38  60  87 122 168 209 256 308 352
#
# _framework density 20.525618999999999
#
# number of rings (size 3 to 8) (size 9 to 14) (size 15 to 20)
#    0.000    0.800    4.000    6.600    2.800    1.600 
#    0.000    0.000    0.000    1.200    0.000    0.000 
#    0.000    0.000    0.000    0.000    0.000    0.000 
#
# Total GULP energy -248002.591533 kJ/mol
# GULP energy per Si atom -12400.129577 kJ/mol
# Density = 2.047890 g / cm^3
# Si number density = 20.525619 Si / 1000 Ang^3
#
#
#
# Elastic Constant Matrix: (Units=GPa)
#
#
# Indices 1 2 3 4 5 6 
#
# 1 93.7686 26.1499 54.5504 0.0041 21.5047 -0.0033
# 2 26.1499 79.7100 34.4214 -0.0005 -15.6336 0.0003
# 3 54.5504 34.4214 170.6512 0.0036 19.2725 0.0008
# 4 0.0041 -0.0005 0.0036 25.6022 -0.0040 0.8790
# 5 21.5047 -15.6336 19.2725 -0.0040 31.7282 0.0022
# 6 -0.0033 0.0003 0.0008 0.8790 0.0022 7.7259
#
#
#
# Elastic Compliance Matrix: (Units=1/GPa)
#
#
# Indices 1 2 3 4 5 6 
#
# 1 0.017335 -0.007320 -0.002502 -0.000005 -0.013836 0.000012
# 2 -0.007320 0.019793 -0.003558 0.000005 0.016876 -0.000009
# 3 -0.002502 -0.003558 0.007928 -0.000002 -0.004873 0.000000
# 4 -0.000005 0.000005 -0.000002 0.039212 0.000012 -0.004462
# 5 -0.013836 0.016876 -0.004873 0.000012 0.052171 -0.000022
# 6 0.000012 -0.000009 0.000000 -0.004462 -0.000022 0.129943
#
#
# Mechanical properties :
#
#
# Convention : Reuss Voigt Hill
#
# Bulk Modulus (GPa) = 54.66041 63.81924 59.23983
# Shear Modulus (GPa) = 16.70894 28.27847 22.49370
#
# Velocity S-wave (km/s) = 2.85626 3.71579 3.31401
# Velocity P-wave (km/s) = 6.12909 7.04055 6.60057
#
# Compressibility (1/GPa) = 0.01829478
#
# Stress axis : x y z
#
# Youngs Moduli (GPa) = 57.68779 50.52197 126.13806
#
# Poissons Ratio (x) = 0.36982 0.31561
# Poissons Ratio (y) = 0.42228 0.44885
# Poissons Ratio (z) = 0.14434 0.17978
#
# Static dielectric constant tensor:
#      x y z
#    x 4.027050 -0.000010 0.221070 
#    y -0.000010 3.564200 0.000000 
#    z 0.221070 0.000000 4.104330 
# 
# 
# High freq. dielectric constant tensor:
#      x y z
#    x 1.793070 0.000000 0.012000 
#    y 0.000000 1.759330 0.000000 
#    z 0.012000 0.000000 1.837120 
# 
# From -- ./inp_files/147976.got.cif
#   From: 2010.06.25/outbox.cif.g09.slc.cpg/sg15_74_cif.got.tgz:147976.got - 2010.06.28 07:06:18.
