data_PCOD8151101
_publ_section_title
;
Structure prediction by ZEFSAII (Michael W. Deem and Ramdas Pophale) SiO2 
 PCOD8151101
Probable space group: C 2/C
;
_chemical_formula_sum "Si O2"
_cell_formula_units_Z 40
_cell_length_a 7.411754
_cell_length_b 25.672593
_cell_length_c 9.986243
_cell_angle_alpha 90.000000
_cell_angle_beta 88.744173
_cell_angle_gamma 90.000000
_cell_volume 1899.715356
_symmetry_space_group_name_H-M "C 2/C"
_symmetry_group_IT_number 15
_symmetry_cell_setting 'monoclinic'
loop_
_space_group_symop_operation_xyz
x,y,z
-x,y,1/2-z
-x,-y,-z
x,-y,1/2+z
1/2+x,1/2+y,z
1/2-x,1/2+y,1/2-z
1/2-x,1/2-y,-z
1/2+x,1/2-y,1/2+z
loop_
_atom_site_type_symbol
_atom_site_label
_atom_site_fract_x
_atom_site_fract_y
_atom_site_fract_z
Si Si1 0.286657 0.296298 0.736629
Si Si2 0.318419 0.126698 0.035285
Si Si3 0.985490 0.048582 0.403298
Si Si4 0.213511 0.679368 0.734115
Si Si5 0.227643 0.368735 0.505106
O O1 0.500000 0.301261 0.750000
O O2 0.185416 0.332547 0.844176
O O3 0.211486 0.238122 0.759208
O O4 0.234586 0.315267 0.589169
O O5 0.208083 0.075089 0.072408
O O6 0.523773 0.109262 0.005316
O O7 0.228553 0.153484 0.906368
O O8 0.000000 0.029434 0.250000
O O9 0.145567 0.088632 0.430234
O O10 0.000000 0.000000 0.500000
O O11 0.000000 0.682186 0.750000
O O12 0.294071 0.644847 0.853870
#
# Coordination Sequence:
#
# PCOD8151101 Si02
#       5
#     8   8   8   8   8
#     4  11  19  39  63  95 135 177 215 256 315 386
#     4  11  22  43  65  93 134 170 211 272 320 380
#     4  12  28  48  70  96 124 168 224 276 331 382
#     4   9  22  36  62  99 134 174 219 251 308 398
#     4  11  22  43  65  93 134 170 211 272 320 380
#
# _framework density 21.055785
#
# number of rings (size 3 to 8) (size 9 to 14) (size 15 to 20)
#    0.000    1.200    4.000    1.800    2.800    0.800 
#    7.200    0.000    0.000    0.000    0.000    0.000 
#    0.000    0.000    0.000    0.000    0.000    0.000 
#
# Total GULP energy -248099.175947 kJ/mol
# GULP energy per Si atom -12404.958797 kJ/mol
# Density = 2.100786 g / cm^3
# Si number density = 21.055785 Si / 1000 Ang^3
#
#
#
# Elastic Constant Matrix: (Units=GPa)
#
#
# Indices 1 2 3 4 5 6 
#
# 1 73.1415 17.5651 -5.4081 0.0000 10.5493 0.0000
# 2 17.5651 97.2702 40.2218 0.0000 5.7973 0.0000
# 3 -5.4081 40.2218 128.1625 0.0000 21.0298 0.0000
# 4 0.0000 0.0000 0.0000 43.2346 0.0000 9.5761
# 5 10.5493 5.7973 21.0298 0.0000 25.7293 0.0000
# 6 0.0000 0.0000 0.0000 9.5761 0.0000 1.6480
#
#
#
# Elastic Compliance Matrix: (Units=1/GPa)
#
#
# Indices 1 2 3 4 5 6 
#
# 1 0.016008 -0.003722 0.003214 0.000000 -0.008352 0.000000
# 2 -0.003722 0.012683 -0.004526 0.000000 0.002368 0.000000
# 3 0.003214 -0.004526 0.010865 0.000000 -0.009178 0.000000
# 4 0.000000 0.000000 0.000000 -0.080578 0.000000 0.468227
# 5 -0.008352 0.002368 -0.009178 0.000000 0.049259 0.000000
# 6 0.000000 0.000000 0.000000 0.468227 0.000000 -2.113983
#
#
# Mechanical properties :
#
#
# Convention : Reuss Voigt Hill
#
# Bulk Modulus (GPa) = 33.91189 44.81464 39.36327
# Shear Modulus (GPa) = -2.39711 30.53540 14.06915
#
# Velocity S-wave (km/s) = -1.06814 3.81230 2.58773
# Velocity P-wave (km/s) = 3.82354 6.38029 5.25964
#
# Compressibility (1/GPa) = 0.02948818
#
# Stress axis : x y z
#
# Youngs Moduli (GPa) = 62.46785 78.84468 92.04161
#
# Poissons Ratio (x) = 0.29346 -0.29583
# Poissons Ratio (y) = 0.23251 0.41658
# Poissons Ratio (z) = -0.20077 0.35685
#
# Static dielectric constant tensor:
#      x y z
#    x 4.048560 0.000000 -0.124670 
#    y 0.000000 3.704650 0.000000 
#    z -0.124670 0.000000 4.265230 
# 
# 
# High freq. dielectric constant tensor:
#      x y z
#    x 1.831130 0.000000 0.004420 
#    y 0.000000 1.802790 0.000000 
#    z 0.004420 0.000000 1.844880 
# 
# From -- ./inp_files/23637.got.cif
#   From: 2010.06.25/outbox.cif.g09.slc.cpg/sg15_12_cif.got.tgz:23637.got - 2010.06.28 07:06:18.
