data_PCOD8151570
_publ_section_title
;
Structure prediction by ZEFSAII (Michael W. Deem and Ramdas Pophale) SiO2 
 PCOD8151570
Probable space group: C 2/C
;
_chemical_formula_sum "Si O2"
_cell_formula_units_Z 64
_cell_length_a 26.530017
_cell_length_b 11.455419
_cell_length_c 20.440857
_cell_angle_alpha 90.000000
_cell_angle_beta 33.782024
_cell_angle_gamma 90.000000
_cell_volume 3454.217170
_symmetry_space_group_name_H-M "C 2/C"
_symmetry_group_IT_number 15
_symmetry_cell_setting 'monoclinic'
loop_
_space_group_symop_operation_xyz
x,y,z
-x,y,1/2-z
-x,-y,-z
x,-y,1/2+z
1/2+x,1/2+y,z
1/2-x,1/2+y,1/2-z
1/2-x,1/2-y,-z
1/2+x,1/2-y,1/2+z
loop_
_atom_site_type_symbol
_atom_site_label
_atom_site_fract_x
_atom_site_fract_y
_atom_site_fract_z
Si Si1 0.252110 0.544165 0.830729
Si Si2 0.664179 0.639752 0.883703
Si Si3 0.508279 0.752256 0.817788
Si Si4 0.452812 0.059257 0.465908
Si Si5 0.678408 0.696121 0.270660
Si Si6 0.351305 0.611622 0.050333
Si Si7 0.001884 0.315100 0.042773
Si Si8 0.280795 0.744072 0.892915
O O1 0.324600 0.599832 0.703146
O O2 0.284607 0.413057 0.811066
O O3 0.248468 0.618729 0.900777
O O4 0.153375 0.543484 0.903222
O O5 0.755818 0.695331 0.812281
O O6 0.641521 0.528573 0.953684
O O7 0.588937 0.739141 0.965380
O O8 0.500000 0.731107 0.750000
O O9 0.467334 0.879097 0.880236
O O10 0.611430 0.750267 0.730510
O O11 0.448751 0.654438 0.919126
O O12 0.498348 0.143552 0.471064
O O13 0.498898 0.932448 0.412884
O O14 0.671442 0.666696 0.354957
O O15 0.581742 0.733816 0.346838
O O16 0.268630 0.651039 0.092681
O O17 0.250000 0.750000 0.000000
#
# Coordination Sequence:
#
# PCOD8151570 Si02
#       8
#     8   8   8   8   8   8   8   8
#     4  11  21  37  59  86 123 155 193 243 297 349
#     4  11  22  36  58  86 127 155 185 244 295 363
#     4  12  23  40  60  86 117 151 201 249 284 344
#     4  11  21  36  60  86 119 154 200 241 287 354
#     4  11  22  37  57  90 126 154 191 242 293 363
#     4  11  24  38  56  91 121 154 199 237 300 351
#     4  11  22  35  57  88 119 155 193 232 308 341
#     4  12  23  40  63  85 115 156 201 247 297 344
#
# _framework density 18.528077
#
# number of rings (size 3 to 8) (size 9 to 14) (size 15 to 20)
#    0.000    0.750    7.500    0.750    3.500    1.000 
#    0.000    0.000    0.000    3.000    0.000    0.000 
#    0.000    0.000    0.000    0.000    0.000    0.000 
#
# Total GULP energy -396833.098132 kJ/mol
# GULP energy per Si atom -12401.034317 kJ/mol
# Density = 1.848591 g / cm^3
# Si number density = 18.528077 Si / 1000 Ang^3
#
#
#
# Elastic Constant Matrix: (Units=GPa)
#
#
# Indices 1 2 3 4 5 6 
#
# 1 61.7084 31.4007 29.3527 0.0000 -0.6293 0.0000
# 2 31.4007 122.1384 32.9865 -0.0001 14.3100 0.0000
# 3 29.3527 32.9865 81.0139 0.0000 -5.8194 0.0000
# 4 0.0000 -0.0001 0.0000 31.0499 0.0000 -7.3640
# 5 -0.6293 14.3100 -5.8194 0.0000 31.3545 0.0000
# 6 0.0000 0.0000 0.0000 -7.3640 0.0000 28.3032
#
#
#
# Elastic Compliance Matrix: (Units=1/GPa)
#
#
# Indices 1 2 3 4 5 6 
#
# 1 0.021046 -0.003937 -0.005942 0.000000 0.001116 0.000000
# 2 -0.003937 0.010765 -0.003360 0.000000 -0.005616 0.000000
# 3 -0.005942 -0.003360 0.016182 0.000000 0.004418 0.000000
# 4 0.000000 0.000000 0.000000 0.034324 0.000000 0.008931
# 5 0.001116 -0.005616 0.004418 0.000000 0.035299 0.000000
# 6 0.000000 0.000000 0.000000 0.008931 0.000000 0.037655
#
#
# Mechanical properties :
#
#
# Convention : Reuss Voigt Hill
#
# Bulk Modulus (GPa) = 46.47954 50.26006 48.36980
# Shear Modulus (GPa) = 26.46592 29.54957 28.00775
#
# Velocity S-wave (km/s) = 3.78355 3.99789 3.89220
# Velocity P-wave (km/s) = 6.65037 6.96392 6.80895
#
# Compressibility (1/GPa) = 0.02151484
#
# Stress axis : x y z
#
# Youngs Moduli (GPa) = 47.51389 92.89355 61.79657
#
# Poissons Ratio (x) = 0.36570 0.36722
# Poissons Ratio (y) = 0.18705 0.20765
# Poissons Ratio (z) = 0.28235 0.31214
#
# Static dielectric constant tensor:
#      x y z
#    x 3.289890 0.000000 -0.256250 
#    y 0.000000 3.627080 0.000000 
#    z -0.256250 0.000000 3.468350 
# 
# 
# High freq. dielectric constant tensor:
#      x y z
#    x 1.697520 0.000000 -0.030180 
#    y 0.000000 1.728660 0.000000 
#    z -0.030180 0.000000 1.718150 
# 
# From -- ./inp_files/257499.got.cif
#   From: 2010.06.25/outbox.cif.g09.slc.cpg/sg15_129_cif.got.tgz:257499.got - 2010.06.28 07:06:18.
