data_PCOD8151170
_publ_section_title
;
Structure prediction by ZEFSAII (Michael W. Deem and Ramdas Pophale) SiO2 
 PCOD8151170
Probable space group: C 2/C
;
_chemical_formula_sum "Si O2"
_cell_formula_units_Z 48
_cell_length_a 16.775010
_cell_length_b 8.887964
_cell_length_c 27.532957
_cell_angle_alpha 90.000000
_cell_angle_beta 38.975430
_cell_angle_gamma 90.000000
_cell_volume 2582.020286
_symmetry_space_group_name_H-M "C 2/C"
_symmetry_group_IT_number 15
_symmetry_cell_setting 'monoclinic'
loop_
_space_group_symop_operation_xyz
x,y,z
-x,y,1/2-z
-x,-y,-z
x,-y,1/2+z
1/2+x,1/2+y,z
1/2-x,1/2+y,1/2-z
1/2-x,1/2-y,-z
1/2+x,1/2-y,1/2+z
loop_
_atom_site_type_symbol
_atom_site_label
_atom_site_fract_x
_atom_site_fract_y
_atom_site_fract_z
Si Si1 0.530133 0.343795 0.350944
Si Si2 0.618655 0.507060 0.663103
Si Si3 0.146317 0.660110 0.459910
Si Si4 0.967088 0.579133 0.083443
Si Si5 0.729430 0.169442 0.827308
Si Si6 0.475319 0.584337 0.062000
O O1 0.427484 0.393886 0.360126
O O2 0.487496 0.186385 0.394581
O O3 0.667102 0.308083 0.263371
O O4 0.536886 0.473106 0.387561
O O5 0.500000 0.444578 0.750000
O O6 0.701086 0.359519 0.608689
O O7 0.706053 0.614727 0.653846
O O8 0.097649 0.682158 0.427615
O O9 0.092429 0.501358 0.504538
O O10 0.095602 0.803356 0.514123
O O11 0.867130 0.454000 0.148393
O O12 0.655414 0.321403 0.876720
O O13 0.500000 0.500000 0.000000
#
# Coordination Sequence:
#
# PCOD8151170 Si02
#       6
#     8   8   8   8   8   8
#     4  11  20  33  58  87 106 144 191 226 274 334
#     4   9  20  36  57  78 110 152 183 222 281 338
#     4   9  18  35  52  76 113 142 176 227 277 329
#     4   9  17  32  55  77 103 148 183 219 273 325
#     4   9  20  38  56  77 116 147 185 227 277 333
#     4  11  21  35  58  89 109 141 189 240 274 315
#
# _framework density 18.590094000000001
#
# number of rings (size 3 to 8) (size 9 to 14) (size 15 to 20)
#    0.000    2.333    1.667    2.000    0.000    1.333 
#    0.000    0.000    0.000    1.000    0.000    0.000 
#    0.000    0.000    0.000    0.000    0.000    0.000 
#
# Total GULP energy -297506.588334 kJ/mol
# GULP energy per Si atom -12396.107847 kJ/mol
# Density = 1.854778 g / cm^3
# Si number density = 18.590094 Si / 1000 Ang^3
#
#
#
# Elastic Constant Matrix: (Units=GPa)
#
#
# Indices 1 2 3 4 5 6 
#
# 1 78.8316 42.8808 53.9647 0.0001 -2.4371 0.0005
# 2 42.8808 91.9615 54.7540 0.0000 -0.1447 0.0004
# 3 53.9647 54.7540 121.7004 0.0000 -3.6702 -0.0002
# 4 0.0001 0.0000 0.0000 34.4046 0.0000 4.6468
# 5 -2.4371 -0.1447 -3.6702 0.0000 28.4223 0.0000
# 6 0.0005 0.0004 -0.0002 4.6468 0.0000 23.1380
#
#
#
# Elastic Compliance Matrix: (Units=1/GPa)
#
#
# Indices 1 2 3 4 5 6 
#
# 1 0.020117 -0.005577 -0.006385 0.000000 0.000872 0.000000
# 2 -0.005577 0.016417 -0.004944 0.000000 -0.001033 0.000000
# 3 -0.006385 -0.004944 0.013307 0.000000 0.001146 0.000000
# 4 0.000000 0.000000 0.000000 0.029876 0.000000 -0.006000
# 5 0.000872 -0.001033 0.001146 0.000000 0.035401 0.000000
# 6 0.000000 0.000000 0.000000 -0.006000 0.000000 0.044424
#
#
# Mechanical properties :
#
#
# Convention : Reuss Voigt Hill
#
# Bulk Modulus (GPa) = 62.38969 66.18806 64.28888
# Shear Modulus (GPa) = 25.16396 26.58591 25.87493
#
# Velocity S-wave (km/s) = 3.68315 3.78578 3.73482
# Velocity P-wave (km/s) = 7.19173 7.40208 7.29767
#
# Compressibility (1/GPa) = 0.01602829
#
# Stress axis : x y z
#
# Youngs Moduli (GPa) = 49.70994 60.91277 75.14905
#
# Poissons Ratio (x) = 0.33974 0.47979
# Poissons Ratio (y) = 0.27726 0.37154
# Poissons Ratio (z) = 0.31738 0.30116
#
# Static dielectric constant tensor:
#      x y z
#    x 3.255850 0.000000 -0.056130 
#    y 0.000000 3.356320 0.000000 
#    z -0.056130 0.000000 3.803430 
# 
# 
# High freq. dielectric constant tensor:
#      x y z
#    x 1.697210 0.000000 0.003280 
#    y 0.000000 1.712790 0.000000 
#    z 0.003280 0.000000 1.741270 
# 
# From -- ./inp_files/208523.got.cif
#   From: 2010.06.25/outbox.cif.g09.slc.cpg/sg15_105_cif.got.tgz:208523.got - 2010.06.28 07:06:18.
