data_PCOD8151899
_publ_section_title
;
Structure prediction by ZEFSAII (Michael W. Deem and Ramdas Pophale) SiO2 
 PCOD8151899
Probable space group: C 2/C
;
_chemical_formula_sum "Si O2"
_cell_formula_units_Z 52
_cell_length_a 17.796650
_cell_length_b 8.874128
_cell_length_c 20.391178
_cell_angle_alpha 90.000000
_cell_angle_beta 129.989529
_cell_angle_gamma 90.000000
_cell_volume 2467.327597
_symmetry_space_group_name_H-M "C 2/C"
_symmetry_group_IT_number 15
_symmetry_cell_setting 'monoclinic'
loop_
_space_group_symop_operation_xyz
x,y,z
-x,y,1/2-z
-x,-y,-z
x,-y,1/2+z
1/2+x,1/2+y,z
1/2-x,1/2+y,1/2-z
1/2-x,1/2-y,-z
1/2+x,1/2-y,1/2+z
loop_
_atom_site_type_symbol
_atom_site_label
_atom_site_fract_x
_atom_site_fract_y
_atom_site_fract_z
Si Si1 0.208488 0.135021 0.563868
Si Si2 0.791792 0.728383 0.294406
Si Si3 0.542931 0.578120 0.960864
Si Si4 0.869910 0.002078 0.771176
Si Si5 0.007040 0.414892 0.571939
Si Si6 0.500000 0.362857 0.750000
Si Si7 0.600861 0.153209 0.905198
O O1 0.202942 0.167478 0.637988
O O2 0.320308 0.109213 0.605893
O O3 0.156347 0.274102 0.498105
O O4 0.153164 0.981330 0.513297
O O5 0.690298 0.638307 0.231635
O O6 0.879780 0.607959 0.344678
O O7 0.805423 0.844364 0.240736
O O8 0.474306 0.526028 0.863465
O O9 0.548319 0.757220 0.969091
O O10 0.500000 0.500000 0.000000
O O11 0.902752 0.962272 0.714673
O O12 0.955808 0.505977 0.601840
O O13 0.000000 0.500000 0.500000
O O14 0.523175 0.264138 0.827422
#
# Coordination Sequence:
#
# PCOD8151899 Si02
#       7
#     8   8   8   8   8   4   8
#     4  11  21  42  67  97 129 171 218 272 324 393
#     4  11  24  43  68  99 131 170 229 266 326 391
#     4  11  21  42  69  94 130 167 217 275 324 380
#     4  11  25  42  64  99 130 177 214 271 330 392
#     4  11  23  40  68 100 126 171 225 272 318 392
#     4  12  24  42  68  88 142 182 204 270 348 380
#     4  11  24  40  68  97 131 171 223 263 330 399
#
# _framework density 21.075434000000001
#
# number of rings (size 3 to 8) (size 9 to 14) (size 15 to 20)
#    0.000    0.923    7.692    0.000    2.154    0.615 
#    0.000    6.154    0.000    0.000    0.000    0.000 
#    0.000    0.000    0.000    0.000    0.000    0.000 
#
# Total GULP energy -322379.642942 kJ/mol
# GULP energy per Si atom -12399.217036 kJ/mol
# Density = 2.102747 g / cm^3
# Si number density = 21.075434 Si / 1000 Ang^3
#
#
#
# Elastic Constant Matrix: (Units=GPa)
#
#
# Indices 1 2 3 4 5 6 
#
# 1 135.1769 77.0765 14.1049 0.0000 9.0187 0.0000
# 2 77.0765 152.5984 36.2796 0.0000 2.0900 0.0000
# 3 14.1049 36.2796 40.7792 0.0000 3.6533 0.0000
# 4 0.0000 0.0000 0.0000 36.6064 0.0000 1.2168
# 5 9.0187 2.0900 3.6533 0.0000 26.8517 0.0000
# 6 0.0000 0.0000 0.0000 1.2168 0.0000 45.3123
#
#
#
# Elastic Compliance Matrix: (Units=1/GPa)
#
#
# Indices 1 2 3 4 5 6 
#
# 1 0.010747 -0.005797 0.001744 0.000000 -0.003396 0.000000
# 2 -0.005797 0.011441 -0.008370 0.000000 0.002195 0.000000
# 3 0.001744 -0.008370 0.031747 0.000000 -0.004254 0.000000
# 4 0.000000 0.000000 0.000000 0.027342 0.000000 -0.000734
# 5 -0.003396 0.002195 -0.004254 0.000000 0.038790 0.000000
# 6 0.000000 0.000000 0.000000 -0.000734 0.000000 0.022089
#
#
# Mechanical properties :
#
#
# Convention : Reuss Voigt Hill
#
# Bulk Modulus (GPa) = 34.37693 64.83069 49.60381
# Shear Modulus (GPa) = 28.29682 35.16031 31.72857
#
# Velocity S-wave (km/s) = 3.66819 4.08892 3.88426
# Velocity P-wave (km/s) = 5.85556 7.28838 6.61090
#
# Compressibility (1/GPa) = 0.02908928
#
# Stress axis : x y z
#
# Youngs Moduli (GPa) = 93.04532 87.40606 31.49920
#
# Poissons Ratio (x) = 0.50665 -0.05493
# Poissons Ratio (y) = 0.53934 0.26365
# Poissons Ratio (z) = -0.16225 0.73161
#
# Static dielectric constant tensor:
#      x y z
#    x 4.319100 0.000000 0.191760 
#    y 0.000000 4.074980 0.000000 
#    z 0.191760 0.000000 3.911360 
# 
# 
# High freq. dielectric constant tensor:
#      x y z
#    x 1.840030 0.000000 0.007250 
#    y 0.000000 1.823640 0.000000 
#    z 0.007250 0.000000 1.809620 
# 
# From -- ./inp_files/181085.got.cif
#   From: 2010.06.25/outbox.cif.g09.slc.cpg/sg15_91_cif.got.tgz:181085.got - 2010.06.28 07:06:18.
