data_PCOD8151425
_publ_section_title
;
Structure prediction by ZEFSAII (Michael W. Deem and Ramdas Pophale) SiO2 
 PCOD8151425
Probable space group: C 2/C
;
_chemical_formula_sum "Si O2"
_cell_formula_units_Z 40
_cell_length_a 21.868888
_cell_length_b 17.667395
_cell_length_c 12.670573
_cell_angle_alpha 90.000000
_cell_angle_beta 24.662068
_cell_angle_gamma 90.000000
_cell_volume 2042.715896
_symmetry_space_group_name_H-M "C 2/C"
_symmetry_group_IT_number 15
_symmetry_cell_setting 'monoclinic'
loop_
_space_group_symop_operation_xyz
x,y,z
-x,y,1/2-z
-x,-y,-z
x,-y,1/2+z
1/2+x,1/2+y,z
1/2-x,1/2+y,1/2-z
1/2-x,1/2-y,-z
1/2+x,1/2-y,1/2+z
loop_
_atom_site_type_symbol
_atom_site_label
_atom_site_fract_x
_atom_site_fract_y
_atom_site_fract_z
Si Si1 0.999202 0.649547 0.127873
Si Si2 0.471317 0.428418 0.619743
Si Si3 0.948205 0.175026 0.973086
Si Si4 0.226819 0.942911 0.375568
Si Si5 0.779876 0.889545 0.568030
O O1 0.847615 0.626451 0.313649
O O2 0.000000 0.627436 0.250000
O O3 0.005486 0.738680 0.101500
O O4 0.125933 0.605298 0.867370
O O5 0.500000 0.500000 0.500000
O O6 0.428167 0.352772 0.623534
O O7 0.614056 0.411437 0.465998
O O8 0.331344 0.438909 0.913785
O O9 0.069821 0.116990 0.734499
O O10 0.799408 0.168843 0.135883
O O11 0.250529 0.032091 0.323006
#
# Coordination Sequence:
#
# PCOD8151425 Si02
#       5
#     8   8   8   8   8
#     4  12  26  39  63  98 139 167 211 279 336 378
#     4  11  20  41  69  90 125 170 224 263 314 393
#     4  11  22  39  70  91 123 180 224 264 314 396
#     4  11  24  40  64 101 124 171 221 271 324 389
#     4  11  21  41  62  97 128 166 226 259 321 401
#
# _framework density 19.581772999999998
#
# number of rings (size 3 to 8) (size 9 to 14) (size 15 to 20)
#    0.000    0.800    6.000    3.600    2.800    0.800 
#    0.000    1.000    0.000    0.000    0.000    0.000 
#    0.000    0.000    0.000    0.000    0.000    0.000 
#
# Total GULP energy -247889.531370 kJ/mol
# GULP energy per Si atom -12394.476569 kJ/mol
# Density = 1.953720 g / cm^3
# Si number density = 19.581773 Si / 1000 Ang^3
#
#
#
# Elastic Constant Matrix: (Units=GPa)
#
#
# Indices 1 2 3 4 5 6 
#
# 1 125.6291 28.8711 54.2484 -0.0001 -3.7980 0.0001
# 2 28.8711 72.6780 32.4783 -0.0002 3.2112 0.0001
# 3 54.2484 32.4783 94.6713 -0.0003 -3.7705 0.0000
# 4 -0.0001 -0.0002 -0.0003 26.0134 0.0000 3.8370
# 5 -3.7980 3.2112 -3.7705 0.0000 36.5520 0.0000
# 6 0.0001 0.0001 0.0000 3.8370 0.0000 32.9570
#
#
#
# Elastic Compliance Matrix: (Units=1/GPa)
#
#
# Indices 1 2 3 4 5 6 
#
# 1 0.010790 -0.001851 -0.005519 0.000000 0.000714 0.000000
# 2 -0.001851 0.016717 -0.004760 0.000000 -0.002152 0.000000
# 3 -0.005519 -0.004760 0.015416 0.000000 0.001435 0.000000
# 4 0.000000 0.000000 0.000000 0.039113 0.000000 -0.004554
# 5 0.000714 -0.002152 0.001435 0.000000 0.027770 0.000000
# 6 0.000000 0.000000 0.000000 -0.004554 0.000000 0.030873
#
#
# Mechanical properties :
#
#
# Convention : Reuss Voigt Hill
#
# Bulk Modulus (GPa) = 53.58597 58.24156 55.91376
# Shear Modulus (GPa) = 29.21233 30.92987 30.07110
#
# Velocity S-wave (km/s) = 3.86659 3.97863 3.92301
# Velocity P-wave (km/s) = 6.88176 7.13536 7.00971
#
# Compressibility (1/GPa) = 0.01866160
#
# Stress axis : x y z
#
# Youngs Moduli (GPa) = 92.67479 59.81965 64.86911
#
# Poissons Ratio (x) = 0.11076 0.35804
# Poissons Ratio (y) = 0.17159 0.30876
# Poissons Ratio (z) = 0.51152 0.28473
#
# Static dielectric constant tensor:
#      x y z
#    x 4.006110 0.000000 -0.015670 
#    y 0.000000 3.529630 0.000000 
#    z -0.015670 0.000000 3.406120 
# 
# 
# High freq. dielectric constant tensor:
#      x y z
#    x 1.788080 0.000000 -0.006680 
#    y 0.000000 1.762250 0.000000 
#    z -0.006680 0.000000 1.738340 
# 
# From -- ./inp_files/87086.got.cif
#   From: 2010.06.25/outbox.cif.g09.slc.cpg/sg15_44_cif.got.tgz:87086.got - 2010.06.28 07:06:18.
