data_PCOD8151813
_publ_section_title
;
Structure prediction by ZEFSAII (Michael W. Deem and Ramdas Pophale) SiO2 
 PCOD8151813
Probable space group: C 2/C
;
_chemical_formula_sum "Si O2"
_cell_formula_units_Z 60
_cell_length_a 11.921079
_cell_length_b 17.373134
_cell_length_c 13.978734
_cell_angle_alpha 90.000000
_cell_angle_beta 102.339604
_cell_angle_gamma 90.000000
_cell_volume 2828.204681
_symmetry_space_group_name_H-M "C 2/C"
_symmetry_group_IT_number 15
_symmetry_cell_setting 'monoclinic'
loop_
_space_group_symop_operation_xyz
x,y,z
-x,y,1/2-z
-x,-y,-z
x,-y,1/2+z
1/2+x,1/2+y,z
1/2-x,1/2+y,1/2-z
1/2-x,1/2-y,-z
1/2+x,1/2-y,1/2+z
loop_
_atom_site_type_symbol
_atom_site_label
_atom_site_fract_x
_atom_site_fract_y
_atom_site_fract_z
Si Si1 0.500000 0.114748 0.750000
Si Si2 0.713808 0.922043 0.977973
Si Si3 0.549641 0.562323 0.658784
Si Si4 0.706422 0.076331 0.079774
Si Si5 0.436508 0.326358 0.005737
Si Si6 0.512489 0.841223 0.039639
Si Si7 0.043766 0.093431 0.363620
Si Si8 0.697686 0.005363 0.281487
O O1 0.483559 0.166451 0.843435
O O2 0.390930 0.061649 0.710679
O O3 0.812724 0.858556 0.017697
O O4 0.601954 0.904842 0.020802
O O5 0.744479 0.008136 0.015546
O O6 0.689796 0.927159 0.859895
O O7 0.500000 0.591521 0.750000
O O8 0.539403 0.635244 0.586140
O O9 0.473105 0.493485 0.598535
O O10 0.678864 0.534544 0.698123
O O11 0.825372 0.123599 0.111268
O O12 0.665566 0.044489 0.174918
O O13 0.613315 0.133225 0.017560
O O14 0.446696 0.234623 0.010461
O O15 0.459481 0.347895 0.900337
O O16 0.000000 0.086491 0.250000
#
# Coordination Sequence:
#
# PCOD8151813 Si02
#       8
#     4   8   8   8   8   8   8   8
#     4  12  26  46  66  96 138 184 232 280 354 420
#     4  12  22  44  71  97 131 182 238 278 336 410
#     4  11  21  42  70 103 128 174 235 287 339 399
#     4  12  22  43  71 103 135 174 240 285 335 409
#     4  12  25  43  68 100 141 180 222 285 360 419
#     4  12  29  44  64 101 143 188 220 284 357 423
#     4  11  21  40  71 101 131 171 233 290 337 401
#     4  12  22  41  75  99 126 175 239 296 328 401
#
# _framework density 21.214872
#
# number of rings (size 3 to 8) (size 9 to 14) (size 15 to 20)
#    0.000    0.267    8.000    2.800    0.933    0.533 
#    2.400    0.000    0.000    0.000    0.000    0.000 
#    0.000    0.000    0.000    0.000    0.000    0.000 
#
# Total GULP energy -371962.596383 kJ/mol
# GULP energy per Si atom -12398.753213 kJ/mol
# Density = 2.116659 g / cm^3
# Si number density = 21.214872 Si / 1000 Ang^3
#
#
#
# Elastic Constant Matrix: (Units=GPa)
#
#
# Indices 1 2 3 4 5 6 
#
# 1 125.0607 26.2770 28.6503 0.0000 8.8136 0.0000
# 2 26.2770 70.0278 28.7214 0.0000 10.6442 0.0000
# 3 28.6503 28.7214 102.1122 0.0000 -3.7858 0.0000
# 4 0.0000 0.0000 0.0000 13.4934 0.0000 -7.8157
# 5 8.8136 10.6442 -3.7858 0.0000 36.5683 0.0000
# 6 0.0000 0.0000 0.0000 -7.8157 0.0000 29.0303
#
#
#
# Elastic Compliance Matrix: (Units=1/GPa)
#
#
# Indices 1 2 3 4 5 6 
#
# 1 0.009053 -0.002341 -0.001945 0.000000 -0.001702 0.000000
# 2 -0.002341 0.017792 -0.004536 0.000000 -0.005084 0.000000
# 3 -0.001945 -0.004536 0.011726 0.000000 0.003003 0.000000
# 4 0.000000 0.000000 0.000000 0.087802 0.000000 0.023639
# 5 -0.001702 -0.005084 0.003003 0.000000 0.029547 0.000000
# 6 0.000000 0.000000 0.000000 0.023639 0.000000 0.040811
#
#
# Mechanical properties :
#
#
# Convention : Reuss Voigt Hill
#
# Bulk Modulus (GPa) = 47.78362 51.61091 49.69727
# Shear Modulus (GPa) = 22.58863 30.05521 26.32192
#
# Velocity S-wave (km/s) = 3.26660 3.76800 3.52622
# Velocity P-wave (km/s) = 6.06631 6.58110 6.32894
#
# Compressibility (1/GPa) = 0.02092767
#
# Stress axis : x y z
#
# Youngs Moduli (GPa) = 110.45506 56.20630 85.28035
#
# Poissons Ratio (x) = 0.13157 0.16586
# Poissons Ratio (y) = 0.25855 0.38683
# Poissons Ratio (z) = 0.21482 0.25495
#
# Static dielectric constant tensor:
#      x y z
#    x 4.096210 0.000000 -0.149580 
#    y 0.000000 3.618410 0.000000 
#    z -0.149580 0.000000 4.001670 
# 
# 
# High freq. dielectric constant tensor:
#      x y z
#    x 1.846950 0.000000 -0.006930 
#    y 0.000000 1.795360 0.000000 
#    z -0.006930 0.000000 1.845900 
# 
# From -- ./inp_files/145716.got.cif
#   From: 2010.06.25/outbox.cif.g09.slc.cpg/sg15_73_cif.got.tgz:145716.got - 2010.06.28 07:06:18.
