data_PCOD8151140
_publ_section_title
;
Structure prediction by ZEFSAII (Michael W. Deem and Ramdas Pophale) SiO2 
 PCOD8151140
Probable space group: C 2/C
;
_chemical_formula_sum "Si O2"
_cell_formula_units_Z 52
_cell_length_a 19.882776
_cell_length_b 11.101802
_cell_length_c 14.295062
_cell_angle_alpha 90.000000
_cell_angle_beta 129.105060
_cell_angle_gamma 90.000000
_cell_volume 2448.573025
_symmetry_space_group_name_H-M "C 2/C"
_symmetry_group_IT_number 15
_symmetry_cell_setting 'monoclinic'
loop_
_space_group_symop_operation_xyz
x,y,z
-x,y,1/2-z
-x,-y,-z
x,-y,1/2+z
1/2+x,1/2+y,z
1/2-x,1/2+y,1/2-z
1/2-x,1/2-y,-z
1/2+x,1/2-y,1/2+z
loop_
_atom_site_type_symbol
_atom_site_label
_atom_site_fract_x
_atom_site_fract_y
_atom_site_fract_z
Si Si1 0.335822 0.029016 0.984277
Si Si2 0.500246 0.627736 0.449906
Si Si3 0.327051 0.278982 0.877899
Si Si4 0.332783 0.387411 0.078901
Si Si5 0.361044 0.818207 0.864903
Si Si6 0.089626 0.345450 0.792037
Si Si7 0.000000 0.966622 0.750000
O O1 0.348014 0.145287 0.930525
O O2 0.238527 0.026398 0.937921
O O3 0.362363 0.910593 0.951781
O O4 0.396783 0.037841 0.130019
O O5 0.500000 0.500000 0.500000
O O6 0.407755 0.690375 0.382834
O O7 0.581776 0.702073 0.561267
O O8 0.513787 0.617575 0.351370
O O9 0.238167 0.281153 0.741297
O O10 0.323917 0.377987 0.958915
O O11 0.331544 0.250526 0.120179
O O12 0.419663 0.445894 0.191971
O O13 0.406347 0.880052 0.813534
O O14 0.000000 0.285702 0.750000
#
# Coordination Sequence:
#
# PCOD8151140 Si02
#       7
#     8   8   8   8   8   8   4
#     4  11  24  41  67 101 136 175 233 291 355 410
#     4  12  27  47  73 105 142 192 239 289 362 432
#     4  11  23  43  75 103 136 183 247 295 349 422
#     4  11  19  42  71 103 130 179 239 295 337 419
#     4  12  25  45  69 106 145 184 236 299 360 425
#     4  11  21  40  69  97 129 182 237 291 338 418
#     4  12  24  42  74 100 144 178 236 296 350 422
#
# _framework density 21.236858999999999
#
# number of rings (size 3 to 8) (size 9 to 14) (size 15 to 20)
#    0.000    0.615    5.385    4.615    2.154    2.462 
#    4.154    1.538    0.000    0.000    0.000    0.000 
#    0.000    0.000    0.000    0.000    0.000    0.000 
#
# Total GULP energy -322404.926789 kJ/mol
# GULP energy per Si atom -12400.189492 kJ/mol
# Density = 2.118852 g / cm^3
# Si number density = 21.236859 Si / 1000 Ang^3
#
#
#
# Elastic Constant Matrix: (Units=GPa)
#
#
# Indices 1 2 3 4 5 6 
#
# 1 93.2691 36.0811 41.6333 0.0000 0.0168 0.0000
# 2 36.0811 92.2838 50.3441 0.0000 -4.1606 0.0000
# 3 41.6333 50.3441 134.5740 0.0000 -5.7633 0.0000
# 4 0.0000 0.0000 0.0000 25.6147 0.0000 -4.2221
# 5 0.0168 -4.1606 -5.7633 0.0000 44.6807 0.0000
# 6 0.0000 0.0000 0.0000 -4.2221 0.0000 28.9473
#
#
#
# Elastic Compliance Matrix: (Units=1/GPa)
#
#
# Indices 1 2 3 4 5 6 
#
# 1 0.013416 -0.003765 -0.002773 0.000000 -0.000713 0.000000
# 2 -0.003765 0.014688 -0.004295 0.000000 0.000815 0.000000
# 3 -0.002773 -0.004295 0.009933 0.000000 0.000882 0.000000
# 4 0.000000 0.000000 0.000000 0.040002 0.000000 0.005835
# 5 -0.000713 0.000815 0.000882 0.000000 0.022571 0.000000
# 6 0.000000 0.000000 0.000000 0.005835 0.000000 0.035397
#
#
# Mechanical properties :
#
#
# Convention : Reuss Voigt Hill
#
# Bulk Modulus (GPa) = 61.08047 64.02711 62.55379
# Shear Modulus (GPa) = 30.65058 32.65310 31.65184
#
# Velocity S-wave (km/s) = 3.80316 3.92544 3.86478
# Velocity P-wave (km/s) = 6.93609 7.12460 7.03098
#
# Compressibility (1/GPa) = 0.01637185
#
# Stress axis : x y z
#
# Youngs Moduli (GPa) = 74.53854 68.08257 100.67251
#
# Poissons Ratio (x) = 0.25633 0.27912
# Poissons Ratio (y) = 0.28063 0.43240
# Poissons Ratio (z) = 0.20666 0.29242
#
# Static dielectric constant tensor:
#      x y z
#    x 4.145930 0.000000 0.038110 
#    y 0.000000 3.489510 0.000000 
#    z 0.038110 0.000000 4.082340 
# 
# 
# High freq. dielectric constant tensor:
#      x y z
#    x 1.851620 0.000000 0.009990 
#    y 0.000000 1.797270 0.000000 
#    z 0.009990 0.000000 1.845020 
# 
# From -- ./inp_files/167717.got.cif
#   From: 2010.06.25/outbox.cif.g09.slc.cpg/sg15_84_cif.got.tgz:167717.got - 2010.06.28 07:06:18.
