data_PCOD8151604
_publ_section_title
;
Structure prediction by ZEFSAII (Michael W. Deem and Ramdas Pophale) SiO2 
 PCOD8151604
Probable space group: C 2/C
;
_chemical_formula_sum "Si O2"
_cell_formula_units_Z 40
_cell_length_a 16.410548
_cell_length_b 24.268546
_cell_length_c 9.320666
_cell_angle_alpha 90.000000
_cell_angle_beta 31.241814
_cell_angle_gamma 90.000000
_cell_volume 1925.258714
_symmetry_space_group_name_H-M "C 2/C"
_symmetry_group_IT_number 15
_symmetry_cell_setting 'monoclinic'
loop_
_space_group_symop_operation_xyz
x,y,z
-x,y,1/2-z
-x,-y,-z
x,-y,1/2+z
1/2+x,1/2+y,z
1/2-x,1/2+y,1/2-z
1/2-x,1/2-y,-z
1/2+x,1/2-y,1/2+z
loop_
_atom_site_type_symbol
_atom_site_label
_atom_site_fract_x
_atom_site_fract_y
_atom_site_fract_z
Si Si1 0.327888 0.882974 0.514400
Si Si2 0.175890 0.914783 0.026049
Si Si3 0.664084 0.027084 0.718567
Si Si4 0.326566 0.874808 0.075967
Si Si5 0.179377 0.196808 0.029491
O O1 0.341211 0.944314 0.428962
O O2 0.194283 0.850572 0.627340
O O3 0.288265 0.886794 0.740321
O O4 0.500000 0.853736 0.250000
O O5 0.205747 0.883078 0.128748
O O6 0.000000 0.902661 0.250000
O O7 0.202905 0.980404 0.991874
O O8 0.697561 0.071705 0.789942
O O9 0.500000 0.000000 0.000000
O O10 0.282018 0.820343 0.234750
O O11 0.500000 0.869104 0.750000
O O12 0.000000 0.205247 0.250000
O O13 0.250000 0.250000 0.000000
#
# Coordination Sequence:
#
# PCOD8151604 Si02
#       5
#     8   8   8   8   8
#     4  11  22  40  66  90 128 177 219 262 329 389
#     4  12  24  36  59  98 136 169 219 271 319 376
#     4  11  21  37  62  93 135 183 215 253 309 392
#     4  11  23  42  68  95 131 172 222 264 326 394
#     4  11  25  47  70  92 125 166 220 279 342 393
#
# _framework density 20.776427999999999
#
# number of rings (size 3 to 8) (size 9 to 14) (size 15 to 20)
#    0.000    0.800    4.000    4.200    0.000    6.400 
#    0.000    5.000    0.000    0.000    0.000    0.000 
#    0.000    0.000    0.000    0.000    0.000    0.000 
#
# Total GULP energy -247998.518171 kJ/mol
# GULP energy per Si atom -12399.925909 kJ/mol
# Density = 2.072914 g / cm^3
# Si number density = 20.776428 Si / 1000 Ang^3
#
#
#
# Elastic Constant Matrix: (Units=GPa)
#
#
# Indices 1 2 3 4 5 6 
#
# 1 161.1573 57.9845 53.9956 0.0000 0.3268 0.0000
# 2 57.9845 104.2661 45.8956 0.0000 6.2983 0.0000
# 3 53.9956 45.8956 89.9410 0.0001 10.1252 -0.0002
# 4 0.0000 0.0000 0.0001 26.1134 -0.0001 3.2164
# 5 0.3268 6.2983 10.1252 -0.0001 48.6727 0.0001
# 6 0.0000 0.0000 -0.0002 3.2164 0.0001 42.3087
#
#
#
# Elastic Compliance Matrix: (Units=1/GPa)
#
#
# Indices 1 2 3 4 5 6 
#
# 1 0.008585 -0.003247 -0.003623 0.000000 0.001116 0.000000
# 2 -0.003247 0.013601 -0.004911 0.000000 -0.000717 0.000000
# 3 -0.003623 -0.004911 0.016102 0.000000 -0.002690 0.000000
# 4 0.000000 0.000000 0.000000 0.038656 0.000000 -0.002939
# 5 0.001116 -0.000717 -0.002690 0.000000 0.021190 0.000000
# 6 0.000000 0.000000 0.000000 -0.002939 0.000000 0.023859
#
#
# Mechanical properties :
#
#
# Convention : Reuss Voigt Hill
#
# Bulk Modulus (GPa) = 67.89955 74.56844 71.23400
# Shear Modulus (GPa) = 33.23060 36.58488 34.90774
#
# Velocity S-wave (km/s) = 4.00364 4.20084 4.10342
# Velocity P-wave (km/s) = 7.35691 7.71351 7.53732
#
# Compressibility (1/GPa) = 0.01472764
#
# Stress axis : x y z
#
# Youngs Moduli (GPa) = 116.48353 73.52175 62.10477
#
# Poissons Ratio (x) = 0.23873 0.22498
# Poissons Ratio (y) = 0.37823 0.30497
# Poissons Ratio (z) = 0.42198 0.36103
#
# Static dielectric constant tensor:
#      x y z
#    x 4.064580 0.000000 0.166600 
#    y 0.000000 4.155560 0.000000 
#    z 0.166600 0.000000 3.868610 
# 
# 
# High freq. dielectric constant tensor:
#      x y z
#    x 1.838670 0.000000 0.007290 
#    y 0.000000 1.792460 0.000000 
#    z 0.007290 0.000000 1.813110 
# 
# From -- ./inp_files/51650.got.cif
#   From: 2010.06.25/outbox.cif.g09.slc.cpg/sg15_26_cif.got.tgz:51650.got - 2010.06.28 07:06:18.
