data_PCOD8151828
_publ_section_title
;
Structure prediction by ZEFSAII (Michael W. Deem and Ramdas Pophale) SiO2 
 PCOD8151828
Probable space group: C 2/C
;
_chemical_formula_sum "Si O2"
_cell_formula_units_Z 56
_cell_length_a 10.995764
_cell_length_b 20.572600
_cell_length_c 12.333261
_cell_angle_alpha 90.000000
_cell_angle_beta 92.586733
_cell_angle_gamma 90.000000
_cell_volume 2787.082107
_symmetry_space_group_name_H-M "C 2/C"
_symmetry_group_IT_number 15
_symmetry_cell_setting 'monoclinic'
loop_
_space_group_symop_operation_xyz
x,y,z
-x,y,1/2-z
-x,-y,-z
x,-y,1/2+z
1/2+x,1/2+y,z
1/2-x,1/2+y,1/2-z
1/2-x,1/2-y,-z
1/2+x,1/2-y,1/2+z
loop_
_atom_site_type_symbol
_atom_site_label
_atom_site_fract_x
_atom_site_fract_y
_atom_site_fract_z
Si Si1 0.643009 0.835194 0.748579
Si Si2 0.246713 0.063964 0.079321
Si Si3 0.653635 0.925408 0.368456
Si Si4 0.877838 0.395332 0.371473
Si Si5 0.261773 0.325925 0.527207
Si Si6 0.306649 0.248331 0.883662
Si Si7 0.518318 0.366745 0.626435
O O1 0.500000 0.829371 0.750000
O O2 0.688418 0.896228 0.821494
O O3 0.677152 0.845448 0.624945
O O4 0.701009 0.767714 0.794031
O O5 0.100724 0.075558 0.077765
O O6 0.280485 0.988902 0.083926
O O7 0.288731 0.088748 0.964874
O O8 0.513005 0.921760 0.399862
O O9 0.669911 0.928051 0.240144
O O10 0.718499 0.862180 0.418078
O O11 0.872782 0.318081 0.354620
O O12 0.250000 0.250000 0.500000
O O13 0.395244 0.353929 0.556717
O O14 0.412625 0.299532 0.877979
O O15 0.250000 0.250000 0.000000
O O16 0.500000 0.386599 0.750000
#
# Coordination Sequence:
#
# PCOD8151828 Si02
#       7
#     8   8   8   8   8   8   8
#     4  11  24  39  68  98 135 172 223 283 338 410
#     4  11  24  44  66  96 131 188 228 271 349 409
#     4  11  27  40  69  99 132 180 227 290 339 403
#     4  11  23  44  66  98 137 172 224 289 343 400
#     4  12  25  43  66 103 135 171 234 283 346 413
#     4  11  21  41  66  98 130 178 222 269 355 396
#     4  11  23  43  70  95 139 187 223 278 347 426
#
# _framework density 20.092697000000001
#
# number of rings (size 3 to 8) (size 9 to 14) (size 15 to 20)
#    0.000    0.857    5.714    3.000    8.000    0.571 
#    0.000    0.714    0.000    0.000    0.000    0.000 
#    0.000    0.000    0.000    0.000    0.000    0.000 
#
# Total GULP energy -347202.270667 kJ/mol
# GULP energy per Si atom -12400.081095 kJ/mol
# Density = 2.004697 g / cm^3
# Si number density = 20.092697 Si / 1000 Ang^3
#
#
#
# Elastic Constant Matrix: (Units=GPa)
#
#
# Indices 1 2 3 4 5 6 
#
# 1 152.9569 43.6283 50.7545 0.0000 -1.2988 0.0000
# 2 43.6283 121.8028 19.3525 0.0000 1.2592 0.0000
# 3 50.7545 19.3525 92.4875 0.0000 -5.5187 0.0000
# 4 0.0000 0.0000 0.0000 18.8947 0.0000 3.0299
# 5 -1.2988 1.2592 -5.5187 0.0000 39.7130 0.0000
# 6 0.0000 0.0000 0.0000 3.0299 0.0000 44.9081
#
#
#
# Elastic Compliance Matrix: (Units=1/GPa)
#
#
# Indices 1 2 3 4 5 6 
#
# 1 0.008634 -0.002415 -0.004246 0.000000 -0.000231 0.000000
# 2 -0.002415 0.009179 -0.000622 0.000000 -0.000457 0.000000
# 3 -0.004246 -0.000622 0.013377 0.000000 0.001740 0.000000
# 4 0.000000 0.000000 0.000000 0.053504 0.000000 -0.003610
# 5 -0.000231 -0.000457 0.001740 0.000000 0.025429 0.000000
# 6 0.000000 0.000000 0.000000 -0.003610 0.000000 0.022511
#
#
# Mechanical properties :
#
#
# Convention : Reuss Voigt Hill
#
# Bulk Modulus (GPa) = 60.16520 66.07976 63.12248
# Shear Modulus (GPa) = 32.73492 37.60396 35.16944
#
# Velocity S-wave (km/s) = 4.04071 4.33080 4.18827
# Velocity P-wave (km/s) = 7.19573 7.61358 7.40761
#
# Compressibility (1/GPa) = 0.01662090
#
# Stress axis : x y z
#
# Youngs Moduli (GPa) = 115.82335 108.94691 74.75747
#
# Poissons Ratio (x) = 0.26316 0.31745
# Poissons Ratio (y) = 0.27977 0.04652
# Poissons Ratio (z) = 0.49183 0.06780
#
# Static dielectric constant tensor:
#      x y z
#    x 3.928460 0.000000 -0.018380 
#    y 0.000000 3.798410 0.000000 
#    z -0.018380 0.000000 3.839570 
# 
# 
# High freq. dielectric constant tensor:
#      x y z
#    x 1.791130 0.000000 -0.006470 
#    y 0.000000 1.782820 0.000000 
#    z -0.006470 0.000000 1.797910 
# 
# From -- ./inp_files/88953.got.cif
#   From: 2010.06.25/outbox.cif.g09.slc.cpg/sg15_45_cif.got.tgz:88953.got - 2010.06.28 07:06:18.
