data_PCOD8151529
_publ_section_title
;
Structure prediction by ZEFSAII (Michael W. Deem and Ramdas Pophale) SiO2 
 PCOD8151529
Probable space group: C 2/C
;
_chemical_formula_sum "Si O2"
_cell_formula_units_Z 40
_cell_length_a 18.709935
_cell_length_b 20.465187
_cell_length_c 8.931209
_cell_angle_alpha 90.000000
_cell_angle_beta 141.930574
_cell_angle_gamma 90.000000
_cell_volume 2108.690995
_symmetry_space_group_name_H-M "C 2/C"
_symmetry_group_IT_number 15
_symmetry_cell_setting 'monoclinic'
loop_
_space_group_symop_operation_xyz
x,y,z
-x,y,1/2-z
-x,-y,-z
x,-y,1/2+z
1/2+x,1/2+y,z
1/2-x,1/2+y,1/2-z
1/2-x,1/2-y,-z
1/2+x,1/2-y,1/2+z
loop_
_atom_site_type_symbol
_atom_site_label
_atom_site_fract_x
_atom_site_fract_y
_atom_site_fract_z
Si Si1 0.684243 0.335673 0.753913
Si Si2 0.833771 0.162919 0.626721
Si Si3 0.080243 0.714770 0.755817
Si Si4 0.417688 0.807372 0.755334
Si Si5 0.491282 0.429656 0.913176
O O1 0.653711 0.346998 0.530386
O O2 0.628543 0.268482 0.720759
O O3 0.633651 0.397488 0.758975
O O4 0.821369 0.329994 0.006543
O O5 0.700417 0.151676 0.459731
O O6 0.879150 0.234593 0.740337
O O7 0.907687 0.112704 0.844946
O O8 0.000000 0.749052 0.750000
O O9 0.996244 0.666483 0.522524
O O10 0.500000 0.810664 0.750000
O O11 0.500000 0.434745 0.750000
O O12 0.500000 0.500000 0.000000
#
# Coordination Sequence:
#
# PCOD8151529 Si02
#       5
#     8   8   8   8   8
#     4  11  22  36  59  86 124 156 198 242 290 352
#     4  11  22  37  58  87 123 158 196 243 294 346
#     4  11  21  35  56  92 125 159 191 237 300 352
#     4  11  21  34  57  88 128 158 190 238 298 356
#     4  12  26  43  64  85 115 155 203 246 290 346
#
# _framework density 18.969114000000001
#
# number of rings (size 3 to 8) (size 9 to 14) (size 15 to 20)
#    0.000    0.800    6.000    2.400    2.800    0.000 
#    0.000    0.000    0.000    2.400    0.000    0.000 
#    0.000    0.000    0.000    0.000    0.000    0.000 
#
# Total GULP energy -247906.352378 kJ/mol
# GULP energy per Si atom -12395.317619 kJ/mol
# Density = 1.892594 g / cm^3
# Si number density = 18.969114 Si / 1000 Ang^3
#
#
#
# Elastic Constant Matrix: (Units=GPa)
#
#
# Indices 1 2 3 4 5 6 
#
# 1 136.8486 32.8195 73.6406 0.0000 3.2840 0.0000
# 2 32.8195 77.7620 40.5601 0.0000 -0.8735 0.0000
# 3 73.6406 40.5601 152.9684 0.0000 -9.7417 0.0000
# 4 0.0000 0.0000 0.0000 23.4234 0.0000 -4.9981
# 5 3.2840 -0.8735 -9.7417 0.0000 39.9261 0.0000
# 6 0.0000 0.0000 0.0000 -4.9981 0.0000 19.7355
#
#
#
# Elastic Compliance Matrix: (Units=1/GPa)
#
#
# Indices 1 2 3 4 5 6 
#
# 1 0.010280 -0.001988 -0.004549 0.000000 -0.001999 0.000000
# 2 -0.001988 0.015325 -0.003123 0.000000 -0.000263 0.000000
# 3 -0.004549 -0.003123 0.009726 0.000000 0.002679 0.000000
# 4 0.000000 0.000000 0.000000 0.045131 0.000000 0.011430
# 5 -0.001999 -0.000263 0.002679 0.000000 0.025859 0.000000
# 6 0.000000 0.000000 0.000000 0.011430 0.000000 0.053565
#
#
# Mechanical properties :
#
#
# Convention : Reuss Voigt Hill
#
# Bulk Modulus (GPa) = 62.46056 73.51329 67.98692
# Shear Modulus (GPa) = 27.09398 31.32091 29.20744
#
# Velocity S-wave (km/s) = 3.78341 4.06785 3.92821
# Velocity P-wave (km/s) = 7.21697 7.80394 7.51619
#
# Compressibility (1/GPa) = 0.01601010
#
# Stress axis : x y z
#
# Youngs Moduli (GPa) = 97.27538 65.25316 102.81822
#
# Poissons Ratio (x) = 0.12975 0.46772
# Poissons Ratio (y) = 0.19343 0.32110
# Poissons Ratio (z) = 0.44251 0.20378
#
# Static dielectric constant tensor:
#      x y z
#    x 3.770060 0.000000 0.135310 
#    y 0.000000 3.129310 0.000000 
#    z 0.135310 0.000000 4.099590 
# 
# 
# High freq. dielectric constant tensor:
#      x y z
#    x 1.760740 0.000000 -0.001610 
#    y 0.000000 1.669030 0.000000 
#    z -0.001610 0.000000 1.770260 
# 
# From -- ./inp_files/29340.got.cif
#   From: 2010.06.25/outbox.cif.g09.slc.cpg/sg15_15_cif.got.tgz:29340.got - 2010.06.28 07:06:18.
