data_PCOD8151283
_publ_section_title
;
Structure prediction by ZEFSAII (Michael W. Deem and Ramdas Pophale) SiO2 
 PCOD8151283
Probable space group: C 2/C
;
_chemical_formula_sum "Si O2"
_cell_formula_units_Z 52
_cell_length_a 29.688092
_cell_length_b 19.364102
_cell_length_c 9.411445
_cell_angle_alpha 90.000000
_cell_angle_beta 29.207765
_cell_angle_gamma 90.000000
_cell_volume 2640.195959
_symmetry_space_group_name_H-M "C 2/C"
_symmetry_group_IT_number 15
_symmetry_cell_setting 'monoclinic'
loop_
_space_group_symop_operation_xyz
x,y,z
-x,y,1/2-z
-x,-y,-z
x,-y,1/2+z
1/2+x,1/2+y,z
1/2-x,1/2+y,1/2-z
1/2-x,1/2-y,-z
1/2+x,1/2-y,1/2+z
loop_
_atom_site_type_symbol
_atom_site_label
_atom_site_fract_x
_atom_site_fract_y
_atom_site_fract_z
Si Si1 0.073025 0.253557 0.724970
Si Si2 0.231060 0.662677 0.630363
Si Si3 0.856143 0.955858 0.819791
Si Si4 0.870314 0.275433 0.326223
Si Si5 0.850387 0.229029 0.683432
Si Si6 0.606651 0.575750 0.975617
Si Si7 0.500000 0.365998 0.250000
O O1 0.152423 0.305401 0.450959
O O2 0.082578 0.239456 0.867313
O O3 0.071245 0.180232 0.648135
O O4 0.971597 0.286219 0.980052
O O5 0.256302 0.582777 0.585685
O O6 0.196821 0.667537 0.560211
O O7 0.327746 0.702472 0.390638
O O8 0.939222 0.914822 0.516814
O O9 0.847319 0.031853 0.777444
O O10 0.879369 0.967534 0.919775
O O11 0.878089 0.278491 0.475128
O O12 0.845144 0.150016 0.646915
O O13 0.750000 0.250000 0.000000
O O14 0.500000 0.590549 0.250000
#
# Coordination Sequence:
#
# PCOD8151283 Si02
#       7
#     8   8   8   8   8   8   4
#     4  12  21  36  64  90 125 163 202 257 308 358
#     4  11  21  39  59  90 124 156 212 250 304 367
#     4  12  25  39  58  86 126 166 201 249 297 385
#     4  11  20  38  58  90 123 158 200 253 308 358
#     4  12  24  38  60  93 131 159 200 260 305 363
#     4  12  25  41  57  88 123 168 208 240 311 379
#     4  12  20  36  62  86 122 166 204 236 304 362
#
# _framework density 19.695508
#
# number of rings (size 3 to 8) (size 9 to 14) (size 15 to 20)
#    0.000    0.308    6.923    3.692    2.154    0.000 
#    0.000    0.000    0.000    0.000    0.000   21.538 
#    0.000    0.000    0.000    0.000    0.000    0.000 
#
# Total GULP energy -322329.682157 kJ/mol
# GULP energy per Si atom -12397.295468 kJ/mol
# Density = 1.965068 g / cm^3
# Si number density = 19.695508 Si / 1000 Ang^3
#
#
#
# Elastic Constant Matrix: (Units=GPa)
#
#
# Indices 1 2 3 4 5 6 
#
# 1 121.7452 20.1429 25.6942 0.0000 16.8871 0.0000
# 2 20.1429 48.3728 31.2059 0.0000 0.3922 0.0000
# 3 25.6942 31.2059 96.9171 0.0000 -2.4995 0.0000
# 4 0.0000 0.0000 0.0000 -35.7009 0.0000 41.7798
# 5 16.8871 0.3922 -2.4995 0.0000 37.7162 0.0000
# 6 0.0000 0.0000 0.0000 41.7798 0.0000 0.7496
#
#
#
# Elastic Compliance Matrix: (Units=1/GPa)
#
#
# Indices 1 2 3 4 5 6 
#
# 1 0.009670 -0.002857 -0.001758 0.000000 -0.004416 0.000000
# 2 -0.002857 0.026963 -0.007912 0.000000 0.000474 0.000000
# 3 -0.001758 -0.007912 0.013377 0.000000 0.001756 0.000000
# 4 0.000000 0.000000 0.000000 -0.000423 0.000000 0.023574
# 5 -0.004416 0.000474 0.001756 0.000000 0.028603 0.000000
# 6 0.000000 0.000000 0.000000 0.023574 0.000000 0.020144
#
#
# Mechanical properties :
#
#
# Convention : Reuss Voigt Hill
#
# Bulk Modulus (GPa) = 40.06976 46.79124 43.43050
# Shear Modulus (GPa) = 37.96355 13.21911 25.59133
#
# Velocity S-wave (km/s) = 4.39512 2.59351 3.60856
# Velocity P-wave (km/s) = 6.79300 5.72515 6.28181
#
# Compressibility (1/GPa) = 0.02495648
#
# Stress axis : x y z
#
# Youngs Moduli (GPa) = 103.41115 37.08822 74.75575
#
# Poissons Ratio (x) = 0.10596 0.13140
# Poissons Ratio (y) = 0.29545 0.59146
# Poissons Ratio (z) = 0.18176 0.29344
#
# Static dielectric constant tensor:
#      x y z
#    x 5.652530 0.000000 1.221470 
#    y 0.000000 3.328830 0.000000 
#    z 1.221470 0.000000 4.373640 
# 
# 
# High freq. dielectric constant tensor:
#      x y z
#    x 1.793060 0.000000 0.010600 
#    y 0.000000 1.721740 0.000000 
#    z 0.010600 0.000000 1.770720 
# 
# From -- ./inp_files/70803.got.cif
#   From: 2010.06.25/outbox.cif.g09.slc.cpg/sg15_36_cif.got.tgz:70803.got - 2010.06.28 07:06:18.
