data_PCOD8151855
_publ_section_title
;
Structure prediction by ZEFSAII (Michael W. Deem and Ramdas Pophale) SiO2 
 PCOD8151855
Probable space group: C 2/C
;
_chemical_formula_sum "Si O2"
_cell_formula_units_Z 60
_cell_length_a 24.316325
_cell_length_b 16.267659
_cell_length_c 18.634688
_cell_angle_alpha 90.000000
_cell_angle_beta 21.999948
_cell_angle_gamma 90.000000
_cell_volume 2761.337983
_symmetry_space_group_name_H-M "C 2/C"
_symmetry_group_IT_number 15
_symmetry_cell_setting 'monoclinic'
loop_
_space_group_symop_operation_xyz
x,y,z
-x,y,1/2-z
-x,-y,-z
x,-y,1/2+z
1/2+x,1/2+y,z
1/2-x,1/2+y,1/2-z
1/2-x,1/2-y,-z
1/2+x,1/2-y,1/2+z
loop_
_atom_site_type_symbol
_atom_site_label
_atom_site_fract_x
_atom_site_fract_y
_atom_site_fract_z
Si Si1 0.908616 0.540847 0.288792
Si Si2 0.257309 0.792034 0.130505
Si Si3 0.892765 0.602138 0.703347
Si Si4 0.000000 0.794004 0.250000
Si Si5 0.547850 0.578090 0.112077
Si Si6 0.881040 0.925183 0.288683
Si Si7 0.501904 0.832436 0.931115
Si Si8 0.917121 0.749489 0.777326
O O1 0.954022 0.470328 0.178279
O O2 0.736182 0.535771 0.514259
O O3 0.000000 0.529613 0.250000
O O4 0.941711 0.626802 0.210634
O O5 0.202540 0.885206 0.178509
O O6 0.118291 0.735252 0.313594
O O7 0.359182 0.761498 0.940858
O O8 0.345892 0.792004 0.098412
O O9 0.978432 0.603047 0.524005
O O10 0.937477 0.686129 0.688453
O O11 0.720772 0.591009 0.895953
O O12 0.968054 0.850018 0.219617
O O13 0.500000 0.555288 0.250000
O O14 0.491763 0.499641 0.132426
O O15 0.468171 0.662230 0.185040
O O16 0.000000 0.723932 0.750000
O O17 0.750000 0.750000 0.000000
#
# Coordination Sequence:
#
# PCOD8151855 Si02
#       8
#     8   8   8   4   8   8   8   8
#     4  12  23  44  71 102 135 181 240 294 348 422
#     4  12  25  43  67 105 141 190 228 288 344 430
#     4  12  26  45  69  99 145 182 230 295 360 417
#     4  12  20  38  72 104 136 178 244 292 336 406
#     4  11  22  41  67  99 130 178 237 292 341 408
#     4  12  21  40  72 101 133 176 243 295 342 404
#     4  12  28  44  67 104 152 183 229 285 368 423
#     4  11  21  41  69  99 128 175 241 294 338 407
#
# _framework density 21.728597000000001
#
# number of rings (size 3 to 8) (size 9 to 14) (size 15 to 20)
#    0.000    0.267    8.667    2.000    1.867    0.000 
#    0.000    0.667    0.000    0.000    0.000    0.000 
#    0.000    0.000    0.000    0.000    0.000    0.000 
#
# Total GULP energy -372037.514264 kJ/mol
# GULP energy per Si atom -12401.250475 kJ/mol
# Density = 2.167914 g / cm^3
# Si number density = 21.728597 Si / 1000 Ang^3
#
#
#
# Elastic Constant Matrix: (Units=GPa)
#
#
# Indices 1 2 3 4 5 6 
#
# 1 98.7210 39.2661 46.4163 -0.0039 -12.3441 0.0022
# 2 39.2661 115.3775 34.3479 -0.0029 -15.6569 0.0019
# 3 46.4163 34.3479 83.4379 -0.0062 -10.9316 0.0038
# 4 -0.0039 -0.0029 -0.0062 34.0430 0.0038 -6.3509
# 5 -12.3441 -15.6569 -10.9316 0.0038 34.3398 -0.0021
# 6 0.0022 0.0019 0.0038 -6.3509 -0.0021 34.4338
#
#
#
# Elastic Compliance Matrix: (Units=1/GPa)
#
#
# Indices 1 2 3 4 5 6 
#
# 1 0.014626 -0.002707 -0.006778 0.000000 0.001866 0.000000
# 2 -0.002707 0.010762 -0.002514 0.000000 0.003134 0.000000
# 3 -0.006778 -0.002514 0.017031 0.000002 0.001839 -0.000001
# 4 0.000000 0.000000 0.000002 0.030421 -0.000003 0.005611
# 5 0.001866 0.003134 0.001839 -0.000003 0.031806 0.000001
# 6 0.000000 0.000000 -0.000001 0.005611 0.000001 0.030076
#
#
# Mechanical properties :
#
#
# Convention : Reuss Voigt Hill
#
# Bulk Modulus (GPa) = 54.28154 59.73300 57.00727
# Shear Modulus (GPa) = 30.32867 32.39706 31.36287
#
# Velocity S-wave (km/s) = 3.74009 3.86552 3.80332
# Velocity P-wave (km/s) = 6.60960 6.89008 6.75130
#
# Compressibility (1/GPa) = 0.01842247
#
# Stress axis : x y z
#
# Youngs Moduli (GPa) = 68.37021 92.91939 58.71550
#
# Poissons Ratio (x) = 0.25151 0.39796
# Poissons Ratio (y) = 0.18506 0.14761
# Poissons Ratio (z) = 0.46340 0.23360
#
# Static dielectric constant tensor:
#      x y z
#    x 3.770650 -0.000010 -0.264510 
#    y -0.000010 3.355150 0.000010 
#    z -0.264510 0.000010 3.880990 
# 
# 
# High freq. dielectric constant tensor:
#      x y z
#    x 1.842140 0.000000 -0.024690 
#    y 0.000000 1.863280 0.000000 
#    z -0.024690 0.000000 1.849250 
# 
# From -- ./inp_files/257847.got.cif
#   From: 2010.06.25/outbox.cif.g09.slc.cpg/sg15_129_cif.got.tgz:257847.got - 2010.06.28 07:06:18.
