data_PCOD8151136
_publ_section_title
;
Structure prediction by ZEFSAII (Michael W. Deem and Ramdas Pophale) SiO2 
 PCOD8151136
Probable space group: C 2/C
;
_chemical_formula_sum "Si O2"
_cell_formula_units_Z 48
_cell_length_a 31.436462
_cell_length_b 8.321398
_cell_length_c 17.827520
_cell_angle_alpha 90.000000
_cell_angle_beta 147.893457
_cell_angle_gamma 90.000000
_cell_volume 2478.679241
_symmetry_space_group_name_H-M "C 2/C"
_symmetry_group_IT_number 15
_symmetry_cell_setting 'monoclinic'
loop_
_space_group_symop_operation_xyz
x,y,z
-x,y,1/2-z
-x,-y,-z
x,-y,1/2+z
1/2+x,1/2+y,z
1/2-x,1/2+y,1/2-z
1/2-x,1/2-y,-z
1/2+x,1/2-y,1/2+z
loop_
_atom_site_type_symbol
_atom_site_label
_atom_site_fract_x
_atom_site_fract_y
_atom_site_fract_z
Si Si1 0.189276 0.160838 0.965771
Si Si2 0.229862 0.477512 0.289442
Si Si3 0.326687 0.650851 0.148633
Si Si4 0.576326 0.064931 0.658503
Si Si5 0.784127 0.630411 0.390286
Si Si6 0.582552 0.946140 0.829665
O O1 0.119145 0.270334 0.893652
O O2 0.153186 0.000068 0.874066
O O3 0.250000 0.250000 0.000000
O O4 0.231827 0.121306 0.107215
O O5 0.146038 0.448067 0.203219
O O6 0.215010 0.524624 0.182327
O O7 0.285789 0.319793 0.374803
O O8 0.409130 0.753325 0.285656
O O9 0.295717 0.584344 0.182474
O O10 0.250000 0.750000 0.000000
O O11 0.500000 0.000000 0.500000
O O12 0.576706 0.953484 0.731381
O O13 0.862080 0.588842 0.555995
O O14 0.500000 0.956784 0.750000
#
# Coordination Sequence:
#
# PCOD8151136 Si02
#       6
#     8   8   8   8   8   8
#     4  12  20  40  70  91 125 173 225 268 323 397
#     4  11  22  37  64  96 123 167 227 266 319 388
#     4  11  19  42  68  94 118 175 229 260 323 403
#     4  11  22  41  63  91 130 169 214 268 332 392
#     4  11  21  38  63  96 126 162 223 273 312 396
#     4  12  24  40  61  93 131 170 213 266 341 387
#
# _framework density 19.365151999999998
#
# number of rings (size 3 to 8) (size 9 to 14) (size 15 to 20)
#    0.000    0.667    8.333    2.000    0.000    1.333 
#    0.000    5.833    0.000    0.000    0.000    0.000 
#    0.000    0.000    0.000    0.000    0.000    0.000 
#
# Total GULP energy -297313.991791 kJ/mol
# GULP energy per Si atom -12388.082991 kJ/mol
# Density = 1.932108 g / cm^3
# Si number density = 19.365152 Si / 1000 Ang^3
#
#
#
# Elastic Constant Matrix: (Units=GPa)
#
#
# Indices 1 2 3 4 5 6 
#
# 1 75.3196 26.0844 27.0598 0.0000 -11.9201 0.0000
# 2 26.0844 102.6620 60.7699 0.0000 5.3188 0.0000
# 3 27.0598 60.7699 121.5817 0.0000 -10.7511 0.0000
# 4 0.0000 0.0000 0.0000 50.2338 0.0000 -12.9812
# 5 -11.9201 5.3188 -10.7511 0.0000 40.4295 0.0000
# 6 0.0000 0.0000 0.0000 -12.9812 0.0000 43.7711
#
#
#
# Elastic Compliance Matrix: (Units=1/GPa)
#
#
# Indices 1 2 3 4 5 6 
#
# 1 0.015700 -0.003425 -0.001365 0.000000 0.004717 0.000000
# 2 -0.003425 0.015158 -0.007250 0.000000 -0.004932 0.000000
# 3 -0.001365 -0.007250 0.012495 0.000000 0.003874 0.000000
# 4 0.000000 0.000000 0.000000 0.021559 0.000000 0.006394
# 5 0.004717 -0.004932 0.003874 0.000000 0.027804 0.000000
# 6 0.000000 0.000000 0.000000 0.006394 0.000000 0.024742
#
#
# Mechanical properties :
#
#
# Convention : Reuss Voigt Hill
#
# Bulk Modulus (GPa) = 51.88893 58.59903 55.24398
# Shear Modulus (GPa) = 33.79190 39.26350 36.52770
#
# Velocity S-wave (km/s) = 4.18183 4.50770 4.34782
# Velocity P-wave (km/s) = 7.08309 7.57748 7.33445
#
# Compressibility (1/GPa) = 0.01927193
#
# Stress axis : x y z
#
# Youngs Moduli (GPa) = 63.69472 65.97044 80.03052
#
# Poissons Ratio (x) = 0.22597 0.10925
# Poissons Ratio (y) = 0.21818 0.58025
# Poissons Ratio (z) = 0.08695 0.47831
#
# Static dielectric constant tensor:
#      x y z
#    x 3.741810 0.000000 -0.228570 
#    y 0.000000 3.835240 0.000000 
#    z -0.228570 0.000000 3.612070 
# 
# 
# High freq. dielectric constant tensor:
#      x y z
#    x 1.768550 0.000000 -0.026530 
#    y 0.000000 1.759530 0.000000 
#    z -0.026530 0.000000 1.733380 
# 
# From -- ./inp_files/208938.got.cif
#   From: 2010.06.25/outbox.cif.g09.slc.cpg/sg15_105_cif.got.tgz:208938.got - 2010.06.28 07:06:18.
