data_PCOD8151866
_publ_section_title
;
Structure prediction by ZEFSAII (Michael W. Deem and Ramdas Pophale) SiO2 
 PCOD8151866
Probable space group: C 2/C
;
_chemical_formula_sum "Si O2"
_cell_formula_units_Z 44
_cell_length_a 16.621121
_cell_length_b 14.430777
_cell_length_c 11.504969
_cell_angle_alpha 90.000000
_cell_angle_beta 48.194889
_cell_angle_gamma 90.000000
_cell_volume 2057.001007
_symmetry_space_group_name_H-M "C 2/C"
_symmetry_group_IT_number 15
_symmetry_cell_setting 'monoclinic'
loop_
_space_group_symop_operation_xyz
x,y,z
-x,y,1/2-z
-x,-y,-z
x,-y,1/2+z
1/2+x,1/2+y,z
1/2-x,1/2+y,1/2-z
1/2-x,1/2-y,-z
1/2+x,1/2-y,1/2+z
loop_
_atom_site_type_symbol
_atom_site_label
_atom_site_fract_x
_atom_site_fract_y
_atom_site_fract_z
Si Si1 0.613620 0.571383 0.139642
Si Si2 0.000000 0.586786 0.250000
Si Si3 0.400081 0.182516 0.132139
Si Si4 0.429527 0.236581 0.712537
Si Si5 0.227327 0.851591 0.320304
Si Si6 0.817653 0.492410 0.570774
O O1 0.500000 0.512810 0.250000
O O2 0.590717 0.654650 0.251454
O O3 0.716141 0.513178 0.081528
O O4 0.631194 0.607929 0.991433
O O5 0.073064 0.650616 0.263224
O O6 0.924310 0.520340 0.398566
O O7 0.318474 0.269661 0.217398
O O8 0.341112 0.101733 0.116816
O O9 0.511343 0.215035 0.965563
O O10 0.500000 0.194947 0.750000
O O11 0.314137 0.187302 0.828368
O O12 0.288038 0.928441 0.189129
#
# Coordination Sequence:
#
# PCOD8151866 Si02
#       6
#     8   4   8   8   8   8
#     4  11  23  43  70 108 134 182 238 290 348 414
#     4  12  28  46  66 108 144 186 236 282 358 410
#     4  12  25  46  73 101 143 184 232 295 341 421
#     4  11  21  41  73 102 129 177 236 289 340 402
#     4  12  24  45  70 104 139 185 236 285 356 411
#     4  12  27  44  72 105 143 185 235 293 345 417
#
# _framework density 21.390364999999999
#
# number of rings (size 3 to 8) (size 9 to 14) (size 15 to 20)
#    0.000    0.364    7.273    3.273    3.818    1.455 
#    1.636    0.000    0.000    0.000    0.000    0.000 
#    0.000    0.000    0.000    0.000    0.000    0.000 
#
# Total GULP energy -272837.730255 kJ/mol
# GULP energy per Si atom -12401.715012 kJ/mol
# Density = 2.134168 g / cm^3
# Si number density = 21.390365 Si / 1000 Ang^3
#
#
#
# Elastic Constant Matrix: (Units=GPa)
#
#
# Indices 1 2 3 4 5 6 
#
# 1 117.1673 14.6949 15.9995 0.0000 -9.5350 0.0000
# 2 14.6949 49.9153 26.8044 0.0000 -4.3028 0.0000
# 3 15.9995 26.8044 91.9345 0.0000 -14.9399 0.0000
# 4 0.0000 0.0000 0.0000 -1.8426 0.0000 -22.2573
# 5 -9.5350 -4.3028 -14.9399 0.0000 38.5464 0.0000
# 6 0.0000 0.0000 0.0000 -22.2573 0.0000 25.8365
#
#
#
# Elastic Compliance Matrix: (Units=1/GPa)
#
#
# Indices 1 2 3 4 5 6 
#
# 1 0.009037 -0.002155 -0.000662 0.000000 0.001738 0.000000
# 2 -0.002155 0.024267 -0.006773 0.000000 -0.000449 0.000000
# 3 -0.000662 -0.006773 0.013679 0.000000 0.004382 0.000000
# 4 0.000000 0.000000 0.000000 -0.047582 0.000000 -0.040990
# 5 0.001738 -0.000449 0.004382 0.000000 0.028021 0.000000
# 6 0.000000 0.000000 0.000000 -0.040990 0.000000 0.003393
#
#
# Mechanical properties :
#
#
# Convention : Reuss Voigt Hill
#
# Bulk Modulus (GPa) = 35.96771 41.55720 38.76245
# Shear Modulus (GPa) = 84.36815 25.94263 55.15539
#
# Velocity S-wave (km/s) = 6.28711 3.48633 5.08342
# Velocity P-wave (km/s) = 8.33997 5.97296 7.25366
#
# Compressibility (1/GPa) = 0.02780272
#
# Stress axis : x y z
#
# Youngs Moduli (GPa) = 110.65689 41.20840 73.10260
#
# Poissons Ratio (x) = 0.08881 0.04838
# Poissons Ratio (y) = 0.23849 0.49514
# Poissons Ratio (z) = 0.07324 0.27911
#
# Static dielectric constant tensor:
#      x y z
#    x 4.162960 0.000000 -0.295190 
#    y 0.000000 3.770340 0.000000 
#    z -0.295190 0.000000 3.941150 
# 
# 
# High freq. dielectric constant tensor:
#      x y z
#    x 1.849080 0.000000 -0.019780 
#    y 0.000000 1.825410 0.000000 
#    z -0.019780 0.000000 1.844780 
# 
# From -- ./inp_files/105185.got.cif
#   From: 2010.06.25/outbox.cif.g09.slc.cpg/sg15_53_cif.got.tgz:105185.got - 2010.06.28 07:06:18.
