data_PCOD8151347
_publ_section_title
;
Structure prediction by ZEFSAII (Michael W. Deem and Ramdas Pophale) SiO2 
 PCOD8151347
Probable space group: C 2/C
;
_chemical_formula_sum "Si O2"
_cell_formula_units_Z 64
_cell_length_a 15.813553
_cell_length_b 14.335414
_cell_length_c 13.757682
_cell_angle_alpha 90.000000
_cell_angle_beta 86.139677
_cell_angle_gamma 90.000000
_cell_volume 3111.705532
_symmetry_space_group_name_H-M "C 2/C"
_symmetry_group_IT_number 15
_symmetry_cell_setting 'monoclinic'
loop_
_space_group_symop_operation_xyz
x,y,z
-x,y,1/2-z
-x,-y,-z
x,-y,1/2+z
1/2+x,1/2+y,z
1/2-x,1/2+y,1/2-z
1/2-x,1/2-y,-z
1/2+x,1/2-y,1/2+z
loop_
_atom_site_type_symbol
_atom_site_label
_atom_site_fract_x
_atom_site_fract_y
_atom_site_fract_z
Si Si1 0.284728 0.886677 0.925916
Si Si2 0.582120 0.382942 0.686737
Si Si3 0.683189 0.665144 0.860049
Si Si4 0.737959 0.145006 0.284136
Si Si5 0.627437 0.293622 0.012699
Si Si6 0.683439 0.912795 0.998986
Si Si7 0.086996 0.908244 0.201135
Si Si8 0.437212 0.747067 0.484651
O O1 0.311275 0.886984 0.809853
O O2 0.327571 0.805237 0.983821
O O3 0.323411 0.979988 0.970217
O O4 0.182957 0.868507 0.946071
O O5 0.500000 0.346082 0.750000
O O6 0.664628 0.378424 0.747421
O O7 0.570088 0.490545 0.654821
O O8 0.603268 0.317664 0.594514
O O9 0.732063 0.744260 0.796753
O O10 0.740303 0.628879 0.943290
O O11 0.656081 0.585999 0.784227
O O12 0.597640 0.710435 0.910042
O O13 0.704915 0.091033 0.382567
O O14 0.618745 0.336165 0.119728
O O15 0.537661 0.269108 0.970145
O O16 0.596430 0.854263 0.026704
O O17 0.000000 0.867878 0.250000
#
# Coordination Sequence:
#
# PCOD8151347 Si02
#       8
#     8   8   8   8   8   8   8   8
#     4  11  25  42  64  95 127 173 209 266 328 378
#     4  11  22  36  58  93 127 159 203 259 323 377
#     4  11  20  39  67  90 119 169 210 257 309 374
#     4  11  20  41  63  89 125 167 208 254 312 385
#     4  11  24  42  63  91 134 163 209 273 321 376
#     4  11  23  42  68  93 127 168 221 260 311 389
#     4  11  22  38  63  92 122 163 211 255 316 385
#     4  11  22  40  65  90 127 167 209 267 312 378
#
# _framework density 20.567499999999999
#
# number of rings (size 3 to 8) (size 9 to 14) (size 15 to 20)
#    0.000    1.000    5.000    3.000    0.000    2.000 
#    0.000    0.000    0.000    0.750    0.000    0.000 
#    0.000    0.000    0.000    0.000    0.000    0.000 
#
# Total GULP energy -396639.299961 kJ/mol
# GULP energy per Si atom -12394.978124 kJ/mol
# Density = 2.052069 g / cm^3
# Si number density = 20.567500 Si / 1000 Ang^3
#
#
#
# Elastic Constant Matrix: (Units=GPa)
#
#
# Indices 1 2 3 4 5 6 
#
# 1 69.3790 25.5616 11.6530 0.0000 -3.6373 0.0000
# 2 25.5616 123.5129 47.9706 0.0000 -9.5712 0.0000
# 3 11.6530 47.9706 101.4863 0.0000 4.5062 0.0000
# 4 0.0000 0.0000 0.0000 26.0693 0.0000 0.3157
# 5 -3.6373 -9.5712 4.5062 0.0000 27.6174 0.0000
# 6 0.0000 0.0000 0.0000 0.3157 0.0000 26.0153
#
#
#
# Elastic Compliance Matrix: (Units=1/GPa)
#
#
# Indices 1 2 3 4 5 6 
#
# 1 0.015643 -0.002984 -0.000435 0.000000 0.001097 0.000000
# 2 -0.002984 0.011003 -0.005047 0.000000 0.004244 0.000000
# 3 -0.000435 -0.005047 0.012459 0.000000 -0.003839 0.000000
# 4 0.000000 0.000000 0.000000 0.038365 0.000000 -0.000466
# 5 0.001097 0.004244 -0.003839 0.000000 0.038451 0.000000
# 6 0.000000 0.000000 0.000000 -0.000466 0.000000 0.038445
#
#
# Mechanical properties :
#
#
# Convention : Reuss Voigt Hill
#
# Bulk Modulus (GPa) = 45.09444 51.63873 48.36659
# Shear Modulus (GPa) = 27.98188 29.88660 28.93424
#
# Velocity S-wave (km/s) = 3.69248 3.81609 3.75479
# Velocity P-wave (km/s) = 6.33656 6.67669 6.50884
#
# Compressibility (1/GPa) = 0.02217568
#
# Stress axis : x y z
#
# Youngs Moduli (GPa) = 63.92474 90.88719 80.26121
#
# Poissons Ratio (x) = 0.27118 0.03488
# Poissons Ratio (y) = 0.19073 0.40504
# Poissons Ratio (z) = 0.02778 0.45867
#
# Static dielectric constant tensor:
#      x y z
#    x 3.745620 0.000000 -0.044560 
#    y 0.000000 3.688350 0.000000 
#    z -0.044560 0.000000 3.652550 
# 
# 
# High freq. dielectric constant tensor:
#      x y z
#    x 1.796570 0.000000 0.000740 
#    y 0.000000 1.799020 0.000000 
#    z 0.000740 0.000000 1.809710 
# 
# From -- ./inp_files/161333.got.cif
#   From: 2010.06.25/outbox.cif.g09.slc.cpg/sg15_81_cif.got.tgz:161333.got - 2010.06.28 07:06:18.
