data_PCOD8151963
_publ_section_title
;
Structure prediction by ZEFSAII (Michael W. Deem and Ramdas Pophale) SiO2 
 PCOD8151963
Probable space group: C 2/C
;
_chemical_formula_sum "Si O2"
_cell_formula_units_Z 60
_cell_length_a 22.993102
_cell_length_b 9.171240
_cell_length_c 13.953227
_cell_angle_alpha 90.000000
_cell_angle_beta 110.430836
_cell_angle_gamma 90.000000
_cell_volume 2757.297074
_symmetry_space_group_name_H-M "C 2/C"
_symmetry_group_IT_number 15
_symmetry_cell_setting 'monoclinic'
loop_
_space_group_symop_operation_xyz
x,y,z
-x,y,1/2-z
-x,-y,-z
x,-y,1/2+z
1/2+x,1/2+y,z
1/2-x,1/2+y,1/2-z
1/2-x,1/2-y,-z
1/2+x,1/2-y,1/2+z
loop_
_atom_site_type_symbol
_atom_site_label
_atom_site_fract_x
_atom_site_fract_y
_atom_site_fract_z
Si Si1 0.347368 0.562511 0.013696
Si Si2 0.463452 0.617476 0.540740
Si Si3 0.941191 0.583927 0.927140
Si Si4 0.397135 0.009594 0.209314
Si Si5 0.771894 0.871979 0.647841
Si Si6 0.639392 0.876818 0.504942
Si Si7 0.737159 0.959760 0.312379
Si Si8 0.500000 0.243912 0.250000
O O1 0.399070 0.440396 0.044676
O O2 0.331250 0.596894 0.115558
O O3 0.376409 0.708001 0.979522
O O4 0.287699 0.502866 0.922339
O O5 0.500000 0.500000 0.500000
O O6 0.444312 0.751381 0.462476
O O7 0.505197 0.661843 0.655979
O O8 0.936860 0.581872 0.809854
O O9 0.881305 0.492247 0.927039
O O10 0.000000 0.500000 0.000000
O O11 0.393690 0.911681 0.113385
O O12 0.326947 0.047596 0.203476
O O13 0.435960 0.153676 0.206063
O O14 0.713889 0.881958 0.540935
O O15 0.777876 0.712812 0.699593
O O16 0.765655 0.991907 0.727190
#
# Coordination Sequence:
#
# PCOD8151963 Si02
#       8
#     8   8   8   8   8   8   8   4
#     4  11  25  44  68 103 149 176 223 289 363 408
#     4  12  29  48  71 105 148 181 232 299 357 416
#     4  12  24  44  71 101 132 184 243 284 342 416
#     4  12  22  44  76  99 135 183 246 285 340 416
#     4  11  23  44  64 105 140 179 229 283 349 414
#     4  11  21  43  71  98 135 185 232 285 337 426
#     4  11  24  41  73 101 139 183 229 286 350 416
#     4  12  28  48  70 106 136 188 240 292 346 424
#
# _framework density 21.760441
#
# number of rings (size 3 to 8) (size 9 to 14) (size 15 to 20)
#    0.000    0.533    6.667    1.600    1.867    3.200 
#    0.000    2.000    0.000    0.000    0.000    0.000 
#    0.000    0.000    0.000    0.000    0.000    0.000 
#
# Total GULP energy -372049.951198 kJ/mol
# GULP energy per Si atom -12401.665040 kJ/mol
# Density = 2.171091 g / cm^3
# Si number density = 21.760441 Si / 1000 Ang^3
#
#
#
# Elastic Constant Matrix: (Units=GPa)
#
#
# Indices 1 2 3 4 5 6 
#
# 1 103.0949 61.2212 25.3446 0.0000 1.4413 0.0000
# 2 61.2212 121.9951 42.6614 0.0000 -6.9509 0.0000
# 3 25.3446 42.6614 127.1097 0.0000 -3.3804 0.0000
# 4 0.0000 0.0000 0.0000 38.6849 0.0000 -4.9219
# 5 1.4413 -6.9509 -3.3804 0.0000 31.7423 0.0000
# 6 0.0000 0.0000 0.0000 -4.9219 0.0000 40.4375
#
#
#
# Elastic Compliance Matrix: (Units=1/GPa)
#
#
# Indices 1 2 3 4 5 6 
#
# 1 0.013996 -0.006972 -0.000510 0.000000 -0.002216 0.000000
# 2 -0.006972 0.012853 -0.002848 0.000000 0.002828 0.000000
# 3 -0.000510 -0.002848 0.008934 0.000000 0.000351 0.000000
# 4 0.000000 0.000000 0.000000 0.026257 0.000000 0.003196
# 5 -0.002216 0.002828 0.000351 0.000000 0.032261 0.000000
# 6 0.000000 0.000000 0.000000 0.003196 0.000000 0.025118
#
#
# Mechanical properties :
#
#
# Convention : Reuss Voigt Hill
#
# Bulk Modulus (GPa) = 66.12299 67.85044 66.98671
# Shear Modulus (GPa) = 34.45415 37.03776 35.74596
#
# Velocity S-wave (km/s) = 3.98344 4.13009 4.05743
# Velocity P-wave (km/s) = 7.18399 7.34791 7.26642
#
# Compressibility (1/GPa) = 0.01512333
#
# Stress axis : x y z
#
# Youngs Moduli (GPa) = 71.44809 77.80317 111.92919
#
# Poissons Ratio (x) = 0.54243 0.05706
# Poissons Ratio (y) = 0.49812 0.31883
# Poissons Ratio (z) = 0.03642 0.22162
#
# Static dielectric constant tensor:
#      x y z
#    x 4.321170 0.000000 -0.198590 
#    y 0.000000 4.258750 0.000000 
#    z -0.198590 0.000000 4.007820 
# 
# 
# High freq. dielectric constant tensor:
#      x y z
#    x 1.859710 0.000000 0.000200 
#    y 0.000000 1.844880 0.000000 
#    z 0.000200 0.000000 1.868490 
# 
# From -- ./inp_files/172432.got.cif
#   From: 2010.06.25/outbox.cif.g09.slc.cpg/sg15_87_cif.got.tgz:172432.got - 2010.06.28 07:06:18.
