data_PCOD8151179
_publ_section_title
;
Structure prediction by ZEFSAII (Michael W. Deem and Ramdas Pophale) SiO2 
 PCOD8151179
Probable space group: C 2/C
;
_chemical_formula_sum "Si O2"
_cell_formula_units_Z 48
_cell_length_a 16.291358
_cell_length_b 17.176800
_cell_length_c 20.905217
_cell_angle_alpha 90.000000
_cell_angle_beta 152.477405
_cell_angle_gamma 90.000000
_cell_volume 2703.265295
_symmetry_space_group_name_H-M "C 2/C"
_symmetry_group_IT_number 15
_symmetry_cell_setting 'monoclinic'
loop_
_space_group_symop_operation_xyz
x,y,z
-x,y,1/2-z
-x,-y,-z
x,-y,1/2+z
1/2+x,1/2+y,z
1/2-x,1/2+y,1/2-z
1/2-x,1/2-y,-z
1/2+x,1/2-y,1/2+z
loop_
_atom_site_type_symbol
_atom_site_label
_atom_site_fract_x
_atom_site_fract_y
_atom_site_fract_z
Si Si1 0.901533 0.297951 0.744930
Si Si2 0.251359 0.573952 0.740070
Si Si3 0.810885 0.019288 0.152126
Si Si4 0.417870 0.146827 0.455395
Si Si5 0.987962 0.208812 0.932370
Si Si6 0.023317 0.446403 0.632577
O O1 0.963261 0.241709 0.844184
O O2 0.692677 0.292381 0.591819
O O3 0.958517 0.387854 0.795562
O O4 0.000000 0.267107 0.750000
O O5 0.316229 0.533060 0.719608
O O6 0.412350 0.621333 0.883626
O O7 0.179083 0.511275 0.741577
O O8 0.094185 0.636270 0.619633
O O9 0.753291 0.108356 0.128727
O O10 0.000000 0.020999 0.250000
O O11 0.671532 0.985166 0.004053
O O12 0.387727 0.237227 0.416151
O O13 0.453948 0.100439 0.416237
#
# Coordination Sequence:
#
# PCOD8151179 Si02
#       6
#     8   8   8   8   8   8
#     4  11  23  34  49  77 111 137 163 211 259 308
#     4   9  17  32  53  76  99 133 174 209 250 304
#     4   9  17  30  57  79  99 131 172 216 253 296
#     4   8  16  34  49  75 103 134 175 204 246 308
#     4  11  20  34  54  74 104 143 171 203 255 307
#     4   8  18  34  50  72 106 136 170 210 247 304
#
# _framework density 17.756304
#
# number of rings (size 3 to 8) (size 9 to 14) (size 15 to 20)
#    0.000    2.667    1.667    2.500    2.333    1.333 
#    0.000    0.000    0.000    5.000    0.000    0.000 
#    0.000    0.000    0.000    0.000    0.000    0.000 
#
# Total GULP energy -297459.629807 kJ/mol
# GULP energy per Si atom -12394.151242 kJ/mol
# Density = 1.771589 g / cm^3
# Si number density = 17.756304 Si / 1000 Ang^3
#
#
#
# Elastic Constant Matrix: (Units=GPa)
#
#
# Indices 1 2 3 4 5 6 
#
# 1 61.0765 20.8631 30.0090 0.0017 25.3555 0.0027
# 2 20.8631 73.5864 35.9921 0.0112 13.5944 0.0034
# 3 30.0090 35.9921 80.6886 0.0231 12.4250 -0.0031
# 4 0.0017 0.0112 0.0231 8.5760 0.0106 5.6065
# 5 25.3555 13.5944 12.4250 0.0106 26.4447 0.0007
# 6 0.0027 0.0034 -0.0031 5.6065 0.0007 13.9145
#
#
#
# Elastic Compliance Matrix: (Units=1/GPa)
#
#
# Indices 1 2 3 4 5 6 
#
# 1 0.030881 -0.000378 -0.007316 0.000068 -0.025977 -0.000034
# 2 -0.000378 0.018223 -0.007116 0.000008 -0.005662 -0.000009
# 3 -0.007316 -0.007116 0.017943 -0.000061 0.002243 0.000032
# 4 0.000068 0.000008 -0.000061 0.158302 -0.000102 -0.063783
# 5 -0.025977 -0.005662 0.002243 -0.000102 0.064579 0.000045
# 6 -0.000034 -0.000009 0.000032 -0.063783 0.000045 0.097567
#
#
# Mechanical properties :
#
#
# Convention : Reuss Voigt Hill
#
# Bulk Modulus (GPa) = 26.71877 43.23111 34.97494
# Shear Modulus (GPa) = 11.63893 18.35286 14.99589
#
# Velocity S-wave (km/s) = 2.56301 3.21845 2.90925
# Velocity P-wave (km/s) = 4.88251 6.18150 5.57000
#
# Compressibility (1/GPa) = 0.03742687
#
# Stress axis : x y z
#
# Youngs Moduli (GPa) = 32.38225 54.87483 55.73088
#
# Poissons Ratio (x) = 0.02073 0.40775
# Poissons Ratio (y) = 0.01223 0.39660
# Poissons Ratio (z) = 0.23692 0.39051
#
# Static dielectric constant tensor:
#      x y z
#    x 3.139060 -0.000010 -0.126630 
#    y -0.000010 3.886040 -0.000030 
#    z -0.126630 -0.000030 3.410440 
# 
# 
# High freq. dielectric constant tensor:
#      x y z
#    x 1.652180 0.000000 0.008850 
#    y 0.000000 1.686450 0.000000 
#    z 0.008850 0.000000 1.685350 
# 
# From -- ./inp_files/48075.got.cif
#   From: 2010.06.25/outbox.cif.g09.slc.cpg/sg15_25_cif.got.tgz:48075.got - 2010.06.28 07:06:18.
