data_PCOD8151038
_publ_section_title
;
Structure prediction by ZEFSAII (Michael W. Deem and Ramdas Pophale) SiO2 
 PCOD8151038
Probable space group: C 2/C
;
_chemical_formula_sum "Si O2"
_cell_formula_units_Z 56
_cell_length_a 23.946564
_cell_length_b 19.407873
_cell_length_c 11.699856
_cell_angle_alpha 90.000000
_cell_angle_beta 149.491013
_cell_angle_gamma 90.000000
_cell_volume 2760.489911
_symmetry_space_group_name_H-M "C 2/C"
_symmetry_group_IT_number 15
_symmetry_cell_setting 'monoclinic'
loop_
_space_group_symop_operation_xyz
x,y,z
-x,y,1/2-z
-x,-y,-z
x,-y,1/2+z
1/2+x,1/2+y,z
1/2-x,1/2+y,1/2-z
1/2-x,1/2-y,-z
1/2+x,1/2-y,1/2+z
loop_
_atom_site_type_symbol
_atom_site_label
_atom_site_fract_x
_atom_site_fract_y
_atom_site_fract_z
Si Si1 0.698055 0.342177 0.197803
Si Si2 0.098578 0.907916 0.614609
Si Si3 0.355120 0.550553 0.718314
Si Si4 0.143066 0.213096 0.357452
Si Si5 0.569555 0.784379 0.549927
Si Si6 0.767783 0.867411 0.871552
Si Si7 0.894664 0.731126 0.134311
O O1 0.664629 0.416716 0.189925
O O2 0.628667 0.288679 0.148157
O O3 0.827243 0.326912 0.444870
O O4 0.666803 0.333553 0.009899
O O5 0.096769 0.836502 0.678628
O O6 0.166576 0.897138 0.619250
O O7 0.973193 0.930095 0.370789
O O8 0.157159 0.968491 0.790193
O O9 0.264534 0.575915 0.467017
O O10 0.250000 0.250000 0.500000
O O11 0.052147 0.273542 0.220044
O O12 0.642098 0.844635 0.615622
O O13 0.564978 0.802263 0.676065
O O14 0.822252 0.799595 0.022974
O O15 0.000000 0.754524 0.250000
#
# Coordination Sequence:
#
# PCOD8151038 Si02
#       7
#     8   8   8   8   8   8   8
#     4  11  21  36  58  88 127 157 198 258 311 372
#     4  11  25  37  61  90 128 167 202 257 312 378
#     4  11  22  40  59  91 124 167 209 251 309 376
#     4  12  24  40  61  97 127 156 205 265 328 370
#     4  11  20  37  61  90 120 161 206 257 314 372
#     4  11  20  39  61  88 121 163 212 253 306 378
#     4  11  19  34  61  89 121 159 206 254 303 365
#
# _framework density 20.286254
#
# number of rings (size 3 to 8) (size 9 to 14) (size 15 to 20)
#    0.000    0.857    4.286    6.000    2.000    0.000 
#    0.000    0.000    0.000    2.571    0.000    0.000 
#    0.000    0.000    0.000    0.000    0.000    0.000 
#
# Total GULP energy -347120.622854 kJ/mol
# GULP energy per Si atom -12397.165102 kJ/mol
# Density = 2.024008 g / cm^3
# Si number density = 20.286254 Si / 1000 Ang^3
#
#
#
# Elastic Constant Matrix: (Units=GPa)
#
#
# Indices 1 2 3 4 5 6 
#
# 1 101.6296 22.8168 25.1103 0.0000 -2.8689 0.0000
# 2 22.8168 75.2766 23.7173 0.0000 12.0224 0.0000
# 3 25.1103 23.7173 65.9247 0.0000 7.8165 0.0000
# 4 0.0000 0.0000 0.0000 23.9530 0.0000 3.4263
# 5 -2.8689 12.0224 7.8165 0.0000 32.6282 0.0000
# 6 0.0000 0.0000 0.0000 3.4263 0.0000 26.2327
#
#
#
# Elastic Compliance Matrix: (Units=1/GPa)
#
#
# Indices 1 2 3 4 5 6 
#
# 1 0.011462 -0.002770 -0.003715 0.000000 0.002918 0.000000
# 2 -0.002770 0.016278 -0.004180 0.000000 -0.005240 0.000000
# 3 -0.003715 -0.004180 0.018468 0.000000 -0.003211 0.000000
# 4 0.000000 0.000000 0.000000 0.042543 0.000000 -0.005557
# 5 0.002918 -0.005240 -0.003211 0.000000 0.033605 0.000000
# 6 0.000000 0.000000 0.000000 -0.005557 0.000000 0.038846
#
#
# Mechanical properties :
#
#
# Convention : Reuss Voigt Hill
#
# Bulk Modulus (GPa) = 40.19583 42.90218 41.54900
# Shear Modulus (GPa) = 26.20207 27.97523 27.08865
#
# Velocity S-wave (km/s) = 3.59781 3.71755 3.65817
# Velocity P-wave (km/s) = 6.09231 6.29454 6.19425
#
# Compressibility (1/GPa) = 0.02487820
#
# Stress axis : x y z
#
# Youngs Moduli (GPa) = 87.24621 61.43386 54.14639
#
# Poissons Ratio (x) = 0.17015 0.20117
# Poissons Ratio (y) = 0.24164 0.22633
# Poissons Ratio (z) = 0.32415 0.25679
#
# Static dielectric constant tensor:
#      x y z
#    x 3.726690 0.000000 0.078080 
#    y 0.000000 3.573350 0.000000 
#    z 0.078080 0.000000 4.001070 
# 
# 
# High freq. dielectric constant tensor:
#      x y z
#    x 1.803520 0.000000 -0.002360 
#    y 0.000000 1.758650 0.000000 
#    z -0.002360 0.000000 1.782280 
# 
# From -- ./inp_files/119843.got.cif
#   From: 2010.06.25/outbox.cif.g09.slc.cpg/sg15_60_cif.got.tgz:119843.got - 2010.06.28 07:06:18.
