data_PCOD8151821
_publ_section_title
;
Structure prediction by ZEFSAII (Michael W. Deem and Ramdas Pophale) SiO2 
 PCOD8151821
Probable space group: C 2/C
;
_chemical_formula_sum "Si O2"
_cell_formula_units_Z 56
_cell_length_a 23.720840
_cell_length_b 18.059961
_cell_length_c 9.327881
_cell_angle_alpha 90.000000
_cell_angle_beta 137.949792
_cell_angle_gamma 90.000000
_cell_volume 2676.474180
_symmetry_space_group_name_H-M "C 2/C"
_symmetry_group_IT_number 15
_symmetry_cell_setting 'monoclinic'
loop_
_space_group_symop_operation_xyz
x,y,z
-x,y,1/2-z
-x,-y,-z
x,-y,1/2+z
1/2+x,1/2+y,z
1/2-x,1/2+y,1/2-z
1/2-x,1/2-y,-z
1/2+x,1/2-y,1/2+z
loop_
_atom_site_type_symbol
_atom_site_label
_atom_site_fract_x
_atom_site_fract_y
_atom_site_fract_z
Si Si1 0.220381 0.412211 0.323497
Si Si2 0.192906 0.803919 0.581810
Si Si3 0.767212 0.953248 0.717277
Si Si4 0.836853 0.787652 0.452955
Si Si5 0.540541 0.561800 0.981710
Si Si6 0.548005 0.702068 0.580465
Si Si7 0.393299 0.218258 0.841933
O O1 0.214634 0.443639 0.472846
O O2 0.223668 0.477620 0.214164
O O3 0.305260 0.364438 0.461475
O O4 0.137404 0.359784 0.147856
O O5 0.237275 0.883526 0.683894
O O6 0.266848 0.743291 0.708718
O O7 0.132402 0.805639 0.331251
O O8 0.135918 0.786119 0.612321
O O9 0.863690 0.963590 0.853912
O O10 0.923698 0.799089 0.531872
O O11 0.849576 0.728363 0.604157
O O12 0.500000 0.568628 0.750000
O O13 0.521643 0.638175 0.029656
O O14 0.500000 0.500000 0.000000
O O15 0.495348 0.777321 0.518912
#
# Coordination Sequence:
#
# PCOD8151821 Si02
#       7
#     8   8   8   8   8   8   8
#     4  11  24  40  65  92 125 172 215 258 319 387
#     4  11  21  41  64  92 129 165 212 270 316 382
#     4  12  22  40  62  89 131 169 212 259 320 385
#     4  11  22  41  65  95 123 169 219 256 321 392
#     4  12  23  36  54  87 134 167 194 249 324 389
#     4  12  23  38  62  98 129 163 212 267 326 373
#     4  11  21  43  64  88 129 175 215 261 315 385
#
# _framework density 20.923051000000001
#
# number of rings (size 3 to 8) (size 9 to 14) (size 15 to 20)
#    0.000    0.571    5.714    3.857    2.000    1.143 
#    0.000    0.000    0.000    0.857    3.714    0.000 
#    0.000    0.000    0.000    0.000    0.000    0.000 
#
# Total GULP energy -347120.194380 kJ/mol
# GULP energy per Si atom -12397.149799 kJ/mol
# Density = 2.087543 g / cm^3
# Si number density = 20.923051 Si / 1000 Ang^3
#
#
#
# Elastic Constant Matrix: (Units=GPa)
#
#
# Indices 1 2 3 4 5 6 
#
# 1 114.7700 50.0528 13.0798 0.0000 -8.1173 0.0000
# 2 50.0528 107.6667 18.2647 0.0000 -6.4060 0.0000
# 3 13.0798 18.2647 17.9418 0.0000 -2.7419 0.0000
# 4 0.0000 0.0000 0.0000 -43.5080 0.0000 42.4562
# 5 -8.1173 -6.4060 -2.7419 0.0000 18.1984 0.0000
# 6 0.0000 0.0000 0.0000 42.4562 0.0000 2.6916
#
#
#
# Elastic Compliance Matrix: (Units=1/GPa)
#
#
# Indices 1 2 3 4 5 6 
#
# 1 0.011253 -0.004521 -0.003149 0.000000 0.002953 0.000000
# 2 -0.004521 0.013137 -0.009907 0.000000 0.001115 0.000000
# 3 -0.003149 -0.009907 0.068957 0.000000 0.005498 0.000000
# 4 0.000000 0.000000 0.000000 -0.001402 0.000000 0.022117
# 5 0.002953 0.001115 0.005498 0.000000 0.057488 0.000000
# 6 0.000000 0.000000 0.000000 0.022117 0.000000 0.022665
#
#
# Mechanical properties :
#
#
# Convention : Reuss Voigt Hill
#
# Bulk Modulus (GPa) = 17.18461 44.79701 30.99081
# Shear Modulus (GPa) = 22.06057 6.07513 14.06785
#
# Velocity S-wave (km/s) = 3.25062 1.70583 2.59581
# Velocity P-wave (km/s) = 4.72439 5.03355 4.88142
#
# Compressibility (1/GPa) = 0.05819159
#
# Stress axis : x y z
#
# Youngs Moduli (GPa) = 88.86810 76.12252 14.50180
#
# Poissons Ratio (x) = 0.34417 0.04567
# Poissons Ratio (y) = 0.40179 0.14367
# Poissons Ratio (z) = 0.27988 0.75413
#
# Static dielectric constant tensor:
#      x y z
#    x 3.873010 0.000000 -0.062090 
#    y 0.000000 3.705530 0.000000 
#    z -0.062090 0.000000 3.657560 
# 
# 
# High freq. dielectric constant tensor:
#      x y z
#    x 1.825770 0.000000 -0.013800 
#    y 0.000000 1.803560 0.000000 
#    z -0.013800 0.000000 1.811700 
# 
# From -- ./inp_files/62766.got.cif
#   From: 2010.06.25/outbox.cif.g09.slc.cpg/sg15_32_cif.got.tgz:62766.got - 2010.06.28 07:06:18.
