data_PCOD8151617
_publ_section_title
;
Structure prediction by ZEFSAII (Michael W. Deem and Ramdas Pophale) SiO2 
 PCOD8151617
Probable space group: C 2/C
;
_chemical_formula_sum "Si O2"
_cell_formula_units_Z 48
_cell_length_a 15.357738
_cell_length_b 8.501722
_cell_length_c 19.125743
_cell_angle_alpha 90.000000
_cell_angle_beta 75.890155
_cell_angle_gamma 90.000000
_cell_volume 2421.855052
_symmetry_space_group_name_H-M "C 2/C"
_symmetry_group_IT_number 15
_symmetry_cell_setting 'monoclinic'
loop_
_space_group_symop_operation_xyz
x,y,z
-x,y,1/2-z
-x,-y,-z
x,-y,1/2+z
1/2+x,1/2+y,z
1/2-x,1/2+y,1/2-z
1/2-x,1/2-y,-z
1/2+x,1/2-y,1/2+z
loop_
_atom_site_type_symbol
_atom_site_label
_atom_site_fract_x
_atom_site_fract_y
_atom_site_fract_z
Si Si1 0.761274 0.453520 0.308476
Si Si2 0.337197 0.333617 0.571803
Si Si3 0.740894 0.909773 0.842407
Si Si4 0.443758 0.039588 0.579257
Si Si5 0.661540 0.626274 0.583443
Si Si6 0.441426 0.108423 0.327178
O O1 0.679299 0.534802 0.366123
O O2 0.755736 0.268776 0.319591
O O3 0.754905 0.483036 0.227468
O O4 0.853408 0.517747 0.320743
O O5 0.418516 0.224081 0.582071
O O6 0.359550 0.415755 0.493111
O O7 0.251486 0.225496 0.575943
O O8 0.645204 0.930945 0.899603
O O9 0.822599 0.964570 0.877015
O O10 0.500000 0.000000 0.500000
O O11 0.504266 0.011626 0.635079
O O12 0.579102 0.729073 0.628713
O O13 0.500000 0.159188 0.250000
#
# Coordination Sequence:
#
# PCOD8151617 Si02
#       6
#     8   8   8   8   8   8
#     4  11  23  40  61  90 123 164 211 257 313 376
#     4   9  19  37  61  86 120 161 201 247 303 379
#     4  11  23  40  62  87 121 165 211 257 309 380
#     4  11  21  39  64  89 123 164 207 253 316 370
#     4   9  19  37  60  86 117 161 204 243 305 373
#     4  11  21  37  64  91 124 163 204 255 314 367
#
# _framework density 19.819517999999999
#
# number of rings (size 3 to 8) (size 9 to 14) (size 15 to 20)
#    0.000    1.667    3.333    3.000    2.333    0.667 
#    0.000    3.333    0.000    0.000    0.000    0.000 
#    0.000    0.000    0.000    0.000    0.000    0.000 
#
# Total GULP energy -297629.073463 kJ/mol
# GULP energy per Si atom -12401.211394 kJ/mol
# Density = 1.977441 g / cm^3
# Si number density = 19.819518 Si / 1000 Ang^3
#
#
#
# Elastic Constant Matrix: (Units=GPa)
#
#
# Indices 1 2 3 4 5 6 
#
# 1 74.2608 34.3703 47.6651 0.0000 -7.4950 0.0000
# 2 34.3703 114.7790 41.4909 0.0000 -20.4605 0.0000
# 3 47.6651 41.4909 141.4577 0.0000 -22.4179 0.0000
# 4 0.0000 0.0000 0.0000 33.1433 0.0000 -0.0714
# 5 -7.4950 -20.4605 -22.4179 0.0000 24.9030 0.0000
# 6 0.0000 0.0000 0.0000 -0.0714 0.0000 31.3642
#
#
#
# Elastic Compliance Matrix: (Units=1/GPa)
#
#
# Indices 1 2 3 4 5 6 
#
# 1 0.018608 -0.004062 -0.005505 0.000000 -0.002693 0.000000
# 2 -0.004062 0.011573 -0.000831 0.000000 0.007538 0.000000
# 3 -0.005505 -0.000831 0.010261 0.000000 0.006897 0.000000
# 4 0.000000 0.000000 0.000000 0.030172 0.000000 0.000069
# 5 -0.002693 0.007538 0.006897 0.000000 0.051747 0.000000
# 6 0.000000 0.000000 0.000000 0.000069 0.000000 0.031884
#
#
# Mechanical properties :
#
#
# Convention : Reuss Voigt Hill
#
# Bulk Modulus (GPa) = 50.90406 64.17222 57.53814
# Shear Modulus (GPa) = 27.53441 31.68016 29.60729
#
# Velocity S-wave (km/s) = 3.73132 4.00238 3.86922
# Velocity P-wave (km/s) = 6.65607 7.33535 7.00395
#
# Compressibility (1/GPa) = 0.01964480
#
# Stress axis : x y z
#
# Youngs Moduli (GPa) = 53.74020 86.40894 97.45430
#
# Poissons Ratio (x) = 0.35100 0.53653
# Poissons Ratio (y) = 0.21830 0.08100
# Poissons Ratio (z) = 0.29586 0.07182
#
# Static dielectric constant tensor:
#      x y z
#    x 3.549520 0.000000 -0.148970 
#    y 0.000000 3.511910 0.000000 
#    z -0.148970 0.000000 3.899970 
# 
# 
# High freq. dielectric constant tensor:
#      x y z
#    x 1.759600 0.000000 -0.005220 
#    y 0.000000 1.758020 0.000000 
#    z -0.005220 0.000000 1.795300 
# 
# From -- ./inp_files/203011.got.cif
#   From: 2010.06.25/outbox.cif.g09.slc.cpg/sg15_102_cif.got.tgz:203011.got - 2010.06.28 07:06:18.
