data_PCOD8151648
_publ_section_title
;
Structure prediction by ZEFSAII (Michael W. Deem and Ramdas Pophale) SiO2 
 PCOD8151648
Probable space group: C 2/C
;
_chemical_formula_sum "Si O2"
_cell_formula_units_Z 60
_cell_length_a 21.902159
_cell_length_b 17.494557
_cell_length_c 13.111687
_cell_angle_alpha 90.000000
_cell_angle_beta 146.218376
_cell_angle_gamma 90.000000
_cell_volume 2793.482466
_symmetry_space_group_name_H-M "C 2/C"
_symmetry_group_IT_number 15
_symmetry_cell_setting 'monoclinic'
loop_
_space_group_symop_operation_xyz
x,y,z
-x,y,1/2-z
-x,-y,-z
x,-y,1/2+z
1/2+x,1/2+y,z
1/2-x,1/2+y,1/2-z
1/2-x,1/2-y,-z
1/2+x,1/2-y,1/2+z
loop_
_atom_site_type_symbol
_atom_site_label
_atom_site_fract_x
_atom_site_fract_y
_atom_site_fract_z
Si Si1 0.500000 0.787297 0.250000
Si Si2 0.209563 0.626075 0.282157
Si Si3 0.905768 0.486968 0.478487
Si Si4 0.148279 0.477207 0.868590
Si Si5 0.291995 0.842909 0.248819
Si Si6 0.592001 0.283477 0.074750
Si Si7 0.277062 0.860267 0.004101
Si Si8 0.386164 0.686924 0.396401
O O1 0.516355 0.735281 0.372236
O O2 0.395678 0.842065 0.120646
O O3 0.150915 0.568413 0.120871
O O4 0.210697 0.592392 0.398221
O O5 0.145679 0.706156 0.192722
O O6 0.336494 0.638570 0.422176
O O7 0.881409 0.454819 0.557709
O O8 0.854126 0.423680 0.331610
O O9 0.037471 0.493395 0.647369
O O10 0.228538 0.549354 0.981904
O O11 0.184267 0.844672 0.170647
O O12 0.256644 0.819075 0.084527
O O13 0.372958 0.777058 0.401535
O O14 0.515851 0.324877 0.054777
O O15 0.181449 0.835941 0.797110
#
# Coordination Sequence:
#
# PCOD8151648 Si02
#       8
#     4   8   8   8   8   8   8   8
#     4  12  18  32  56  92 128 146 190 250 310 356
#     4  11  21  38  60  86 122 158 195 248 300 357
#     4  11  22  38  59  90 122 155 200 251 300 357
#     4  11  22  35  60  90 117 155 200 249 302 350
#     4  11  22  36  58  86 121 162 198 245 301 358
#     4  11  22  36  57  86 122 159 202 240 300 361
#     4  12  20  33  59  91 127 149 191 253 307 358
#     4  11  22  37  57  89 123 159 198 247 298 359
#
# _framework density 21.478567999999999
#
# number of rings (size 3 to 8) (size 9 to 14) (size 15 to 20)
#    0.000    0.800    6.667    4.000    0.000    0.000 
#    0.000    3.333    0.000    2.400    0.000    0.000 
#    0.000    0.000    0.000    0.000    0.000    0.000 
#
# Total GULP energy -372013.460267 kJ/mol
# GULP energy per Si atom -12400.448676 kJ/mol
# Density = 2.142968 g / cm^3
# Si number density = 21.478568 Si / 1000 Ang^3
#
#
#
# Elastic Constant Matrix: (Units=GPa)
#
#
# Indices 1 2 3 4 5 6 
#
# 1 121.2584 28.2887 21.1570 0.0000 38.6343 0.0000
# 2 28.2887 80.4933 16.9728 0.0000 15.4685 0.0000
# 3 21.1570 16.9728 40.1629 0.0000 17.0248 0.0000
# 4 0.0000 0.0000 0.0000 18.0000 0.0000 0.3722
# 5 38.6343 15.4685 17.0248 0.0000 39.8198 0.0000
# 6 0.0000 0.0000 0.0000 0.3722 0.0000 37.6131
#
#
#
# Elastic Compliance Matrix: (Units=1/GPa)
#
#
# Indices 1 2 3 4 5 6 
#
# 1 0.012322 -0.002045 -0.001094 0.000000 -0.010693 0.000000
# 2 -0.002045 0.014380 -0.004242 0.000000 -0.001789 0.000000
# 3 -0.001094 -0.004242 0.031901 0.000000 -0.010930 0.000000
# 4 0.000000 0.000000 0.000000 0.055567 0.000000 -0.000550
# 5 -0.010693 -0.001789 -0.010930 0.000000 0.040855 0.000000
# 6 0.000000 0.000000 0.000000 -0.000550 0.000000 0.026592
#
#
# Mechanical properties :
#
#
# Convention : Reuss Voigt Hill
#
# Bulk Modulus (GPa) = 22.80954 41.63904 32.22429
# Shear Modulus (GPa) = 23.69765 30.78630 27.24198
#
# Velocity S-wave (km/s) = 3.32522 3.79007 3.56523
# Velocity P-wave (km/s) = 5.03841 6.21138 5.65539
#
# Compressibility (1/GPa) = 0.04384131
#
# Stress axis : x y z
#
# Youngs Moduli (GPa) = 81.15828 69.54032 31.34742
#
# Poissons Ratio (x) = 0.14220 0.03430
# Poissons Ratio (y) = 0.16595 0.13296
# Poissons Ratio (z) = 0.08879 0.29496
#
# Static dielectric constant tensor:
#      x y z
#    x 4.210240 0.000000 0.094250 
#    y 0.000000 3.645680 0.000000 
#    z 0.094250 0.000000 3.551160 
# 
# 
# High freq. dielectric constant tensor:
#      x y z
#    x 1.865720 0.000000 0.002780 
#    y 0.000000 1.829670 0.000000 
#    z 0.002780 0.000000 1.801400 
# 
# From -- ./inp_files/174102.got.cif
#   From: 2010.06.25/outbox.cif.g09.slc.cpg/sg15_88_cif.got.tgz:174102.got - 2010.06.28 07:06:18.
