data_PCOD8151756
_publ_section_title
;
Structure prediction by ZEFSAII (Michael W. Deem and Ramdas Pophale) SiO2 
 PCOD8151756
Probable space group: C 2/C
;
_chemical_formula_sum "Si O2"
_cell_formula_units_Z 56
_cell_length_a 18.391366
_cell_length_b 16.592928
_cell_length_c 9.527750
_cell_angle_alpha 90.000000
_cell_angle_beta 111.053795
_cell_angle_gamma 90.000000
_cell_volume 2713.453372
_symmetry_space_group_name_H-M "C 2/C"
_symmetry_group_IT_number 15
_symmetry_cell_setting 'monoclinic'
loop_
_space_group_symop_operation_xyz
x,y,z
-x,y,1/2-z
-x,-y,-z
x,-y,1/2+z
1/2+x,1/2+y,z
1/2-x,1/2+y,1/2-z
1/2-x,1/2-y,-z
1/2+x,1/2-y,1/2+z
loop_
_atom_site_type_symbol
_atom_site_label
_atom_site_fract_x
_atom_site_fract_y
_atom_site_fract_z
Si Si1 0.556300 0.520251 0.663152
Si Si2 0.091788 0.426279 0.792837
Si Si3 0.348837 0.072606 0.853251
Si Si4 0.835170 0.123655 0.174458
Si Si5 0.187302 0.125720 0.660410
Si Si6 0.675779 0.813172 0.650129
Si Si7 0.591141 0.794049 0.301245
O O1 0.500000 0.539449 0.750000
O O2 0.500000 0.500000 0.500000
O O3 0.616090 0.447579 0.724400
O O4 0.604568 0.601226 0.667981
O O5 0.113726 0.500221 0.708158
O O6 0.121755 0.344609 0.738988
O O7 0.000000 0.420707 0.750000
O O8 0.130444 0.437692 0.970378
O O9 0.255217 0.074460 0.781782
O O10 0.379853 0.156319 0.812477
O O11 0.756334 0.137008 0.208087
O O12 0.890501 0.201319 0.213739
O O13 0.810173 0.101792 0.000277
O O14 0.197972 0.220612 0.690986
O O15 0.633080 0.825163 0.471412
O O16 0.500000 0.807187 0.250000
#
# Coordination Sequence:
#
# PCOD8151756 Si02
#       7
#     8   8   8   8   8   8   8
#     4  12  26  44  68 102 139 182 227 282 340 399
#     4  12  27  44  67  97 136 172 219 281 334 400
#     4  12  24  44  68  98 131 175 226 270 340 404
#     4  11  22  45  69  97 139 180 230 274 338 409
#     4  11  24  43  70 100 134 180 225 276 339 408
#     4  11  23  46  69  97 136 179 227 276 337 408
#     4  11  21  39  72 100 132 177 224 280 337 403
#
# _framework density 20.637907999999999
#
# number of rings (size 3 to 8) (size 9 to 14) (size 15 to 20)
#    0.000    0.571    4.286    4.714    4.000    2.286 
#    2.571    0.000    0.000    0.000    0.000    0.000 
#    0.000    0.000    0.000    0.000    0.000    0.000 
#
# Total GULP energy -347344.577278 kJ/mol
# GULP energy per Si atom -12405.163474 kJ/mol
# Density = 2.059094 g / cm^3
# Si number density = 20.637908 Si / 1000 Ang^3
#
#
#
# Elastic Constant Matrix: (Units=GPa)
#
#
# Indices 1 2 3 4 5 6 
#
# 1 162.2466 39.0292 43.4642 0.0000 4.8982 0.0000
# 2 39.0292 67.4296 43.7906 0.0000 -1.0775 0.0000
# 3 43.4642 43.7906 120.5171 0.0000 -5.4984 0.0000
# 4 0.0000 0.0000 0.0000 30.8776 0.0000 -3.8369
# 5 4.8982 -1.0775 -5.4984 0.0000 36.5377 0.0000
# 6 0.0000 0.0000 0.0000 -3.8369 0.0000 38.6285
#
#
#
# Elastic Compliance Matrix: (Units=1/GPa)
#
#
# Indices 1 2 3 4 5 6 
#
# 1 0.007411 -0.003319 -0.001527 0.000000 -0.001321 0.000000
# 2 -0.003319 0.020906 -0.006395 0.000000 0.000099 0.000000
# 3 -0.001527 -0.006395 0.011250 0.000000 0.001709 0.000000
# 4 0.000000 0.000000 0.000000 0.032791 0.000000 0.003257
# 5 -0.001321 0.000099 0.001709 0.000000 0.027806 0.000000
# 6 0.000000 0.000000 0.000000 0.003257 0.000000 0.026211
#
#
# Mechanical properties :
#
#
# Convention : Reuss Voigt Hill
#
# Bulk Modulus (GPa) = 58.53063 66.97349 62.75206
# Shear Modulus (GPa) = 32.35180 36.13605 34.24392
#
# Velocity S-wave (km/s) = 3.96358 4.18898 4.07784
# Velocity P-wave (km/s) = 7.02630 7.47789 7.25561
#
# Compressibility (1/GPa) = 0.01708507
#
# Stress axis : x y z
#
# Youngs Moduli (GPa) = 134.93835 47.83352 88.89005
#
# Poissons Ratio (x) = 0.15875 0.13574
# Poissons Ratio (y) = 0.44785 0.56843
# Poissons Ratio (z) = 0.20605 0.30589
#
# Static dielectric constant tensor:
#      x y z
#    x 3.985250 0.000000 0.002130 
#    y 0.000000 3.796760 0.000000 
#    z 0.002130 0.000000 3.716810 
# 
# 
# High freq. dielectric constant tensor:
#      x y z
#    x 1.830200 0.000000 0.007470 
#    y 0.000000 1.813550 0.000000 
#    z 0.007470 0.000000 1.808080 
# 
# From -- ./inp_files/49170.got.cif
#   From: 2010.06.25/outbox.cif.g09.slc.cpg/sg15_25_cif.got.tgz:49170.got - 2010.06.28 07:06:18.
