data_PCOD8151009
_publ_section_title
;
Structure prediction by ZEFSAII (Michael W. Deem and Ramdas Pophale) SiO2 
 PCOD8151009
Probable space group: C 2/C
;
_chemical_formula_sum "Si O2"
_cell_formula_units_Z 64
_cell_length_a 14.959784
_cell_length_b 26.451043
_cell_length_c 8.504331
_cell_angle_alpha 90.000000
_cell_angle_beta 87.223417
_cell_angle_gamma 90.000000
_cell_volume 3361.229191
_symmetry_space_group_name_H-M "C 2/C"
_symmetry_group_IT_number 15
_symmetry_cell_setting 'monoclinic'
loop_
_space_group_symop_operation_xyz
x,y,z
-x,y,1/2-z
-x,-y,-z
x,-y,1/2+z
1/2+x,1/2+y,z
1/2-x,1/2+y,1/2-z
1/2-x,1/2-y,-z
1/2+x,1/2-y,1/2+z
loop_
_atom_site_type_symbol
_atom_site_label
_atom_site_fract_x
_atom_site_fract_y
_atom_site_fract_z
Si Si1 0.649467 0.753485 0.941770
Si Si2 0.594318 0.796609 0.244492
Si Si3 0.596875 0.959072 0.308244
Si Si4 0.671746 0.715551 0.437079
Si Si5 0.770903 0.381483 0.349768
Si Si6 0.905412 0.433224 0.823494
Si Si7 0.287329 0.848255 0.701715
Si Si8 0.101846 0.159526 0.736826
O O1 0.642102 0.802823 0.830934
O O2 0.616099 0.704430 0.857680
O O3 0.750000 0.750000 0.000000
O O4 0.585094 0.761303 0.093035
O O5 0.500000 0.827445 0.250000
O O6 0.601358 0.757642 0.386942
O O7 0.678810 0.833619 0.232539
O O8 0.500000 0.944213 0.250000
O O9 0.673971 0.930749 0.203835
O O10 0.594633 0.947087 0.492998
O O11 0.617612 0.018070 0.280662
O O12 0.750000 0.750000 0.500000
O O13 0.702897 0.677667 0.294946
O O14 0.623132 0.679221 0.562646
O O15 0.761443 0.374766 0.538207
O O16 0.671620 0.384563 0.281415
O O17 0.830914 0.390261 0.809761
O O18 0.000000 0.412052 0.750000
O O19 0.000000 0.138960 0.750000
#
# Coordination Sequence:
#
# PCOD8151009 Si02
#       8
#     8   8   8   8   8   8   8   8
#     4  11  18  39  53  74 117 159 192 247 291 353
#     4  11  21  33  54  76 107 151 197 238 294 350
#     4  11  22  40  63  88 129 163 197 248 307 362
#     4  12  20  36  53  78 114 150 198 246 296 350
#     4  11  21  39  57  80 118 155 199 249 300 360
#     4  11  23  38  59  94 125 158 205 248 299 373
#     4  11  21  36  60  79 115 162 200 243 300 350
#     4  12  23  35  55  82 114 154 201 250 304 353
#
# _framework density 19.040655000000001
#
# number of rings (size 3 to 8) (size 9 to 14) (size 15 to 20)
#    0.000    0.750    6.250    4.875    0.000    1.500 
#    0.000    0.000    0.000    0.000    0.000    8.750 
#    0.000    0.000    0.000    0.000    0.000    0.000 
#
# Total GULP energy -396597.178039 kJ/mol
# GULP energy per Si atom -12393.661814 kJ/mol
# Density = 1.899732 g / cm^3
# Si number density = 19.040655 Si / 1000 Ang^3
#
#
#
# Elastic Constant Matrix: (Units=GPa)
#
#
# Indices 1 2 3 4 5 6 
#
# 1 121.9927 33.0091 21.5061 0.0000 1.4903 0.0000
# 2 33.0091 65.0102 8.7530 0.0000 9.8631 0.0000
# 3 21.5061 8.7530 79.3734 0.0000 2.9549 0.0000
# 4 0.0000 0.0000 0.0000 33.4120 0.0000 2.1098
# 5 1.4903 9.8631 2.9549 0.0000 21.3235 0.0000
# 6 0.0000 0.0000 0.0000 2.1098 0.0000 22.7492
#
#
#
# Elastic Compliance Matrix: (Units=1/GPa)
#
#
# Indices 1 2 3 4 5 6 
#
# 1 0.009925 -0.005037 -0.002206 0.000000 0.001942 0.000000
# 2 -0.005037 0.019291 -0.000446 0.000000 -0.008509 0.000000
# 3 -0.002206 -0.000446 0.013301 0.000000 -0.001483 0.000000
# 4 0.000000 0.000000 0.000000 0.030106 0.000000 -0.002792
# 5 0.001942 -0.008509 -0.001483 0.000000 0.050902 0.000000
# 6 0.000000 0.000000 0.000000 -0.002792 0.000000 0.044216
#
#
# Mechanical properties :
#
#
# Convention : Reuss Voigt Hill
#
# Bulk Modulus (GPa) = 36.84738 43.65696 40.25217
# Shear Modulus (GPa) = 26.01918 29.03747 27.52832
#
# Velocity S-wave (km/s) = 3.70064 3.90939 3.80645
# Velocity P-wave (km/s) = 6.13625 6.58452 6.36433
#
# Compressibility (1/GPa) = 0.02713897
#
# Stress axis : x y z
#
# Youngs Moduli (GPa) = 100.75172 51.83797 75.18361
#
# Poissons Ratio (x) = 0.26112 0.16586
# Poissons Ratio (y) = 0.50751 0.03351
# Poissons Ratio (z) = 0.22227 0.02310
#
# Static dielectric constant tensor:
#      x y z
#    x 3.488360 0.000000 0.031880 
#    y 0.000000 3.446490 0.000000 
#    z 0.031880 0.000000 3.891230 
# 
# 
# High freq. dielectric constant tensor:
#      x y z
#    x 1.722120 0.000000 -0.000740 
#    y 0.000000 1.715120 0.000000 
#    z -0.000740 0.000000 1.763370 
# 
# From -- ./inp_files/43538.got.cif
#   From: 2010.06.25/outbox.cif.g09.slc.cpg/sg15_22_cif.got.tgz:43538.got - 2010.06.28 07:06:18.
