data_PCOD8151694
_publ_section_title
;
Structure prediction by ZEFSAII (Michael W. Deem and Ramdas Pophale) SiO2 
 PCOD8151694
Probable space group: C 2/C
;
_chemical_formula_sum "Si O2"
_cell_formula_units_Z 48
_cell_length_a 16.165658
_cell_length_b 6.267681
_cell_length_c 22.460874
_cell_angle_alpha 90.000000
_cell_angle_beta 104.279074
_cell_angle_gamma 90.000000
_cell_volume 2205.454743
_symmetry_space_group_name_H-M "C 2/C"
_symmetry_group_IT_number 15
_symmetry_cell_setting 'monoclinic'
loop_
_space_group_symop_operation_xyz
x,y,z
-x,y,1/2-z
-x,-y,-z
x,-y,1/2+z
1/2+x,1/2+y,z
1/2-x,1/2+y,1/2-z
1/2-x,1/2-y,-z
1/2+x,1/2-y,1/2+z
loop_
_atom_site_type_symbol
_atom_site_label
_atom_site_fract_x
_atom_site_fract_y
_atom_site_fract_z
Si Si1 0.231472 0.084051 0.314008
Si Si2 0.366556 0.597447 0.873818
Si Si3 0.501285 0.849957 0.682722
Si Si4 0.828553 0.225687 0.595032
Si Si5 0.626796 0.211330 0.702600
Si Si6 0.302904 0.553168 0.982884
O O1 0.211624 0.936881 0.365808
O O2 0.298019 0.963095 0.283059
O O3 0.274131 0.305003 0.341797
O O4 0.144512 0.133499 0.262126
O O5 0.441386 0.714300 0.851891
O O6 0.370770 0.348110 0.857521
O O7 0.374786 0.624767 0.947215
O O8 0.500000 0.755972 0.750000
O O9 0.407731 0.850072 0.637919
O O10 0.535812 0.093367 0.692009
O O11 0.761414 0.403203 0.564802
O O12 0.852723 0.080387 0.542243
O O13 0.250000 0.750000 0.000000
#
# Coordination Sequence:
#
# PCOD8151694 Si02
#       6
#     8   8   8   8   8   8
#     4  11  21  38  71  97 129 176 230 283 331 422
#     4  11  23  43  68  99 132 179 231 278 345 405
#     4  11  28  43  63 104 143 175 219 285 357 413
#     4  11  25  44  67 102 139 173 238 287 340 412
#     4  11  23  39  66  99 136 176 223 280 348 408
#     4  11  24  44  74  98 130 186 238 284 336 407
#
# _framework density 21.764218
#
# number of rings (size 3 to 8) (size 9 to 14) (size 15 to 20)
#    0.000    1.000    5.000    1.000    4.667    4.000 
#    0.000    1.667    0.000    0.000    0.000    0.000 
#    0.000    0.000    0.000    0.000    0.000    0.000 
#
# Total GULP energy -297547.981996 kJ/mol
# GULP energy per Si atom -12397.832583 kJ/mol
# Density = 2.171468 g / cm^3
# Si number density = 21.764218 Si / 1000 Ang^3
#
#
#
# Elastic Constant Matrix: (Units=GPa)
#
#
# Indices 1 2 3 4 5 6 
#
# 1 87.0193 32.3299 48.6790 0.0000 -3.6890 0.0000
# 2 32.3299 95.7821 37.1987 0.0000 -3.7909 0.0000
# 3 48.6790 37.1987 140.4332 0.0000 -15.2756 0.0000
# 4 0.0000 0.0000 0.0000 45.8141 0.0000 -3.6158
# 5 -3.6890 -3.7909 -15.2756 0.0000 46.3581 0.0000
# 6 0.0000 0.0000 0.0000 -3.6158 0.0000 28.6550
#
#
#
# Elastic Compliance Matrix: (Units=1/GPa)
#
#
# Indices 1 2 3 4 5 6 
#
# 1 0.015222 -0.003441 -0.004422 0.000000 -0.000527 0.000000
# 2 -0.003441 0.012416 -0.002090 0.000000 0.000053 0.000000
# 3 -0.004422 -0.002090 0.009491 0.000000 0.002604 0.000000
# 4 0.000000 0.000000 0.000000 0.022047 0.000000 0.002782
# 5 -0.000527 0.000053 0.002604 0.000000 0.022392 0.000000
# 6 0.000000 0.000000 0.000000 0.002782 0.000000 0.035249
#
#
# Mechanical properties :
#
#
# Convention : Reuss Voigt Hill
#
# Bulk Modulus (GPa) = 58.06914 62.18332 60.12623
# Shear Modulus (GPa) = 35.09677 37.83389 36.46533
#
# Velocity S-wave (km/s) = 4.02006 4.17388 4.09769
# Velocity P-wave (km/s) = 6.94887 7.20151 7.07632
#
# Compressibility (1/GPa) = 0.01722085
#
# Stress axis : x y z
#
# Youngs Moduli (GPa) = 65.69584 80.54282 105.36696
#
# Poissons Ratio (x) = 0.27717 0.46595
# Poissons Ratio (y) = 0.22608 0.22023
# Poissons Ratio (z) = 0.29052 0.16835
#
# Static dielectric constant tensor:
#      x y z
#    x 3.737220 0.000000 -0.206170 
#    y 0.000000 4.120750 0.000000 
#    z -0.206170 0.000000 4.258550 
# 
# 
# High freq. dielectric constant tensor:
#      x y z
#    x 1.833340 0.000000 -0.017770 
#    y 0.000000 1.866640 0.000000 
#    z -0.017770 0.000000 1.865490 
# 
# From -- ./inp_files/275708.got.cif
#   From: 2010.06.25/outbox.cif.g09.slc.cpg/sg15_138_cif.got.tgz:275708.got - 2010.06.28 07:06:18.
