data_PCOD8151337
_publ_section_title
;
Structure prediction by ZEFSAII (Michael W. Deem and Ramdas Pophale) SiO2 
 PCOD8151337
Probable space group: C 2/C
;
_chemical_formula_sum "Si O2"
_cell_formula_units_Z 44
_cell_length_a 21.902146
_cell_length_b 11.896605
_cell_length_c 9.082139
_cell_angle_alpha 90.000000
_cell_angle_beta 124.524271
_cell_angle_gamma 90.000000
_cell_volume 1949.687800
_symmetry_space_group_name_H-M "C 2/C"
_symmetry_group_IT_number 15
_symmetry_cell_setting 'monoclinic'
loop_
_space_group_symop_operation_xyz
x,y,z
-x,y,1/2-z
-x,-y,-z
x,-y,1/2+z
1/2+x,1/2+y,z
1/2-x,1/2+y,1/2-z
1/2-x,1/2-y,-z
1/2+x,1/2-y,1/2+z
loop_
_atom_site_type_symbol
_atom_site_label
_atom_site_fract_x
_atom_site_fract_y
_atom_site_fract_z
Si Si1 0.500000 0.145756 0.750000
Si Si2 0.794971 0.854155 0.809076
Si Si3 0.311548 0.570253 0.661904
Si Si4 0.663768 0.114468 0.626974
Si Si5 0.873212 0.724777 0.392551
Si Si6 0.903589 0.524753 0.239566
O O1 0.430202 0.223165 0.607536
O O2 0.527953 0.063135 0.654967
O O3 0.848876 0.746720 0.859856
O O4 0.708155 0.821209 0.671415
O O5 0.821207 0.939672 0.716949
O O6 0.810885 0.913798 0.986318
O O7 0.235812 0.615282 0.625045
O O8 0.372873 0.650570 0.822193
O O9 0.603486 0.048889 0.445113
O O10 0.667179 0.042404 0.783008
O O11 0.911991 0.645025 0.325342
#
# Coordination Sequence:
#
# PCOD8151337 Si02
#       6
#     4   8   8   8   8   8
#     4  12  26  38  62  98 126 172 210 258 314 378
#     4  11  22  39  66  95 127 163 209 262 326 370
#     4  11  20  39  63  91 130 165 206 263 317 374
#     4  11  21  38  62  95 126 160 204 264 320 370
#     4  11  22  38  61  90 129 164 206 258 310 380
#     4  12  21  40  62  91 129 159 207 256 314 371
#
# _framework density 22.567713999999999
#
# number of rings (size 3 to 8) (size 9 to 14) (size 15 to 20)
#    0.000    0.727    7.273    1.636    0.000    1.455 
#    0.000    4.545    0.000    5.455    0.000    0.000 
#    0.000    0.000    0.000    0.000    0.000    0.000 
#
# Total GULP energy -272570.393305 kJ/mol
# GULP energy per Si atom -12389.563332 kJ/mol
# Density = 2.251635 g / cm^3
# Si number density = 22.567714 Si / 1000 Ang^3
#
#
#
# Elastic Constant Matrix: (Units=GPa)
#
#
# Indices 1 2 3 4 5 6 
#
# 1 27.8735 14.7344 23.0695 0.0000 7.2645 0.0000
# 2 14.7344 145.9429 54.5388 0.0000 0.3824 0.0000
# 3 23.0695 54.5388 98.5624 0.0000 6.8197 0.0000
# 4 0.0000 0.0000 0.0000 33.7932 0.0000 4.9410
# 5 7.2645 0.3824 6.8197 0.0000 18.8983 0.0000
# 6 0.0000 0.0000 0.0000 4.9410 0.0000 13.6665
#
#
#
# Elastic Compliance Matrix: (Units=1/GPa)
#
#
# Indices 1 2 3 4 5 6 
#
# 1 0.048423 -0.001267 -0.009586 0.000000 -0.015129 0.000000
# 2 -0.001267 0.008718 -0.004666 0.000000 0.001994 0.000000
# 3 -0.009586 -0.004666 0.015086 0.000000 -0.001665 0.000000
# 4 0.000000 0.000000 0.000000 0.031243 0.000000 -0.011296
# 5 -0.015129 0.001994 -0.001665 0.000000 0.059291 0.000000
# 6 0.000000 0.000000 0.000000 -0.011296 0.000000 0.077255
#
#
# Mechanical properties :
#
#
# Convention : Reuss Voigt Hill
#
# Bulk Modulus (GPa) = 24.27747 50.78493 37.53120
# Shear Modulus (GPa) = 17.55715 25.27399 21.41557
#
# Velocity S-wave (km/s) = 2.79225 3.35015 3.08384
# Velocity P-wave (km/s) = 4.60179 6.12510 5.41726
#
# Compressibility (1/GPa) = 0.04119045
#
# Stress axis : x y z
#
# Youngs Moduli (GPa) = 20.65141 114.70237 66.28455
#
# Poissons Ratio (x) = 0.14531 0.63541
# Poissons Ratio (y) = 0.02616 0.30926
# Poissons Ratio (z) = 0.19797 0.53516
#
# Static dielectric constant tensor:
#      x y z
#    x 3.742280 0.000000 -0.020350 
#    y 0.000000 4.517370 0.000000 
#    z -0.020350 0.000000 4.198200 
# 
# 
# High freq. dielectric constant tensor:
#      x y z
#    x 1.852840 0.000000 -0.019210 
#    y 0.000000 1.897360 0.000000 
#    z -0.019210 0.000000 1.886410 
# 
# From -- ./inp_files/60951.got.cif
#   From: 2010.06.25/outbox.cif.g09.slc.cpg/sg15_31_cif.got.tgz:60951.got - 2010.06.28 07:06:18.
