data_PCOD8151007
_publ_section_title
;
Structure prediction by ZEFSAII (Michael W. Deem and Ramdas Pophale) SiO2 
 PCOD8151007
Probable space group: C 2/C
;
_chemical_formula_sum "Si O2"
_cell_formula_units_Z 40
_cell_length_a 9.580256
_cell_length_b 15.908700
_cell_length_c 24.382079
_cell_angle_alpha 90.000000
_cell_angle_beta 32.436932
_cell_angle_gamma 90.000000
_cell_volume 1993.185726
_symmetry_space_group_name_H-M "C 2/C"
_symmetry_group_IT_number 15
_symmetry_cell_setting 'monoclinic'
loop_
_space_group_symop_operation_xyz
x,y,z
-x,y,1/2-z
-x,-y,-z
x,-y,1/2+z
1/2+x,1/2+y,z
1/2-x,1/2+y,1/2-z
1/2-x,1/2-y,-z
1/2+x,1/2-y,1/2+z
loop_
_atom_site_type_symbol
_atom_site_label
_atom_site_fract_x
_atom_site_fract_y
_atom_site_fract_z
Si Si1 0.344837 0.396516 0.453993
Si Si2 0.823550 0.627551 0.060774
Si Si3 0.270940 0.191858 0.870998
Si Si4 0.919221 0.015750 0.719997
Si Si5 0.631899 0.947678 0.071709
O O1 0.483035 0.318673 0.439032
O O2 0.534041 0.413839 0.340617
O O3 0.350030 0.480926 0.489851
O O4 0.052608 0.380877 0.529628
O O5 0.719727 0.722406 0.097601
O O6 0.579812 0.569783 0.157868
O O7 0.925017 0.601520 0.966908
O O8 0.500000 0.189183 0.750000
O O9 0.289137 0.117317 0.908274
O O10 0.000000 0.058835 0.750000
O O11 0.612865 0.998471 0.825226
#
# Coordination Sequence:
#
# PCOD8151007 Si02
#       5
#     8   8   8   8   8
#     4  11  22  39  65  88 117 164 202 242 294 364
#     4  11  23  39  65  90 118 160 205 246 291 359
#     4  12  25  39  58  93 130 152 191 259 311 342
#     4  11  18  38  66  90 111 158 212 238 282 354
#     4  11  22  41  65  85 124 161 198 244 297 363
#
# _framework density 20.068377000000002
#
# number of rings (size 3 to 8) (size 9 to 14) (size 15 to 20)
#    0.000    0.800    6.000    3.600    0.000    0.000 
#    0.000    0.000    0.000    0.000    0.000    0.000 
#    0.000    0.000    0.000    0.000    0.000    0.000 
#
# Total GULP energy -247860.363702 kJ/mol
# GULP energy per Si atom -12393.018185 kJ/mol
# Density = 2.002270 g / cm^3
# Si number density = 20.068377 Si / 1000 Ang^3
#
#
#
# Elastic Constant Matrix: (Units=GPa)
#
#
# Indices 1 2 3 4 5 6 
#
# 1 58.6220 25.8371 41.7188 -0.0063 -8.5842 -0.0066
# 2 25.8371 81.5444 40.3817 -0.0233 -1.3523 -0.0118
# 3 41.7188 40.3817 104.6932 0.0016 6.7413 -0.0615
# 4 -0.0063 -0.0233 0.0016 15.6814 -0.0622 -1.6147
# 5 -8.5842 -1.3523 6.7413 -0.0622 30.5535 0.0126
# 6 -0.0066 -0.0118 -0.0615 -1.6147 0.0126 33.4123
#
#
#
# Elastic Compliance Matrix: (Units=1/GPa)
#
#
# Indices 1 2 3 4 5 6 
#
# 1 0.027221 -0.003438 -0.010148 0.000044 0.009735 -0.000016
# 2 -0.003438 0.015713 -0.004741 0.000025 0.000776 -0.000003
# 3 -0.010148 -0.004741 0.015846 -0.000036 -0.006557 0.000026
# 4 0.000044 0.000025 -0.000036 0.064090 0.000151 0.003097
# 5 0.009735 0.000776 -0.006557 0.000151 0.036946 -0.000017
# 6 -0.000016 -0.000003 0.000026 0.003097 -0.000017 0.030079
#
#
# Mechanical properties :
#
#
# Convention : Reuss Voigt Hill
#
# Bulk Modulus (GPa) = 45.19347 51.19275 48.19311
# Shear Modulus (GPa) = 21.37445 25.05757 23.21601
#
# Velocity S-wave (km/s) = 3.26710 3.53740 3.40493
# Velocity P-wave (km/s) = 6.06635 6.49991 6.28687
#
# Compressibility (1/GPa) = 0.02212709
#
# Stress axis : x y z
#
# Youngs Moduli (GPa) = 36.73620 63.64107 63.10607
#
# Poissons Ratio (x) = 0.21880 0.64040
# Poissons Ratio (y) = 0.12630 0.29917
# Poissons Ratio (z) = 0.37280 0.30170
#
# Static dielectric constant tensor:
#      x y z
#    x 3.700350 0.000010 0.185310 
#    y 0.000010 3.557280 -0.000070 
#    z 0.185310 -0.000070 3.827360 
# 
# 
# High freq. dielectric constant tensor:
#      x y z
#    x 1.782140 0.000000 0.009280 
#    y 0.000000 1.771530 0.000000 
#    z 0.009280 0.000000 1.797320 
# 
# From -- ./inp_files/76644.got.cif
#   From: 2010.06.25/outbox.cif.g09.slc.cpg/sg15_39_cif.got.tgz:76644.got - 2010.06.28 07:06:18.
