data_PCOD8151474
_publ_section_title
;
Structure prediction by ZEFSAII (Michael W. Deem and Ramdas Pophale) SiO2 
 PCOD8151474
Probable space group: C 2/C
;
_chemical_formula_sum "Si O2"
_cell_formula_units_Z 56
_cell_length_a 22.318458
_cell_length_b 10.532933
_cell_length_c 11.451456
_cell_angle_alpha 90.000000
_cell_angle_beta 117.163445
_cell_angle_gamma 90.000000
_cell_volume 2395.088829
_symmetry_space_group_name_H-M "C 2/C"
_symmetry_group_IT_number 15
_symmetry_cell_setting 'monoclinic'
loop_
_space_group_symop_operation_xyz
x,y,z
-x,y,1/2-z
-x,-y,-z
x,-y,1/2+z
1/2+x,1/2+y,z
1/2-x,1/2+y,1/2-z
1/2-x,1/2-y,-z
1/2+x,1/2-y,1/2+z
loop_
_atom_site_type_symbol
_atom_site_label
_atom_site_fract_x
_atom_site_fract_y
_atom_site_fract_z
Si Si1 0.026035 0.947602 0.398072
Si Si2 0.845324 0.929150 0.553219
Si Si3 0.919205 0.444909 0.054816
Si Si4 0.766190 0.504976 0.377622
Si Si5 0.890909 0.282268 0.240664
Si Si6 0.990237 0.680996 0.037527
Si Si7 0.754022 0.785313 0.310360
O O1 0.002776 0.801510 0.372533
O O2 0.000000 0.006305 0.250000
O O3 0.107275 0.969699 0.471299
O O4 0.000000 0.000000 0.500000
O O5 0.778345 0.994110 0.544558
O O6 0.890852 0.862205 0.693370
O O7 0.819983 0.814829 0.446744
O O8 0.928708 0.376384 0.186390
O O9 0.939998 0.347142 0.969231
O O10 0.844879 0.501019 0.973644
O O11 0.971664 0.560781 0.100101
O O12 0.752101 0.632495 0.286211
O O13 0.741600 0.373559 0.298980
O O14 0.929438 0.286320 0.395830
O O15 0.813740 0.327818 0.183413
#
# Coordination Sequence:
#
# PCOD8151474 Si02
#       7
#     8   8   8   8   8   8   8
#     4  12  29  50  72 107 147 190 245 302 371 436
#     4  11  24  43  71  97 135 189 237 296 361 446
#     4  11  22  43  66 100 140 188 240 291 369 430
#     4  11  23  43  68 103 138 188 240 301 362 436
#     4  11  20  43  68  99 133 186 241 284 363 447
#     4  11  26  41  70 101 141 184 235 305 355 436
#     4  11  23  40  71  99 139 181 243 296 363 442
#
# _framework density 23.381177999999998
#
# number of rings (size 3 to 8) (size 9 to 14) (size 15 to 20)
#    0.000    0.857    4.286    3.000    6.000    2.286 
#    2.571    1.429    0.000    0.000    0.000    0.000 
#    0.000    0.000    0.000    0.000    0.000    0.000 
#
# Total GULP energy -347038.769688 kJ/mol
# GULP energy per Si atom -12394.241775 kJ/mol
# Density = 2.332796 g / cm^3
# Si number density = 23.381178 Si / 1000 Ang^3
#
#
#
# Elastic Constant Matrix: (Units=GPa)
#
#
# Indices 1 2 3 4 5 6 
#
# 1 130.9221 24.0277 20.2314 0.0000 -3.1344 0.0000
# 2 24.0277 64.7340 -3.1304 0.0000 -13.9913 0.0000
# 3 20.2314 -3.1304 58.6869 0.0000 -10.5289 0.0000
# 4 0.0000 0.0000 0.0000 33.2864 0.0000 -4.9479
# 5 -3.1344 -13.9913 -10.5289 0.0000 27.4881 0.0000
# 6 0.0000 0.0000 0.0000 -4.9479 0.0000 35.3477
#
#
#
# Elastic Compliance Matrix: (Units=1/GPa)
#
#
# Indices 1 2 3 4 5 6 
#
# 1 0.008890 -0.004009 -0.003718 0.000000 -0.002451 0.000000
# 2 -0.004009 0.019572 0.004436 0.000000 0.011204 0.000000
# 3 -0.003718 0.004436 0.020281 0.000000 0.009602 0.000000
# 4 0.000000 0.000000 0.000000 0.030681 0.000000 0.004295
# 5 -0.002451 0.011204 0.009602 0.000000 0.045481 0.000000
# 6 0.000000 0.000000 0.000000 0.004295 0.000000 0.028892
#
#
# Mechanical properties :
#
#
# Convention : Reuss Voigt Hill
#
# Bulk Modulus (GPa) = 23.71910 37.40004 30.55957
# Shear Modulus (GPa) = 28.66451 33.43873 31.05162
#
# Velocity S-wave (km/s) = 3.50518 3.78584 3.64821
# Velocity P-wave (km/s) = 5.15250 5.92796 5.55378
#
# Compressibility (1/GPa) = 0.04216012
#
# Stress axis : x y z
#
# Youngs Moduli (GPa) = 112.48790 51.09302 49.30781
#
# Poissons Ratio (x) = 0.20485 0.18334
# Poissons Ratio (y) = 0.45100 -0.21874
# Poissons Ratio (z) = 0.41826 -0.22666
#
# Static dielectric constant tensor:
#      x y z
#    x 4.382740 0.000000 -0.080300 
#    y 0.000000 4.254760 0.000000 
#    z -0.080300 0.000000 3.921510 
# 
# 
# High freq. dielectric constant tensor:
#      x y z
#    x 1.941930 0.000000 0.004420 
#    y 0.000000 1.919560 0.000000 
#    z 0.004420 0.000000 1.904750 
# 
# From -- ./inp_files/117654.got.cif
#   From: 2010.06.25/outbox.cif.g09.slc.cpg/sg15_59_cif.got.tgz:117654.got - 2010.06.28 07:06:18.
