data_PCOD8151159
_publ_section_title
;
Structure prediction by ZEFSAII (Michael W. Deem and Ramdas Pophale) SiO2 
 PCOD8151159
Probable space group: C 2/C
;
_chemical_formula_sum "Si O2"
_cell_formula_units_Z 64
_cell_length_a 26.054063
_cell_length_b 30.829947
_cell_length_c 9.936233
_cell_angle_alpha 90.000000
_cell_angle_beta 152.801885
_cell_angle_gamma 90.000000
_cell_volume 3647.971638
_symmetry_space_group_name_H-M "C 2/C"
_symmetry_group_IT_number 15
_symmetry_cell_setting 'monoclinic'
loop_
_space_group_symop_operation_xyz
x,y,z
-x,y,1/2-z
-x,-y,-z
x,-y,1/2+z
1/2+x,1/2+y,z
1/2-x,1/2+y,1/2-z
1/2-x,1/2-y,-z
1/2+x,1/2-y,1/2+z
loop_
_atom_site_type_symbol
_atom_site_label
_atom_site_fract_x
_atom_site_fract_y
_atom_site_fract_z
Si Si1 0.073084 0.772166 0.800935
Si Si2 0.206109 0.322746 0.203366
Si Si3 0.926650 0.761683 0.200026
Si Si4 0.296249 0.810547 0.799961
Si Si5 0.365944 0.037791 0.303081
Si Si6 0.871416 0.369548 0.209248
Si Si7 0.631912 0.964071 0.389494
Si Si8 0.364035 0.132513 0.212326
O O1 0.000000 0.794346 0.750000
O O2 0.002249 0.755685 0.508448
O O3 0.168895 0.805365 0.974996
O O4 0.127036 0.730513 0.994897
O O5 0.162328 0.348710 0.229009
O O6 0.122996 0.283923 0.967284
O O7 0.207652 0.357333 0.087209
O O8 0.000000 0.781357 0.250000
O O9 0.832076 0.796364 0.015964
O O10 0.336934 0.831125 0.757337
O O11 0.305454 0.844565 0.940364
O O12 0.319197 0.030097 0.345406
O O13 0.499148 0.034412 0.601307
O O14 0.323804 0.085377 0.164970
O O15 0.317581 0.002060 0.086769
O O16 0.833935 0.419515 0.105538
O O17 0.004091 0.365806 0.505558
#
# Coordination Sequence:
#
# PCOD8151159 Si02
#       8
#     8   8   8   8   8   8   8   8
#     4  11  22  37  54  72 103 138 175 222 262 300
#     4  11  23  34  51  78 102 138 180 214 257 306
#     4  11  22  37  52  74 103 138 175 220 267 299
#     4  11  21  34  55  74 100 138 180 215 253 311
#     4   9  18  31  48  72 104 140 170 201 248 307
#     4  11  20  33  51  76 109 140 172 213 251 305
#     4   9  18  31  48  72 104 141 169 199 252 305
#     4  11  20  33  51  76 107 140 176 210 250 304
#
# _framework density 17.543996
#
# number of rings (size 3 to 8) (size 9 to 14) (size 15 to 20)
#    0.000    1.500    1.250    6.000    1.750    4.000 
#    0.000    0.000    0.000    0.000    0.000    0.000 
#    0.000   20.000    0.000    0.000    0.000    0.000 
#
# Total GULP energy -396789.537645 kJ/mol
# GULP energy per Si atom -12399.673051 kJ/mol
# Density = 1.750407 g / cm^3
# Si number density = 17.543996 Si / 1000 Ang^3
#
#
#
# Elastic Constant Matrix: (Units=GPa)
#
#
# Indices 1 2 3 4 5 6 
#
# 1 124.8126 53.4035 46.6283 0.0000 -19.3345 0.0000
# 2 53.4035 112.3391 36.7432 0.0000 -11.9698 0.0000
# 3 46.6283 36.7432 72.7343 0.0000 -11.8761 0.0000
# 4 0.0000 0.0000 0.0000 17.0101 0.0000 -10.2817
# 5 -19.3345 -11.9698 -11.8761 0.0000 36.7482 0.0000
# 6 0.0000 0.0000 0.0000 -10.2817 0.0000 20.2271
#
#
#
# Elastic Compliance Matrix: (Units=1/GPa)
#
#
# Indices 1 2 3 4 5 6 
#
# 1 0.012104 -0.003633 -0.005361 0.000000 0.003453 0.000000
# 2 -0.003633 0.011872 -0.003536 0.000000 0.000813 0.000000
# 3 -0.005361 -0.003536 0.019343 0.000000 0.002279 0.000000
# 4 0.000000 0.000000 0.000000 0.084862 0.000000 0.043137
# 5 0.003453 0.000813 0.002279 0.000000 0.030030 0.000000
# 6 0.000000 0.000000 0.000000 0.043137 0.000000 0.071366
#
#
# Mechanical properties :
#
#
# Convention : Reuss Voigt Hill
#
# Bulk Modulus (GPa) = 54.76130 64.82621 59.79375
# Shear Modulus (GPa) = 19.17755 26.33783 22.75769
#
# Velocity S-wave (km/s) = 3.30981 3.87879 3.60554
# Velocity P-wave (km/s) = 6.77406 7.55585 7.17561
#
# Compressibility (1/GPa) = 0.01826107
#
# Stress axis : x y z
#
# Youngs Moduli (GPa) = 82.61867 84.23509 51.69706
#
# Poissons Ratio (x) = 0.30600 0.27713
# Poissons Ratio (y) = 0.30013 0.18278
# Poissons Ratio (z) = 0.44289 0.29782
#
# Static dielectric constant tensor:
#      x y z
#    x 3.375980 0.000000 -0.158150 
#    y 0.000000 3.395140 0.000000 
#    z -0.158150 0.000000 3.163990 
# 
# 
# High freq. dielectric constant tensor:
#      x y z
#    x 1.688270 0.000000 -0.028040 
#    y 0.000000 1.674030 0.000000 
#    z -0.028040 0.000000 1.651400 
# 
# From -- ./inp_files/52838.got.cif
#   From: 2010.06.25/outbox.cif.g09.slc.cpg/sg15_27_cif.got.tgz:52838.got - 2010.06.28 07:06:18.
