data_PCOD8151984
_publ_section_title
;
Structure prediction by ZEFSAII (Michael W. Deem and Ramdas Pophale) SiO2 
 PCOD8151984
Probable space group: C 2/C
;
_chemical_formula_sum "Si O2"
_cell_formula_units_Z 60
_cell_length_a 7.514426
_cell_length_b 11.884015
_cell_length_c 32.289497
_cell_angle_alpha 90.000000
_cell_angle_beta 112.315930
_cell_angle_gamma 90.000000
_cell_volume 2667.539919
_symmetry_space_group_name_H-M "C 2/C"
_symmetry_group_IT_number 15
_symmetry_cell_setting 'monoclinic'
loop_
_space_group_symop_operation_xyz
x,y,z
-x,y,1/2-z
-x,-y,-z
x,-y,1/2+z
1/2+x,1/2+y,z
1/2-x,1/2+y,1/2-z
1/2-x,1/2-y,-z
1/2+x,1/2-y,1/2+z
loop_
_atom_site_type_symbol
_atom_site_label
_atom_site_fract_x
_atom_site_fract_y
_atom_site_fract_z
Si Si1 0.478990 0.270227 0.559141
Si Si2 0.000000 0.418633 0.750000
Si Si3 0.956920 0.259593 0.819048
Si Si4 0.327790 0.876107 0.356232
Si Si5 0.950232 0.768752 0.466065
Si Si6 0.175134 0.589738 0.824356
Si Si7 0.496685 0.088128 0.098745
Si Si8 0.897898 0.989986 0.419692
O O1 0.618287 0.215649 0.604696
O O2 0.273591 0.212353 0.544054
O O3 0.563131 0.251680 0.519612
O O4 0.461324 0.403250 0.566925
O O5 0.904450 0.338947 0.775862
O O6 0.846043 0.498265 0.713780
O O7 0.752241 0.204741 0.811540
O O8 0.032556 0.334749 0.863617
O O9 0.118031 0.164153 0.821800
O O10 0.477561 0.881832 0.331105
O O11 0.327643 0.999748 0.377952
O O12 0.970301 0.661464 0.438791
O O13 0.013619 0.886064 0.450578
O O14 0.345106 0.544382 0.868456
O O15 0.300972 0.018737 0.074031
#
# Coordination Sequence:
#
# PCOD8151984 Si02
#       8
#     8   4   8   8   8   8   8   8
#     4  11  22  40  64  96 135 177 230 281 323 392
#     4  12  26  48  70 106 136 160 232 288 322 426
#     4  12  25  46  72  98 132 180 221 273 349 407
#     4  11  23  47  70 100 138 182 227 274 338 407
#     4  11  24  39  62  99 133 179 230 275 333 395
#     4  11  25  48  70  99 139 172 219 284 339 403
#     4  11  22  42  64  92 135 174 223 274 330 400
#     4  11  21  44  63  90 133 176 221 275 331 394
#
# _framework density 22.492633999999999
#
# number of rings (size 3 to 8) (size 9 to 14) (size 15 to 20)
#    0.000    0.800    8.000    0.400    3.733    1.067 
#    2.400    1.333    0.000    0.000    0.000    0.000 
#    0.000    0.000    0.000    0.000    0.000    0.000 
#
# Total GULP energy -371942.786249 kJ/mol
# GULP energy per Si atom -12398.092875 kJ/mol
# Density = 2.244144 g / cm^3
# Si number density = 22.492634 Si / 1000 Ang^3
#
#
#
# Elastic Constant Matrix: (Units=GPa)
#
#
# Indices 1 2 3 4 5 6 
#
# 1 39.3474 37.0692 29.9809 0.0000 -8.2674 0.0000
# 2 37.0692 148.3988 43.7201 0.0000 -8.9613 0.0000
# 3 29.9809 43.7201 115.5250 0.0000 -19.7981 0.0000
# 4 0.0000 0.0000 0.0000 40.2378 0.0000 0.5395
# 5 -8.2674 -8.9613 -19.7981 0.0000 15.3686 0.0000
# 6 0.0000 0.0000 0.0000 0.5395 0.0000 32.5601
#
#
#
# Elastic Compliance Matrix: (Units=1/GPa)
#
#
# Indices 1 2 3 4 5 6 
#
# 1 0.038651 -0.007438 -0.005641 0.000000 0.009188 0.000000
# 2 -0.007438 0.009026 -0.001629 0.000000 -0.000837 0.000000
# 3 -0.005641 -0.001629 0.012902 0.000000 0.012636 0.000000
# 4 0.000000 0.000000 0.000000 0.024858 0.000000 -0.000412
# 5 0.009188 -0.000837 0.012636 0.000000 0.085800 0.000000
# 6 0.000000 0.000000 0.000000 -0.000412 0.000000 0.030719
#
#
# Mechanical properties :
#
#
# Convention : Reuss Voigt Hill
#
# Bulk Modulus (GPa) = 32.08971 58.31241 45.20106
# Shear Modulus (GPa) = 20.68167 30.46672 25.57420
#
# Velocity S-wave (km/s) = 3.03559 3.68437 3.37561
# Velocity P-wave (km/s) = 5.15598 6.63934 5.94412
#
# Compressibility (1/GPa) = 0.03116264
#
# Stress axis : x y z
#
# Youngs Moduli (GPa) = 25.87275 110.79183 77.50650
#
# Poissons Ratio (x) = 0.82407 0.43723
# Poissons Ratio (y) = 0.19244 0.12625
# Poissons Ratio (z) = 0.14595 0.18047
#
# Static dielectric constant tensor:
#      x y z
#    x 3.728290 0.000000 -0.147780 
#    y 0.000000 4.294780 0.000000 
#    z -0.147780 0.000000 4.198450 
# 
# 
# High freq. dielectric constant tensor:
#      x y z
#    x 1.859450 0.000000 -0.009620 
#    y 0.000000 1.904900 0.000000 
#    z -0.009620 0.000000 1.886790 
# 
# From -- ./inp_files/307149.got.cif
#   From: 2010.06.25/outbox.cif.g09.slc.cpg/sg15_154_cif.got.tgz:307149.got - 2010.06.28 07:06:18.
