data_PCOD8151450
_publ_section_title
;
Structure prediction by ZEFSAII (Michael W. Deem and Ramdas Pophale) SiO2 
 PCOD8151450
Probable space group: C 2/C
;
_chemical_formula_sum "Si O2"
_cell_formula_units_Z 52
_cell_length_a 9.567360
_cell_length_b 10.981490
_cell_length_c 25.506516
_cell_angle_alpha 90.000000
_cell_angle_beta 82.534861
_cell_angle_gamma 90.000000
_cell_volume 2657.099392
_symmetry_space_group_name_H-M "C 2/C"
_symmetry_group_IT_number 15
_symmetry_cell_setting 'monoclinic'
loop_
_space_group_symop_operation_xyz
x,y,z
-x,y,1/2-z
-x,-y,-z
x,-y,1/2+z
1/2+x,1/2+y,z
1/2-x,1/2+y,1/2-z
1/2-x,1/2-y,-z
1/2+x,1/2-y,1/2+z
loop_
_atom_site_type_symbol
_atom_site_label
_atom_site_fract_x
_atom_site_fract_y
_atom_site_fract_z
Si Si1 0.352565 0.090744 0.971370
Si Si2 0.500000 0.938705 0.750000
Si Si3 0.843413 0.335442 0.663293
Si Si4 0.291781 0.633764 0.965938
Si Si5 0.428441 0.175195 0.803574
Si Si6 0.088326 0.217698 0.943385
Si Si7 0.105736 0.584564 0.885364
O O1 0.240390 0.153337 0.937942
O O2 0.480437 0.038227 0.930401
O O3 0.419503 0.183913 0.009654
O O4 0.271976 0.987169 0.006548
O O5 0.398344 0.031507 0.788961
O O6 0.420124 0.845161 0.715555
O O7 0.706736 0.252260 0.675148
O O8 0.936572 0.276042 0.612681
O O9 0.813076 0.473243 0.646561
O O10 0.461226 0.621596 0.956474
O O11 0.227323 0.654046 0.911175
O O12 0.250000 0.750000 0.000000
O O13 0.500000 0.241303 0.750000
O O14 0.538578 0.176814 0.846446
#
# Coordination Sequence:
#
# PCOD8151450 Si02
#       7
#     8   4   8   8   8   8   8
#     4  11  22  41  61  91 134 172 207 254 313 370
#     4   8  22  40  68  86 118 156 210 264 312 372
#     4  11  20  42  69  90 123 167 207 258 325 368
#     4  12  23  37  59  95 132 169 215 251 300 375
#     4   9  21  42  65  90 120 162 207 264 320 369
#     4  11  23  38  65  93 131 170 209 257 308 376
#     4  11  21  40  67  89 126 172 206 255 314 370
#
# _framework density 19.570214
#
# number of rings (size 3 to 8) (size 9 to 14) (size 15 to 20)
#    0.462    0.923    4.615    1.846    0.000    1.231 
#    2.769    1.538    0.000    0.000    0.000    0.000 
#    0.000    0.000    0.000    0.000    0.000    0.000 
#
# Total GULP energy -322207.093203 kJ/mol
# GULP energy per Si atom -12392.580508 kJ/mol
# Density = 1.952567 g / cm^3
# Si number density = 19.570214 Si / 1000 Ang^3
#
#
#
# Elastic Constant Matrix: (Units=GPa)
#
#
# Indices 1 2 3 4 5 6 
#
# 1 106.4475 51.3889 60.0597 0.0000 12.2092 0.0000
# 2 51.3889 70.2754 32.4566 0.0000 17.9467 0.0000
# 3 60.0597 32.4566 119.1649 0.0000 30.8878 0.0000
# 4 0.0000 0.0000 0.0000 26.7486 0.0000 1.0527
# 5 12.2092 17.9467 30.8878 0.0000 35.0312 0.0000
# 6 0.0000 0.0000 0.0000 1.0527 0.0000 34.9154
#
#
#
# Elastic Compliance Matrix: (Units=1/GPa)
#
#
# Indices 1 2 3 4 5 6 
#
# 1 0.018806 -0.011728 -0.007962 0.000000 0.006474 0.000000
# 2 -0.011728 0.024534 0.001850 0.000000 -0.010113 0.000000
# 3 -0.007962 0.001850 0.014813 0.000000 -0.011233 0.000000
# 4 0.000000 0.000000 0.000000 0.037430 0.000000 -0.001129
# 5 0.006474 -0.010113 -0.011233 0.000000 0.041375 0.000000
# 6 0.000000 0.000000 0.000000 -0.001129 0.000000 0.028675
#
#
# Mechanical properties :
#
#
# Convention : Reuss Voigt Hill
#
# Bulk Modulus (GPa) = 44.49980 64.85534 54.67757
# Shear Modulus (GPa) = 23.94607 29.47121 26.70864
#
# Velocity S-wave (km/s) = 3.50179 3.88483 3.69827
# Velocity P-wave (km/s) = 6.25603 7.30303 6.79972
#
# Compressibility (1/GPa) = 0.02247201
#
# Stress axis : x y z
#
# Youngs Moduli (GPa) = 53.17480 40.75987 67.51042
#
# Poissons Ratio (x) = 0.47803 0.53753
# Poissons Ratio (y) = 0.62363 -0.12489
# Poissons Ratio (z) = 0.42339 -0.07540
#
# Static dielectric constant tensor:
#      x y z
#    x 3.677910 0.000000 0.198300 
#    y 0.000000 3.300310 0.000000 
#    z 0.198300 0.000000 3.912540 
# 
# 
# High freq. dielectric constant tensor:
#      x y z
#    x 1.751330 0.000000 0.012920 
#    y 0.000000 1.744730 0.000000 
#    z 0.012920 0.000000 1.780150 
# 
# From -- ./inp_files/287681.got.cif
#   From: 2010.06.25/outbox.cif.g09.slc.cpg/sg15_144_cif.got.tgz:287681.got - 2010.06.28 07:06:18.
