data_PCOD8151001
_publ_section_title
;
Structure prediction by ZEFSAII (Michael W. Deem and Ramdas Pophale) SiO2 
 PCOD8151001
Probable space group: C 2/C
;
_chemical_formula_sum "Si O2"
_cell_formula_units_Z 52
_cell_length_a 8.479007
_cell_length_b 16.537686
_cell_length_c 17.212733
_cell_angle_alpha 90.000000
_cell_angle_beta 87.304810
_cell_angle_gamma 90.000000
_cell_volume 2410.953846
_symmetry_space_group_name_H-M "C 2/C"
_symmetry_group_IT_number 15
_symmetry_cell_setting 'monoclinic'
loop_
_space_group_symop_operation_xyz
x,y,z
-x,y,1/2-z
-x,-y,-z
x,-y,1/2+z
1/2+x,1/2+y,z
1/2-x,1/2+y,1/2-z
1/2-x,1/2-y,-z
1/2+x,1/2-y,1/2+z
loop_
_atom_site_type_symbol
_atom_site_label
_atom_site_fract_x
_atom_site_fract_y
_atom_site_fract_z
Si Si1 0.938333 0.727300 0.132200
Si Si2 0.854302 0.905415 0.640179
Si Si3 0.000000 0.021547 0.750000
Si Si4 0.780187 0.405292 0.154850
Si Si5 0.625655 0.321374 0.017997
Si Si6 0.255633 0.252880 0.723488
Si Si7 0.005725 0.445348 0.658443
O O1 0.962446 0.780534 0.053642
O O2 0.096549 0.744430 0.176909
O O3 0.924877 0.630865 0.116218
O O4 0.784588 0.755657 0.183958
O O5 0.920803 0.868100 0.559141
O O6 0.847259 0.835762 0.706003
O O7 0.687318 0.950032 0.627894
O O8 0.973973 0.970408 0.671991
O O9 0.153387 0.073166 0.725059
O O10 0.698095 0.388107 0.074430
O O11 0.857636 0.323290 0.189142
O O12 0.914061 0.472679 0.139695
O O13 0.750000 0.250000 0.000000
O O14 0.000000 0.426854 0.750000
#
# Coordination Sequence:
#
# PCOD8151001 Si02
#       7
#     8   8   4   8   8   8   8
#     4   9  15  31  61  80 114 159 204 223 294 363
#     4  11  22  40  63  85 122 160 202 244 303 356
#     4  12  24  40  60  90 122 160 198 252 300 356
#     4  11  22  34  62  91 119 151 204 245 301 351
#     4  11  20  37  60  92 117 161 200 246 295 365
#     4   9  16  34  57  84 109 160 199 236 273 367
#     4  11  18  36  61  91 117 154 198 252 295 350
#
# _framework density 21.568228000000001
#
# number of rings (size 3 to 8) (size 9 to 14) (size 15 to 20)
#    0.000    1.538    9.231    1.846    0.000    1.231 
#    1.385    0.000    0.000    3.692    0.000    0.000 
#    0.000    0.000    0.000    0.000    0.000    0.000 
#
# Total GULP energy -322257.326416 kJ/mol
# GULP energy per Si atom -12394.512554 kJ/mol
# Density = 2.151914 g / cm^3
# Si number density = 21.568228 Si / 1000 Ang^3
#
#
#
# Elastic Constant Matrix: (Units=GPa)
#
#
# Indices 1 2 3 4 5 6 
#
# 1 37.3889 34.9109 14.7838 0.0000 -12.3624 0.0000
# 2 34.9109 126.0123 24.0454 0.0000 -3.0863 0.0000
# 3 14.7838 24.0454 88.5084 0.0000 -20.7789 0.0000
# 4 0.0000 0.0000 0.0000 36.3269 0.0000 -2.1311
# 5 -12.3624 -3.0863 -20.7789 0.0000 24.7218 0.0000
# 6 0.0000 0.0000 0.0000 -2.1311 0.0000 24.5087
#
#
#
# Elastic Compliance Matrix: (Units=1/GPa)
#
#
# Indices 1 2 3 4 5 6 
#
# 1 0.044805 -0.012049 0.000867 0.000000 0.021630 0.000000
# 2 -0.012049 0.011633 -0.002767 0.000000 -0.006899 0.000000
# 3 0.000867 -0.002767 0.014858 0.000000 0.012576 0.000000
# 4 0.000000 0.000000 0.000000 0.027669 0.000000 0.002406
# 5 0.021630 -0.006899 0.012576 0.000000 0.060976 0.000000
# 6 0.000000 0.000000 0.000000 0.002406 0.000000 0.041011
#
#
# Mechanical properties :
#
#
# Convention : Reuss Voigt Hill
#
# Bulk Modulus (GPa) = 23.04236 44.37664 33.70950
# Shear Modulus (GPa) = 20.54952 28.98947 24.76949
#
# Velocity S-wave (km/s) = 3.09004 3.67015 3.39252
# Velocity P-wave (km/s) = 4.84126 6.21125 5.56855
#
# Compressibility (1/GPa) = 0.04339834
#
# Stress axis : x y z
#
# Youngs Moduli (GPa) = 22.31899 85.96350 67.30453
#
# Poissons Ratio (x) = 1.03575 -0.05839
# Poissons Ratio (y) = 0.26891 0.18626
# Poissons Ratio (z) = -0.01936 0.23790
#
# Static dielectric constant tensor:
#      x y z
#    x 3.587380 0.000000 -0.472080 
#    y 0.000000 4.248080 0.000000 
#    z -0.472080 0.000000 3.942100 
# 
# 
# High freq. dielectric constant tensor:
#      x y z
#    x 1.805890 0.000000 -0.030480 
#    y 0.000000 1.862860 0.000000 
#    z -0.030480 0.000000 1.826230 
# 
# From -- ./inp_files/145147.got.cif
#   From: 2010.06.25/outbox.cif.g09.slc.cpg/sg15_73_cif.got.tgz:145147.got - 2010.06.28 07:06:18.
