data_PCOD8151268
_publ_section_title
;
Structure prediction by ZEFSAII (Michael W. Deem and Ramdas Pophale) SiO2 
 PCOD8151268
Probable space group: C 2/C
;
_chemical_formula_sum "Si O2"
_cell_formula_units_Z 64
_cell_length_a 11.905306
_cell_length_b 18.358086
_cell_length_c 17.467052
_cell_angle_alpha 90.000000
_cell_angle_beta 131.435740
_cell_angle_gamma 90.000000
_cell_volume 2862.029893
_symmetry_space_group_name_H-M "C 2/C"
_symmetry_group_IT_number 15
_symmetry_cell_setting 'monoclinic'
loop_
_space_group_symop_operation_xyz
x,y,z
-x,y,1/2-z
-x,-y,-z
x,-y,1/2+z
1/2+x,1/2+y,z
1/2-x,1/2+y,1/2-z
1/2-x,1/2-y,-z
1/2+x,1/2-y,1/2+z
loop_
_atom_site_type_symbol
_atom_site_label
_atom_site_fract_x
_atom_site_fract_y
_atom_site_fract_z
Si Si1 0.830292 0.262749 0.700449
Si Si2 0.097785 0.917870 0.961831
Si Si3 0.420801 0.121983 0.632735
Si Si4 0.587317 0.650194 0.001183
Si Si5 0.613163 0.555707 0.867999
Si Si6 0.368954 0.877342 0.410120
Si Si7 0.619476 0.715871 0.369412
Si Si8 0.599568 0.791697 0.600775
O O1 0.742118 0.317261 0.603890
O O2 0.744924 0.185987 0.668781
O O3 0.833453 0.301229 0.784527
O O4 0.000000 0.250237 0.750000
O O5 0.063129 0.840661 0.906656
O O6 0.979635 0.917680 0.979097
O O7 0.064267 0.981154 0.886178
O O8 0.270275 0.926717 0.066917
O O9 0.500000 0.115513 0.750000
O O10 0.534699 0.094912 0.618709
O O11 0.368088 0.204133 0.586701
O O12 0.619176 0.622157 0.930550
O O13 0.456447 0.709547 0.936864
O O14 0.500000 0.574915 0.750000
O O15 0.776963 0.553496 0.901638
O O16 0.468088 0.848850 0.525585
O O17 0.500000 0.724038 0.250000
O O18 0.774388 0.689200 0.403930
#
# Coordination Sequence:
#
# PCOD8151268 Si02
#       8
#     8   8   8   8   8   8   8   8
#     4  11  22  38  67 104 135 172 218 273 338 390
#     4  12  24  44  66  97 131 173 224 275 321 392
#     4  11  23  40  69 100 130 169 214 279 346 388
#     4  11  24  44  68  97 135 171 224 273 329 395
#     4  12  28  45  67  91 132 187 226 262 321 399
#     4  11  23  41  64  99 136 174 219 269 329 398
#     4  11  20  37  66 100 130 164 213 274 339 386
#     4  11  20  38  67 100 131 166 213 285 334 383
#
# _framework density 22.361751000000002
#
# number of rings (size 3 to 8) (size 9 to 14) (size 15 to 20)
#    0.000    0.750    2.500    7.500    1.750    2.500 
#    0.000    1.875    0.000    0.000    0.000    0.000 
#    0.000    0.000    0.000    0.000    0.000    0.000 
#
# Total GULP energy -396927.630970 kJ/mol
# GULP energy per Si atom -12403.988468 kJ/mol
# Density = 2.231085 g / cm^3
# Si number density = 22.361751 Si / 1000 Ang^3
#
#
#
# Elastic Constant Matrix: (Units=GPa)
#
#
# Indices 1 2 3 4 5 6 
#
# 1 105.7423 -2.7242 24.0902 0.0000 5.4035 0.0000
# 2 -2.7242 31.4426 18.5455 0.0000 -1.0837 0.0000
# 3 24.0902 18.5455 117.0074 0.0000 -7.9124 0.0000
# 4 0.0000 0.0000 0.0000 19.6842 0.0000 -6.7414
# 5 5.4035 -1.0837 -7.9124 0.0000 41.3162 0.0000
# 6 0.0000 0.0000 0.0000 -6.7414 0.0000 31.6266
#
#
#
# Elastic Compliance Matrix: (Units=1/GPa)
#
#
# Indices 1 2 3 4 5 6 
#
# 1 0.010198 0.002351 -0.002592 0.000000 -0.001769 0.000000
# 2 0.002351 0.035627 -0.006168 0.000000 -0.000554 0.000000
# 3 -0.002592 -0.006168 0.010202 0.000000 0.002131 0.000000
# 4 0.000000 0.000000 0.000000 0.054803 0.000000 0.011682
# 5 -0.001769 -0.000554 0.002131 0.000000 0.024828 0.000000
# 6 0.000000 0.000000 0.000000 0.011682 0.000000 0.034109
#
#
# Mechanical properties :
#
#
# Convention : Reuss Voigt Hill
#
# Bulk Modulus (GPa) = 23.14321 37.11283 30.12802
# Shear Modulus (GPa) = 25.38220 32.81079 29.09650
#
# Velocity S-wave (km/s) = 3.37274 3.83466 3.61109
# Velocity P-wave (km/s) = 5.05362 6.01986 5.55778
#
# Compressibility (1/GPa) = 0.04320923
#
# Stress axis : x y z
#
# Youngs Moduli (GPa) = 98.05446 28.06871 98.02078
#
# Poissons Ratio (x) = -0.06600 0.25407
# Poissons Ratio (y) = -0.23057 0.60463
# Poissons Ratio (z) = 0.25416 0.17314
#
# Static dielectric constant tensor:
#      x y z
#    x 3.986090 0.000000 -0.042240 
#    y 0.000000 3.612870 0.000000 
#    z -0.042240 0.000000 4.227110 
# 
# 
# High freq. dielectric constant tensor:
#      x y z
#    x 1.896750 0.000000 -0.002300 
#    y 0.000000 1.841190 0.000000 
#    z -0.002300 0.000000 1.903900 
# 
# From -- ./inp_files/200412.got.cif
#   From: 2010.06.25/outbox.cif.g09.slc.cpg/sg15_101_cif.got.tgz:200412.got - 2010.06.28 07:06:18.
