data_PCOD8151610
_publ_section_title
;
Structure prediction by ZEFSAII (Michael W. Deem and Ramdas Pophale) SiO2 
 PCOD8151610
Probable space group: C 2/C
;
_chemical_formula_sum "Si O2"
_cell_formula_units_Z 40
_cell_length_a 9.886865
_cell_length_b 21.392514
_cell_length_c 8.884060
_cell_angle_alpha 90.000000
_cell_angle_beta 91.488939
_cell_angle_gamma 90.000000
_cell_volume 1878.387770
_symmetry_space_group_name_H-M "C 2/C"
_symmetry_group_IT_number 15
_symmetry_cell_setting 'monoclinic'
loop_
_space_group_symop_operation_xyz
x,y,z
-x,y,1/2-z
-x,-y,-z
x,-y,1/2+z
1/2+x,1/2+y,z
1/2-x,1/2+y,1/2-z
1/2-x,1/2-y,-z
1/2+x,1/2-y,1/2+z
loop_
_atom_site_type_symbol
_atom_site_label
_atom_site_fract_x
_atom_site_fract_y
_atom_site_fract_z
Si Si1 0.399300 0.475473 0.877425
Si Si2 0.533203 0.169939 0.924167
Si Si3 0.507264 0.309023 0.925062
Si Si4 0.203856 0.891017 0.127351
Si Si5 0.741990 0.638764 0.969495
O O1 0.500000 0.450681 0.750000
O O2 0.306304 0.535416 0.835334
O O3 0.500000 0.500000 0.000000
O O4 0.301475 0.422783 0.939663
O O5 0.500000 0.162457 0.750000
O O6 0.574872 0.241796 0.959791
O O7 0.660519 0.125177 0.965392
O O8 0.400077 0.149383 0.013129
O O9 0.500000 0.326674 0.750000
O O10 0.579298 0.363753 0.025090
O O11 0.350328 0.304750 0.971528
O O12 0.212312 0.860016 0.290780
#
# Coordination Sequence:
#
# PCOD8151610 Si02
#       5
#     8   8   8   8   8
#     4  12  22  38  64  91 114 153 204 244 291 354
#     4   9  22  40  59  89 122 156 195 244 303 351
#     4  11  21  37  63  89 119 156 202 245 287 355
#     4  11  22  40  63  86 118 161 197 243 299 352
#     4  11  22  39  63  87 121 156 197 246 296 351
#
# _framework density 21.294858000000001
#
# number of rings (size 3 to 8) (size 9 to 14) (size 15 to 20)
#    0.000    1.200    4.000    2.400    0.000    0.800 
#    0.000    3.000    0.000    0.000    0.000    0.000 
#    0.000    0.000    0.000    0.000    0.000    0.000 
#
# Total GULP energy -247816.838765 kJ/mol
# GULP energy per Si atom -12390.841938 kJ/mol
# Density = 2.124639 g / cm^3
# Si number density = 21.294858 Si / 1000 Ang^3
#
#
#
# Elastic Constant Matrix: (Units=GPa)
#
#
# Indices 1 2 3 4 5 6 
#
# 1 122.3580 31.9026 34.0575 0.0000 -36.3857 0.0000
# 2 31.9026 88.0165 9.9285 0.0000 -12.6744 0.0000
# 3 34.0575 9.9285 92.4508 0.0000 -13.4457 0.0000
# 4 0.0000 0.0000 0.0000 24.7141 0.0000 -14.9728
# 5 -36.3857 -12.6744 -13.4457 0.0000 31.1257 0.0000
# 6 0.0000 0.0000 0.0000 -14.9728 0.0000 27.4611
#
#
#
# Elastic Compliance Matrix: (Units=1/GPa)
#
#
# Indices 1 2 3 4 5 6 
#
# 1 0.013739 -0.002684 -0.002770 0.000000 0.013771 0.000000
# 2 -0.002684 0.012627 -0.000081 0.000000 0.001969 0.000000
# 3 -0.002770 -0.000081 0.012132 0.000000 0.001970 0.000000
# 4 0.000000 0.000000 0.000000 0.060422 0.000000 0.032944
# 5 0.013771 0.001969 0.001970 0.000000 0.049878 0.000000
# 6 0.000000 0.000000 0.000000 0.032944 0.000000 0.054377
#
#
# Mechanical properties :
#
#
# Convention : Reuss Voigt Hill
#
# Bulk Modulus (GPa) = 36.45974 50.51138 43.48556
# Shear Modulus (GPa) = 22.38256 31.78929 27.08593
#
# Velocity S-wave (km/s) = 3.24555 3.86789 3.57031
# Velocity P-wave (km/s) = 5.58600 6.61203 6.12055
#
# Compressibility (1/GPa) = 0.02742751
#
# Stress axis : x y z
#
# Youngs Moduli (GPa) = 72.78733 79.19473 82.42540
#
# Poissons Ratio (x) = 0.21258 0.22833
# Poissons Ratio (y) = 0.19538 0.00666
# Poissons Ratio (z) = 0.20163 0.00640
#
# Static dielectric constant tensor:
#      x y z
#    x 4.151430 0.000000 -0.324570 
#    y 0.000000 4.335890 0.000000 
#    z -0.324570 0.000000 3.754050 
# 
# 
# High freq. dielectric constant tensor:
#      x y z
#    x 1.834110 0.000000 -0.018510 
#    y 0.000000 1.840450 0.000000 
#    z -0.018510 0.000000 1.829830 
# 
# From -- ./inp_files/23459.got.cif
#   From: 2010.06.25/outbox.cif.g09.slc.cpg/sg15_12_cif.got.tgz:23459.got - 2010.06.28 07:06:18.
