data_PCOD8151873
_publ_section_title
;
Structure prediction by ZEFSAII (Michael W. Deem and Ramdas Pophale) SiO2 
 PCOD8151873
Probable space group: C 2/C
;
_chemical_formula_sum "Si O2"
_cell_formula_units_Z 36
_cell_length_a 13.527342
_cell_length_b 8.850150
_cell_length_c 17.717827
_cell_angle_alpha 90.000000
_cell_angle_beta 126.148396
_cell_angle_gamma 90.000000
_cell_volume 1712.820071
_symmetry_space_group_name_H-M "C 2/C"
_symmetry_group_IT_number 15
_symmetry_cell_setting 'monoclinic'
loop_
_space_group_symop_operation_xyz
x,y,z
-x,y,1/2-z
-x,-y,-z
x,-y,1/2+z
1/2+x,1/2+y,z
1/2-x,1/2+y,1/2-z
1/2-x,1/2-y,-z
1/2+x,1/2-y,1/2+z
loop_
_atom_site_type_symbol
_atom_site_label
_atom_site_fract_x
_atom_site_fract_y
_atom_site_fract_z
Si Si1 0.500000 0.375022 0.750000
Si Si2 0.258816 0.191767 0.319945
Si Si3 0.925580 0.836500 0.147463
Si Si4 0.491589 0.676019 0.979140
Si Si5 0.294887 0.841917 0.355062
O O1 0.381418 0.275448 0.717595
O O2 0.536651 0.484595 0.836691
O O3 0.349099 0.277365 0.418831
O O4 0.276370 0.258305 0.244484
O O5 0.297315 0.017508 0.335388
O O6 0.781708 0.817046 0.102127
O O7 0.000000 0.755948 0.250000
O O8 0.956463 0.773219 0.079337
O O9 0.500000 0.500000 0.000000
O O10 0.569351 0.773034 0.074470
#
# Coordination Sequence:
#
# PCOD8151873 Si02
#       5
#     4   8   8   8   8
#     4   8  18  36  62  80 120 166 192 262 302 352
#     4  11  21  42  60  92 124 161 203 254 313 358
#     4   9  18  40  62  85 123 162 202 247 309 363
#     4  12  23  39  65  95 122 164 207 253 307 365
#     4  11  22  38  66  89 125 163 205 256 303 371
#
# _framework density 21.017969999999998
#
# number of rings (size 3 to 8) (size 9 to 14) (size 15 to 20)
#    0.667    0.889    2.222    4.000    0.000    0.000 
#    0.000   16.667    0.000    0.000    0.000    0.000 
#    0.000    0.000    0.000    0.000    0.000    0.000 
#
# Total GULP energy -223084.252382 kJ/mol
# GULP energy per Si atom -12393.569577 kJ/mol
# Density = 2.097013 g / cm^3
# Si number density = 21.017970 Si / 1000 Ang^3
#
#
#
# Elastic Constant Matrix: (Units=GPa)
#
#
# Indices 1 2 3 4 5 6 
#
# 1 84.9232 40.8931 28.3312 0.0000 36.0739 0.0000
# 2 40.8931 111.6054 49.5291 0.0000 16.8416 0.0000
# 3 28.3312 49.5291 108.9076 0.0000 29.5325 0.0000
# 4 0.0000 0.0000 0.0000 34.3160 0.0000 6.4230
# 5 36.0739 16.8416 29.5325 0.0000 42.1535 0.0000
# 6 0.0000 0.0000 0.0000 6.4230 0.0000 25.8006
#
#
#
# Elastic Compliance Matrix: (Units=1/GPa)
#
#
# Indices 1 2 3 4 5 6 
#
# 1 0.021365 -0.006061 0.001851 0.000000 -0.017159 0.000000
# 2 -0.006061 0.012988 -0.005345 0.000000 0.003742 0.000000
# 3 0.001851 -0.005345 0.013557 0.000000 -0.008947 0.000000
# 4 0.000000 0.000000 0.000000 0.030565 0.000000 -0.007609
# 5 -0.017159 0.003742 -0.008947 0.000000 0.043181 0.000000
# 6 0.000000 0.000000 0.000000 -0.007609 0.000000 0.040653
#
#
# Mechanical properties :
#
#
# Convention : Reuss Voigt Hill
#
# Bulk Modulus (GPa) = 34.71900 60.32700 47.52300
# Shear Modulus (GPa) = 26.17546 32.89952 29.53749
#
# Velocity S-wave (km/s) = 3.53283 3.96068 3.75286
# Velocity P-wave (km/s) = 5.76158 7.04847 6.43726
#
# Compressibility (1/GPa) = 0.02880267
#
# Stress axis : x y z
#
# Youngs Moduli (GPa) = 46.80533 76.99360 73.76032
#
# Poissons Ratio (x) = 0.46663 -0.13656
# Poissons Ratio (y) = 0.28367 0.39424
# Poissons Ratio (z) = -0.08666 0.41152
#
# Static dielectric constant tensor:
#      x y z
#    x 3.738940 0.000000 0.220970 
#    y 0.000000 3.432930 0.000000 
#    z 0.220970 0.000000 3.838440 
# 
# 
# High freq. dielectric constant tensor:
#      x y z
#    x 1.821610 0.000000 0.015900 
#    y 0.000000 1.792730 0.000000 
#    z 0.015900 0.000000 1.827040 
# 
# From -- ./inp_files/176816.got.cif
#   From: 2010.06.25/outbox.cif.g09.slc.cpg/sg15_89_cif.got.tgz:176816.got - 2010.06.28 07:06:18.
