data_PCOD8151000
_publ_section_title
;
Structure prediction by ZEFSAII (Michael W. Deem and Ramdas Pophale) SiO2 
 PCOD8151000
Probable space group: C 2/C
;
_chemical_formula_sum "Si O2"
_cell_formula_units_Z 64
_cell_length_a 12.140234
_cell_length_b 24.051045
_cell_length_c 11.588751
_cell_angle_alpha 90.000000
_cell_angle_beta 91.193087
_cell_angle_gamma 90.000000
_cell_volume 3383.011517
_symmetry_space_group_name_H-M "C 2/C"
_symmetry_group_IT_number 15
_symmetry_cell_setting 'monoclinic'
loop_
_space_group_symop_operation_xyz
x,y,z
-x,y,1/2-z
-x,-y,-z
x,-y,1/2+z
1/2+x,1/2+y,z
1/2-x,1/2+y,1/2-z
1/2-x,1/2-y,-z
1/2+x,1/2-y,1/2+z
loop_
_atom_site_type_symbol
_atom_site_label
_atom_site_fract_x
_atom_site_fract_y
_atom_site_fract_z
Si Si1 0.904529 0.390727 0.338618
Si Si2 0.189852 0.806884 0.035891
Si Si3 0.294691 0.691406 0.703607
Si Si4 0.048026 0.673811 0.447316
Si Si5 0.828601 0.627371 0.388869
Si Si6 0.553792 0.299765 0.503270
Si Si7 0.062049 0.511225 0.127158
Si Si8 0.234951 0.816735 0.678970
O O1 0.795358 0.356158 0.312623
O O2 0.961839 0.374456 0.459299
O O3 0.869885 0.455307 0.344876
O O4 0.000000 0.379122 0.250000
O O5 0.156616 0.808192 0.168225
O O6 0.071601 0.816493 0.973344
O O7 0.250000 0.750000 0.000000
O O8 0.273147 0.857730 0.010854
O O9 0.396042 0.681421 0.618753
O O10 0.236411 0.750344 0.684399
O O11 0.058167 0.732993 0.508725
O O12 0.155859 0.659726 0.377969
O O13 0.937536 0.665655 0.368616
O O14 0.852829 0.562035 0.385414
O O15 0.733868 0.650072 0.299303
O O16 0.625560 0.329948 0.603721
O O17 0.000000 0.523433 0.250000
O O18 0.000000 0.500000 0.000000
#
# Coordination Sequence:
#
# PCOD8151000 Si02
#       8
#     8   8   8   8   8   8   8   8
#     4  11  22  35  62  92 122 164 213 267 311 376
#     4  12  24  38  58  93 125 168 208 266 316 379
#     4  11  21  39  58  89 126 166 212 252 321 383
#     4  11  18  36  58  89 127 162 204 253 315 385
#     4  12  24  39  60  91 133 163 206 266 327 381
#     4  11  22  38  58  90 130 165 211 247 325 396
#     4  11  25  42  64  97 131 174 215 270 334 388
#     4  11  21  35  58  91 124 173 200 251 324 392
#
# _framework density 18.918057000000001
#
# number of rings (size 3 to 8) (size 9 to 14) (size 15 to 20)
#    0.000    0.750    6.250    3.000    1.750    2.500 
#    0.000    0.000    0.000    0.750    3.250    0.000 
#    0.000    0.000    0.000    0.000    0.000    0.000 
#
# Total GULP energy -396466.681344 kJ/mol
# GULP energy per Si atom -12389.583792 kJ/mol
# Density = 1.887500 g / cm^3
# Si number density = 18.918057 Si / 1000 Ang^3
#
#
#
# Elastic Constant Matrix: (Units=GPa)
#
#
# Indices 1 2 3 4 5 6 
#
# 1 128.8459 45.1244 39.4067 0.0000 2.4540 0.0000
# 2 45.1244 109.1425 28.0551 0.0000 -10.7894 0.0000
# 3 39.4067 28.0551 91.1237 0.0000 6.8327 0.0000
# 4 0.0000 0.0000 0.0000 16.1651 0.0000 -0.5824
# 5 2.4540 -10.7894 6.8327 0.0000 29.4940 0.0000
# 6 0.0000 0.0000 0.0000 -0.5824 0.0000 29.3490
#
#
#
# Elastic Compliance Matrix: (Units=1/GPa)
#
#
# Indices 1 2 3 4 5 6 
#
# 1 0.009954 -0.003442 -0.003143 0.000000 -0.001359 0.000000
# 2 -0.003442 0.011742 -0.002514 0.000000 0.005164 0.000000
# 3 -0.003143 -0.002514 0.013389 0.000000 -0.003760 0.000000
# 4 0.000000 0.000000 0.000000 0.061906 0.000000 0.001228
# 5 -0.001359 0.005164 -0.003760 0.000000 0.036778 0.000000
# 6 0.000000 0.000000 0.000000 0.001228 0.000000 0.034097
#
#
# Mechanical properties :
#
#
# Convention : Reuss Voigt Hill
#
# Bulk Modulus (GPa) = 59.21502 61.58715 60.40109
# Shear Modulus (GPa) = 26.08340 29.43670 27.76005
#
# Velocity S-wave (km/s) = 3.71719 3.94891 3.83480
# Velocity P-wave (km/s) = 7.05635 7.30871 7.18364
#
# Compressibility (1/GPa) = 0.01688761
#
# Stress axis : x y z
#
# Youngs Moduli (GPa) = 100.46491 85.16408 74.68705
#
# Poissons Ratio (x) = 0.29312 0.23474
# Poissons Ratio (y) = 0.34578 0.18776
# Poissons Ratio (z) = 0.31576 0.21410
#
# Static dielectric constant tensor:
#      x y z
#    x 3.310930 0.000000 -0.141910 
#    y 0.000000 3.313520 0.000000 
#    z -0.141910 0.000000 3.777830 
# 
# 
# High freq. dielectric constant tensor:
#      x y z
#    x 1.724350 0.000000 -0.000240 
#    y 0.000000 1.707540 0.000000 
#    z -0.000240 0.000000 1.756740 
# 
# From -- ./inp_files/90791.got.cif
#   From: 2010.06.25/outbox.cif.g09.slc.cpg/sg15_46_cif.got.tgz:90791.got - 2010.06.28 07:06:18.
