data_PCOD8151100
_publ_section_title
;
Structure prediction by ZEFSAII (Michael W. Deem and Ramdas Pophale) SiO2 
 PCOD8151100
Probable space group: C 2/C
;
_chemical_formula_sum "Si O2"
_cell_formula_units_Z 52
_cell_length_a 18.287158
_cell_length_b 19.549126
_cell_length_c 14.105470
_cell_angle_alpha 90.000000
_cell_angle_beta 32.776758
_cell_angle_gamma 90.000000
_cell_volume 2729.939713
_symmetry_space_group_name_H-M "C 2/C"
_symmetry_group_IT_number 15
_symmetry_cell_setting 'monoclinic'
loop_
_space_group_symop_operation_xyz
x,y,z
-x,y,1/2-z
-x,-y,-z
x,-y,1/2+z
1/2+x,1/2+y,z
1/2-x,1/2+y,1/2-z
1/2-x,1/2-y,-z
1/2+x,1/2-y,1/2+z
loop_
_atom_site_type_symbol
_atom_site_label
_atom_site_fract_x
_atom_site_fract_y
_atom_site_fract_z
Si Si1 0.244131 0.900279 0.401506
Si Si2 0.896031 0.737599 0.708573
Si Si3 0.710218 0.897007 0.352254
Si Si4 0.000000 0.170681 0.250000
Si Si5 0.672640 0.255149 0.303304
Si Si6 0.344553 0.976814 0.907314
Si Si7 0.564777 0.846823 0.779675
O O1 0.350488 0.837887 0.291317
O O2 0.261690 0.934500 0.278448
O O3 0.091011 0.874703 0.580550
O O4 0.266682 0.957326 0.456138
O O5 0.801806 0.765721 0.726201
O O6 0.893142 0.785192 0.805002
O O7 0.048462 0.739970 0.506730
O O8 0.815719 0.833721 0.244680
O O9 0.726267 0.952826 0.417535
O O10 0.558901 0.865268 0.515791
O O11 0.660540 0.210344 0.221015
O O12 0.500000 0.997855 0.750000
O O13 0.339850 0.912866 0.840180
O O14 0.500000 0.822285 0.750000
#
# Coordination Sequence:
#
# PCOD8151100 Si02
#       7
#     8   8   8   4   8   8   8
#     4  11  22  40  63  85 127 162 201 267 309 371
#     4  11  23  38  64  91 124 155 211 252 318 366
#     4   9  19  40  61  85 130 157 209 261 305 366
#     4  12  24  42  58  94 122 162 208 266 314 376
#     4  11  19  39  63  95 121 165 196 262 317 357
#     4   9  22  38  60  93 118 168 213 250 304 381
#     4   9  19  37  62  95 125 158 213 255 307 373
#
# _framework density 19.04804
#
# number of rings (size 3 to 8) (size 9 to 14) (size 15 to 20)
#    0.000    2.154    6.154    0.462    1.077    4.923 
#    2.769    2.308    0.000    0.000    0.000    0.000 
#    0.000    0.000    0.000    0.000    0.000    0.000 
#
# Total GULP energy -322242.275167 kJ/mol
# GULP energy per Si atom -12393.933660 kJ/mol
# Density = 1.900469 g / cm^3
# Si number density = 19.048040 Si / 1000 Ang^3
#
#
#
# Elastic Constant Matrix: (Units=GPa)
#
#
# Indices 1 2 3 4 5 6 
#
# 1 122.5325 70.3533 30.4323 -0.0002 9.2810 0.0000
# 2 70.3533 103.0172 34.5720 -0.0006 6.4119 0.0003
# 3 30.4323 34.5720 97.3129 -0.0002 19.9812 0.0002
# 4 -0.0002 -0.0006 -0.0002 17.1047 0.0008 4.4536
# 5 9.2810 6.4119 19.9812 0.0008 29.1440 -0.0004
# 6 0.0000 0.0003 0.0002 4.4536 -0.0004 46.7971
#
#
#
# Elastic Compliance Matrix: (Units=1/GPa)
#
#
# Indices 1 2 3 4 5 6 
#
# 1 0.013613 -0.008947 -0.000690 0.000000 -0.001894 0.000000
# 2 -0.008947 0.016904 -0.003525 0.000000 0.001547 0.000000
# 3 -0.000690 -0.003525 0.013430 0.000000 -0.008213 0.000000
# 4 0.000000 0.000000 0.000000 0.059949 -0.000002 -0.005705
# 5 -0.001894 0.001547 -0.008213 -0.000002 0.040206 0.000001
# 6 0.000000 0.000000 0.000000 -0.005705 0.000001 0.021912
#
#
# Mechanical properties :
#
#
# Convention : Reuss Voigt Hill
#
# Bulk Modulus (GPa) = 56.74209 65.95308 61.34758
# Shear Modulus (GPa) = 25.22537 31.10951 28.16744
#
# Velocity S-wave (km/s) = 3.64304 4.04569 3.84963
# Velocity P-wave (km/s) = 6.89560 7.51819 7.21362
#
# Compressibility (1/GPa) = 0.01762360
#
# Stress axis : x y z
#
# Youngs Moduli (GPa) = 73.45870 59.15656 74.45764
#
# Poissons Ratio (x) = 0.52930 0.05134
# Poissons Ratio (y) = 0.65727 0.26247
# Poissons Ratio (z) = 0.05065 0.20853
#
# Static dielectric constant tensor:
#      x y z
#    x 3.560580 0.000000 0.226610 
#    y 0.000000 3.362620 0.000000 
#    z 0.226610 0.000000 3.501480 
# 
# 
# High freq. dielectric constant tensor:
#      x y z
#    x 1.733550 0.000000 0.022010 
#    y 0.000000 1.721760 0.000000 
#    z 0.022010 0.000000 1.745780 
# 
# From -- ./inp_files/163618.got.cif
#   From: 2010.06.25/outbox.cif.g09.slc.cpg/sg15_82_cif.got.tgz:163618.got - 2010.06.28 07:06:18.
