data_PCOD8151979
_publ_section_title
;
Structure prediction by ZEFSAII (Michael W. Deem and Ramdas Pophale) SiO2 
 PCOD8151979
Probable space group: C 2/C
;
_chemical_formula_sum "Si O2"
_cell_formula_units_Z 64
_cell_length_a 18.692691
_cell_length_b 11.951563
_cell_length_c 30.057700
_cell_angle_alpha 90.000000
_cell_angle_beta 151.814106
_cell_angle_gamma 90.000000
_cell_volume 3171.767035
_symmetry_space_group_name_H-M "C 2/C"
_symmetry_group_IT_number 15
_symmetry_cell_setting 'monoclinic'
loop_
_space_group_symop_operation_xyz
x,y,z
-x,y,1/2-z
-x,-y,-z
x,-y,1/2+z
1/2+x,1/2+y,z
1/2-x,1/2+y,1/2-z
1/2-x,1/2-y,-z
1/2+x,1/2-y,1/2+z
loop_
_atom_site_type_symbol
_atom_site_label
_atom_site_fract_x
_atom_site_fract_y
_atom_site_fract_z
Si Si1 0.090113 0.230977 0.845726
Si Si2 0.024196 0.653594 0.126664
Si Si3 0.757915 0.985525 0.048302
Si Si4 0.185599 0.112472 0.073756
Si Si5 0.173811 0.199715 0.359894
Si Si6 0.361311 0.304887 0.387121
Si Si7 0.191500 0.571167 0.916521
Si Si8 0.145923 0.508793 0.258029
O O1 0.104904 0.101473 0.868599
O O2 0.251934 0.291375 0.925200
O O3 0.000000 0.239477 0.750000
O O4 0.022244 0.294595 0.850936
O O5 0.103372 0.743193 0.139372
O O6 0.143211 0.557113 0.206294
O O7 0.890664 0.590700 0.027332
O O8 0.768036 0.081633 0.090329
O O9 0.762981 0.046689 0.003643
O O10 0.199518 0.989490 0.059242
O O11 0.282761 0.105865 0.172039
O O12 0.011967 0.139343 0.990055
O O13 0.284934 0.220356 0.379545
O O14 0.192193 0.296744 0.406945
O O15 0.000000 0.192024 0.250000
O O16 0.242244 0.398142 0.309255
O O17 0.023449 0.521269 0.818100
#
# Coordination Sequence:
#
# PCOD8151979 Si02
#       8
#     8   8   8   8   8   8   8   8
#     4  12  21  43  73  97 131 173 220 274 331 396
#     4  11  24  44  64  99 133 168 223 278 335 380
#     4  11  24  41  68 100 128 173 221 276 326 395
#     4  12  20  41  72  99 121 168 230 275 324 386
#     4  12  25  47  66  92 138 183 224 263 333 412
#     4  12  26  43  64  99 139 173 218 278 332 392
#     4  11  21  43  74  93 128 171 229 275 326 390
#     4  11  22  43  67  98 128 176 221 275 327 393
#
# _framework density 20.178025999999999
#
# number of rings (size 3 to 8) (size 9 to 14) (size 15 to 20)
#    0.000    0.500    7.500    2.625    0.000    0.500 
#   11.250    0.000    0.000    0.000    0.000    0.000 
#    0.000    0.000    0.000    0.000    0.000    0.000 
#
# Total GULP energy -396730.529138 kJ/mol
# GULP energy per Si atom -12397.829036 kJ/mol
# Density = 2.013210 g / cm^3
# Si number density = 20.178026 Si / 1000 Ang^3
#
#
#
# Elastic Constant Matrix: (Units=GPa)
#
#
# Indices 1 2 3 4 5 6 
#
# 1 89.8315 47.7881 58.2779 -0.0007 6.3606 0.0031
# 2 47.7881 134.0159 56.5697 0.0002 -10.1596 -0.0014
# 3 58.2779 56.5697 95.5370 0.0002 -1.8739 0.0118
# 4 -0.0007 0.0002 0.0002 23.4624 -0.0001 69.0014
# 5 6.3606 -10.1596 -1.8739 -0.0001 23.3286 0.0005
# 6 0.0031 -0.0014 0.0118 69.0014 0.0005 -621.4525
#
#
#
# Elastic Compliance Matrix: (Units=1/GPa)
#
#
# Indices 1 2 3 4 5 6 
#
# 1 0.020342 -0.003396 -0.010552 0.000001 -0.007873 0.000000
# 2 -0.003396 0.010876 -0.004264 0.000000 0.005320 0.000000
# 3 -0.010552 -0.004264 0.019479 -0.000001 0.002585 0.000000
# 4 0.000001 0.000000 -0.000001 0.032130 0.000000 0.003567
# 5 -0.007873 0.005320 0.002585 0.000000 0.047537 0.000000
# 6 0.000000 0.000000 0.000000 0.003567 0.000000 -0.001213
#
#
# Mechanical properties :
#
#
# Convention : Reuss Voigt Hill
#
# Bulk Modulus (GPa) = 70.06295 71.62843 70.84569
# Shear Modulus (GPa) = 29.35443 -104.48236 -37.56397
#
# Velocity S-wave (km/s) = 3.81829 -7.20366 -4.31934
# Velocity P-wave (km/s) = 7.36457 5.79784 3.21107
#
# Compressibility (1/GPa) = 0.01427288
#
# Stress axis : x y z
#
# Youngs Moduli (GPa) = 49.16022 91.94574 51.33674
#
# Poissons Ratio (x) = 0.31228 0.54170
# Poissons Ratio (y) = 0.16696 0.21889
# Poissons Ratio (z) = 0.51873 0.39204
#
# Static dielectric constant tensor:
#      x y z
#    x 3.593980 0.000000 -0.126840 
#    y 0.000000 3.856060 0.000000 
#    z -0.126840 0.000000 3.824010 
# 
# 
# High freq. dielectric constant tensor:
#      x y z
#    x 1.772620 0.000000 -0.011020 
#    y 0.000000 1.802700 0.000000 
#    z -0.011020 0.000000 1.794070 
# 
# From -- ./inp_files/316233.got.cif
#   From: 2010.06.25/outbox.cif.g09.slc.cpg/sg15_159_cif.got.tgz:316233.got - 2010.06.28 07:06:18.
