data_PCOD8151985
_publ_section_title
;
Structure prediction by ZEFSAII (Michael W. Deem and Ramdas Pophale) SiO2 
 PCOD8151985
Probable space group: C 2/C
;
_chemical_formula_sum "Si O2"
_cell_formula_units_Z 52
_cell_length_a 7.023232
_cell_length_b 27.509399
_cell_length_c 14.025770
_cell_angle_alpha 90.000000
_cell_angle_beta 117.614743
_cell_angle_gamma 90.000000
_cell_volume 2401.153310
_symmetry_space_group_name_H-M "C 2/C"
_symmetry_group_IT_number 15
_symmetry_cell_setting 'monoclinic'
loop_
_space_group_symop_operation_xyz
x,y,z
-x,y,1/2-z
-x,-y,-z
x,-y,1/2+z
1/2+x,1/2+y,z
1/2-x,1/2+y,1/2-z
1/2-x,1/2-y,-z
1/2+x,1/2-y,1/2+z
loop_
_atom_site_type_symbol
_atom_site_label
_atom_site_fract_x
_atom_site_fract_y
_atom_site_fract_z
Si Si1 0.500000 0.992442 0.250000
Si Si2 0.257081 0.203513 0.654054
Si Si3 0.142809 0.426583 0.115527
Si Si4 0.249632 0.431535 0.927028
Si Si5 0.274551 0.691556 0.169324
Si Si6 0.500000 0.650681 0.750000
Si Si7 0.194950 0.121361 0.489823
Si Si8 0.000000 0.357481 0.750000
O O1 0.645442 0.963220 0.206311
O O2 0.313775 0.023109 0.154062
O O3 0.500000 0.196737 0.750000
O O4 0.178464 0.258177 0.603775
O O5 0.080431 0.186136 0.687686
O O6 0.214645 0.169940 0.554516
O O7 0.300429 0.381975 0.170523
O O8 0.213947 0.448050 0.028869
O O9 0.896362 0.412263 0.054349
O O10 0.491750 0.413119 0.964534
O O11 0.092662 0.387850 0.860570
O O12 0.500000 0.713207 0.250000
O O13 0.296532 0.642063 0.114720
O O14 0.175403 0.677748 0.247363
#
# Coordination Sequence:
#
# PCOD8151985 Si02
#       8
#     4   8   8   8   8   4   8   4
#     4  11  28  50  69 106 130 176 225 290 352 417
#     4  11  23  40  64 102 142 180 231 274 327 395
#     4  12  25  47  71  99 137 171 231 283 346 412
#     4  11  25  46  72  96 139 172 226 283 348 407
#     4  11  23  39  65 102 143 180 230 279 324 395
#     4  12  23  44  69  98 138 190 215 280 343 396
#     4  12  23  44  70  99 134 186 222 278 341 402
#     4  11  21  44  64 100 136 186 224 274 345 401
#
# _framework density 21.656258999999999
#
# number of rings (size 3 to 8) (size 9 to 14) (size 15 to 20)
#    0.000    0.615    6.154    2.308    0.000    0.615 
#    2.769    1.538    0.000    0.000    0.000    0.000 
#    0.000    0.000    0.000    0.000    0.000    0.000 
#
# Total GULP energy -322125.443672 kJ/mol
# GULP energy per Si atom -12389.440141 kJ/mol
# Density = 2.160697 g / cm^3
# Si number density = 21.656259 Si / 1000 Ang^3
#
#
#
# Elastic Constant Matrix: (Units=GPa)
#
#
# Indices 1 2 3 4 5 6 
#
# 1 148.7674 64.8413 50.9815 0.0000 -12.5160 0.0000
# 2 64.8413 110.3650 37.4479 0.0000 -11.7984 0.0000
# 3 50.9815 37.4479 87.3892 0.0000 -17.2457 0.0000
# 4 0.0000 0.0000 0.0000 34.5537 0.0000 -3.4863
# 5 -12.5160 -11.7984 -17.2457 0.0000 46.9792 0.0000
# 6 0.0000 0.0000 0.0000 -3.4863 0.0000 36.3679
#
#
#
# Elastic Compliance Matrix: (Units=1/GPa)
#
#
# Indices 1 2 3 4 5 6 
#
# 1 0.010058 -0.004580 -0.003885 0.000000 0.000103 0.000000
# 2 -0.004580 0.012738 -0.002583 0.000000 0.001031 0.000000
# 3 -0.003885 -0.002583 0.015615 0.000000 0.004049 0.000000
# 4 0.000000 0.000000 0.000000 0.029223 0.000000 0.002801
# 5 0.000103 0.001031 0.004049 0.000000 0.023059 0.000000
# 6 0.000000 0.000000 0.000000 0.002801 0.000000 0.027765
#
#
# Mechanical properties :
#
#
# Convention : Reuss Voigt Hill
#
# Bulk Modulus (GPa) = 61.29100 72.56255 66.92677
# Shear Modulus (GPa) = 34.24805 36.46356 35.35581
#
# Velocity S-wave (km/s) = 3.98105 4.10779 4.04492
# Velocity P-wave (km/s) = 7.03526 7.48852 7.26542
#
# Compressibility (1/GPa) = 0.01631561
#
# Stress axis : x y z
#
# Youngs Moduli (GPa) = 99.42190 78.50233 64.03994
#
# Poissons Ratio (x) = 0.35955 0.24877
# Poissons Ratio (y) = 0.45537 0.16543
# Poissons Ratio (z) = 0.38622 0.20279
#
# Static dielectric constant tensor:
#      x y z
#    x 3.969190 0.000000 0.029780 
#    y 0.000000 3.929150 0.000000 
#    z 0.029780 0.000000 3.739910 
# 
# 
# High freq. dielectric constant tensor:
#      x y z
#    x 1.863640 0.000000 -0.007720 
#    y 0.000000 1.858320 0.000000 
#    z -0.007720 0.000000 1.851780 
# 
# From -- ./inp_files/130892.got.cif
#   From: 2010.06.25/outbox.cif.g09.slc.cpg/sg15_66_cif.got.tgz:130892.got - 2010.06.28 07:06:18.
