data_PCOD8151264
_publ_section_title
;
Structure prediction by ZEFSAII (Michael W. Deem and Ramdas Pophale) SiO2 
 PCOD8151264
Probable space group: C 2/C
;
_chemical_formula_sum "Si O2"
_cell_formula_units_Z 44
_cell_length_a 11.283423
_cell_length_b 19.569806
_cell_length_c 12.198952
_cell_angle_alpha 90.000000
_cell_angle_beta 51.386057
_cell_angle_gamma 90.000000
_cell_volume 2104.775997
_symmetry_space_group_name_H-M "C 2/C"
_symmetry_group_IT_number 15
_symmetry_cell_setting 'monoclinic'
loop_
_space_group_symop_operation_xyz
x,y,z
-x,y,1/2-z
-x,-y,-z
x,-y,1/2+z
1/2+x,1/2+y,z
1/2-x,1/2+y,1/2-z
1/2-x,1/2-y,-z
1/2+x,1/2-y,1/2+z
loop_
_atom_site_type_symbol
_atom_site_label
_atom_site_fract_x
_atom_site_fract_y
_atom_site_fract_z
Si Si1 0.344102 0.593869 0.773661
Si Si2 0.500000 0.969375 0.750000
Si Si3 0.695421 0.036425 0.459300
Si Si4 0.177302 0.762315 0.157590
Si Si5 0.550480 0.571176 0.017356
Si Si6 0.725016 0.123104 0.243703
O O1 0.500000 0.583677 0.750000
O O2 0.239319 0.528550 0.858588
O O3 0.254225 0.663445 0.853044
O O4 0.370015 0.607667 0.630078
O O5 0.356367 0.921275 0.804639
O O6 0.551436 0.017227 0.618581
O O7 0.836159 0.062477 0.448094
O O8 0.652593 0.098927 0.401767
O O9 0.206490 0.703551 0.230883
O O10 0.000000 0.771820 0.250000
O O11 0.250000 0.750000 0.000000
O O12 0.404471 0.611593 0.143542
O O13 0.500000 0.500000 0.000000
#
# Coordination Sequence:
#
# PCOD8151264 Si02
#       6
#     8   4   8   8   8   8
#     4  11  20  37  64  93 123 159 211 266 314 371
#     4  12  22  38  56  94 130 162 210 266 314 376
#     4  12  23  39  64  95 127 168 210 265 321 380
#     4  11  24  41  64  95 130 167 213 265 319 381
#     4  12  21  39  65  95 125 161 215 265 316 384
#     4  12  23  39  63  94 130 165 211 263 326 377
#
# _framework density 20.904837000000001
#
# number of rings (size 3 to 8) (size 9 to 14) (size 15 to 20)
#    0.000    0.364    6.364    4.364    0.000    0.000 
#    0.000    0.909    0.000    0.000    0.000    0.000 
#    0.000    0.000    0.000    0.000    0.000    0.000 
#
# Total GULP energy -272729.953303 kJ/mol
# GULP energy per Si atom -12396.816059 kJ/mol
# Density = 2.085726 g / cm^3
# Si number density = 20.904837 Si / 1000 Ang^3
#
#
#
# Elastic Constant Matrix: (Units=GPa)
#
#
# Indices 1 2 3 4 5 6 
#
# 1 72.5654 26.0281 10.7629 0.0000 8.0383 0.0000
# 2 26.0281 111.0268 32.3321 0.0000 14.1401 0.0000
# 3 10.7629 32.3321 124.0735 0.0000 6.4719 0.0000
# 4 0.0000 0.0000 0.0000 35.4273 0.0000 10.2012
# 5 8.0383 14.1401 6.4719 0.0000 35.0536 0.0000
# 6 0.0000 0.0000 0.0000 10.2012 0.0000 15.7743
#
#
#
# Elastic Compliance Matrix: (Units=1/GPa)
#
#
# Indices 1 2 3 4 5 6 
#
# 1 0.015216 -0.003185 -0.000379 0.000000 -0.002135 0.000000
# 2 -0.003185 0.010857 -0.002386 0.000000 -0.003209 0.000000
# 3 -0.000379 -0.002386 0.008744 0.000000 -0.000565 0.000000
# 4 0.000000 0.000000 0.000000 0.034686 0.000000 -0.022431
# 5 -0.002135 -0.003209 -0.000565 0.000000 0.030416 0.000000
# 6 0.000000 0.000000 0.000000 -0.022431 0.000000 0.077900
#
#
# Mechanical properties :
#
#
# Convention : Reuss Voigt Hill
#
# Bulk Modulus (GPa) = 43.63361 49.54575 46.58968
# Shear Modulus (GPa) = 25.33496 33.15388 29.24442
#
# Velocity S-wave (km/s) = 3.48504 3.98671 3.74429
# Velocity P-wave (km/s) = 6.09195 6.70402 6.40530
#
# Compressibility (1/GPa) = 0.02291811
#
# Stress axis : x y z
#
# Youngs Moduli (GPa) = 65.72177 92.10813 114.36808
#
# Poissons Ratio (x) = 0.29336 0.04330
# Poissons Ratio (y) = 0.20932 0.27283
# Poissons Ratio (z) = 0.02488 0.21972
#
# Static dielectric constant tensor:
#      x y z
#    x 3.678180 0.000000 0.309120 
#    y 0.000000 4.038480 0.000000 
#    z 0.309120 0.000000 3.492600 
# 
# 
# High freq. dielectric constant tensor:
#      x y z
#    x 1.808990 0.000000 0.002620 
#    y 0.000000 1.807170 0.000000 
#    z 0.002620 0.000000 1.833770 
# 
# From -- ./inp_files/88597.got.cif
#   From: 2010.06.25/outbox.cif.g09.slc.cpg/sg15_45_cif.got.tgz:88597.got - 2010.06.28 07:06:18.
