data_PCOD8151129
_publ_section_title
;
Structure prediction by ZEFSAII (Michael W. Deem and Ramdas Pophale) SiO2 
 PCOD8151129
Probable space group: C 2/C
;
_chemical_formula_sum "Si O2"
_cell_formula_units_Z 64
_cell_length_a 16.906109
_cell_length_b 9.806502
_cell_length_c 19.535164
_cell_angle_alpha 90.000000
_cell_angle_beta 86.604956
_cell_angle_gamma 90.000000
_cell_volume 3233.046650
_symmetry_space_group_name_H-M "C 2/C"
_symmetry_group_IT_number 15
_symmetry_cell_setting 'monoclinic'
loop_
_space_group_symop_operation_xyz
x,y,z
-x,y,1/2-z
-x,-y,-z
x,-y,1/2+z
1/2+x,1/2+y,z
1/2-x,1/2+y,1/2-z
1/2-x,1/2-y,-z
1/2+x,1/2-y,1/2+z
loop_
_atom_site_type_symbol
_atom_site_label
_atom_site_fract_x
_atom_site_fract_y
_atom_site_fract_z
Si Si1 0.127064 0.918104 0.135738
Si Si2 0.328378 0.528916 0.134847
Si Si3 0.540674 0.683709 0.855608
Si Si4 0.162687 0.799712 0.996331
Si Si5 0.816869 0.835406 0.781988
Si Si6 0.044336 0.415448 0.554467
Si Si7 0.149270 0.554361 0.660753
Si Si8 0.147844 0.300221 0.741678
O O1 0.144654 0.914449 0.054282
O O2 0.162831 0.782192 0.170069
O O3 0.032467 0.919237 0.152939
O O4 0.170386 0.049665 0.162214
O O5 0.387020 0.402919 0.117258
O O6 0.343438 0.601811 0.207625
O O7 0.239236 0.472856 0.131099
O O8 0.350255 0.641097 0.077992
O O9 0.515524 0.812135 0.903736
O O10 0.570486 0.740913 0.781642
O O11 0.107216 0.670603 0.008985
O O12 0.250000 0.750000 0.000000
O O13 0.865384 0.704699 0.807045
O O14 0.725362 0.788237 0.785144
O O15 0.087586 0.521664 0.603323
O O16 0.000000 0.500000 0.500000
O O17 0.130829 0.456321 0.725410
#
# Coordination Sequence:
#
# PCOD8151129 Si02
#       8
#     8   8   8   8   8   8   8   8
#     4  11  23  40  67  94 130 175 217 268 329 399
#     4  11  23  41  69  97 129 176 228 269 333 410
#     4  11  23  42  68  92 126 180 213 265 333 404
#     4  11  22  43  68  90 128 181 220 261 329 406
#     4  11  23  38  66 103 130 160 226 287 317 387
#     4  11  26  43  64  95 138 174 221 276 336 391
#     4  11  22  42  64  99 134 168 222 281 323 396
#     4  11  19  41  68  91 127 176 217 261 339 396
#
# _framework density 19.795570000000001
#
# number of rings (size 3 to 8) (size 9 to 14) (size 15 to 20)
#    0.000    1.000    6.250    1.875    0.000    6.000 
#    0.000    2.500    0.000    0.000    0.000    0.000 
#    0.000    0.000    0.000    0.000    0.000    0.000 
#
# Total GULP energy -396737.982457 kJ/mol
# GULP energy per Si atom -12398.061952 kJ/mol
# Density = 1.975051 g / cm^3
# Si number density = 19.795570 Si / 1000 Ang^3
#
#
#
# Elastic Constant Matrix: (Units=GPa)
#
#
# Indices 1 2 3 4 5 6 
#
# 1 110.7892 34.2757 45.6037 0.0000 5.0933 0.0000
# 2 34.2757 103.1682 46.0633 0.0000 10.4381 0.0000
# 3 45.6037 46.0633 98.5545 0.0000 7.1840 0.0000
# 4 0.0000 0.0000 0.0000 34.7995 0.0000 10.9895
# 5 5.0933 10.4381 7.1840 0.0000 34.0107 0.0000
# 6 0.0000 0.0000 0.0000 10.9895 0.0000 36.3863
#
#
#
# Elastic Compliance Matrix: (Units=1/GPa)
#
#
# Indices 1 2 3 4 5 6 
#
# 1 0.011413 -0.001793 -0.004427 0.000000 -0.000224 0.000000
# 2 -0.001793 0.012759 -0.004944 0.000000 -0.002603 0.000000
# 3 -0.004427 -0.004944 0.014572 0.000000 -0.000897 0.000000
# 4 0.000000 0.000000 0.000000 0.031766 0.000000 -0.009594
# 5 -0.000224 -0.002603 -0.000897 0.000000 0.030425 0.000000
# 6 0.000000 0.000000 0.000000 -0.009594 0.000000 0.030380
#
#
# Mechanical properties :
#
#
# Convention : Reuss Voigt Hill
#
# Bulk Modulus (GPa) = 60.91535 62.71081 61.81308
# Shear Modulus (GPa) = 31.42373 33.47724 32.45048
#
# Velocity S-wave (km/s) = 3.98856 4.11682 4.05319
# Velocity P-wave (km/s) = 7.21460 7.37195 7.29370
#
# Compressibility (1/GPa) = 0.01641622
#
# Stress axis : x y z
#
# Youngs Moduli (GPa) = 87.61682 78.37334 68.62666
#
# Poissons Ratio (x) = 0.14049 0.30382
# Poissons Ratio (y) = 0.15706 0.33932
# Poissons Ratio (z) = 0.38789 0.38751
#
# Static dielectric constant tensor:
#      x y z
#    x 3.628930 0.000000 0.100280 
#    y 0.000000 3.588370 0.000000 
#    z 0.100280 0.000000 3.464810 
# 
# 
# High freq. dielectric constant tensor:
#      x y z
#    x 1.776600 0.000000 0.002900 
#    y 0.000000 1.773060 0.000000 
#    z 0.002900 0.000000 1.771320 
# 
# From -- ./inp_files/247483.got.cif
#   From: 2010.06.25/outbox.cif.g09.slc.cpg/sg15_124_cif.got.tgz:247483.got - 2010.06.28 07:06:18.
