data_PCOD8151290
_publ_section_title
;
Structure prediction by ZEFSAII (Michael W. Deem and Ramdas Pophale) SiO2 
 PCOD8151290
Probable space group: C 2/C
;
_chemical_formula_sum "Si O2"
_cell_formula_units_Z 60
_cell_length_a 11.805691
_cell_length_b 22.583419
_cell_length_c 11.616955
_cell_angle_alpha 90.000000
_cell_angle_beta 99.001064
_cell_angle_gamma 90.000000
_cell_volume 3059.088637
_symmetry_space_group_name_H-M "C 2/C"
_symmetry_group_IT_number 15
_symmetry_cell_setting 'monoclinic'
loop_
_space_group_symop_operation_xyz
x,y,z
-x,y,1/2-z
-x,-y,-z
x,-y,1/2+z
1/2+x,1/2+y,z
1/2-x,1/2+y,1/2-z
1/2-x,1/2-y,-z
1/2+x,1/2-y,1/2+z
loop_
_atom_site_type_symbol
_atom_site_label
_atom_site_fract_x
_atom_site_fract_y
_atom_site_fract_z
Si Si1 0.779884 0.628128 0.831657
Si Si2 0.384013 0.050695 0.660389
Si Si3 0.742748 0.655188 0.238325
Si Si4 0.545393 0.223492 0.550821
Si Si5 0.500000 0.693420 0.250000
Si Si6 0.173118 0.574685 0.429854
Si Si7 0.570661 0.880013 0.561624
Si Si8 0.123148 0.766678 0.325556
O O1 0.799307 0.595429 0.713386
O O2 0.879477 0.675412 0.870044
O O3 0.661525 0.665340 0.809177
O O4 0.785734 0.577082 0.930569
O O5 0.500000 0.039193 0.750000
O O6 0.415114 0.076433 0.542233
O O7 0.317337 0.990037 0.623884
O O8 0.615019 0.654559 0.269500
O O9 0.739909 0.618873 0.119740
O O10 0.821898 0.617222 0.336834
O O11 0.785787 0.722053 0.219456
O O12 0.494893 0.269367 0.632446
O O13 0.438573 0.188454 0.478848
O O14 0.618364 0.255648 0.462295
O O15 0.044701 0.600138 0.391045
O O16 0.000000 0.755625 0.250000
#
# Coordination Sequence:
#
# PCOD8151290 Si02
#       8
#     8   8   8   8   4   8   8   8
#     4  11  23  38  61  91 129 161 202 250 315 375
#     4  12  23  38  64  96 129 159 202 263 318 358
#     4  12  23  41  61  94 126 164 209 249 312 372
#     4  11  20  38  61  92 124 163 197 248 317 371
#     4  12  26  36  62  86 130 170 198 256 306 372
#     4  11  23  40  66  90 120 167 205 256 310 372
#     4  11  22  37  63  96 126 155 202 261 309 369
#     4  12  22  40  67  91 124 165 206 251 309 379
#
# _framework density 19.613685
#
# number of rings (size 3 to 8) (size 9 to 14) (size 15 to 20)
#    0.000    0.533    8.000    3.600    1.867    1.600 
#    0.000    0.000    1.467    1.600    0.000    0.000 
#    0.000    0.000    0.000    0.000    0.000    0.000 
#
# Total GULP energy -372046.041179 kJ/mol
# GULP energy per Si atom -12401.534706 kJ/mol
# Density = 1.956904 g / cm^3
# Si number density = 19.613685 Si / 1000 Ang^3
#
#
#
# Elastic Constant Matrix: (Units=GPa)
#
#
# Indices 1 2 3 4 5 6 
#
# 1 94.7658 31.8504 27.3911 0.0000 -18.4251 0.0000
# 2 31.8504 98.1335 28.2000 0.0000 -14.0617 0.0000
# 3 27.3911 28.2000 74.4201 0.0000 -16.7024 0.0000
# 4 0.0000 0.0000 0.0000 26.2316 0.0000 7.4158
# 5 -18.4251 -14.0617 -16.7024 0.0000 21.0953 0.0000
# 6 0.0000 0.0000 0.0000 7.4158 0.0000 12.8282
#
#
#
# Elastic Compliance Matrix: (Units=1/GPa)
#
#
# Indices 1 2 3 4 5 6 
#
# 1 0.013708 -0.002611 -0.002140 0.000000 0.008539 0.000000
# 2 -0.002611 0.012402 -0.002912 0.000000 0.003681 0.000000
# 3 -0.002140 -0.002912 0.017601 0.000000 0.010125 0.000000
# 4 0.000000 0.000000 0.000000 0.045569 0.000000 -0.026343
# 5 0.008539 0.003681 0.010125 0.000000 0.065332 0.000000
# 6 0.000000 0.000000 0.000000 -0.026343 0.000000 0.093181
#
#
# Mechanical properties :
#
#
# Convention : Reuss Voigt Hill
#
# Bulk Modulus (GPa) = 35.22980 49.13360 42.18170
# Shear Modulus (GPa) = 18.34313 24.02289 21.18301
#
# Velocity S-wave (km/s) = 3.06146 3.50351 3.28992
# Velocity P-wave (km/s) = 5.52246 6.43981 5.99870
#
# Compressibility (1/GPa) = 0.02838506
#
# Stress axis : x y z
#
# Youngs Moduli (GPa) = 72.94753 80.63279 56.81515
#
# Poissons Ratio (x) = 0.21052 0.12158
# Poissons Ratio (y) = 0.19045 0.16547
# Poissons Ratio (z) = 0.15610 0.23484
#
# Static dielectric constant tensor:
#      x y z
#    x 3.395500 0.000000 -0.033400 
#    y 0.000000 3.562070 0.000000 
#    z -0.033400 0.000000 3.772140 
# 
# 
# High freq. dielectric constant tensor:
#      x y z
#    x 1.732900 0.000000 -0.008650 
#    y 0.000000 1.755160 0.000000 
#    z -0.008650 0.000000 1.779830 
# 
# From -- ./inp_files/89629.got.cif
#   From: 2010.06.25/outbox.cif.g09.slc.cpg/sg15_45_cif.got.tgz:89629.got - 2010.06.28 07:06:18.
