data_PCOD8151920
_publ_section_title
;
Structure prediction by ZEFSAII (Michael W. Deem and Ramdas Pophale) SiO2 
 PCOD8151920
Probable space group: C 2/C
;
_chemical_formula_sum "Si O2"
_cell_formula_units_Z 56
_cell_length_a 17.415372
_cell_length_b 8.832992
_cell_length_c 18.884928
_cell_angle_alpha 90.000000
_cell_angle_beta 118.797474
_cell_angle_gamma 90.000000
_cell_volume 2545.789986
_symmetry_space_group_name_H-M "C 2/C"
_symmetry_group_IT_number 15
_symmetry_cell_setting 'monoclinic'
loop_
_space_group_symop_operation_xyz
x,y,z
-x,y,1/2-z
-x,-y,-z
x,-y,1/2+z
1/2+x,1/2+y,z
1/2-x,1/2+y,1/2-z
1/2-x,1/2-y,-z
1/2+x,1/2-y,1/2+z
loop_
_atom_site_type_symbol
_atom_site_label
_atom_site_fract_x
_atom_site_fract_y
_atom_site_fract_z
Si Si1 0.601394 0.054187 0.048969
Si Si2 0.633501 0.386605 0.001070
Si Si3 0.480131 0.518339 0.665925
Si Si4 0.348895 0.463637 0.339225
Si Si5 0.788749 0.418840 0.515892
Si Si6 0.906659 0.674138 0.184176
Si Si7 0.199621 0.341131 0.722467
O O1 0.622089 0.213135 0.018964
O O2 0.633987 0.057714 0.144917
O O3 0.500000 0.000000 0.000000
O O4 0.664738 0.933856 0.039331
O O5 0.623258 0.494262 0.066478
O O6 0.722099 0.441857 0.001115
O O7 0.557708 0.406820 0.909461
O O8 0.500000 0.434599 0.750000
O O9 0.568876 0.584100 0.671985
O O10 0.416538 0.659254 0.653741
O O11 0.297562 0.598091 0.278163
O O12 0.285024 0.317672 0.310971
O O13 0.750000 0.250000 0.500000
O O14 0.864936 0.437259 0.608190
O O15 0.840448 0.683481 0.218904
O O16 0.000000 0.608271 0.250000
#
# Coordination Sequence:
#
# PCOD8151920 Si02
#       7
#     8   8   8   8   8   8   8
#     4  11  28  47  69 100 149 189 232 294 360 418
#     4  11  25  45  66 107 144 182 230 297 355 419
#     4  11  23  41  73 101 138 180 238 288 347 421
#     4  11  24  43  66 103 140 181 227 293 348 419
#     4  12  25  43  74 103 134 190 238 287 354 428
#     4  11  21  42  71 100 134 176 242 286 349 417
#     4  11  24  42  68 101 137 180 230 290 350 415
#
# _framework density 21.997102000000002
#
# number of rings (size 3 to 8) (size 9 to 14) (size 15 to 20)
#    0.000    0.857    5.714    1.714    6.000    2.286 
#    0.000    2.143    0.000    0.000    0.000    0.000 
#    0.000    0.000    0.000    0.000    0.000    0.000 
#
# Total GULP energy -347005.989163 kJ/mol
# GULP energy per Si atom -12393.071042 kJ/mol
# Density = 2.194704 g / cm^3
# Si number density = 21.997102 Si / 1000 Ang^3
#
#
#
# Elastic Constant Matrix: (Units=GPa)
#
#
# Indices 1 2 3 4 5 6 
#
# 1 94.6916 43.2374 22.3505 0.0000 -18.6133 0.0000
# 2 43.2374 82.9788 32.4967 0.0000 5.7911 0.0000
# 3 22.3505 32.4967 146.7602 0.0000 0.0436 0.0000
# 4 0.0000 0.0000 0.0000 34.1790 0.0000 -2.0597
# 5 -18.6133 5.7911 0.0436 0.0000 38.7721 0.0000
# 6 0.0000 0.0000 0.0000 -2.0597 0.0000 29.4468
#
#
#
# Elastic Compliance Matrix: (Units=1/GPa)
#
#
# Indices 1 2 3 4 5 6 
#
# 1 0.016712 -0.009160 -0.000520 0.000000 0.009392 0.000000
# 2 -0.009160 0.018368 -0.002670 0.000000 -0.007138 0.000000
# 3 -0.000520 -0.002670 0.007484 0.000000 0.000141 0.000000
# 4 0.000000 0.000000 0.000000 0.029382 0.000000 0.002055
# 5 0.009392 -0.007138 0.000141 0.000000 0.031366 0.000000
# 6 0.000000 0.000000 0.000000 0.002055 0.000000 0.034103
#
#
# Mechanical properties :
#
#
# Convention : Reuss Voigt Hill
#
# Bulk Modulus (GPa) = 55.97597 57.84441 56.91019
# Shear Modulus (GPa) = 29.74961 35.56932 32.65946
#
# Velocity S-wave (km/s) = 3.68153 4.02556 3.85738
# Velocity P-wave (km/s) = 6.60105 6.92534 6.76513
#
# Compressibility (1/GPa) = 0.01786481
#
# Stress axis : x y z
#
# Youngs Moduli (GPa) = 59.83767 54.44246 133.61566
#
# Poissons Ratio (x) = 0.49869 0.06943
# Poissons Ratio (y) = 0.54811 0.35676
# Poissons Ratio (z) = 0.03109 0.14536
#
# Static dielectric constant tensor:
#      x y z
#    x 3.992980 0.000000 0.077320 
#    y 0.000000 3.754520 0.000000 
#    z 0.077320 0.000000 4.468600 
# 
# 
# High freq. dielectric constant tensor:
#      x y z
#    x 1.866460 0.000000 -0.002850 
#    y 0.000000 1.837010 0.000000 
#    z -0.002850 0.000000 1.894090 
# 
# From -- ./inp_files/209611.got.cif
#   From: 2010.06.25/outbox.cif.g09.slc.cpg/sg15_105_cif.got.tgz:209611.got - 2010.06.28 07:06:18.
