data_PCOD8151890
_publ_section_title
;
Structure prediction by ZEFSAII (Michael W. Deem and Ramdas Pophale) SiO2 
 PCOD8151890
Probable space group: C 2/C
;
_chemical_formula_sum "Si O2"
_cell_formula_units_Z 64
_cell_length_a 27.679351
_cell_length_b 15.113232
_cell_length_c 12.592847
_cell_angle_alpha 90.000000
_cell_angle_beta 146.383583
_cell_angle_gamma 90.000000
_cell_volume 2916.466141
_symmetry_space_group_name_H-M "C 2/C"
_symmetry_group_IT_number 15
_symmetry_cell_setting 'monoclinic'
loop_
_space_group_symop_operation_xyz
x,y,z
-x,y,1/2-z
-x,-y,-z
x,-y,1/2+z
1/2+x,1/2+y,z
1/2-x,1/2+y,1/2-z
1/2-x,1/2-y,-z
1/2+x,1/2-y,1/2+z
loop_
_atom_site_type_symbol
_atom_site_label
_atom_site_fract_x
_atom_site_fract_y
_atom_site_fract_z
Si Si1 0.257108 0.161786 0.776916
Si Si2 0.382045 0.073540 0.599742
Si Si3 0.934546 0.920352 0.858435
Si Si4 0.560907 0.667342 0.450825
Si Si5 0.050505 0.357249 0.478760
Si Si6 0.282992 0.494577 0.436196
Si Si7 0.841477 0.406304 0.632085
Si Si8 0.201068 0.136961 0.217137
O O1 0.158063 0.130107 0.623860
O O2 0.278375 0.081382 0.733218
O O3 0.280549 0.258738 0.773922
O O4 0.303373 0.161272 0.976049
O O5 0.405781 0.068724 0.517393
O O6 0.283510 0.105734 0.437841
O O7 0.398246 0.975340 0.670195
O O8 0.446021 0.133806 0.789061
O O9 0.867674 0.947351 0.642319
O O10 0.884932 0.879915 0.869670
O O11 0.004452 0.844654 0.954338
O O12 0.000000 0.000000 0.000000
O O13 0.500000 0.623054 0.250000
O O14 0.576644 0.770637 0.461392
O O15 0.092200 0.353857 0.670995
O O16 0.231756 0.541609 0.437197
O O17 0.309023 0.574988 0.404693
#
# Coordination Sequence:
#
# PCOD8151890 Si02
#       8
#     8   8   8   8   8   8   8   8
#     4  12  25  43  72 102 145 187 243 301 355 436
#     4  11  21  42  66  97 136 179 234 287 353 428
#     4  12  28  44  71 105 141 190 233 292 359 424
#     4  12  22  43  68  98 134 182 237 287 354 419
#     4  11  23  41  68  97 136 178 230 300 351 423
#     4  12  23  44  72  99 145 188 238 302 358 431
#     4  12  23  42  68 103 136 185 234 295 372 422
#     4  12  25  47  71 108 142 189 244 296 359 435
#
# _framework density 21.944367
#
# number of rings (size 3 to 8) (size 9 to 14) (size 15 to 20)
#    0.000    0.250    7.500    1.875    0.000    4.500 
#    0.000    2.500    0.000    0.000    0.000    0.000 
#    0.000    0.000    0.000    0.000    0.000    0.000 
#
# Total GULP energy -396417.576994 kJ/mol
# GULP energy per Si atom -12388.049281 kJ/mol
# Density = 2.189442 g / cm^3
# Si number density = 21.944367 Si / 1000 Ang^3
#
#
#
# Elastic Constant Matrix: (Units=GPa)
#
#
# Indices 1 2 3 4 5 6 
#
# 1 110.6282 33.6900 25.5767 0.0000 4.9887 0.0000
# 2 33.6900 89.1467 16.0345 0.0000 -7.4188 0.0000
# 3 25.5767 16.0345 135.1068 0.0000 -13.4006 0.0000
# 4 0.0000 0.0000 0.0000 30.8989 0.0000 1.7380
# 5 4.9887 -7.4188 -13.4006 0.0000 31.4356 0.0000
# 6 0.0000 0.0000 0.0000 1.7380 0.0000 25.9815
#
#
#
# Elastic Compliance Matrix: (Units=1/GPa)
#
#
# Indices 1 2 3 4 5 6 
#
# 1 0.010878 -0.004056 -0.001925 0.000000 -0.003504 0.000000
# 2 -0.004056 0.013125 -0.000437 0.000000 0.003555 0.000000
# 3 -0.001925 -0.000437 0.008184 0.000000 0.003691 0.000000
# 4 0.000000 0.000000 0.000000 0.032486 0.000000 -0.002173
# 5 -0.003504 0.003555 0.003691 0.000000 0.034780 0.000000
# 6 0.000000 0.000000 0.000000 -0.002173 0.000000 0.038634
#
#
# Mechanical properties :
#
#
# Convention : Reuss Voigt Hill
#
# Bulk Modulus (GPa) = 51.68233 53.94268 52.81250
# Shear Modulus (GPa) = 31.77155 34.96857 33.37006
#
# Velocity S-wave (km/s) = 3.80915 3.99621 3.90380
# Velocity P-wave (km/s) = 6.55354 6.77701 6.66621
#
# Compressibility (1/GPa) = 0.01934897
#
# Stress axis : x y z
#
# Youngs Moduli (GPa) = 91.93127 76.19153 122.18895
#
# Poissons Ratio (x) = 0.30905 0.23527
# Poissons Ratio (y) = 0.37289 0.05342
# Poissons Ratio (z) = 0.17701 0.03331
#
# Static dielectric constant tensor:
#      x y z
#    x 18.351730 0.000000 0.284660 
#    y 0.000000 4.120570 0.000000 
#    z 0.284660 0.000000 4.216850 
# 
# 
# High freq. dielectric constant tensor:
#      x y z
#    x 1.861020 0.000000 -0.001130 
#    y 0.000000 1.862920 0.000000 
#    z -0.001130 0.000000 1.870650 
# 
# From -- ./inp_files/123549.got.cif
#   From: 2010.06.25/outbox.cif.g09.slc.cpg/sg15_62_cif.got.tgz:123549.got - 2010.06.28 07:06:18.
