data_PCOD8151870
_publ_section_title
;
Structure prediction by ZEFSAII (Michael W. Deem and Ramdas Pophale) SiO2 
 PCOD8151870
Probable space group: C 2/C
;
_chemical_formula_sum "Si O2"
_cell_formula_units_Z 64
_cell_length_a 11.834170
_cell_length_b 14.229626
_cell_length_c 26.851124
_cell_angle_alpha 90.000000
_cell_angle_beta 36.426735
_cell_angle_gamma 90.000000
_cell_volume 2684.910754
_symmetry_space_group_name_H-M "C 2/C"
_symmetry_group_IT_number 15
_symmetry_cell_setting 'monoclinic'
loop_
_space_group_symop_operation_xyz
x,y,z
-x,y,1/2-z
-x,-y,-z
x,-y,1/2+z
1/2+x,1/2+y,z
1/2-x,1/2+y,1/2-z
1/2-x,1/2-y,-z
1/2+x,1/2-y,1/2+z
loop_
_atom_site_type_symbol
_atom_site_label
_atom_site_fract_x
_atom_site_fract_y
_atom_site_fract_z
Si Si1 0.661237 0.633377 0.344505
Si Si2 0.601148 0.973071 0.821601
Si Si3 0.177928 0.933868 0.944975
Si Si4 0.743537 0.861783 0.436307
Si Si5 0.123302 0.653554 0.866997
Si Si6 0.217964 0.843881 0.661569
Si Si7 0.244447 0.920584 0.544188
Si Si8 0.995296 0.785909 0.421685
O O1 0.805239 0.573049 0.260178
O O2 0.727931 0.624989 0.377856
O O3 0.652595 0.743419 0.332642
O O4 0.453847 0.588339 0.413736
O O5 0.372189 0.982604 0.895195
O O6 0.651810 0.910033 0.850718
O O7 0.691712 0.076196 0.801805
O O8 0.099894 0.869265 0.015591
O O9 0.000000 0.000000 0.000000
O O10 0.735086 0.851656 0.379750
O O11 0.940243 0.808934 0.383730
O O12 0.582646 0.810843 0.526153
O O13 0.720101 0.970655 0.457689
O O14 0.903097 0.627743 0.953775
O O15 0.251134 0.863011 0.592423
O O16 0.278336 0.734451 0.652987
O O17 0.000000 0.860786 0.750000
#
# Coordination Sequence:
#
# PCOD8151870 Si02
#       8
#     8   8   8   8   8   8   8   8
#     4  12  27  49  71 113 161 201 253 326 397 469
#     4  12  27  49  76 110 158 202 259 328 393 457
#     4  12  26  51  75 108 154 210 260 326 389 470
#     4  11  21  41  77 111 142 191 261 316 366 447
#     4  12  24  46  80 110 148 211 262 315 379 467
#     4  12  24  45  73 109 156 192 247 326 397 453
#     4  12  23  45  76 112 152 205 261 313 378 466
#     4  11  23  43  74 110 143 194 258 312 376 465
#
# _framework density 23.836919999999999
#
# number of rings (size 3 to 8) (size 9 to 14) (size 15 to 20)
#    0.000    0.250    5.000    5.625    0.000    1.000 
#    6.750    1.250    0.000    0.000    0.000    0.000 
#    0.000    0.000    0.000    0.000    0.000    0.000 
#
# Total GULP energy -396562.432313 kJ/mol
# GULP energy per Si atom -12392.576010 kJ/mol
# Density = 2.378267 g / cm^3
# Si number density = 23.836920 Si / 1000 Ang^3
#
#
#
# Elastic Constant Matrix: (Units=GPa)
#
#
# Indices 1 2 3 4 5 6 
#
# 1 139.0161 38.8093 27.5056 0.0016 -16.1417 0.0003
# 2 38.8093 122.2622 37.6756 0.0028 -12.4731 0.0002
# 3 27.5056 37.6756 49.8632 0.0108 -17.1878 0.0020
# 4 0.0016 0.0028 0.0108 30.1588 0.0001 -1.9346
# 5 -16.1417 -12.4731 -17.1878 0.0001 20.7733 -0.0010
# 6 0.0003 0.0002 0.0020 -1.9346 -0.0010 42.4061
#
#
#
# Elastic Compliance Matrix: (Units=1/GPa)
#
#
# Indices 1 2 3 4 5 6 
#
# 1 0.008525 -0.001660 -0.002111 0.000000 0.003881 0.000000
# 2 -0.001660 0.010987 -0.007773 0.000002 -0.001125 0.000000
# 3 -0.002111 -0.007773 0.034861 -0.000012 0.022536 -0.000002
# 4 0.000000 0.000002 -0.000012 0.033255 -0.000008 0.001517
# 5 0.003881 -0.001125 0.022536 -0.000008 0.069126 0.000000
# 6 0.000000 0.000000 -0.000002 0.001517 0.000000 0.023651
#
#
# Mechanical properties :
#
#
# Convention : Reuss Voigt Hill
#
# Bulk Modulus (GPa) = 31.96418 57.68029 44.82224
# Shear Modulus (GPa) = 23.37323 32.47773 27.92548
#
# Velocity S-wave (km/s) = 3.13477 3.69521 3.42646
# Velocity P-wave (km/s) = 5.15179 6.51586 5.87356
#
# Compressibility (1/GPa) = 0.03128502
#
# Stress axis : x y z
#
# Youngs Moduli (GPa) = 117.30149 91.01952 28.68554
#
# Poissons Ratio (x) = 0.15106 0.06054
# Poissons Ratio (y) = 0.19468 0.22298
# Poissons Ratio (z) = 0.24758 0.70753
#
# Static dielectric constant tensor:
#      x y z
#    x 4.897280 0.000000 -0.076330 
#    y 0.000000 4.535950 0.000000 
#    z -0.076330 0.000000 4.094090 
# 
# 
# High freq. dielectric constant tensor:
#      x y z
#    x 1.967970 0.000000 0.002620 
#    y 0.000000 1.950820 0.000000 
#    z 0.002620 0.000000 1.933340 
# 
# From -- ./inp_files/293063.got.cif
#   From: 2010.06.25/outbox.cif.g09.slc.cpg/sg15_147_cif.got.tgz:293063.got - 2010.06.28 07:06:18.
