data_PCOD8151228
_publ_section_title
;
Structure prediction by ZEFSAII (Michael W. Deem and Ramdas Pophale) SiO2 
 PCOD8151228
Probable space group: C 2/C
;
_chemical_formula_sum "Si O2"
_cell_formula_units_Z 64
_cell_length_a 27.529079
_cell_length_b 19.276879
_cell_length_c 8.740369
_cell_angle_alpha 90.000000
_cell_angle_beta 137.018761
_cell_angle_gamma 90.000000
_cell_volume 3162.197235
_symmetry_space_group_name_H-M "C 2/C"
_symmetry_group_IT_number 15
_symmetry_cell_setting 'monoclinic'
loop_
_space_group_symop_operation_xyz
x,y,z
-x,y,1/2-z
-x,-y,-z
x,-y,1/2+z
1/2+x,1/2+y,z
1/2-x,1/2+y,1/2-z
1/2-x,1/2-y,-z
1/2+x,1/2-y,1/2+z
loop_
_atom_site_type_symbol
_atom_site_label
_atom_site_fract_x
_atom_site_fract_y
_atom_site_fract_z
Si Si1 0.465769 0.134450 0.814104
Si Si2 0.430750 0.285224 0.675480
Si Si3 0.204046 0.553245 0.677472
Si Si4 0.315218 0.913893 0.024995
Si Si5 0.781099 0.805838 0.851983
Si Si6 0.786063 0.166489 0.712014
Si Si7 0.563878 0.866108 0.814466
Si Si8 0.424281 0.283178 0.017897
O O1 0.500000 0.091688 0.750000
O O2 0.431190 0.202614 0.658978
O O3 0.401061 0.091815 0.740883
O O4 0.530665 0.156710 0.075279
O O5 0.500000 0.317386 0.750000
O O6 0.366808 0.315655 0.431010
O O7 0.421147 0.302985 0.832376
O O8 0.205685 0.471817 0.646891
O O9 0.268674 0.591535 0.741530
O O10 0.131299 0.585918 0.443866
O O11 0.214547 0.562837 0.881030
O O12 0.278841 0.841560 0.892315
O O13 0.766116 0.723498 0.829998
O O14 0.775995 0.838757 0.007517
O O15 0.858551 0.818899 0.955159
O O16 0.500000 0.909043 0.750000
O O17 0.580963 0.799675 0.962442
O O18 0.500000 0.312703 0.250000
#
# Coordination Sequence:
#
# PCOD8151228 Si02
#       8
#     8   8   8   8   8   8   8   8
#     4  11  24  36  61  88 128 167 213 255 304 376
#     4  11  21  36  60  93 126 158 205 258 315 366
#     4  12  26  42  64  85 130 169 217 258 313 372
#     4  12  26  44  60  90 123 175 213 261 313 374
#     4  11  24  39  64  92 124 161 213 260 318 369
#     4  11  24  39  63  93 123 163 208 266 312 373
#     4  11  21  39  58  90 125 170 211 252 307 370
#     4  11  20  36  62  91 126 159 203 260 312 368
#
# _framework density 20.239091999999999
#
# number of rings (size 3 to 8) (size 9 to 14) (size 15 to 20)
#    0.000    0.750    6.250    2.250    5.250    2.000 
#    0.000    0.000    0.000    0.750    0.000    5.250 
#    0.000    0.000    0.000    0.000    0.000    0.000 
#
# Total GULP energy -396770.663512 kJ/mol
# GULP energy per Si atom -12399.083235 kJ/mol
# Density = 2.019303 g / cm^3
# Si number density = 20.239092 Si / 1000 Ang^3
#
#
#
# Elastic Constant Matrix: (Units=GPa)
#
#
# Indices 1 2 3 4 5 6 
#
# 1 122.1013 9.6290 27.8933 0.0000 -0.9574 0.0000
# 2 9.6290 42.8862 8.4902 0.0000 -1.1909 0.0000
# 3 27.8933 8.4902 88.3945 0.0000 -1.0494 0.0000
# 4 0.0000 0.0000 0.0000 23.6053 0.0000 -4.4283
# 5 -0.9574 -1.1909 -1.0494 0.0000 38.9697 0.0000
# 6 0.0000 0.0000 0.0000 -4.4283 0.0000 19.7901
#
#
#
# Elastic Compliance Matrix: (Units=1/GPa)
#
#
# Indices 1 2 3 4 5 6 
#
# 1 0.008917 -0.001470 -0.002671 0.000000 0.000102 0.000000
# 2 -0.001470 0.024029 -0.001836 0.000000 0.000649 0.000000
# 3 -0.002671 -0.001836 0.012335 0.000000 0.000210 0.000000
# 4 0.000000 0.000000 0.000000 0.044220 0.000000 0.009895
# 5 0.000102 0.000649 0.000210 0.000000 0.025689 0.000000
# 6 0.000000 0.000000 0.000000 0.009895 0.000000 0.052744
#
#
# Mechanical properties :
#
#
# Convention : Reuss Voigt Hill
#
# Bulk Modulus (GPa) = 30.00762 38.37854 34.19308
# Shear Modulus (GPa) = 26.17826 30.29766 28.23796
#
# Velocity S-wave (km/s) = 3.60036 3.87329 3.73931
# Velocity P-wave (km/s) = 5.66941 6.24555 5.96444
#
# Compressibility (1/GPa) = 0.03332487
#
# Stress axis : x y z
#
# Youngs Moduli (GPa) = 112.14622 41.61604 81.07177
#
# Poissons Ratio (x) = 0.06119 0.21657
# Poissons Ratio (y) = 0.16490 0.14887
# Poissons Ratio (z) = 0.29958 0.07642
#
# Static dielectric constant tensor:
#      x y z
#    x 3.981250 0.000000 -0.014550 
#    y 0.000000 3.229370 0.000000 
#    z -0.014550 0.000000 3.665890 
# 
# 
# High freq. dielectric constant tensor:
#      x y z
#    x 1.812150 0.000000 -0.008010 
#    y 0.000000 1.736810 0.000000 
#    z -0.008010 0.000000 1.799620 
# 
# From -- ./inp_files/70605.got.cif
#   From: 2010.06.25/outbox.cif.g09.slc.cpg/sg15_36_cif.got.tgz:70605.got - 2010.06.28 07:06:18.
