data_PCOD8151472
_publ_section_title
;
Structure prediction by ZEFSAII (Michael W. Deem and Ramdas Pophale) SiO2 
 PCOD8151472
Probable space group: C 2/C
;
_chemical_formula_sum "Si O2"
_cell_formula_units_Z 48
_cell_length_a 31.847446
_cell_length_b 8.775592
_cell_length_c 8.629188
_cell_angle_alpha 90.000000
_cell_angle_beta 105.311494
_cell_angle_gamma 90.000000
_cell_volume 2326.082995
_symmetry_space_group_name_H-M "C 2/C"
_symmetry_group_IT_number 15
_symmetry_cell_setting 'monoclinic'
loop_
_space_group_symop_operation_xyz
x,y,z
-x,y,1/2-z
-x,-y,-z
x,-y,1/2+z
1/2+x,1/2+y,z
1/2-x,1/2+y,1/2-z
1/2-x,1/2-y,-z
1/2+x,1/2-y,1/2+z
loop_
_atom_site_type_symbol
_atom_site_label
_atom_site_fract_x
_atom_site_fract_y
_atom_site_fract_z
Si Si1 0.618927 0.290700 0.314999
Si Si2 0.622262 0.596371 0.480925
Si Si3 0.575335 0.068922 0.484222
Si Si4 0.666508 0.968144 0.715555
Si Si5 0.798263 0.697012 0.516130
Si Si6 0.047172 0.288229 0.269994
O O1 0.629246 0.417607 0.454810
O O2 0.606739 0.374793 0.142282
O O3 0.579837 0.188545 0.346334
O O4 0.659263 0.174014 0.326756
O O5 0.669653 0.666258 0.496454
O O6 0.585441 0.666075 0.333029
O O7 0.550239 0.149201 0.598938
O O8 0.621722 0.002643 0.583223
O O9 0.548798 0.925927 0.394355
O O10 0.703082 0.922348 0.626518
O O11 0.682934 0.119235 0.812595
O O12 0.750000 0.750000 0.500000
O O13 0.000000 0.209553 0.250000
#
# Coordination Sequence:
#
# PCOD8151472 Si02
#       6
#     8   8   8   8   8   8
#     4  11  22  39  71  90 126 182 211 269 335 388
#     4  11  23  42  61  96 133 168 220 271 339 382
#     4  12  19  42  67  94 128 178 222 269 325 386
#     4  11  20  43  68  91 130 171 219 267 324 388
#     4  11  24  41  66  94 128 171 217 269 329 394
#     4  12  23  39  66 100 133 173 225 273 326 396
#
# _framework density 20.635548
#
# number of rings (size 3 to 8) (size 9 to 14) (size 15 to 20)
#    0.000    0.667    8.333    1.500    0.000    2.667 
#    0.000    5.833    0.000    0.000    0.000    0.000 
#    0.000    0.000    0.000    0.000    0.000    0.000 
#
# Total GULP energy -297573.258306 kJ/mol
# GULP energy per Si atom -12398.885763 kJ/mol
# Density = 2.058858 g / cm^3
# Si number density = 20.635548 Si / 1000 Ang^3
#
#
#
# Elastic Constant Matrix: (Units=GPa)
#
#
# Indices 1 2 3 4 5 6 
#
# 1 115.8605 18.4336 29.3910 0.0000 -13.1190 0.0000
# 2 18.4336 76.1190 19.5628 0.0000 0.7771 0.0000
# 3 29.3910 19.5628 81.1811 0.0000 -13.8768 0.0000
# 4 0.0000 0.0000 0.0000 42.3003 0.0000 -8.7236
# 5 -13.1190 0.7771 -13.8768 0.0000 27.8609 0.0000
# 6 0.0000 0.0000 0.0000 -8.7236 0.0000 23.8068
#
#
#
# Elastic Compliance Matrix: (Units=1/GPa)
#
#
# Indices 1 2 3 4 5 6 
#
# 1 0.009962 -0.001783 -0.002587 0.000000 0.003452 0.000000
# 2 -0.001783 0.014456 -0.003334 0.000000 -0.002903 0.000000
# 3 -0.002587 -0.003334 0.015156 0.000000 0.006424 0.000000
# 4 0.000000 0.000000 0.000000 0.025573 0.000000 0.009371
# 5 0.003452 -0.002903 0.006424 0.000000 0.040799 0.000000
# 6 0.000000 0.000000 0.000000 0.009371 0.000000 0.045439
#
#
# Mechanical properties :
#
#
# Convention : Reuss Voigt Hill
#
# Bulk Modulus (GPa) = 41.38112 45.32616 43.35364
# Shear Modulus (GPa) = 28.59636 32.51181 30.55408
#
# Velocity S-wave (km/s) = 3.72665 3.97359 3.85210
# Velocity P-wave (km/s) = 6.21402 6.56242 6.39059
#
# Compressibility (1/GPa) = 0.02416561
#
# Stress axis : x y z
#
# Youngs Moduli (GPa) = 100.38310 69.17715 65.97930
#
# Poissons Ratio (x) = 0.12333 0.17068
# Poissons Ratio (y) = 0.17897 0.22000
# Poissons Ratio (z) = 0.25968 0.23066
#
# Static dielectric constant tensor:
#      x y z
#    x 3.518410 0.000000 -0.239370 
#    y 0.000000 3.904220 0.000000 
#    z -0.239370 0.000000 4.032540 
# 
# 
# High freq. dielectric constant tensor:
#      x y z
#    x 1.780230 0.000000 -0.024640 
#    y 0.000000 1.809170 0.000000 
#    z -0.024640 0.000000 1.821240 
# 
# From -- ./inp_files/68576.got.cif
#   From: 2010.06.25/outbox.cif.g09.slc.cpg/sg15_35_cif.got.tgz:68576.got - 2010.06.28 07:06:18.
