data_PCOD8151279
_publ_section_title
;
Structure prediction by ZEFSAII (Michael W. Deem and Ramdas Pophale) SiO2 
 PCOD8151279
Probable space group: C 2/C
;
_chemical_formula_sum "Si O2"
_cell_formula_units_Z 44
_cell_length_a 7.211952
_cell_length_b 22.399510
_cell_length_c 12.523988
_cell_angle_alpha 90.000000
_cell_angle_beta 92.694630
_cell_angle_gamma 90.000000
_cell_volume 2020.940452
_symmetry_space_group_name_H-M "C 2/C"
_symmetry_group_IT_number 15
_symmetry_cell_setting 'monoclinic'
loop_
_space_group_symop_operation_xyz
x,y,z
-x,y,1/2-z
-x,-y,-z
x,-y,1/2+z
1/2+x,1/2+y,z
1/2-x,1/2+y,1/2-z
1/2-x,1/2-y,-z
1/2+x,1/2-y,1/2+z
loop_
_atom_site_type_symbol
_atom_site_label
_atom_site_fract_x
_atom_site_fract_y
_atom_site_fract_z
Si Si1 0.579022 0.607734 0.138232
Si Si2 0.738968 0.070289 0.999416
Si Si3 0.500000 0.223014 0.250000
Si Si4 0.586243 0.973508 0.862803
Si Si5 0.893787 0.697657 0.477696
Si Si6 0.376484 0.747823 0.346442
O O1 0.500000 0.588961 0.250000
O O2 0.449247 0.574484 0.048263
O O3 0.791412 0.586825 0.133601
O O4 0.581774 0.678881 0.125411
O O5 0.594545 0.037084 0.071807
O O6 0.677073 0.137264 0.971498
O O7 0.725344 0.028471 0.895102
O O8 0.416004 0.186158 0.349490
O O9 0.664220 0.261745 0.306829
O O10 0.500000 0.991703 0.750000
O O11 0.750000 0.750000 0.500000
O O12 0.084224 0.714426 0.544640
O O13 0.500000 0.769290 0.250000
#
# Coordination Sequence:
#
# PCOD8151279 Si02
#       6
#     8   8   4   8   8   8
#     4  11  20  37  69  92 123 166 212 263 309 380
#     4  11  24  42  65  92 127 168 209 267 315 375
#     4  12  24  40  66  94 130 178 210 260 318 382
#     4  11  24  41  64  92 125 168 215 258 318 375
#     4  12  23  44  68  97 133 169 216 266 325 388
#     4  11  23  39  67 100 130 169 214 270 324 379
#
# _framework density 21.772041000000002
#
# number of rings (size 3 to 8) (size 9 to 14) (size 15 to 20)
#    0.000    0.727    5.455    3.273    2.545    0.727 
#    0.000    0.000    2.000    0.000    0.000    0.000 
#    0.000    0.000    0.000    0.000    0.000    0.000 
#
# Total GULP energy -272684.213013 kJ/mol
# GULP energy per Si atom -12394.736955 kJ/mol
# Density = 2.172249 g / cm^3
# Si number density = 21.772041 Si / 1000 Ang^3
#
#
#
# Elastic Constant Matrix: (Units=GPa)
#
#
# Indices 1 2 3 4 5 6 
#
# 1 99.8338 0.5216 27.5962 0.0000 30.8173 0.0000
# 2 0.5216 80.8942 33.6180 0.0000 10.2044 0.0000
# 3 27.5962 33.6180 109.1321 0.0000 31.6982 0.0000
# 4 0.0000 0.0000 0.0000 9.4620 0.0000 10.0468
# 5 30.8173 10.2044 31.6982 0.0000 45.9731 0.0000
# 6 0.0000 0.0000 0.0000 10.0468 0.0000 21.2541
#
#
#
# Elastic Compliance Matrix: (Units=1/GPa)
#
#
# Indices 1 2 3 4 5 6 
#
# 1 0.012862 0.001505 -0.001394 0.000000 -0.007995 0.000000
# 2 0.001505 0.014354 -0.004481 0.000000 -0.001105 0.000000
# 3 -0.001394 -0.004481 0.012924 0.000000 -0.006982 0.000000
# 4 0.000000 0.000000 0.000000 0.212183 0.000000 -0.100299
# 5 -0.007995 -0.001105 -0.006982 0.000000 0.032170 0.000000
# 6 0.000000 0.000000 0.000000 -0.100299 0.000000 0.094461
#
#
# Mechanical properties :
#
#
# Convention : Reuss Voigt Hill
#
# Bulk Modulus (GPa) = 31.84778 45.92573 38.88676
# Shear Modulus (GPa) = 12.55772 30.54615 21.55193
#
# Velocity S-wave (km/s) = 2.40423 3.74973 3.14967
# Velocity P-wave (km/s) = 4.72935 6.31561 5.57914
#
# Compressibility (1/GPa) = 0.03139936
#
# Stress axis : x y z
#
# Youngs Moduli (GPa) = 77.74878 69.66785 77.37485
#
# Poissons Ratio (x) = -0.10484 0.10785
# Poissons Ratio (y) = -0.11700 0.34674
# Poissons Ratio (z) = 0.10837 0.31220
#
# Static dielectric constant tensor:
#      x y z
#    x 4.135430 0.000000 0.289200 
#    y 0.000000 3.754570 0.000000 
#    z 0.289200 0.000000 3.674730 
# 
# 
# High freq. dielectric constant tensor:
#      x y z
#    x 1.871000 0.000000 0.018060 
#    y 0.000000 1.831050 0.000000 
#    z 0.018060 0.000000 1.857390 
# 
# From -- ./inp_files/78290.got.cif
#   From: 2010.06.25/outbox.cif.g09.slc.cpg/sg15_40_cif.got.tgz:78290.got - 2010.06.28 07:06:18.
