data_PCOD8151735
_publ_section_title
;
Structure prediction by ZEFSAII (Michael W. Deem and Ramdas Pophale) SiO2 
 PCOD8151735
Probable space group: C 2/C
;
_chemical_formula_sum "Si O2"
_cell_formula_units_Z 40
_cell_length_a 22.781971
_cell_length_b 9.438099
_cell_length_c 8.194523
_cell_angle_alpha 90.000000
_cell_angle_beta 68.629612
_cell_angle_gamma 90.000000
_cell_volume 1640.828214
_symmetry_space_group_name_H-M "C 2/C"
_symmetry_group_IT_number 15
_symmetry_cell_setting 'monoclinic'
loop_
_space_group_symop_operation_xyz
x,y,z
-x,y,1/2-z
-x,-y,-z
x,-y,1/2+z
1/2+x,1/2+y,z
1/2-x,1/2+y,1/2-z
1/2-x,1/2-y,-z
1/2+x,1/2-y,1/2+z
loop_
_atom_site_type_symbol
_atom_site_label
_atom_site_fract_x
_atom_site_fract_y
_atom_site_fract_z
Si Si1 0.886761 0.338746 0.227044
Si Si2 0.345598 0.398712 0.355323
Si Si3 0.717636 0.354858 0.770440
Si Si4 0.460941 0.382531 0.441004
Si Si5 0.363075 0.140919 0.112479
O O1 0.815040 0.287933 0.262838
O O2 0.890874 0.499751 0.163697
O O3 0.900198 0.330151 0.406774
O O4 0.939125 0.244676 0.081514
O O5 0.286155 0.354423 0.528335
O O6 0.323974 0.515798 0.252170
O O7 0.399793 0.457758 0.421641
O O8 0.374532 0.266130 0.228692
O O9 0.789136 0.366631 0.641853
O O10 0.500000 0.317964 0.250000
O O11 0.500000 0.500000 0.500000
#
# Coordination Sequence:
#
# PCOD8151735 Si02
#       5
#     8   8   8   8   8
#     4  11  24  41  67 101 138 184 231 277 337 408
#     4  11  23  40  68 104 137 182 235 278 332 407
#     4  11  21  39  67 104 144 189 224 267 332 412
#     4  11  25  47  72  99 128 172 234 299 340 384
#     4  12  23  43  66 104 150 181 216 277 342 415
#
# _framework density 24.377932999999999
#
# number of rings (size 3 to 8) (size 9 to 14) (size 15 to 20)
#    0.000    0.800    0.000    9.600    0.000    3.200 
#    0.000    4.000    0.000    3.600    0.000    1.400 
#    0.000    0.000    0.000    0.000    0.000    0.000 
#
# Total GULP energy -247992.539973 kJ/mol
# GULP energy per Si atom -12399.626999 kJ/mol
# Density = 2.432245 g / cm^3
# Si number density = 24.377933 Si / 1000 Ang^3
#
#
#
# Elastic Constant Matrix: (Units=GPa)
#
#
# Indices 1 2 3 4 5 6 
#
# 1 98.0611 42.1240 30.0582 0.0000 6.1195 0.0000
# 2 42.1240 93.5625 56.4676 0.0000 6.9121 0.0000
# 3 30.0582 56.4676 205.8226 0.0000 -5.2863 0.0000
# 4 0.0000 0.0000 0.0000 40.9975 0.0000 3.2650
# 5 6.1195 6.9121 -5.2863 0.0000 32.3615 0.0000
# 6 0.0000 0.0000 0.0000 3.2650 0.0000 28.6946
#
#
#
# Elastic Compliance Matrix: (Units=1/GPa)
#
#
# Indices 1 2 3 4 5 6 
#
# 1 0.012718 -0.005377 -0.000416 0.000000 -0.001324 0.000000
# 2 -0.005377 0.015448 -0.003526 0.000000 -0.002859 0.000000
# 3 -0.000416 -0.003526 0.005933 0.000000 0.001801 0.000000
# 4 0.000000 0.000000 0.000000 0.024615 0.000000 -0.002801
# 5 -0.001324 -0.002859 0.001801 0.000000 0.032056 0.000000
# 6 0.000000 0.000000 0.000000 -0.002801 0.000000 0.035168
#
#
# Mechanical properties :
#
#
# Convention : Reuss Voigt Hill
#
# Bulk Modulus (GPa) = 64.68206 72.74950 68.71578
# Shear Modulus (GPa) = 33.39331 38.33048 35.86190
#
# Velocity S-wave (km/s) = 3.70512 3.96958 3.83963
# Velocity P-wave (km/s) = 6.70034 7.13563 6.92141
#
# Compressibility (1/GPa) = 0.01546024
#
# Stress axis : x y z
#
# Youngs Moduli (GPa) = 78.63100 64.73202 168.54661
#
# Poissons Ratio (x) = 0.34805 0.07014
# Poissons Ratio (y) = 0.42278 0.59437
# Poissons Ratio (z) = 0.03272 0.22828
#
# Static dielectric constant tensor:
#      x y z
#    x 4.408750 0.000000 -0.153630 
#    y 0.000000 4.307900 0.000000 
#    z -0.153630 0.000000 4.878080 
# 
# 
# High freq. dielectric constant tensor:
#      x y z
#    x 1.954400 0.000000 0.000790 
#    y 0.000000 1.962350 0.000000 
#    z 0.000790 0.000000 2.001210 
# 
# From -- ./inp_files/59924.got.cif
#   From: 2010.06.25/outbox.cif.g09.slc.cpg/sg15_30_cif.got.tgz:59924.got - 2010.06.28 07:06:18.
