data_PCOD8151486
_publ_section_title
;
Structure prediction by ZEFSAII (Michael W. Deem and Ramdas Pophale) SiO2 
 PCOD8151486
Probable space group: C 2/C
;
_chemical_formula_sum "Si O2"
_cell_formula_units_Z 40
_cell_length_a 26.225720
_cell_length_b 9.176300
_cell_length_c 17.834110
_cell_angle_alpha 90.000000
_cell_angle_beta 27.591003
_cell_angle_gamma 90.000000
_cell_volume 1987.808650
_symmetry_space_group_name_H-M "C 2/C"
_symmetry_group_IT_number 15
_symmetry_cell_setting 'monoclinic'
loop_
_space_group_symop_operation_xyz
x,y,z
-x,y,1/2-z
-x,-y,-z
x,-y,1/2+z
1/2+x,1/2+y,z
1/2-x,1/2+y,1/2-z
1/2-x,1/2-y,-z
1/2+x,1/2-y,1/2+z
loop_
_atom_site_type_symbol
_atom_site_label
_atom_site_fract_x
_atom_site_fract_y
_atom_site_fract_z
Si Si1 0.290056 0.302540 0.274450
Si Si2 0.944054 0.108409 0.695937
Si Si3 0.779671 0.911676 0.983848
Si Si4 0.188393 0.994988 0.893142
Si Si5 0.384983 0.879597 0.873336
O O1 0.406634 0.336342 0.162593
O O2 0.281495 0.129989 0.270605
O O3 0.282195 0.386262 0.206823
O O4 0.190987 0.355600 0.455930
O O5 0.907359 0.224117 0.806453
O O6 0.073461 0.084863 0.525944
O O7 0.881907 0.959112 0.798386
O O8 0.750000 0.750000 0.000000
O O9 0.814973 0.919635 0.024212
O O10 0.673460 0.014172 0.109461
O O11 0.500000 0.950726 0.750000
#
# Coordination Sequence:
#
# PCOD8151486 Si02
#       5
#     8   8   8   8   8
#     4  11  24  40  66 100 131 168 217 274 331 388
#     4  11  21  46  71  91 123 186 225 260 326 409
#     4  11  24  41  66  96 131 169 228 275 317 392
#     4  12  24  43  66  99 138 171 214 278 339 388
#     4  11  20  43  72  91 121 178 228 258 320 404
#
# _framework density 20.122661000000001
#
# number of rings (size 3 to 8) (size 9 to 14) (size 15 to 20)
#    0.000    0.800    6.000    2.400    5.600    1.600 
#    0.000    2.000    0.000    0.000    0.000    0.000 
#    0.000    0.000    0.000    0.000    0.000    0.000 
#
# Total GULP energy -248108.868309 kJ/mol
# GULP energy per Si atom -12405.443415 kJ/mol
# Density = 2.007686 g / cm^3
# Si number density = 20.122661 Si / 1000 Ang^3
#
#
#
# Elastic Constant Matrix: (Units=GPa)
#
#
# Indices 1 2 3 4 5 6 
#
# 1 121.6024 33.2952 18.7264 0.0005 1.0393 -0.0004
# 2 33.2952 112.4624 22.9400 0.0007 6.5718 -0.0008
# 3 18.7264 22.9400 36.9526 0.0007 -1.9495 -0.0006
# 4 0.0005 0.0007 0.0007 20.0868 -0.0003 7.9692
# 5 1.0393 6.5718 -1.9495 -0.0003 33.6772 0.0003
# 6 -0.0004 -0.0008 -0.0006 7.9692 0.0003 38.6862
#
#
#
# Elastic Compliance Matrix: (Units=1/GPa)
#
#
# Indices 1 2 3 4 5 6 
#
# 1 0.009317 -0.002049 -0.003455 0.000000 -0.000088 0.000000
# 2 -0.002049 0.010822 -0.005806 0.000000 -0.002385 0.000000
# 3 -0.003455 -0.005806 0.032581 -0.000001 0.003126 0.000000
# 4 0.000000 0.000000 -0.000001 0.054215 0.000001 -0.011168
# 5 -0.000088 -0.002385 0.003126 0.000001 0.030343 0.000000
# 6 0.000000 0.000000 0.000000 -0.011168 0.000000 0.028150
#
#
# Mechanical properties :
#
#
# Convention : Reuss Voigt Hill
#
# Bulk Modulus (GPa) = 33.21967 46.77117 39.99542
# Shear Modulus (GPa) = 25.24234 31.56042 28.40138
#
# Velocity S-wave (km/s) = 3.54563 3.96460 3.76095
# Velocity P-wave (km/s) = 5.77117 6.65214 6.22725
#
# Compressibility (1/GPa) = 0.03010264
#
# Stress axis : x y z
#
# Youngs Moduli (GPa) = 107.32857 92.40438 30.69231
#
# Poissons Ratio (x) = 0.18930 0.10603
# Poissons Ratio (y) = 0.21988 0.17820
# Poissons Ratio (z) = 0.37077 0.53649
#
# Static dielectric constant tensor:
#      x y z
#    x 4.083860 0.000000 -0.211650 
#    y 0.000000 3.648110 0.000000 
#    z -0.211650 0.000000 3.557100 
# 
# 
# High freq. dielectric constant tensor:
#      x y z
#    x 1.809920 0.000000 -0.006210 
#    y 0.000000 1.779420 0.000000 
#    z -0.006210 0.000000 1.770210 
# 
# From -- ./inp_files/150548.got.cif
#   From: 2010.06.25/outbox.cif.g09.slc.cpg/sg15_76_cif.got.tgz:150548.got - 2010.06.28 07:06:18.
