data_PCOD8151916
_publ_section_title
;
Structure prediction by ZEFSAII (Michael W. Deem and Ramdas Pophale) SiO2 
 PCOD8151916
Probable space group: C 2/C
;
_chemical_formula_sum "Si O2"
_cell_formula_units_Z 52
_cell_length_a 14.388838
_cell_length_b 17.121521
_cell_length_c 11.078315
_cell_angle_alpha 90.000000
_cell_angle_beta 63.954414
_cell_angle_gamma 90.000000
_cell_volume 2452.072254
_symmetry_space_group_name_H-M "C 2/C"
_symmetry_group_IT_number 15
_symmetry_cell_setting 'monoclinic'
loop_
_space_group_symop_operation_xyz
x,y,z
-x,y,1/2-z
-x,-y,-z
x,-y,1/2+z
1/2+x,1/2+y,z
1/2-x,1/2+y,1/2-z
1/2-x,1/2-y,-z
1/2+x,1/2-y,1/2+z
loop_
_atom_site_type_symbol
_atom_site_label
_atom_site_fract_x
_atom_site_fract_y
_atom_site_fract_z
Si Si1 0.049261 0.799700 0.414158
Si Si2 0.251505 0.644428 0.821897
Si Si3 0.702851 0.081586 0.094148
Si Si4 0.842711 0.188976 0.143288
Si Si5 0.364570 0.752665 0.391856
Si Si6 0.000000 0.672756 0.250000
Si Si7 0.885111 0.577048 0.799918
O O1 0.139305 0.857984 0.315026
O O2 0.064284 0.780648 0.545568
O O3 0.933035 0.833315 0.494128
O O4 0.048191 0.724585 0.329289
O O5 0.217455 0.733396 0.864847
O O6 0.157933 0.599097 0.808031
O O7 0.270176 0.602313 0.937868
O O8 0.762521 0.116469 0.177803
O O9 0.589678 0.118983 0.145114
O O10 0.694156 0.988046 0.105515
O O11 0.880417 0.203117 0.259834
O O12 0.250000 0.750000 0.500000
O O13 0.391208 0.843616 0.371008
O O14 0.000000 0.540671 0.750000
#
# Coordination Sequence:
#
# PCOD8151916 Si02
#       7
#     8   8   8   8   8   4   8
#     4  12  22  40  68  96 129 172 232 273 321 375
#     4  11  23  42  64  96 132 169 227 267 321 397
#     4  12  24  42  63 101 136 169 215 271 340 391
#     4  11  22  40  67  97 129 172 224 273 316 393
#     4  11  21  42  70  94 134 175 221 266 321 390
#     4  12  22  36  66  96 128 174 212 272 336 386
#     4  11  25  42  63 100 135 174 209 270 336 389
#
# _framework density 21.206553
#
# number of rings (size 3 to 8) (size 9 to 14) (size 15 to 20)
#    0.000    0.615    6.923    3.692    0.000    3.077 
#    0.000    0.769    0.000    0.000    0.000    0.000 
#    0.000    0.000    0.000    0.000    0.000    0.000 
#
# Total GULP energy -322153.581011 kJ/mol
# GULP energy per Si atom -12390.522347 kJ/mol
# Density = 2.115829 g / cm^3
# Si number density = 21.206553 Si / 1000 Ang^3
#
#
#
# Elastic Constant Matrix: (Units=GPa)
#
#
# Indices 1 2 3 4 5 6 
#
# 1 89.4293 38.2397 43.5620 0.0000 -12.4538 0.0000
# 2 38.2397 84.6836 40.6762 0.0000 4.4719 0.0000
# 3 43.5620 40.6762 121.8891 0.0000 -7.9730 0.0000
# 4 0.0000 0.0000 0.0000 21.1111 0.0000 -6.3866
# 5 -12.4538 4.4719 -7.9730 0.0000 36.8935 0.0000
# 6 0.0000 0.0000 0.0000 -6.3866 0.0000 22.3473
#
#
#
# Elastic Compliance Matrix: (Units=1/GPa)
#
#
# Indices 1 2 3 4 5 6 
#
# 1 0.016146 -0.005926 -0.003438 0.000000 0.005426 0.000000
# 2 -0.005926 0.016520 -0.003709 0.000000 -0.004804 0.000000
# 3 -0.003438 -0.003709 0.010777 0.000000 0.001618 0.000000
# 4 0.000000 0.000000 0.000000 0.051852 0.000000 0.014819
# 5 0.005426 -0.004804 0.001618 0.000000 0.029869 0.000000
# 6 0.000000 0.000000 0.000000 0.014819 0.000000 0.048983
#
#
# Mechanical properties :
#
#
# Convention : Reuss Voigt Hill
#
# Bulk Modulus (GPa) = 57.81669 60.10641 58.96155
# Shear Modulus (GPa) = 24.26496 27.63864 25.95180
#
# Velocity S-wave (km/s) = 3.38630 3.61405 3.50203
# Velocity P-wave (km/s) = 6.52780 6.76905 6.64952
#
# Compressibility (1/GPa) = 0.01729604
#
# Stress axis : x y z
#
# Youngs Moduli (GPa) = 61.93385 60.53239 92.79398
#
# Poissons Ratio (x) = 0.35872 0.31902
# Poissons Ratio (y) = 0.36703 0.34420
# Poissons Ratio (z) = 0.21293 0.22453
#
# Static dielectric constant tensor:
#      x y z
#    x 3.104140 0.000000 -0.483360 
#    y 0.000000 3.466900 0.000000 
#    z -0.483360 0.000000 3.688750 
# 
# 
# High freq. dielectric constant tensor:
#      x y z
#    x 1.853660 0.000000 -0.004260 
#    y 0.000000 1.794960 0.000000 
#    z -0.004260 0.000000 1.833630 
# 
# From -- ./inp_files/96960.got.cif
#   From: 2010.06.25/outbox.cif.g09.slc.cpg/sg15_49_cif.got.tgz:96960.got - 2010.06.28 07:06:18.
