data_PCOD8151838
_publ_section_title
;
Structure prediction by ZEFSAII (Michael W. Deem and Ramdas Pophale) SiO2 
 PCOD8151838
Probable space group: C 2/C
;
_chemical_formula_sum "Si O2"
_cell_formula_units_Z 64
_cell_length_a 33.647659
_cell_length_b 10.961378
_cell_length_c 19.242989
_cell_angle_alpha 90.000000
_cell_angle_beta 24.105183
_cell_angle_gamma 90.000000
_cell_volume 2898.625669
_symmetry_space_group_name_H-M "C 2/C"
_symmetry_group_IT_number 15
_symmetry_cell_setting 'monoclinic'
loop_
_space_group_symop_operation_xyz
x,y,z
-x,y,1/2-z
-x,-y,-z
x,-y,1/2+z
1/2+x,1/2+y,z
1/2-x,1/2+y,1/2-z
1/2-x,1/2-y,-z
1/2+x,1/2-y,1/2+z
loop_
_atom_site_type_symbol
_atom_site_label
_atom_site_fract_x
_atom_site_fract_y
_atom_site_fract_z
Si Si1 0.502757 0.525700 0.352421
Si Si2 0.866591 0.587548 0.940329
Si Si3 0.697277 0.060854 0.070191
Si Si4 0.854734 0.127649 0.480481
Si Si5 0.892476 0.805163 0.273192
Si Si6 0.136009 0.406278 0.297868
Si Si7 0.052527 0.557366 0.551290
Si Si8 0.486426 0.274009 0.982259
O O1 0.405523 0.566146 0.466630
O O2 0.601430 0.561725 0.155892
O O3 0.512499 0.378227 0.348330
O O4 0.504895 0.590544 0.423839
O O5 0.779641 0.529969 0.032850
O O6 0.877018 0.731346 0.931809
O O7 0.862906 0.538269 0.025479
O O8 0.954910 0.537821 0.751202
O O9 0.628203 0.175328 0.156913
O O10 0.642837 0.991004 0.219519
O O11 0.799725 0.108815 0.933756
O O12 0.739469 0.111942 0.669457
O O13 0.905064 0.779911 0.171332
O O14 0.063329 0.462252 0.471249
O O15 0.088350 0.279358 0.349366
O O16 0.056029 0.692528 0.512969
#
# Coordination Sequence:
#
# PCOD8151838 Si02
#       8
#     8   8   8   8   8   8   8   8
#     4  11  22  43  65  94 140 182 218 268 352 413
#     4  11  22  43  71  95 133 178 233 281 342 405
#     4  11  23  42  70  99 135 178 233 278 339 410
#     4  11  23  42  69  97 130 178 226 286 338 404
#     4  11  25  41  65 100 141 183 218 282 346 411
#     4  12  24  41  72 100 131 170 234 290 335 392
#     4  11  21  41  67  98 130 172 216 291 345 392
#     4  12  22  41  70  96 131 176 232 281 337 403
#
# _framework density 22.079431
#
# number of rings (size 3 to 8) (size 9 to 14) (size 15 to 20)
#    0.000    0.750    6.250    2.250    1.750    2.000 
#    2.250    5.000    0.000    0.000    0.000    0.000 
#    0.000    0.000    0.000    0.000    0.000    0.000 
#
# Total GULP energy -396549.959627 kJ/mol
# GULP energy per Si atom -12392.186238 kJ/mol
# Density = 2.202918 g / cm^3
# Si number density = 22.079431 Si / 1000 Ang^3
#
#
#
# Elastic Constant Matrix: (Units=GPa)
#
#
# Indices 1 2 3 4 5 6 
#
# 1 118.0003 58.0678 20.0501 0.0000 5.9421 0.0000
# 2 58.0678 98.0748 15.4186 0.0000 -10.5732 0.0000
# 3 20.0501 15.4186 59.6387 0.0000 -4.3707 0.0000
# 4 0.0000 0.0000 0.0000 18.5424 0.0000 0.8806
# 5 5.9421 -10.5732 -4.3707 0.0000 31.7221 0.0000
# 6 0.0000 0.0000 0.0000 0.8806 0.0000 31.4166
#
#
#
# Elastic Compliance Matrix: (Units=1/GPa)
#
#
# Indices 1 2 3 4 5 6 
#
# 1 0.013119 -0.007924 -0.002764 0.000000 -0.005479 0.000000
# 2 -0.007924 0.015745 -0.000923 0.000000 0.006605 0.000000
# 3 -0.002764 -0.000923 0.018134 0.000000 0.002709 0.000000
# 4 0.000000 0.000000 0.000000 0.054002 0.000000 -0.001514
# 5 -0.005479 0.006605 0.002709 0.000000 0.035125 0.000000
# 6 0.000000 0.000000 0.000000 -0.001514 0.000000 0.031873
#
#
# Mechanical properties :
#
#
# Convention : Reuss Voigt Hill
#
# Bulk Modulus (GPa) = 42.05584 51.42077 46.73830
# Shear Modulus (GPa) = 25.10741 28.48137 26.79439
#
# Velocity S-wave (km/s) = 3.37581 3.59548 3.48738
# Velocity P-wave (km/s) = 5.85522 6.36995 6.11800
#
# Compressibility (1/GPa) = 0.02377791
#
# Stress axis : x y z
#
# Youngs Moduli (GPa) = 76.22289 63.51226 55.14573
#
# Poissons Ratio (x) = 0.50327 0.15240
# Poissons Ratio (y) = 0.60399 0.05088
# Poissons Ratio (z) = 0.21065 0.05860
#
# Static dielectric constant tensor:
#      x y z
#    x 4.331240 0.000000 0.045190 
#    y 0.000000 4.140130 0.000000 
#    z 0.045190 0.000000 3.842360 
# 
# 
# High freq. dielectric constant tensor:
#      x y z
#    x 1.870200 0.000000 0.008690 
#    y 0.000000 1.870910 0.000000 
#    z 0.008690 0.000000 1.854670 
# 
# From -- ./inp_files/225150.got.cif
#   From: 2010.06.25/outbox.cif.g09.slc.cpg/sg15_113_cif.got.tgz:225150.got - 2010.06.28 07:06:18.
