data_PCOD8151190
_publ_section_title
;
Structure prediction by ZEFSAII (Michael W. Deem and Ramdas Pophale) SiO2 
 PCOD8151190
Probable space group: C 2/C
;
_chemical_formula_sum "Si O2"
_cell_formula_units_Z 56
_cell_length_a 25.935091
_cell_length_b 12.039286
_cell_length_c 13.743102
_cell_angle_alpha 90.000000
_cell_angle_beta 40.215803
_cell_angle_gamma 90.000000
_cell_volume 2770.656981
_symmetry_space_group_name_H-M "C 2/C"
_symmetry_group_IT_number 15
_symmetry_cell_setting 'monoclinic'
loop_
_space_group_symop_operation_xyz
x,y,z
-x,y,1/2-z
-x,-y,-z
x,-y,1/2+z
1/2+x,1/2+y,z
1/2-x,1/2+y,1/2-z
1/2-x,1/2-y,-z
1/2+x,1/2-y,1/2+z
loop_
_atom_site_type_symbol
_atom_site_label
_atom_site_fract_x
_atom_site_fract_y
_atom_site_fract_z
Si Si1 0.017246 0.329422 0.980936
Si Si2 0.336084 0.951317 0.526942
Si Si3 0.231791 0.017596 0.839847
Si Si4 0.144597 0.222676 0.909590
Si Si5 0.880007 0.526367 0.745389
Si Si6 0.220921 0.782364 0.935382
Si Si7 0.071095 0.655339 0.076542
O O1 0.059589 0.226369 0.975208
O O2 0.090537 0.405986 0.835732
O O3 0.962941 0.284420 0.970787
O O4 0.957119 0.393750 0.140318
O O5 0.358204 0.822522 0.508215
O O6 0.338488 0.985401 0.410793
O O7 0.250405 0.976173 0.702099
O O8 0.398046 0.031423 0.495637
O O9 0.158419 0.105419 0.944471
O O10 0.311166 0.073694 0.772944
O O11 0.209638 0.914586 0.941317
O O12 0.217906 0.234586 0.730790
O O13 0.250000 0.750000 0.000000
O O14 0.135752 0.729310 0.037049
O O15 0.000000 0.631602 0.250000
#
# Coordination Sequence:
#
# PCOD8151190 Si02
#       7
#     8   8   8   8   8   8   8
#     4  11  20  34  59  92 126 160 206 268 322 373
#     4  11  21  36  63  93 125 159 207 271 323 367
#     4  11  23  41  61  92 131 169 213 261 318 394
#     4  11  23  38  57  93 130 165 203 262 327 383
#     4  11  20  36  61  92 123 163 213 267 321 367
#     4  11  22  41  65  92 123 171 219 260 314 385
#     4  12  21  36  63  94 122 158 216 275 315 371
#
# _framework density 20.211811999999998
#
# number of rings (size 3 to 8) (size 9 to 14) (size 15 to 20)
#    0.000    0.857    7.143    2.571    0.000    0.571 
#    0.000    0.714    3.143    0.000    0.000    0.000 
#    0.000    0.000    0.000    0.000    0.000    0.000 
#
# Total GULP energy -347065.133706 kJ/mol
# GULP energy per Si atom -12395.183347 kJ/mol
# Density = 2.016581 g / cm^3
# Si number density = 20.211812 Si / 1000 Ang^3
#
#
#
# Elastic Constant Matrix: (Units=GPa)
#
#
# Indices 1 2 3 4 5 6 
#
# 1 134.2890 64.1726 26.5391 0.0000 -4.6300 0.0000
# 2 64.1726 127.7953 35.6372 0.0000 -7.6395 0.0000
# 3 26.5391 35.6372 62.1384 0.0000 8.7269 0.0000
# 4 0.0000 0.0000 0.0000 -6.4725 0.0000 13.7789
# 5 -4.6300 -7.6395 8.7269 0.0000 29.1431 0.0000
# 6 0.0000 0.0000 0.0000 13.7789 0.0000 23.8867
#
#
#
# Elastic Compliance Matrix: (Units=1/GPa)
#
#
# Indices 1 2 3 4 5 6 
#
# 1 0.009962 -0.004427 -0.001853 0.000000 0.000977 0.000000
# 2 -0.004427 0.011807 -0.005446 0.000000 0.004022 0.000000
# 3 -0.001853 -0.005446 0.021138 0.000000 -0.008052 0.000000
# 4 0.000000 0.000000 0.000000 -0.069345 0.000000 0.040001
# 5 0.000977 0.004022 -0.008052 0.000000 0.037934 0.000000
# 6 0.000000 0.000000 0.000000 0.040001 0.000000 0.018790
#
#
# Mechanical properties :
#
#
# Convention : Reuss Voigt Hill
#
# Bulk Modulus (GPa) = 51.39778 64.10229 57.75003
# Shear Modulus (GPa) = 83.02258 22.50305 52.76281
#
# Velocity S-wave (km/s) = 6.41603 3.34033 5.11484
# Velocity P-wave (km/s) = 8.96504 6.83090 7.96973
#
# Compressibility (1/GPa) = 0.01945609
#
# Stress axis : x y z
#
# Youngs Moduli (GPa) = 100.37916 84.69346 47.30739
#
# Poissons Ratio (x) = 0.37498 0.08765
# Poissons Ratio (y) = 0.44442 0.25762
# Poissons Ratio (z) = 0.18599 0.46121
#
# Static dielectric constant tensor:
#      x y z
#    x 3.847270 0.000000 0.019530 
#    y 0.000000 3.536470 0.000000 
#    z 0.019530 0.000000 3.659240 
# 
# 
# High freq. dielectric constant tensor:
#      x y z
#    x 1.795860 0.000000 0.008950 
#    y 0.000000 1.753830 0.000000 
#    z 0.008950 0.000000 1.782430 
# 
# From -- ./inp_files/177562.got.cif
#   From: 2010.06.25/outbox.cif.g09.slc.cpg/sg15_89_cif.got.tgz:177562.got - 2010.06.28 07:06:18.
