data_PCOD8151114
_publ_section_title
;
Structure prediction by ZEFSAII (Michael W. Deem and Ramdas Pophale) SiO2 
 PCOD8151114
Probable space group: C 2/C
;
_chemical_formula_sum "Si O2"
_cell_formula_units_Z 60
_cell_length_a 23.166879
_cell_length_b 9.799959
_cell_length_c 20.242807
_cell_angle_alpha 90.000000
_cell_angle_beta 40.895023
_cell_angle_gamma 90.000000
_cell_volume 3008.765791
_symmetry_space_group_name_H-M "C 2/C"
_symmetry_group_IT_number 15
_symmetry_cell_setting 'monoclinic'
loop_
_space_group_symop_operation_xyz
x,y,z
-x,y,1/2-z
-x,-y,-z
x,-y,1/2+z
1/2+x,1/2+y,z
1/2-x,1/2+y,1/2-z
1/2-x,1/2-y,-z
1/2+x,1/2-y,1/2+z
loop_
_atom_site_type_symbol
_atom_site_label
_atom_site_fract_x
_atom_site_fract_y
_atom_site_fract_z
Si Si1 0.647633 0.236493 0.788450
Si Si2 0.649593 0.972059 0.707533
Si Si3 0.821314 0.250088 0.717676
Si Si4 0.502817 0.837558 0.986617
Si Si5 0.000000 0.087988 0.750000
Si Si6 0.651976 0.508605 0.704731
Si Si7 0.784295 0.402041 0.982683
Si Si8 0.033802 0.673003 0.130712
O O1 0.634002 0.126126 0.743217
O O2 0.731674 0.199705 0.761267
O O3 0.665529 0.380900 0.740026
O O4 0.557886 0.240556 0.908381
O O5 0.694921 0.890846 0.728831
O O6 0.716358 0.975491 0.588068
O O7 0.556748 0.900398 0.767835
O O8 0.897138 0.278405 0.596756
O O9 0.854055 0.141488 0.743806
O O10 0.465496 0.800374 0.947507
O O11 0.500000 0.000000 0.000000
O O12 0.935488 0.992272 0.763754
O O13 0.949556 0.184579 0.845798
O O14 0.729497 0.517851 0.584665
O O15 0.882802 0.418715 0.924874
O O16 0.750000 0.250000 0.000000
#
# Coordination Sequence:
#
# PCOD8151114 Si02
#       8
#     8   8   8   8   4   8   8   8
#     4  12  27  43  63 103 143 163 217 294 339 393
#     4  11  22  43  66  96 125 171 224 266 326 402
#     4  11  22  45  70  97 129 175 228 274 331 407
#     4  11  23  42  71  97 126 181 224 264 344 405
#     4  12  20  46  60  94 134 170 222 276 304 400
#     4  12  26  42  65  99 133 172 215 281 337 379
#     4  12  21  38  70  95 118 172 225 266 327 392
#     4  11  19  39  72  92 119 167 232 269 301 407
#
# _framework density 19.941731999999998
#
# number of rings (size 3 to 8) (size 9 to 14) (size 15 to 20)
#    0.000    0.533    9.333    1.600    1.867    1.067 
#    4.800    0.000    0.000    0.000    0.000    0.000 
#    0.000    0.000    0.000    0.000    0.000    0.000 
#
# Total GULP energy -371989.656674 kJ/mol
# GULP energy per Si atom -12399.655222 kJ/mol
# Density = 1.989634 g / cm^3
# Si number density = 19.941732 Si / 1000 Ang^3
#
#
#
# Elastic Constant Matrix: (Units=GPa)
#
#
# Indices 1 2 3 4 5 6 
#
# 1 83.8161 11.8776 29.4548 0.0002 -6.2632 0.0000
# 2 11.8776 69.0857 43.6643 0.0007 12.8614 -0.0002
# 3 29.4548 43.6643 168.2368 0.0007 18.4653 -0.0004
# 4 0.0002 0.0007 0.0007 29.5114 -0.0003 5.5837
# 5 -6.2632 12.8614 18.4653 -0.0003 34.5155 0.0001
# 6 0.0000 -0.0002 -0.0004 5.5837 0.0001 22.1538
#
#
#
# Elastic Compliance Matrix: (Units=1/GPa)
#
#
# Indices 1 2 3 4 5 6 
#
# 1 0.013315 -0.001574 -0.002393 0.000000 0.004283 0.000000
# 2 -0.001574 0.018124 -0.003884 0.000000 -0.004961 0.000000
# 3 -0.002393 -0.003884 0.007713 0.000000 -0.003113 0.000000
# 4 0.000000 0.000000 0.000000 0.035582 0.000001 -0.008968
# 5 0.004283 -0.004961 -0.003113 0.000001 0.033264 0.000000
# 6 0.000000 0.000000 0.000000 -0.008968 0.000000 0.047399
#
#
# Mechanical properties :
#
#
# Convention : Reuss Voigt Hill
#
# Bulk Modulus (GPa) = 42.64399 54.57021 48.60710
# Shear Modulus (GPa) = 27.94642 32.97895 30.46268
#
# Velocity S-wave (km/s) = 3.74759 4.07106 3.91267
# Velocity P-wave (km/s) = 6.33693 7.03721 6.69623
#
# Compressibility (1/GPa) = 0.02344996
#
# Stress axis : x y z
#
# Youngs Moduli (GPa) = 75.10432 55.17647 129.65857
#
# Poissons Ratio (x) = 0.08686 0.31023
# Poissons Ratio (y) = 0.11823 0.50355
# Poissons Ratio (z) = 0.17970 0.21429
#
# Static dielectric constant tensor:
#      x y z
#    x 3.673520 0.000000 0.024970 
#    y 0.000000 3.362680 0.000000 
#    z 0.024970 0.000000 3.977840 
# 
# 
# High freq. dielectric constant tensor:
#      x y z
#    x 1.786080 0.000000 0.004840 
#    y 0.000000 1.749660 0.000000 
#    z 0.004840 0.000000 1.792080 
# 
# From -- ./inp_files/255151.got.cif
#   From: 2010.06.25/outbox.cif.g09.slc.cpg/sg15_128_cif.got.tgz:255151.got - 2010.06.28 07:06:18.
