data_PCOD8151393
_publ_section_title
;
Structure prediction by ZEFSAII (Michael W. Deem and Ramdas Pophale) SiO2 
 PCOD8151393
Probable space group: C 2/C
;
_chemical_formula_sum "Si O2"
_cell_formula_units_Z 64
_cell_length_a 30.504473
_cell_length_b 18.783049
_cell_length_c 14.285990
_cell_angle_alpha 90.000000
_cell_angle_beta 158.827636
_cell_angle_gamma 90.000000
_cell_volume 2956.360825
_symmetry_space_group_name_H-M "C 2/C"
_symmetry_group_IT_number 15
_symmetry_cell_setting 'monoclinic'
loop_
_space_group_symop_operation_xyz
x,y,z
-x,y,1/2-z
-x,-y,-z
x,-y,1/2+z
1/2+x,1/2+y,z
1/2-x,1/2+y,1/2-z
1/2-x,1/2-y,-z
1/2+x,1/2-y,1/2+z
loop_
_atom_site_type_symbol
_atom_site_label
_atom_site_fract_x
_atom_site_fract_y
_atom_site_fract_z
Si Si1 0.542313 0.540898 0.235632
Si Si2 0.712664 0.020194 0.852712
Si Si3 0.057494 0.884323 0.456635
Si Si4 0.501273 0.201960 0.864976
Si Si5 0.461270 0.663176 0.950836
Si Si6 0.186010 0.420954 0.494465
Si Si7 0.042801 0.438720 0.735529
Si Si8 0.305466 0.135188 0.119912
O O1 0.500000 0.572697 0.250000
O O2 0.689148 0.547919 0.526502
O O3 0.503998 0.459934 0.145638
O O4 0.478164 0.584761 0.026271
O O5 0.745401 0.058316 0.014521
O O6 0.574798 0.037601 0.555245
O O7 0.730442 0.936608 0.899309
O O8 0.000000 0.848617 0.250000
O O9 0.029852 0.831595 0.487742
O O10 0.200352 0.894650 0.717775
O O11 0.500000 0.204279 0.750000
O O12 0.403742 0.144118 0.701715
O O13 0.473217 0.280254 0.849784
O O14 0.626370 0.180931 0.165274
O O15 0.316946 0.677164 0.652317
O O16 0.121222 0.489677 0.412361
O O17 0.000000 0.405619 0.750000
O O18 0.115357 0.381274 0.816954
#
# Coordination Sequence:
#
# PCOD8151393 Si02
#       8
#     8   8   8   8   8   8   8   8
#     4  11  23  39  67 101 136 171 214 265 327 389
#     4  11  20  40  69  98 134 168 216 275 325 374
#     4  11  25  41  69 101 126 171 217 273 335 382
#     4  12  27  45  68  92 125 182 223 261 324 392
#     4  12  25  45  65  95 135 172 219 267 325 387
#     4  11  22  43  66  94 137 170 221 268 321 391
#     4  11  23  37  68 107 133 170 212 273 334 374
#     4  11  23  44  67  96 132 168 219 276 318 390
#
# _framework density 21.648237999999999
#
# number of rings (size 3 to 8) (size 9 to 14) (size 15 to 20)
#    0.000    0.750    5.000    3.750    7.000    0.500 
#    0.000    0.625    0.000    0.000    0.000    0.000 
#    0.000    0.000    0.000    0.000    0.000    0.000 
#
# Total GULP energy -396785.723815 kJ/mol
# GULP energy per Si atom -12399.553869 kJ/mol
# Density = 2.159897 g / cm^3
# Si number density = 21.648238 Si / 1000 Ang^3
#
#
#
# Elastic Constant Matrix: (Units=GPa)
#
#
# Indices 1 2 3 4 5 6 
#
# 1 126.8541 20.9581 19.0984 0.0000 -2.9479 0.0000
# 2 20.9581 52.0392 0.7436 0.0000 -5.4951 0.0000
# 3 19.0984 0.7436 102.3076 0.0000 2.5333 0.0000
# 4 0.0000 0.0000 0.0000 19.9394 0.0000 -14.3600
# 5 -2.9479 -5.4951 2.5333 0.0000 32.1245 0.0000
# 6 0.0000 0.0000 0.0000 -14.3600 0.0000 9.9786
#
#
#
# Elastic Compliance Matrix: (Units=1/GPa)
#
#
# Indices 1 2 3 4 5 6 
#
# 1 0.008702 -0.003446 -0.001608 0.000000 0.000336 0.000000
# 2 -0.003446 0.020940 0.000411 0.000000 0.003233 0.000000
# 3 -0.001608 0.000411 0.010093 0.000000 -0.000873 0.000000
# 4 0.000000 0.000000 0.000000 -1.377519 0.000000 -1.982372
# 5 0.000336 0.003233 -0.000873 0.000000 0.031782 0.000000
# 6 0.000000 0.000000 0.000000 -1.982372 0.000000 -2.752593
#
#
# Mechanical properties :
#
#
# Convention : Reuss Voigt Hill
#
# Bulk Modulus (GPa) = 32.84146 40.31122 36.57634
# Shear Modulus (GPa) = -1.23788 28.43521 13.59866
#
# Velocity S-wave (km/s) = -0.75701 3.62817 2.50904
# Velocity P-wave (km/s) = 3.79992 6.01772 5.03251
#
# Compressibility (1/GPa) = 0.03044931
#
# Stress axis : x y z
#
# Youngs Moduli (GPa) = 114.91202 47.75599 99.07645
#
# Poissons Ratio (x) = 0.16458 0.15929
# Poissons Ratio (y) = 0.39602 -0.04073
# Poissons Ratio (z) = 0.18475 -0.01963
#
# Static dielectric constant tensor:
#      x y z
#    x 4.092920 0.000000 -0.035680 
#    y 0.000000 3.642580 0.000000 
#    z -0.035680 0.000000 4.032840 
# 
# 
# High freq. dielectric constant tensor:
#      x y z
#    x 1.856910 0.000000 -0.001580 
#    y 0.000000 1.820800 0.000000 
#    z -0.001580 0.000000 1.864830 
# 
# From -- ./inp_files/183156.got.cif
#   From: 2010.06.25/outbox.cif.g09.slc.cpg/sg15_92_cif.got.tgz:183156.got - 2010.06.28 07:06:18.
