data_PCOD8151580
_publ_section_title
;
Structure prediction by ZEFSAII (Michael W. Deem and Ramdas Pophale) SiO2 
 PCOD8151580
Probable space group: C 2/C
;
_chemical_formula_sum "Si O2"
_cell_formula_units_Z 56
_cell_length_a 28.487452
_cell_length_b 10.196583
_cell_length_c 20.291132
_cell_angle_alpha 90.000000
_cell_angle_beta 152.235651
_cell_angle_gamma 90.000000
_cell_volume 2745.666086
_symmetry_space_group_name_H-M "C 2/C"
_symmetry_group_IT_number 15
_symmetry_cell_setting 'monoclinic'
loop_
_space_group_symop_operation_xyz
x,y,z
-x,y,1/2-z
-x,-y,-z
x,-y,1/2+z
1/2+x,1/2+y,z
1/2-x,1/2+y,1/2-z
1/2-x,1/2-y,-z
1/2+x,1/2-y,1/2+z
loop_
_atom_site_type_symbol
_atom_site_label
_atom_site_fract_x
_atom_site_fract_y
_atom_site_fract_z
Si Si1 0.911608 0.456783 0.839535
Si Si2 0.256930 0.997240 0.328631
Si Si3 0.540816 0.700946 0.395523
Si Si4 0.668297 0.406812 0.844935
Si Si5 0.758197 0.125993 0.927318
Si Si6 0.520722 0.008807 0.846703
Si Si7 0.819400 0.732486 0.318775
O O1 0.818336 0.557918 0.718600
O O2 0.859851 0.323501 0.799936
O O3 0.955477 0.435468 0.821204
O O4 0.000000 0.500000 0.000000
O O5 0.364366 0.989288 0.494763
O O6 0.242557 0.865324 0.268871
O O7 0.180431 0.001326 0.295645
O O8 0.251229 0.125127 0.273665
O O9 0.450311 0.597248 0.286210
O O10 0.630099 0.638640 0.463792
O O11 0.579581 0.733410 0.516369
O O12 0.494452 0.836309 0.309381
O O13 0.713575 0.268357 0.881325
O O14 0.729106 0.451360 0.986779
O O15 0.500000 0.943445 0.750000
#
# Coordination Sequence:
#
# PCOD8151580 Si02
#       7
#     8   8   8   8   8   8   8
#     4  12  22  40  65  95 127 173 222 268 334 392
#     4  11  24  41  65  96 134 168 221 273 337 388
#     4  11  21  36  63  96 132 169 225 276 330 383
#     4  11  21  36  61  94 131 173 216 279 329 385
#     4  11  21  36  62  95 131 167 222 278 325 385
#     4  11  21  38  65  95 128 174 228 269 318 400
#     4  11  24  41  64  97 130 172 213 274 327 401
#
# _framework density 20.395779999999998
#
# number of rings (size 3 to 8) (size 9 to 14) (size 15 to 20)
#    0.000    0.857    7.143    3.000    0.000    1.714 
#    0.000    4.286    0.000    0.000    0.000    0.000 
#    0.000    0.000    0.000    0.000    0.000    0.000 
#
# Total GULP energy -347034.516546 kJ/mol
# GULP energy per Si atom -12394.089877 kJ/mol
# Density = 2.034936 g / cm^3
# Si number density = 20.395780 Si / 1000 Ang^3
#
#
#
# Elastic Constant Matrix: (Units=GPa)
#
#
# Indices 1 2 3 4 5 6 
#
# 1 138.9773 33.6583 47.7811 0.0000 -15.7001 0.0000
# 2 33.6583 75.3427 45.6946 0.0000 -12.8475 0.0000
# 3 47.7811 45.6946 64.8401 0.0000 -7.9656 0.0000
# 4 0.0000 0.0000 0.0000 20.8012 0.0000 6.5831
# 5 -15.7001 -12.8475 -7.9656 0.0000 38.5700 0.0000
# 6 0.0000 0.0000 0.0000 6.5831 0.0000 25.3438
#
#
#
# Elastic Compliance Matrix: (Units=1/GPa)
#
#
# Indices 1 2 3 4 5 6 
#
# 1 0.009890 0.000452 -0.007278 0.000000 0.002673 0.000000
# 2 0.000452 0.023974 -0.016646 0.000000 0.004731 0.000000
# 3 -0.007278 -0.016646 0.032291 0.000000 -0.001839 0.000000
# 4 0.000000 0.000000 0.000000 0.052380 0.000000 -0.013606
# 5 0.002673 0.004731 -0.001839 0.000000 0.028211 0.000000
# 6 0.000000 0.000000 0.000000 -0.013606 0.000000 0.042992
#
#
# Mechanical properties :
#
#
# Convention : Reuss Voigt Hill
#
# Bulk Modulus (GPa) = 52.05813 59.26976 55.66394
# Shear Modulus (GPa) = 20.56878 27.07807 23.82342
#
# Velocity S-wave (km/s) = 3.17911 3.64762 3.42139
# Velocity P-wave (km/s) = 6.24940 6.84566 6.55431
#
# Compressibility (1/GPa) = 0.01920930
#
# Stress axis : x y z
#
# Youngs Moduli (GPa) = 101.10948 41.71254 30.96835
#
# Poissons Ratio (x) = -0.01883 0.22539
# Poissons Ratio (y) = -0.04565 0.51551
# Poissons Ratio (z) = 0.73588 0.69436
#
# Static dielectric constant tensor:
#      x y z
#    x 4.396890 0.000000 -0.119490 
#    y 0.000000 2.730930 0.000000 
#    z -0.119490 0.000000 3.853290 
# 
# 
# High freq. dielectric constant tensor:
#      x y z
#    x 1.820460 0.000000 -0.005180 
#    y 0.000000 1.740610 0.000000 
#    z -0.005180 0.000000 1.807510 
# 
# From -- ./inp_files/258999.got.cif
#   From: 2010.06.25/outbox.cif.g09.slc.cpg/sg15_130_cif.got.tgz:258999.got - 2010.06.28 07:06:18.
