data_PCOD8151927
_publ_section_title
;
Structure prediction by ZEFSAII (Michael W. Deem and Ramdas Pophale) SiO2 
 PCOD8151927
Probable space group: C 2/C
;
_chemical_formula_sum "Si O2"
_cell_formula_units_Z 44
_cell_length_a 21.314670
_cell_length_b 7.803445
_cell_length_c 11.845125
_cell_angle_alpha 90.000000
_cell_angle_beta 110.003346
_cell_angle_gamma 90.000000
_cell_volume 1851.318835
_symmetry_space_group_name_H-M "C 2/C"
_symmetry_group_IT_number 15
_symmetry_cell_setting 'monoclinic'
loop_
_space_group_symop_operation_xyz
x,y,z
-x,y,1/2-z
-x,-y,-z
x,-y,1/2+z
1/2+x,1/2+y,z
1/2-x,1/2+y,1/2-z
1/2-x,1/2-y,-z
1/2+x,1/2-y,1/2+z
loop_
_atom_site_type_symbol
_atom_site_label
_atom_site_fract_x
_atom_site_fract_y
_atom_site_fract_z
Si Si1 0.824690 0.534380 0.843313
Si Si2 0.437130 0.315626 0.140814
Si Si3 0.500000 0.311501 0.750000
Si Si4 0.554677 0.965300 0.438043
Si Si5 0.317632 0.326707 0.223690
Si Si6 0.602456 0.385057 0.633376
O O1 0.755096 0.600474 0.851798
O O2 0.814443 0.375873 0.750906
O O3 0.861244 0.703019 0.815215
O O4 0.870331 0.456484 0.969497
O O5 0.500000 0.398279 0.250000
O O6 0.363788 0.354256 0.143122
O O7 0.450287 0.114114 0.157142
O O8 0.437059 0.377265 0.010356
O O9 0.457637 0.210108 0.632399
O O10 0.552633 0.420042 0.707060
O O11 0.500000 0.000000 0.500000
O O12 0.347860 0.450289 0.340903
#
# Coordination Sequence:
#
# PCOD8151927 Si02
#       6
#     8   8   4   8   8   8
#     4  11  24  48  74 104 149 189 246 295 366 435
#     4  11  24  45  76 107 149 193 240 303 364 432
#     4  12  22  44  74 110 150 184 246 302 358 434
#     4  11  21  42  73 110 143 191 240 294 363 431
#     4  12  26  48  74 106 146 195 242 304 364 433
#     4  11  27  47  73 112 146 191 245 299 365 435
#
# _framework density 23.766843000000001
#
# number of rings (size 3 to 8) (size 9 to 14) (size 15 to 20)
#    0.000    0.727    6.364    2.182    1.273    5.091 
#    3.273    1.818    0.000    0.000    0.000    0.000 
#    0.000    0.000    0.000    0.000    0.000    0.000 
#
# Total GULP energy -272553.402581 kJ/mol
# GULP energy per Si atom -12388.791026 kJ/mol
# Density = 2.371275 g / cm^3
# Si number density = 23.766843 Si / 1000 Ang^3
#
#
#
# Elastic Constant Matrix: (Units=GPa)
#
#
# Indices 1 2 3 4 5 6 
#
# 1 186.3601 54.5213 84.0036 0.0000 9.8903 0.0000
# 2 54.5213 140.8305 25.2212 0.0000 5.0197 0.0000
# 3 84.0036 25.2212 101.3840 0.0000 8.6032 0.0000
# 4 0.0000 0.0000 0.0000 -9.1539 0.0000 -6.2031
# 5 9.8903 5.0197 8.6032 0.0000 37.6812 0.0000
# 6 0.0000 0.0000 0.0000 -6.2031 0.0000 43.9138
#
#
#
# Elastic Compliance Matrix: (Units=1/GPa)
#
#
# Indices 1 2 3 4 5 6 
#
# 1 0.009239 -0.002298 -0.007040 0.000000 -0.000512 0.000000
# 2 -0.002298 0.008016 -0.000052 0.000000 -0.000453 0.000000
# 3 -0.007040 -0.000052 0.015859 0.000000 -0.001766 0.000000
# 4 0.000000 0.000000 0.000000 -0.099700 0.000000 -0.014083
# 5 -0.000512 -0.000453 -0.001766 0.000000 0.027136 0.000000
# 6 0.000000 0.000000 0.000000 -0.014083 0.000000 0.020783
#
#
# Mechanical properties :
#
#
# Convention : Reuss Voigt Hill
#
# Bulk Modulus (GPa) = 69.76005 84.00742 76.88373
# Shear Modulus (GPa) = 1022.70639 32.14348 527.42493
#
# Velocity S-wave (km/s) = 20.76637 3.68156 14.91302
# Velocity P-wave (km/s) = 24.58465 7.31403 18.13698
#
# Compressibility (1/GPa) = 0.01433485
#
# Stress axis : x y z
#
# Youngs Moduli (GPa) = 108.24212 124.75545 63.05488
#
# Poissons Ratio (x) = 0.28664 0.44389
# Poissons Ratio (y) = 0.24870 0.00327
# Poissons Ratio (z) = 0.76200 0.00647
#
# Static dielectric constant tensor:
#      x y z
#    x 4.349210 0.000000 0.126060 
#    y 0.000000 4.820530 0.000000 
#    z 0.126060 0.000000 4.134790 
# 
# 
# High freq. dielectric constant tensor:
#      x y z
#    x 1.951230 0.000000 0.008770 
#    y 0.000000 1.977070 0.000000 
#    z 0.008770 0.000000 1.923160 
# 
# From -- ./inp_files/110150.got.cif
#   From: 2010.06.25/outbox.cif.g09.slc.cpg/sg15_56_cif.got.tgz:110150.got - 2010.06.28 07:06:18.
