data_PCOD8151024
_publ_section_title
;
Structure prediction by ZEFSAII (Michael W. Deem and Ramdas Pophale) SiO2 
 PCOD8151024
Probable space group: C 2/C
;
_chemical_formula_sum "Si O2"
_cell_formula_units_Z 64
_cell_length_a 16.201934
_cell_length_b 30.269103
_cell_length_c 12.800434
_cell_angle_alpha 90.000000
_cell_angle_beta 36.393507
_cell_angle_gamma 90.000000
_cell_volume 3724.652033
_symmetry_space_group_name_H-M "C 2/C"
_symmetry_group_IT_number 15
_symmetry_cell_setting 'monoclinic'
loop_
_space_group_symop_operation_xyz
x,y,z
-x,y,1/2-z
-x,-y,-z
x,-y,1/2+z
1/2+x,1/2+y,z
1/2-x,1/2+y,1/2-z
1/2-x,1/2-y,-z
1/2+x,1/2-y,1/2+z
loop_
_atom_site_type_symbol
_atom_site_label
_atom_site_fract_x
_atom_site_fract_y
_atom_site_fract_z
Si Si1 0.629178 0.699981 0.551732
Si Si2 0.490916 0.935437 0.569024
Si Si3 0.496500 0.569207 0.540748
Si Si4 0.235534 0.110909 0.418085
Si Si5 0.625059 0.205030 0.046690
Si Si6 0.755419 0.619646 0.644638
Si Si7 0.095971 0.983224 0.753323
Si Si8 0.083583 0.525403 0.568444
O O1 0.500000 0.681386 0.750000
O O2 0.688671 0.659486 0.420960
O O3 0.590002 0.746289 0.530831
O O4 0.742794 0.713483 0.518494
O O5 0.392415 0.900429 0.727487
O O6 0.643683 0.915319 0.403636
O O7 0.425688 0.942893 0.521755
O O8 0.503719 0.979936 0.622991
O O9 0.630875 0.575065 0.477491
O O10 0.394452 0.612402 0.646158
O O11 0.411972 0.527597 0.670760
O O12 0.546804 0.558978 0.371950
O O13 0.229475 0.110426 0.549037
O O14 0.500000 0.188425 0.250000
O O15 0.671395 0.167918 0.914484
O O16 0.257068 0.979231 0.557779
O O17 0.000000 0.985579 0.750000
O O18 0.000000 0.546939 0.750000
#
# Coordination Sequence:
#
# PCOD8151024 Si02
#       8
#     8   8   8   8   8   8   8   8
#     4   9  17  29  46  69 102 142 171 204 245 299
#     4  11  23  35  51  76 103 132 177 214 251 307
#     4  11  23  35  51  76 102 130 178 213 249 308
#     4  11  19  33  49  74 106 140 174 207 248 295
#     4   9  17  29  45  71 104 138 175 201 245 299
#     4  11  19  31  51  76 103 142 168 208 247 302
#     4  11  24  39  55  72 100 136 170 220 266 300
#     4  11  24  39  54  72 100 136 171 218 267 301
#
# _framework density 17.182812999999999
#
# number of rings (size 3 to 8) (size 9 to 14) (size 15 to 20)
#    0.000    1.500    2.500    5.250    3.500    0.000 
#    0.000    0.000    0.000    0.000    0.000    0.000 
#    0.000    6.000    0.000    0.000    0.000    0.000 
#
# Total GULP energy -396519.807653 kJ/mol
# GULP energy per Si atom -12391.243989 kJ/mol
# Density = 1.714370 g / cm^3
# Si number density = 17.182813 Si / 1000 Ang^3
#
#
#
# Elastic Constant Matrix: (Units=GPa)
#
#
# Indices 1 2 3 4 5 6 
#
# 1 54.1652 10.2334 25.3979 0.0000 -10.5057 0.0000
# 2 10.2334 79.3602 26.3318 0.0000 5.9889 0.0000
# 3 25.3979 26.3318 101.6317 0.0002 -9.6453 -0.0001
# 4 0.0000 0.0000 0.0002 30.8928 -0.0001 -2.6390
# 5 -10.5057 5.9889 -9.6453 -0.0001 25.1904 0.0000
# 6 0.0000 0.0000 -0.0001 -2.6390 0.0000 12.6370
#
#
#
# Elastic Compliance Matrix: (Units=1/GPa)
#
#
# Indices 1 2 3 4 5 6 
#
# 1 0.022465 -0.002094 -0.004291 0.000000 0.008224 0.000000
# 2 -0.002094 0.014569 -0.003801 0.000000 -0.005792 0.000000
# 3 -0.004291 -0.003801 0.012258 0.000000 0.003808 0.000000
# 4 0.000000 0.000000 0.000000 0.032958 0.000000 0.006883
# 5 0.008224 -0.005792 0.003808 0.000000 0.045962 0.000000
# 6 0.000000 0.000000 0.000000 0.006883 0.000000 0.080570
#
#
# Mechanical properties :
#
#
# Convention : Reuss Voigt Hill
#
# Bulk Modulus (GPa) = 34.57819 39.89817 37.23818
# Shear Modulus (GPa) = 20.93857 25.29031 23.11444
#
# Velocity S-wave (km/s) = 3.49460 3.84062 3.67169
# Velocity P-wave (km/s) = 6.03741 6.55266 6.30030
#
# Compressibility (1/GPa) = 0.02891996
#
# Stress axis : x y z
#
# Youngs Moduli (GPa) = 44.51435 68.63830 81.57915
#
# Poissons Ratio (x) = 0.14370 0.35006
# Poissons Ratio (y) = 0.09320 0.31010
# Poissons Ratio (z) = 0.19101 0.26091
#
# Static dielectric constant tensor:
#      x y z
#    x 2.947270 0.000000 -0.200740 
#    y 0.000000 3.638360 0.000000 
#    z -0.200740 0.000000 3.223630 
# 
# 
# High freq. dielectric constant tensor:
#      x y z
#    x 1.626980 0.000000 -0.042230 
#    y 0.000000 1.660260 0.000000 
#    z -0.042230 0.000000 1.668140 
# 
# From -- ./inp_files/164516.got.cif
#   From: 2010.06.25/outbox.cif.g09.slc.cpg/sg15_83_cif.got.tgz:164516.got - 2010.06.28 07:06:18.
