data_PCOD8151550
_publ_section_title
;
Structure prediction by ZEFSAII (Michael W. Deem and Ramdas Pophale) SiO2 
 PCOD8151550
Probable space group: C 2/C
;
_chemical_formula_sum "Si O2"
_cell_formula_units_Z 60
_cell_length_a 11.766321
_cell_length_b 31.650559
_cell_length_c 8.241002
_cell_angle_alpha 90.000000
_cell_angle_beta 124.685837
_cell_angle_gamma 90.000000
_cell_volume 2523.622121
_symmetry_space_group_name_H-M "C 2/C"
_symmetry_group_IT_number 15
_symmetry_cell_setting 'monoclinic'
loop_
_space_group_symop_operation_xyz
x,y,z
-x,y,1/2-z
-x,-y,-z
x,-y,1/2+z
1/2+x,1/2+y,z
1/2-x,1/2+y,1/2-z
1/2-x,1/2-y,-z
1/2+x,1/2-y,1/2+z
loop_
_atom_site_type_symbol
_atom_site_label
_atom_site_fract_x
_atom_site_fract_y
_atom_site_fract_z
Si Si1 0.500000 0.478997 0.250000
Si Si2 0.037485 0.701498 0.590487
Si Si3 0.565201 0.353343 0.976520
Si Si4 0.875701 0.468024 0.267467
Si Si5 0.670368 0.881448 0.130670
Si Si6 0.227453 0.964857 0.836720
Si Si7 0.817295 0.235771 0.889003
Si Si8 0.841064 0.096654 0.467473
O O1 0.414972 0.508852 0.305874
O O2 0.610735 0.448614 0.425316
O O3 0.048016 0.653325 0.537581
O O4 0.086761 0.726144 0.104362
O O5 0.000000 0.702715 0.750000
O O6 0.187151 0.723075 0.670241
O O7 0.500000 0.366887 0.750000
O O8 0.576391 0.302824 0.995847
O O9 0.717250 0.372234 0.135662
O O10 0.465689 0.370819 0.037448
O O11 0.900128 0.426513 0.396060
O O12 0.855226 0.508623 0.364931
O O13 0.000000 0.477143 0.250000
O O14 0.742845 0.460173 0.043349
O O15 0.736461 0.880704 0.005037
O O16 0.227897 0.917826 0.758712
O O17 0.750000 0.250000 0.000000
#
# Coordination Sequence:
#
# PCOD8151550 Si02
#       8
#     4   8   8   8   8   8   8   8
#     4  12  22  40  66  88 128 150 210 264 322 370
#     4   9  18  35  62  90 122 163 212 259 314 379
#     4  11  21  35  61  92 127 160 207 263 321 377
#     4  12  24  42  62  87 125 172 219 258 315 384
#     4  11  22  39  57  90 128 167 206 260 319 380
#     4  12  25  40  65  93 120 168 215 271 319 373
#     4   9  18  35  61  93 123 160 212 262 314 383
#     4  12  23  39  61  94 131 163 206 266 327 380
#
# _framework density 23.775352000000002
#
# number of rings (size 3 to 8) (size 9 to 14) (size 15 to 20)
#    0.000    1.067    4.000    3.200    2.800    0.000 
#    0.000    2.000    0.000    3.200    0.000    0.000 
#    0.000    0.000    0.000    0.000    0.000    0.000 
#
# Total GULP energy -371887.651314 kJ/mol
# GULP energy per Si atom -12396.255044 kJ/mol
# Density = 2.372124 g / cm^3
# Si number density = 23.775352 Si / 1000 Ang^3
#
#
#
# Elastic Constant Matrix: (Units=GPa)
#
#
# Indices 1 2 3 4 5 6 
#
# 1 125.5546 60.0910 -1.0169 0.0000 -3.3787 0.0000
# 2 60.0910 134.1085 9.9954 0.0000 -0.2685 0.0000
# 3 -1.0169 9.9954 43.4048 0.0000 -5.5547 0.0000
# 4 0.0000 0.0000 0.0000 10.7929 0.0000 -6.3126
# 5 -3.3787 -0.2685 -5.5547 0.0000 23.1003 0.0000
# 6 0.0000 0.0000 0.0000 -6.3126 0.0000 43.6569
#
#
#
# Elastic Compliance Matrix: (Units=1/GPa)
#
#
# Indices 1 2 3 4 5 6 
#
# 1 0.010286 -0.004722 0.001562 0.000000 0.001825 0.000000
# 2 -0.004722 0.009757 -0.002509 0.000000 -0.001180 0.000000
# 3 0.001562 -0.002509 0.024430 0.000000 0.006074 0.000000
# 4 0.000000 0.000000 0.000000 0.101213 0.000000 0.014635
# 5 0.001825 -0.001180 0.006074 0.000000 0.045003 0.000000
# 6 0.000000 0.000000 0.000000 0.014635 0.000000 0.025022
#
#
# Mechanical properties :
#
#
# Convention : Reuss Voigt Hill
#
# Bulk Modulus (GPa) = 30.17784 49.02298 39.60041
# Shear Modulus (GPa) = 21.00002 31.10992 26.05497
#
# Velocity S-wave (km/s) = 2.97521 3.62124 3.31400
# Velocity P-wave (km/s) = 4.95206 6.17645 5.59783
#
# Compressibility (1/GPa) = 0.03313690
#
# Stress axis : x y z
#
# Youngs Moduli (GPa) = 97.21652 102.49056 40.93246
#
# Poissons Ratio (x) = 0.48394 -0.06393
# Poissons Ratio (y) = 0.45904 0.10268
# Poissons Ratio (z) = -0.15185 0.25710
#
# Static dielectric constant tensor:
#      x y z
#    x 4.361860 0.000000 0.187960 
#    y 0.000000 4.306430 0.000000 
#    z 0.187960 0.000000 4.379010 
# 
# 
# High freq. dielectric constant tensor:
#      x y z
#    x 1.944370 0.000000 0.006790 
#    y 0.000000 1.942370 0.000000 
#    z 0.006790 0.000000 1.916370 
# 
# From -- ./inp_files/35728.got.cif
#   From: 2010.06.25/outbox.cif.g09.slc.cpg/sg15_18_cif.got.tgz:35728.got - 2010.06.28 07:06:18.
