data_PCOD8151900
_publ_section_title
;
Structure prediction by ZEFSAII (Michael W. Deem and Ramdas Pophale) SiO2 
 PCOD8151900
Probable space group: C 2/C
;
_chemical_formula_sum "Si O2"
_cell_formula_units_Z 56
_cell_length_a 20.312319
_cell_length_b 15.337774
_cell_length_c 8.957347
_cell_angle_alpha 90.000000
_cell_angle_beta 58.182945
_cell_angle_gamma 90.000000
_cell_volume 2371.292657
_symmetry_space_group_name_H-M "C 2/C"
_symmetry_group_IT_number 15
_symmetry_cell_setting 'monoclinic'
loop_
_space_group_symop_operation_xyz
x,y,z
-x,y,1/2-z
-x,-y,-z
x,-y,1/2+z
1/2+x,1/2+y,z
1/2-x,1/2+y,1/2-z
1/2-x,1/2-y,-z
1/2+x,1/2-y,1/2+z
loop_
_atom_site_type_symbol
_atom_site_label
_atom_site_fract_x
_atom_site_fract_y
_atom_site_fract_z
Si Si1 0.606574 0.841790 0.445048
Si Si2 0.341694 0.958286 0.355796
Si Si3 0.386798 0.590934 0.925428
Si Si4 0.009816 0.805508 0.994357
Si Si5 0.500000 0.441942 0.750000
Si Si6 0.144668 0.748643 0.203165
Si Si7 0.000000 0.465351 0.750000
Si Si8 0.269121 0.103034 0.253416
O O1 0.669890 0.891332 0.268118
O O2 0.576112 0.764044 0.372610
O O3 0.646355 0.802908 0.544579
O O4 0.536320 0.905780 0.576128
O O5 0.300395 0.923563 0.554051
O O6 0.433187 0.971065 0.269152
O O7 0.306211 0.049449 0.345992
O O8 0.420486 0.498102 0.829225
O O9 0.344747 0.647002 0.842848
O O10 0.462016 0.643245 0.892596
O O11 0.323036 0.583341 0.134080
O O12 0.989993 0.879436 0.901215
O O13 0.937336 0.742831 0.115969
O O14 0.209838 0.704859 0.232821
#
# Coordination Sequence:
#
# PCOD8151900 Si02
#       8
#     8   8   8   8   4   8   4   8
#     4  11  21  42  67  99 143 178 238 286 345 423
#     4  12  26  40  66 107 141 189 233 292 356 427
#     4  11  25  47  73  99 142 183 244 297 357 423
#     4  11  24  43  73 105 136 188 238 297 349 425
#     4  12  26  44  74 112 134 188 248 300 356 412
#     4  11  22  46  70 100 138 186 232 288 360 423
#     4  12  20  40  68  96 138 184 236 282 342 426
#     4  12  26  43  71 104 147 188 230 293 368 424
#
# _framework density 23.615811000000001
#
# number of rings (size 3 to 8) (size 9 to 14) (size 15 to 20)
#    0.000    0.571    5.714    2.143    6.000    0.000 
#    0.000    5.714    0.000    0.000    0.000    0.000 
#    0.000    0.000    0.000    0.000    0.000    0.000 
#
# Total GULP energy -346936.532374 kJ/mol
# GULP energy per Si atom -12390.590442 kJ/mol
# Density = 2.356206 g / cm^3
# Si number density = 23.615811 Si / 1000 Ang^3
#
#
#
# Elastic Constant Matrix: (Units=GPa)
#
#
# Indices 1 2 3 4 5 6 
#
# 1 46.6663 16.8401 34.5428 0.0000 -6.0008 0.0000
# 2 16.8401 102.4402 45.7333 0.0000 16.0895 0.0000
# 3 34.5428 45.7333 136.8671 0.0000 4.9753 0.0000
# 4 0.0000 0.0000 0.0000 43.1966 0.0000 5.1646
# 5 -6.0008 16.0895 4.9753 0.0000 22.9720 0.0000
# 6 0.0000 0.0000 0.0000 5.1646 0.0000 16.8313
#
#
#
# Elastic Compliance Matrix: (Units=1/GPa)
#
#
# Indices 1 2 3 4 5 6 
#
# 1 0.029083 -0.003687 -0.006530 0.000000 0.011594 0.000000
# 2 -0.003687 0.013284 -0.003160 0.000000 -0.009582 0.000000
# 3 -0.006530 -0.003160 0.010071 0.000000 -0.001674 0.000000
# 4 0.000000 0.000000 0.000000 0.024032 0.000000 -0.007374
# 5 0.011594 -0.009582 -0.001674 0.000000 0.053634 0.000000
# 6 0.000000 0.000000 0.000000 -0.007374 0.000000 0.061676
#
#
# Mechanical properties :
#
#
# Convention : Reuss Voigt Hill
#
# Bulk Modulus (GPa) = 38.93269 53.35621 46.14445
# Shear Modulus (GPa) = 22.01740 29.19049 25.60395
#
# Velocity S-wave (km/s) = 3.05670 3.51957 3.29627
# Velocity P-wave (km/s) = 5.38326 6.25772 5.83689
#
# Compressibility (1/GPa) = 0.02568535
#
# Stress axis : x y z
#
# Youngs Moduli (GPa) = 34.38406 75.28096 99.29519
#
# Poissons Ratio (x) = 0.27755 0.64836
# Poissons Ratio (y) = 0.12677 0.31375
# Poissons Ratio (z) = 0.22451 0.23787
#
# Static dielectric constant tensor:
#      x y z
#    x 2.199520 0.000000 -1.155430 
#    y 0.000000 4.546710 0.000000 
#    z -1.155430 0.000000 3.606390 
# 
# 
# High freq. dielectric constant tensor:
#      x y z
#    x 1.908580 0.000000 -0.013770 
#    y 0.000000 1.948100 0.000000 
#    z -0.013770 0.000000 1.933490 
# 
# From -- ./inp_files/56515.got.cif
#   From: 2010.06.25/outbox.cif.g09.slc.cpg/sg15_29_cif.got.tgz:56515.got - 2010.06.28 07:06:18.
