data_PCOD8151423
_publ_section_title
;
Structure prediction by ZEFSAII (Michael W. Deem and Ramdas Pophale) SiO2 
 PCOD8151423
Probable space group: C 2/C
;
_chemical_formula_sum "Si O2"
_cell_formula_units_Z 44
_cell_length_a 12.703481
_cell_length_b 11.092450
_cell_length_c 15.403727
_cell_angle_alpha 90.000000
_cell_angle_beta 111.756228
_cell_angle_gamma 90.000000
_cell_volume 2015.969103
_symmetry_space_group_name_H-M "C 2/C"
_symmetry_group_IT_number 15
_symmetry_cell_setting 'monoclinic'
loop_
_space_group_symop_operation_xyz
x,y,z
-x,y,1/2-z
-x,-y,-z
x,-y,1/2+z
1/2+x,1/2+y,z
1/2-x,1/2+y,1/2-z
1/2-x,1/2-y,-z
1/2+x,1/2-y,1/2+z
loop_
_atom_site_type_symbol
_atom_site_label
_atom_site_fract_x
_atom_site_fract_y
_atom_site_fract_z
Si Si1 0.324245 0.558401 0.273739
Si Si2 0.610770 0.722882 0.344951
Si Si3 0.623706 0.986889 0.325168
Si Si4 0.018451 0.134377 0.040084
Si Si5 0.000000 0.877397 0.250000
Si Si6 0.626037 0.224090 0.426497
O O1 0.300929 0.636697 0.179426
O O2 0.204406 0.507362 0.267065
O O3 0.367638 0.640430 0.367031
O O4 0.422892 0.458715 0.289605
O O5 0.500000 0.721390 0.250000
O O6 0.589207 0.668968 0.433720
O O7 0.658765 0.856806 0.374067
O O8 0.500000 0.983141 0.250000
O O9 0.626547 0.082522 0.404356
O O10 0.033752 0.235466 0.970289
O O11 0.000000 0.000000 0.000000
O O12 0.908564 0.796563 0.170745
O O13 0.750000 0.250000 0.500000
#
# Coordination Sequence:
#
# PCOD8151423 Si02
#       6
#     8   8   8   8   4   8
#     4  11  21  42  72  96 134 186 237 283 344 422
#     4   9  21  41  64  96 131 179 229 283 346 406
#     4  11  25  41  65 101 143 182 223 289 359 411
#     4  11  20  41  68  97 134 177 238 289 331 422
#     4  12  24  44  76 102 132 190 244 280 354 420
#     4  12  25  40  70 106 143 183 231 291 351 418
#
# _framework density 21.825731999999999
#
# number of rings (size 3 to 8) (size 9 to 14) (size 15 to 20)
#    0.000    1.091    7.273    0.000    2.545    2.182 
#    0.000    0.909    0.000    0.000    0.000    0.000 
#    0.000    0.000    0.000    0.000    0.000    0.000 
#
# Total GULP energy -272707.057057 kJ/mol
# GULP energy per Si atom -12395.775321 kJ/mol
# Density = 2.177606 g / cm^3
# Si number density = 21.825732 Si / 1000 Ang^3
#
#
#
# Elastic Constant Matrix: (Units=GPa)
#
#
# Indices 1 2 3 4 5 6 
#
# 1 125.2113 60.6120 42.7588 0.0000 -30.4547 0.0000
# 2 60.6120 176.7106 60.1628 0.0000 -30.4925 0.0000
# 3 42.7588 60.1628 102.2603 0.0000 -22.3071 0.0000
# 4 0.0000 0.0000 0.0000 20.6899 0.0000 -2.3560
# 5 -30.4547 -30.4925 -22.3071 0.0000 48.0830 0.0000
# 6 0.0000 0.0000 0.0000 -2.3560 0.0000 22.7810
#
#
#
# Elastic Compliance Matrix: (Units=1/GPa)
#
#
# Indices 1 2 3 4 5 6 
#
# 1 0.010918 -0.002192 -0.002304 0.000000 0.004457 0.000000
# 2 -0.002192 0.007884 -0.003265 0.000000 0.002097 0.000000
# 3 -0.002304 -0.003265 0.013232 0.000000 0.002609 0.000000
# 4 0.000000 0.000000 0.000000 0.048909 0.000000 0.005058
# 5 0.004457 0.002097 0.002609 0.000000 0.026161 0.000000
# 6 0.000000 0.000000 0.000000 0.005058 0.000000 0.044419
#
#
# Mechanical properties :
#
#
# Convention : Reuss Voigt Hill
#
# Bulk Modulus (GPa) = 60.55285 81.24995 70.90140
# Shear Modulus (GPa) = 28.97756 34.35402 31.66579
#
# Velocity S-wave (km/s) = 3.64769 3.97169 3.81313
# Velocity P-wave (km/s) = 6.74869 7.63806 7.20711
#
# Compressibility (1/GPa) = 0.01651450
#
# Stress axis : x y z
#
# Youngs Moduli (GPa) = 91.59130 126.83908 75.57401
#
# Poissons Ratio (x) = 0.27798 0.17410
# Poissons Ratio (y) = 0.20073 0.24672
# Poissons Ratio (z) = 0.21100 0.41407
#
# Static dielectric constant tensor:
#      x y z
#    x 3.889070 0.000000 -0.320390 
#    y 0.000000 4.561260 0.000000 
#    z -0.320390 0.000000 4.088140 
# 
# 
# High freq. dielectric constant tensor:
#      x y z
#    x 1.849180 0.000000 -0.018180 
#    y 0.000000 1.863420 0.000000 
#    z -0.018180 0.000000 1.853680 
# 
# From -- ./inp_files/142246.got.cif
#   From: 2010.06.25/outbox.cif.g09.slc.cpg/sg15_72_cif.got.tgz:142246.got - 2010.06.28 07:06:18.
