data_PCOD8151623
_publ_section_title
;
Structure prediction by ZEFSAII (Michael W. Deem and Ramdas Pophale) SiO2 
 PCOD8151623
Probable space group: C 2/C
;
_chemical_formula_sum "Si O2"
_cell_formula_units_Z 48
_cell_length_a 7.694009
_cell_length_b 12.171331
_cell_length_c 22.372215
_cell_angle_alpha 90.000000
_cell_angle_beta 108.517921
_cell_angle_gamma 90.000000
_cell_volume 1986.601947
_symmetry_space_group_name_H-M "C 2/C"
_symmetry_group_IT_number 15
_symmetry_cell_setting 'monoclinic'
loop_
_space_group_symop_operation_xyz
x,y,z
-x,y,1/2-z
-x,-y,-z
x,-y,1/2+z
1/2+x,1/2+y,z
1/2-x,1/2+y,1/2-z
1/2-x,1/2-y,-z
1/2+x,1/2-y,1/2+z
loop_
_atom_site_type_symbol
_atom_site_label
_atom_site_fract_x
_atom_site_fract_y
_atom_site_fract_z
Si Si1 0.584436 0.125604 0.088143
Si Si2 0.057510 0.847693 0.394761
Si Si3 0.323984 0.584025 0.468017
Si Si4 0.398083 0.745553 0.379686
Si Si5 0.958022 0.942025 0.678046
Si Si6 0.308497 0.865652 0.028232
O O1 0.597380 0.259556 0.100383
O O2 0.381474 0.085575 0.082929
O O3 0.739201 0.070769 0.146396
O O4 0.611830 0.081821 0.023657
O O5 0.186584 0.870538 0.465981
O O6 0.190992 0.790680 0.359613
O O7 0.970284 0.957695 0.356482
O O8 0.448066 0.659027 0.439000
O O9 0.362285 0.448689 0.468975
O O10 0.436912 0.673009 0.324851
O O11 0.538319 0.848402 0.403105
O O12 0.000000 0.975306 0.750000
O O13 0.250000 0.750000 0.000000
#
# Coordination Sequence:
#
# PCOD8151623 Si02
#       6
#     8   8   8   8   8   8
#     4  11  21  39  64  94 127 159 200 255 319 375
#     4  11  22  41  68  96 126 159 201 263 322 375
#     4  11  21  37  65 102 130 149 197 261 337 379
#     4  11  23  39  64  96 126 158 205 260 318 377
#     4  12  28  44  60  86 126 177 220 249 295 372
#     4  12  20  31  61 100 129 156 190 254 326 375
#
# _framework density 24.161861999999999
#
# number of rings (size 3 to 8) (size 9 to 14) (size 15 to 20)
#    0.000    0.667    6.667    2.500    2.333    2.667 
#    0.000    2.500    0.000    0.000    0.000    0.000 
#    0.000    0.000    0.000    0.000    0.000    0.000 
#
# Total GULP energy -297461.883136 kJ/mol
# GULP energy per Si atom -12394.245131 kJ/mol
# Density = 2.410687 g / cm^3
# Si number density = 24.161862 Si / 1000 Ang^3
#
#
#
# Elastic Constant Matrix: (Units=GPa)
#
#
# Indices 1 2 3 4 5 6 
#
# 1 53.0899 5.5863 5.7444 0.0000 -1.2759 0.0000
# 2 5.5863 106.5972 24.2954 0.0000 1.8452 0.0000
# 3 5.7444 24.2954 85.6282 0.0000 -2.6292 0.0000
# 4 0.0000 0.0000 0.0000 25.6092 0.0000 -6.5183
# 5 -1.2759 1.8452 -2.6292 0.0000 17.5252 0.0000
# 6 0.0000 0.0000 0.0000 -6.5183 0.0000 44.3584
#
#
#
# Elastic Compliance Matrix: (Units=1/GPa)
#
#
# Indices 1 2 3 4 5 6 
#
# 1 0.019061 -0.000791 -0.001014 0.000000 0.001319 0.000000
# 2 -0.000791 0.010101 -0.002861 0.000000 -0.001550 0.000000
# 3 -0.001014 -0.002861 0.012623 0.000000 0.002121 0.000000
# 4 0.000000 0.000000 0.000000 0.040566 0.000000 0.005961
# 5 0.001319 -0.001550 0.002121 0.000000 0.057638 0.000000
# 6 0.000000 0.000000 0.000000 0.005961 0.000000 0.023420
#
#
# Mechanical properties :
#
#
# Convention : Reuss Voigt Hill
#
# Bulk Modulus (GPa) = 30.81201 35.17415 32.99308
# Shear Modulus (GPa) = 27.23945 31.47783 29.35864
#
# Velocity S-wave (km/s) = 3.36128 3.61333 3.48958
# Velocity P-wave (km/s) = 5.27677 5.65664 5.47000
#
# Compressibility (1/GPa) = 0.03245488
#
# Stress axis : x y z
#
# Youngs Moduli (GPa) = 52.46432 98.99644 79.21921
#
# Poissons Ratio (x) = 0.07827 0.08032
# Poissons Ratio (y) = 0.04148 0.22662
# Poissons Ratio (z) = 0.05319 0.28319
#
# Static dielectric constant tensor:
#      x y z
#    x 4.484170 0.000000 0.142920 
#    y 0.000000 5.230540 0.000000 
#    z 0.142920 0.000000 3.510880 
# 
# 
# High freq. dielectric constant tensor:
#      x y z
#    x 1.973580 0.000000 0.003510 
#    y 0.000000 1.994350 0.000000 
#    z 0.003510 0.000000 1.883350 
# 
# From -- ./inp_files/263253.got.cif
#   From: 2010.06.25/outbox.cif.g09.slc.cpg/sg15_132_cif.got.tgz:263253.got - 2010.06.28 07:06:18.
