data_PCOD8151238
_publ_section_title
;
Structure prediction by ZEFSAII (Michael W. Deem and Ramdas Pophale) SiO2 
 PCOD8151238
Probable space group: C 2/C
;
_chemical_formula_sum "Si O2"
_cell_formula_units_Z 40
_cell_length_a 17.716973
_cell_length_b 16.580548
_cell_length_c 12.812411
_cell_angle_alpha 90.000000
_cell_angle_beta 150.865513
_cell_angle_gamma 90.000000
_cell_volume 1832.417596
_symmetry_space_group_name_H-M "C 2/C"
_symmetry_group_IT_number 15
_symmetry_cell_setting 'monoclinic'
loop_
_space_group_symop_operation_xyz
x,y,z
-x,y,1/2-z
-x,-y,-z
x,-y,1/2+z
1/2+x,1/2+y,z
1/2-x,1/2+y,1/2-z
1/2-x,1/2-y,-z
1/2+x,1/2-y,1/2+z
loop_
_atom_site_type_symbol
_atom_site_label
_atom_site_fract_x
_atom_site_fract_y
_atom_site_fract_z
Si Si1 0.897315 0.924775 0.023926
Si Si2 0.252378 0.663301 0.054489
Si Si3 0.388988 0.841275 0.889711
Si Si4 0.447134 0.337050 0.466349
Si Si5 0.304025 0.918116 0.220847
O O1 0.765094 0.854963 0.866768
O O2 0.792702 0.002033 0.867346
O O3 0.000000 0.936248 0.250000
O O4 0.024658 0.901334 0.091756
O O5 0.146439 0.660044 0.029352
O O6 0.428500 0.642380 0.294495
O O7 0.250000 0.750000 0.000000
O O8 0.195993 0.596718 0.903491
O O9 0.460994 0.755201 0.943075
O O10 0.516467 0.912511 0.023830
O O11 0.279474 0.346687 0.315894
#
# Coordination Sequence:
#
# PCOD8151238 Si02
#       5
#     8   8   8   8   8
#     4  11  26  45  60  87 132 183 222 261 326 383
#     4  11  20  36  66 102 134 156 205 265 339 393
#     4  11  23  41  67  99 127 166 221 276 317 394
#     4  11  22  40  66  94 129 172 217 270 322 389
#     4  12  22  38  66  99 136 163 211 270 336 391
#
# _framework density 21.829084999999999
#
# number of rings (size 3 to 8) (size 9 to 14) (size 15 to 20)
#    0.000    0.800    4.000    4.800    0.000    2.400 
#    0.000    3.000    0.000    0.000    0.000    0.000 
#    0.000    0.000    0.000    0.000    0.000    0.000 
#
# Total GULP energy -247894.935266 kJ/mol
# GULP energy per Si atom -12394.746763 kJ/mol
# Density = 2.177940 g / cm^3
# Si number density = 21.829085 Si / 1000 Ang^3
#
#
#
# Elastic Constant Matrix: (Units=GPa)
#
#
# Indices 1 2 3 4 5 6 
#
# 1 91.1235 34.2070 34.2539 0.0000 20.8848 0.0000
# 2 34.2070 81.9904 8.1042 0.0000 0.4234 0.0000
# 3 34.2539 8.1042 108.1586 0.0000 13.9840 0.0000
# 4 0.0000 0.0000 0.0000 24.5128 0.0000 4.0299
# 5 20.8848 0.4234 13.9840 0.0000 28.4498 0.0000
# 6 0.0000 0.0000 0.0000 4.0299 0.0000 37.3826
#
#
#
# Elastic Compliance Matrix: (Units=1/GPa)
#
#
# Indices 1 2 3 4 5 6 
#
# 1 0.017390 -0.006844 -0.003585 0.000000 -0.010902 0.000000
# 2 -0.006844 0.014984 0.000453 0.000000 0.004579 0.000000
# 3 -0.003585 0.000453 0.010687 0.000000 -0.002628 0.000000
# 4 0.000000 0.000000 0.000000 0.041531 0.000000 -0.004477
# 5 -0.010902 0.004579 -0.002628 0.000000 0.044376 0.000000
# 6 0.000000 0.000000 0.000000 -0.004477 0.000000 0.027233
#
#
# Mechanical properties :
#
#
# Convention : Reuss Voigt Hill
#
# Bulk Modulus (GPa) = 43.27649 48.26695 45.77172
# Shear Modulus (GPa) = 27.19523 31.71619 29.45571
#
# Velocity S-wave (km/s) = 3.53345 3.81587 3.67737
# Velocity P-wave (km/s) = 6.04279 6.44777 6.24856
#
# Compressibility (1/GPa) = 0.02310723
#
# Stress axis : x y z
#
# Youngs Moduli (GPa) = 57.50556 66.73928 93.57254
#
# Poissons Ratio (x) = 0.45679 0.33546
# Poissons Ratio (y) = 0.39359 -0.04238
# Poissons Ratio (z) = 0.20616 -0.03023
#
# Static dielectric constant tensor:
#      x y z
#    x 3.633300 0.000000 0.373980 
#    y 0.000000 2.604800 0.000000 
#    z 0.373980 0.000000 3.965280 
# 
# 
# High freq. dielectric constant tensor:
#      x y z
#    x 1.850880 0.000000 0.026090 
#    y 0.000000 1.855820 0.000000 
#    z 0.026090 0.000000 1.857790 
# 
# From -- ./inp_files/37875.got.cif
#   From: 2010.06.25/outbox.cif.g09.slc.cpg/sg15_19_cif.got.tgz:37875.got - 2010.06.28 07:06:18.
