data_PCOD8151949
_publ_section_title
;
Structure prediction by ZEFSAII (Michael W. Deem and Ramdas Pophale) SiO2 
 PCOD8151949
Probable space group: C 2/C
;
_chemical_formula_sum "Si O2"
_cell_formula_units_Z 60
_cell_length_a 8.626624
_cell_length_b 21.455537
_cell_length_c 15.233308
_cell_angle_alpha 90.000000
_cell_angle_beta 72.759770
_cell_angle_gamma 90.000000
_cell_volume 2692.836036
_symmetry_space_group_name_H-M "C 2/C"
_symmetry_group_IT_number 15
_symmetry_cell_setting 'monoclinic'
loop_
_space_group_symop_operation_xyz
x,y,z
-x,y,1/2-z
-x,-y,-z
x,-y,1/2+z
1/2+x,1/2+y,z
1/2-x,1/2+y,1/2-z
1/2-x,1/2-y,-z
1/2+x,1/2-y,1/2+z
loop_
_atom_site_type_symbol
_atom_site_label
_atom_site_fract_x
_atom_site_fract_y
_atom_site_fract_z
Si Si1 0.364852 0.502685 0.339055
Si Si2 0.757545 0.629622 0.143461
Si Si3 0.266021 0.917550 0.007289
Si Si4 0.506057 0.998170 0.150379
Si Si5 0.266355 0.295876 0.579467
Si Si6 0.444011 0.249274 0.852365
Si Si7 0.000000 0.662796 0.250000
Si Si8 0.947483 0.623717 0.938966
O O1 0.500000 0.474633 0.250000
O O2 0.387879 0.578136 0.333922
O O3 0.374510 0.463742 0.429467
O O4 0.178920 0.490819 0.346327
O O5 0.693411 0.699516 0.142578
O O6 0.869199 0.623157 0.213253
O O7 0.861157 0.608557 0.043801
O O8 0.183714 0.865257 0.960453
O O9 0.394813 0.954712 0.926630
O O10 0.360676 0.878719 0.068452
O O11 0.500000 0.022517 0.250000
O O12 0.590385 0.930116 0.126129
O O13 0.250000 0.250000 0.500000
O O14 0.408192 0.278329 0.620668
O O15 0.097629 0.295304 0.662669
O O16 0.500000 0.222659 0.750000
O O17 0.379263 0.189636 0.915988
#
# Coordination Sequence:
#
# PCOD8151949 Si02
#       8
#     8   8   8   8   8   8   4   8
#     4  11  24  42  66 101 143 173 220 294 352 399
#     4  12  23  43  68 103 138 180 233 288 339 413
#     4  11  22  44  73  96 134 185 234 276 338 427
#     4  11  23  42  71  99 130 184 236 277 332 417
#     4  12  25  47  69 100 138 184 231 284 346 415
#     4  12  25  41  67 103 141 174 227 294 346 397
#     4  12  24  42  76 102 126 188 242 274 342 422
#     4  11  21  43  68  96 136 181 230 276 339 412
#
# _framework density 22.281341000000001
#
# number of rings (size 3 to 8) (size 9 to 14) (size 15 to 20)
#    0.000    0.533    6.667    2.000    3.733    0.000 
#    3.600    1.333    0.000    0.000    0.000    0.000 
#    0.000    0.000    0.000    0.000    0.000    0.000 
#
# Total GULP energy -371676.674280 kJ/mol
# GULP energy per Si atom -12389.222476 kJ/mol
# Density = 2.223063 g / cm^3
# Si number density = 22.281341 Si / 1000 Ang^3
#
#
#
# Elastic Constant Matrix: (Units=GPa)
#
#
# Indices 1 2 3 4 5 6 
#
# 1 52.1465 33.4067 36.4967 0.0000 6.6580 0.0000
# 2 33.4067 142.7244 57.9404 0.0000 -1.2014 0.0000
# 3 36.4967 57.9404 161.6832 0.0000 -10.7722 0.0000
# 4 0.0000 0.0000 0.0000 28.6847 0.0000 16.4765
# 5 6.6580 -1.2014 -10.7722 0.0000 37.7575 0.0000
# 6 0.0000 0.0000 0.0000 16.4765 0.0000 23.7704
#
#
#
# Elastic Compliance Matrix: (Units=1/GPa)
#
#
# Indices 1 2 3 4 5 6 
#
# 1 0.025975 -0.004197 -0.004764 0.000000 -0.006073 0.000000
# 2 -0.004197 0.008890 -0.002212 0.000000 0.000392 0.000000
# 3 -0.004764 -0.002212 0.008261 0.000000 0.003127 0.000000
# 4 0.000000 0.000000 0.000000 0.057924 0.000000 -0.040150
# 5 -0.006073 0.000392 0.003127 0.000000 0.028460 0.000000
# 6 0.000000 0.000000 0.000000 -0.040150 0.000000 0.069899
#
#
# Mechanical properties :
#
#
# Convention : Reuss Voigt Hill
#
# Bulk Modulus (GPa) = 48.12285 68.02685 58.07485
# Shear Modulus (GPa) = 21.86427 33.28988 27.57708
#
# Velocity S-wave (km/s) = 3.13594 3.86951 3.52188
# Velocity P-wave (km/s) = 5.89550 7.11065 6.53139
#
# Compressibility (1/GPa) = 0.02078015
#
# Stress axis : x y z
#
# Youngs Moduli (GPa) = 38.49838 112.48172 121.04406
#
# Poissons Ratio (x) = 0.47209 0.57665
# Poissons Ratio (y) = 0.16158 0.26780
# Poissons Ratio (z) = 0.18340 0.24886
#
# Static dielectric constant tensor:
#      x y z
#    x 3.833300 0.000000 0.120980 
#    y 0.000000 4.476000 0.000000 
#    z 0.120980 0.000000 4.955280 
# 
# 
# High freq. dielectric constant tensor:
#      x y z
#    x 1.846610 0.000000 0.003760 
#    y 0.000000 1.890540 0.000000 
#    z 0.003760 0.000000 1.893730 
# 
# From -- ./inp_files/137794.got.cif
#   From: 2010.06.25/outbox.cif.g09.slc.cpg/sg15_69_cif.got.tgz:137794.got - 2010.06.28 07:06:18.
