data_PCOD8151034
_publ_section_title
;
Structure prediction by ZEFSAII (Michael W. Deem and Ramdas Pophale) SiO2 
 PCOD8151034
Probable space group: C 2/C
;
_chemical_formula_sum "Si O2"
_cell_formula_units_Z 48
_cell_length_a 22.538270
_cell_length_b 5.453886
_cell_length_c 17.805438
_cell_angle_alpha 90.000000
_cell_angle_beta 81.046622
_cell_angle_gamma 90.000000
_cell_volume 2161.996794
_symmetry_space_group_name_H-M "C 2/C"
_symmetry_group_IT_number 15
_symmetry_cell_setting 'monoclinic'
loop_
_space_group_symop_operation_xyz
x,y,z
-x,y,1/2-z
-x,-y,-z
x,-y,1/2+z
1/2+x,1/2+y,z
1/2-x,1/2+y,1/2-z
1/2-x,1/2-y,-z
1/2+x,1/2-y,1/2+z
loop_
_atom_site_type_symbol
_atom_site_label
_atom_site_fract_x
_atom_site_fract_y
_atom_site_fract_z
Si Si1 0.607650 0.425681 0.628153
Si Si2 0.842018 0.644910 0.182403
Si Si3 0.433088 0.062001 0.291056
Si Si4 0.274310 0.048275 0.439730
Si Si5 0.783826 0.918678 0.315329
Si Si6 0.654511 0.724722 0.976652
O O1 0.581891 0.682169 0.663697
O O2 0.676468 0.381223 0.646651
O O3 0.612970 0.455939 0.535452
O O4 0.569349 0.185607 0.658101
O O5 0.890759 0.521099 0.226791
O O6 0.812842 0.886798 0.226868
O O7 0.786908 0.463023 0.175041
O O8 0.876296 0.707372 0.096868
O O9 0.500000 0.093196 0.250000
O O10 0.250000 0.250000 0.500000
O O11 0.293632 0.158884 0.355928
O O12 0.334980 0.946825 0.466537
O O13 0.221047 0.855646 0.437862
#
# Coordination Sequence:
#
# PCOD8151034 Si02
#       6
#     8   8   8   8   8   8
#     4  11  23  42  69  90 126 166 208 259 320 391
#     4  11  22  35  61  95 128 162 211 266 302 377
#     4  11  26  48  67  89 121 171 216 264 320 375
#     4  11  19  34  56  86 142 175 192 240 308 401
#     4  11  20  37  59  98 130 169 201 250 323 373
#     4  11  21  35  56  96 126 171 211 252 313 374
#
# _framework density 22.201698
#
# number of rings (size 3 to 8) (size 9 to 14) (size 15 to 20)
#    0.000    1.000    3.333    5.500    0.000    1.333 
#    0.000    1.667    0.000    0.000    0.000    0.000 
#    0.000    0.000    0.000    0.000    0.000    0.000 
#
# Total GULP energy -297395.154799 kJ/mol
# GULP energy per Si atom -12391.464783 kJ/mol
# Density = 2.215117 g / cm^3
# Si number density = 22.201698 Si / 1000 Ang^3
#
#
#
# Elastic Constant Matrix: (Units=GPa)
#
#
# Indices 1 2 3 4 5 6 
#
# 1 85.3791 19.5856 32.6767 0.0000 -17.9667 0.0000
# 2 19.5856 91.0219 36.7907 0.0000 -7.8620 0.0000
# 3 32.6767 36.7907 162.0181 0.0000 -7.6028 0.0000
# 4 0.0000 0.0000 0.0000 33.1905 0.0000 -5.6571
# 5 -17.9667 -7.8620 -7.6028 0.0000 23.0377 0.0000
# 6 0.0000 0.0000 0.0000 -5.6571 0.0000 26.0283
#
#
#
# Elastic Compliance Matrix: (Units=1/GPa)
#
#
# Indices 1 2 3 4 5 6 
#
# 1 0.015118 -0.001441 -0.002226 0.000000 0.010564 0.000000
# 2 -0.001441 0.012482 -0.002434 0.000000 0.002333 0.000000
# 3 -0.002226 -0.002434 0.007164 0.000000 -0.000203 0.000000
# 4 0.000000 0.000000 0.000000 0.031288 0.000000 0.006800
# 5 0.010564 0.002333 -0.000203 0.000000 0.052375 0.000000
# 6 0.000000 0.000000 0.000000 0.006800 0.000000 0.039898
#
#
# Mechanical properties :
#
#
# Convention : Reuss Voigt Hill
#
# Bulk Modulus (GPa) = 44.32284 57.39168 50.85726
# Shear Modulus (GPa) = 28.08231 33.07571 30.57901
#
# Velocity S-wave (km/s) = 3.56036 3.86396 3.71526
# Velocity P-wave (km/s) = 6.07525 6.76854 6.43124
#
# Compressibility (1/GPa) = 0.02256173
#
# Stress axis : x y z
#
# Youngs Moduli (GPa) = 66.14631 80.11674 139.57880
#
# Poissons Ratio (x) = 0.11543 0.31073
# Poissons Ratio (y) = 0.09530 0.33978
# Poissons Ratio (z) = 0.14726 0.19503
#
# Static dielectric constant tensor:
#      x y z
#    x 3.935530 0.000000 -0.185460 
#    y 0.000000 4.233110 0.000000 
#    z -0.185460 0.000000 4.522260 
# 
# 
# High freq. dielectric constant tensor:
#      x y z
#    x 1.823350 0.000000 -0.013800 
#    y 0.000000 1.873370 0.000000 
#    z -0.013800 0.000000 1.897340 
# 
# From -- ./inp_files/217528.got.cif
#   From: 2010.06.25/outbox.cif.g09.slc.cpg/sg15_109_cif.got.tgz:217528.got - 2010.06.28 07:06:18.
