data_PCOD8151219
_publ_section_title
;
Structure prediction by ZEFSAII (Michael W. Deem and Ramdas Pophale) SiO2 
 PCOD8151219
Probable space group: C 2/C
;
_chemical_formula_sum "Si O2"
_cell_formula_units_Z 52
_cell_length_a 8.925867
_cell_length_b 33.374476
_cell_length_c 12.703655
_cell_angle_alpha 90.000000
_cell_angle_beta 46.684023
_cell_angle_gamma 90.000000
_cell_volume 2753.437346
_symmetry_space_group_name_H-M "C 2/C"
_symmetry_group_IT_number 15
_symmetry_cell_setting 'monoclinic'
loop_
_space_group_symop_operation_xyz
x,y,z
-x,y,1/2-z
-x,-y,-z
x,-y,1/2+z
1/2+x,1/2+y,z
1/2-x,1/2+y,1/2-z
1/2-x,1/2-y,-z
1/2+x,1/2-y,1/2+z
loop_
_atom_site_type_symbol
_atom_site_label
_atom_site_fract_x
_atom_site_fract_y
_atom_site_fract_z
Si Si1 0.949412 0.727161 0.946096
Si Si2 0.230092 0.353707 0.984982
Si Si3 0.640890 0.771674 0.773869
Si Si4 0.500000 0.999141 0.250000
Si Si5 0.780022 0.442568 0.512197
Si Si6 0.698227 0.442243 0.792297
Si Si7 0.321554 0.646797 0.195953
O O1 0.935544 0.681115 0.911573
O O2 0.976880 0.728134 0.058913
O O3 0.750000 0.750000 0.000000
O O4 0.154002 0.746410 0.800589
O O5 0.139615 0.397646 0.053404
O O6 0.439099 0.346823 0.951065
O O7 0.297662 0.351242 0.831996
O O8 0.500000 0.752130 0.750000
O O9 0.694333 0.816647 0.706755
O O10 0.437339 0.972389 0.379950
O O11 0.696783 0.026339 0.180805
O O12 0.787921 0.449968 0.632902
O O13 0.546828 0.448466 0.584710
O O14 0.752854 0.397176 0.806147
#
# Coordination Sequence:
#
# PCOD8151219 Si02
#       7
#     8   8   8   4   8   8   8
#     4  11  20  36  56  81 101 143 186 220 255 317
#     4   8  15  32  54  72 101 136 181 217 250 303
#     4  11  22  34  53  80 115 137 172 223 279 315
#     4  12  20  30  54  84 104 132 178 206 268 326
#     4   9  19  36  51  76 107 139 168 220 261 301
#     4   9  19  34  54  75 105 137 174 217 257 306
#     4   8  15  31  53  75  99 136 179 218 253 300
#
# _framework density 18.885486
#
# number of rings (size 3 to 8) (size 9 to 14) (size 15 to 20)
#    0.000    2.462    1.538    3.692    1.077    0.000 
#    2.769    0.000    0.000    0.000    4.000    0.000 
#    0.000    0.000    0.000    0.000    0.000    0.000 
#
# Total GULP energy -322262.099817 kJ/mol
# GULP energy per Si atom -12394.696147 kJ/mol
# Density = 1.884250 g / cm^3
# Si number density = 18.885486 Si / 1000 Ang^3
#
#
#
# Elastic Constant Matrix: (Units=GPa)
#
#
# Indices 1 2 3 4 5 6 
#
# 1 65.8995 26.2816 3.1798 0.0000 -4.0135 0.0000
# 2 26.2816 122.3279 27.7404 0.0000 -9.4981 0.0000
# 3 3.1798 27.7404 45.2746 0.0000 -4.4384 0.0000
# 4 0.0000 0.0000 0.0000 21.4929 0.0000 -0.7887
# 5 -4.0135 -9.4981 -4.4384 0.0000 19.8550 0.0000
# 6 0.0000 0.0000 0.0000 -0.7887 0.0000 21.9886
#
#
#
# Elastic Compliance Matrix: (Units=1/GPa)
#
#
# Indices 1 2 3 4 5 6 
#
# 1 0.016718 -0.003741 0.001302 0.000000 0.001881 0.000000
# 2 -0.003741 0.010549 -0.005910 0.000000 0.002969 0.000000
# 3 0.001302 -0.005910 0.025934 0.000000 0.003233 0.000000
# 4 0.000000 0.000000 0.000000 0.046588 0.000000 0.001671
# 5 0.001881 0.002969 0.003233 0.000000 0.052889 0.000000
# 6 0.000000 0.000000 0.000000 0.001671 0.000000 0.045538
#
#
# Mechanical properties :
#
#
# Convention : Reuss Voigt Hill
#
# Bulk Modulus (GPa) = 27.39389 38.65618 33.02503
# Shear Modulus (GPa) = 22.01849 24.42064 23.21956
#
# Velocity S-wave (km/s) = 3.41822 3.59986 3.51022
# Velocity P-wave (km/s) = 5.48778 6.14750 5.82699
#
# Compressibility (1/GPa) = 0.03650449
#
# Stress axis : x y z
#
# Youngs Moduli (GPa) = 59.81443 94.79345 38.55948
#
# Poissons Ratio (x) = 0.35464 -0.05022
# Poissons Ratio (y) = 0.22378 0.22788
# Poissons Ratio (z) = -0.07791 0.56021
#
# Static dielectric constant tensor:
#      x y z
#    x 3.242010 0.000000 -0.114630 
#    y 0.000000 3.823560 0.000000 
#    z -0.114630 0.000000 3.146360 
# 
# 
# High freq. dielectric constant tensor:
#      x y z
#    x 1.714840 0.000000 -0.005470 
#    y 0.000000 1.745580 0.000000 
#    z -0.005470 0.000000 1.704590 
# 
# From -- ./inp_files/139235.got.cif
#   From: 2010.06.25/outbox.cif.g09.slc.cpg/sg15_70_cif.got.tgz:139235.got - 2010.06.28 07:06:18.
