data_PCOD8151498
_publ_section_title
;
Structure prediction by ZEFSAII (Michael W. Deem and Ramdas Pophale) SiO2 
 PCOD8151498
Probable space group: C 2/C
;
_chemical_formula_sum "Si O2"
_cell_formula_units_Z 48
_cell_length_a 10.841837
_cell_length_b 14.956413
_cell_length_c 24.390956
_cell_angle_alpha 90.000000
_cell_angle_beta 35.548756
_cell_angle_gamma 90.000000
_cell_volume 2299.486297
_symmetry_space_group_name_H-M "C 2/C"
_symmetry_group_IT_number 15
_symmetry_cell_setting 'monoclinic'
loop_
_space_group_symop_operation_xyz
x,y,z
-x,y,1/2-z
-x,-y,-z
x,-y,1/2+z
1/2+x,1/2+y,z
1/2-x,1/2+y,1/2-z
1/2-x,1/2-y,-z
1/2+x,1/2-y,1/2+z
loop_
_atom_site_type_symbol
_atom_site_label
_atom_site_fract_x
_atom_site_fract_y
_atom_site_fract_z
Si Si1 0.806355 0.008316 0.028120
Si Si2 0.173044 0.777178 0.232540
Si Si3 0.875639 0.408863 0.694681
Si Si4 0.035061 0.047665 0.836802
Si Si5 0.627928 0.161708 0.533720
Si Si6 0.308911 0.942859 0.592113
O O1 0.698226 0.913513 0.052166
O O2 0.624042 0.073639 0.118683
O O3 0.000000 0.000000 0.000000
O O4 0.893001 0.052975 0.942008
O O5 0.212073 0.685397 0.251414
O O6 0.090381 0.850514 0.304734
O O7 0.378787 0.818560 0.128728
O O8 0.000000 0.754710 0.250000
O O9 0.743843 0.487861 0.771451
O O10 0.843838 0.410530 0.640857
O O11 0.904188 0.002441 0.834161
O O12 0.750000 0.250000 0.500000
O O13 0.700075 0.140686 0.445612
O O14 0.500000 0.000000 0.500000
#
# Coordination Sequence:
#
# PCOD8151498 Si02
#       6
#     8   8   8   8   8   8
#     4  11  26  45  68  99 144 185 224 288 352 414
#     4  12  26  42  69 105 137 180 235 290 343 416
#     4  12  25  43  71 104 136 183 235 285 347 409
#     4  11  23  45  71  97 137 182 231 284 348 411
#     4  11  24  45  69  99 136 182 225 282 351 406
#     4  11  20  44  72  95 132 177 228 283 343 413
#
# _framework density 20.874227999999999
#
# number of rings (size 3 to 8) (size 9 to 14) (size 15 to 20)
#    0.000    0.667    5.000    4.500    4.667    2.000 
#    0.000    1.667    0.000    0.000    0.000    0.000 
#    0.000    0.000    0.000    0.000    0.000    0.000 
#
# Total GULP energy -297612.182532 kJ/mol
# GULP energy per Si atom -12400.507606 kJ/mol
# Density = 2.082672 g / cm^3
# Si number density = 20.874228 Si / 1000 Ang^3
#
#
#
# Elastic Constant Matrix: (Units=GPa)
#
#
# Indices 1 2 3 4 5 6 
#
# 1 76.1378 8.7089 -0.2952 0.0010 -20.5846 -0.0006
# 2 8.7089 107.7706 14.0838 -0.0016 5.1345 0.0003
# 3 -0.2952 14.0838 77.7202 -0.0005 -18.4348 -0.0021
# 4 0.0010 -0.0016 -0.0005 39.1482 -0.0018 -9.0637
# 5 -20.5846 5.1345 -18.4348 -0.0018 29.6210 0.0008
# 6 -0.0006 0.0003 -0.0021 -9.0637 0.0008 24.9505
#
#
#
# Elastic Compliance Matrix: (Units=1/GPa)
#
#
# Indices 1 2 3 4 5 6 
#
# 1 0.017595 -0.002698 0.004185 0.000000 0.015299 0.000000
# 2 -0.002698 0.010182 -0.003189 0.000000 -0.005624 0.000000
# 3 0.004185 -0.003189 0.016755 0.000001 0.013888 0.000001
# 4 0.000000 0.000000 0.000001 0.027890 0.000002 0.010131
# 5 0.015299 -0.005624 0.013888 0.000002 0.054010 0.000001
# 6 0.000000 0.000000 0.000001 0.010131 0.000001 0.043760
#
#
# Mechanical properties :
#
#
# Convention : Reuss Voigt Hill
#
# Bulk Modulus (GPa) = 24.31507 34.06930 29.19218
# Shear Modulus (GPa) = 26.69444 34.68601 30.69023
#
# Velocity S-wave (km/s) = 3.57994 4.08078 3.83854
# Velocity P-wave (km/s) = 5.36299 6.20969 5.80181
#
# Compressibility (1/GPa) = 0.04112676
#
# Stress axis : x y z
#
# Youngs Moduli (GPa) = 56.83377 98.21523 59.68473
#
# Poissons Ratio (x) = 0.26495 -0.24975
# Poissons Ratio (y) = 0.15331 0.19036
# Poissons Ratio (z) = -0.23782 0.31325
#
# Static dielectric constant tensor:
#      x y z
#    x 3.633680 0.000000 -0.345230 
#    y 0.000000 3.945100 0.000050 
#    z -0.345230 0.000050 3.884710 
# 
# 
# High freq. dielectric constant tensor:
#      x y z
#    x 1.815050 0.000000 -0.010560 
#    y 0.000000 1.817150 0.000000 
#    z -0.010560 0.000000 1.840490 
# 
# From -- ./inp_files/143526.got.cif
#   From: 2010.06.25/outbox.cif.g09.slc.cpg/sg15_72_cif.got.tgz:143526.got - 2010.06.28 07:06:18.
