data_PCOD8152586
_publ_section_title
;
Structure prediction by ZEFSAII (Michael W. Deem and Ramdas Pophale) SiO2 
 PCOD8152586
Probable space group: C 2/C
;
_chemical_formula_sum "Si O2"
_cell_formula_units_Z 48
_cell_length_a 17.349631
_cell_length_b 10.986279
_cell_length_c 22.262852
_cell_angle_alpha 90.000000
_cell_angle_beta 149.695192
_cell_angle_gamma 90.000000
_cell_volume 2141.257887
_symmetry_space_group_name_H-M "C 2/C"
_symmetry_group_IT_number 15
_symmetry_cell_setting 'monoclinic'
loop_
_space_group_symop_operation_xyz
x,y,z
-x,y,1/2-z
-x,-y,-z
x,-y,1/2+z
1/2+x,1/2+y,z
1/2-x,1/2+y,1/2-z
1/2-x,1/2-y,-z
1/2+x,1/2-y,1/2+z
loop_
_atom_site_type_symbol
_atom_site_label
_atom_site_fract_x
_atom_site_fract_y
_atom_site_fract_z
Si Si1 0.828150 0.696485 0.613332
Si Si2 0.747363 0.074772 0.458458
Si Si3 0.468519 0.593295 0.926695
Si Si4 0.396941 0.182048 0.445982
Si Si5 0.306647 0.058868 0.835096
Si Si6 0.827942 0.170339 0.636885
O O1 0.750000 0.750000 0.500000
O O2 0.837134 0.550978 0.613087
O O3 0.712391 0.736028 0.587259
O O4 0.000000 0.740962 0.750000
O O5 0.734399 0.104576 0.520394
O O6 0.670962 0.183219 0.368910
O O7 0.925129 0.066641 0.558940
O O8 0.491383 0.730987 0.964623
O O9 0.292575 0.580878 0.790272
O O10 0.500000 0.500000 0.000000
O O11 0.522785 0.103959 0.567672
O O12 0.298022 0.085246 0.342076
O O13 0.245969 0.134963 0.850374
O O14 0.000000 0.121602 0.750000
#
# Coordination Sequence:
#
# PCOD8152586 Si02
#       6
#     8   8   8   8   8   8
#     4  12  29  48  73 102 142 189 238 300 358 424
#     4  11  24  42  69 107 138 181 238 290 352 425
#     4  12  25  43  73 102 141 185 235 289 352 426
#     4  11  27  47  70 103 137 183 238 286 360 422
#     4  11  26  45  70 102 141 186 232 296 352 422
#     4  11  22  43  69 100 142 185 234 288 352 426
#
# _framework density 22.416730999999999
#
# number of rings (size 3 to 8) (size 9 to 14) (size 15 to 20)
#    0.000    0.667    5.000    1.500    7.000    1.333 
#    0.000    0.000    0.000    0.000    0.000    0.000 
#    0.000    0.000    0.000    0.000    0.000    0.000 
#
# Total GULP energy -297593.553439 kJ/mol
# GULP energy per Si atom -12399.731393 kJ/mol
# Density = 2.236571 g / cm^3
# Si number density = 22.416731 Si / 1000 Ang^3
#
#
#
# Elastic Constant Matrix: (Units=GPa)
#
#
# Indices 1 2 3 4 5 6 
#
# 1 75.4276 31.2162 31.6875 0.0001 -4.8934 0.0001
# 2 31.2162 141.8654 38.0934 0.0018 -16.6436 0.0001
# 3 31.6875 38.0934 115.4544 0.0067 -6.8876 0.0005
# 4 0.0001 0.0018 0.0067 25.5219 0.0009 4.4848
# 5 -4.8934 -16.6436 -6.8876 0.0009 32.4505 -0.0001
# 6 0.0001 0.0001 0.0005 4.4848 -0.0001 31.3948
#
#
#
# Elastic Compliance Matrix: (Units=1/GPa)
#
#
# Indices 1 2 3 4 5 6 
#
# 1 0.015778 -0.002493 -0.003486 0.000001 0.000360 0.000000
# 2 -0.002493 0.008534 -0.001917 0.000000 0.003594 0.000000
# 3 -0.003486 -0.001917 0.010291 -0.000003 0.000675 0.000000
# 4 0.000001 0.000000 -0.000003 0.040191 -0.000002 -0.005741
# 5 0.000360 0.003594 0.000675 -0.000002 0.032857 0.000000
# 6 0.000000 0.000000 0.000000 -0.005741 0.000000 0.032673
#
#
# Mechanical properties :
#
#
# Convention : Reuss Voigt Hill
#
# Bulk Modulus (GPa) = 53.16423 59.41572 56.28998
# Shear Modulus (GPa) = 30.79082 33.32346 32.05714
#
# Velocity S-wave (km/s) = 3.71018 3.85976 3.78571
# Velocity P-wave (km/s) = 6.49013 6.81368 6.65387
#
# Compressibility (1/GPa) = 0.01880964
#
# Stress axis : x y z
#
# Youngs Moduli (GPa) = 63.38120 117.17856 97.17210
#
# Poissons Ratio (x) = 0.29216 0.33875
# Poissons Ratio (y) = 0.15803 0.18628
# Poissons Ratio (z) = 0.22096 0.22463
#
# Static dielectric constant tensor:
#      x y z
#    x 3.920030 0.000000 0.149070 
#    y 0.000000 4.187630 -0.000010 
#    z 0.149070 -0.000010 4.127640 
# 
# 
# High freq. dielectric constant tensor:
#      x y z
#    x 1.879370 0.000000 0.005350 
#    y 0.000000 1.896080 0.000000 
#    z 0.005350 0.000000 1.887180 
# 
# From -- ./inp_files/277300.got.cif
#   From: 2010.06.25/outbox.cif.g09.slc.cpg/sg15_139_cif.got.tgz:277300.got - 2010.06.28 07:06:18.
