data_PCOD8152383
_publ_section_title
;
Structure prediction by ZEFSAII (Michael W. Deem and Ramdas Pophale) SiO2 
 PCOD8152383
Probable space group: C 2/C
;
_chemical_formula_sum "Si O2"
_cell_formula_units_Z 44
_cell_length_a 14.862570
_cell_length_b 16.094078
_cell_length_c 8.666681
_cell_angle_alpha 90.000000
_cell_angle_beta 116.157063
_cell_angle_gamma 90.000000
_cell_volume 1860.759898
_symmetry_space_group_name_H-M "C 2/C"
_symmetry_group_IT_number 15
_symmetry_cell_setting 'monoclinic'
loop_
_space_group_symop_operation_xyz
x,y,z
-x,y,1/2-z
-x,-y,-z
x,-y,1/2+z
1/2+x,1/2+y,z
1/2-x,1/2+y,1/2-z
1/2-x,1/2-y,-z
1/2+x,1/2-y,1/2+z
loop_
_atom_site_type_symbol
_atom_site_label
_atom_site_fract_x
_atom_site_fract_y
_atom_site_fract_z
Si Si1 0.892656 0.828037 0.209166
Si Si2 0.379772 0.184179 0.423164
Si Si3 0.000000 0.216248 0.250000
Si Si4 0.603341 0.977223 0.409380
Si Si5 0.200595 0.607036 0.698523
Si Si6 0.162737 0.794953 0.664628
O O1 0.915771 0.736569 0.300687
O O2 0.822080 0.881098 0.271625
O O3 0.000000 0.870023 0.250000
O O4 0.827450 0.821843 0.004742
O O5 0.413873 0.229478 0.604302
O O6 0.420349 0.089277 0.469203
O O7 0.259589 0.176604 0.331249
O O8 0.937039 0.164148 0.330474
O O9 0.500000 0.002450 0.250000
O O10 0.681354 0.938210 0.345960
O O11 0.655708 0.057255 0.520282
O O12 0.145876 0.695751 0.655880
#
# Coordination Sequence:
#
# PCOD8152383 Si02
#       6
#     8   8   4   8   8   8
#     4  11  25  45  73  97 138 180 243 290 336 405
#     4  11  22  41  67 100 133 175 224 292 339 401
#     4  12  20  38  66 102 130 170 220 286 356 390
#     4  12  26  44  68 100 147 182 224 279 359 429
#     4  11  26  43  63 101 137 186 223 281 346 416
#     4  11  24  42  69  99 138 178 235 291 338 410
#
# _framework density 23.646253000000002
#
# number of rings (size 3 to 8) (size 9 to 14) (size 15 to 20)
#    0.000    0.727    4.545    3.273    7.636    0.727 
#    0.000    0.909    2.000    0.000    0.000    0.000 
#    0.000    0.000    0.000    0.000    0.000    0.000 
#
# Total GULP energy -272687.131804 kJ/mol
# GULP energy per Si atom -12394.869627 kJ/mol
# Density = 2.359243 g / cm^3
# Si number density = 23.646253 Si / 1000 Ang^3
#
#
#
# Elastic Constant Matrix: (Units=GPa)
#
#
# Indices 1 2 3 4 5 6 
#
# 1 139.6499 -1.9000 28.4413 0.0000 -1.4151 0.0000
# 2 -1.9000 44.2652 23.5032 0.0000 3.1610 0.0000
# 3 28.4413 23.5032 127.0528 0.0000 10.4142 0.0000
# 4 0.0000 0.0000 0.0000 30.2174 0.0000 -11.6621
# 5 -1.4151 3.1610 10.4142 0.0000 37.5626 0.0000
# 6 0.0000 0.0000 0.0000 -11.6621 0.0000 1.5212
#
#
#
# Elastic Compliance Matrix: (Units=1/GPa)
#
#
# Indices 1 2 3 4 5 6 
#
# 1 0.007595 0.001340 -0.002008 0.000000 0.000730 0.000000
# 2 0.001340 0.025314 -0.004924 0.000000 -0.000715 0.000000
# 3 -0.002008 -0.004924 0.009417 0.000000 -0.002272 0.000000
# 4 0.000000 0.000000 0.000000 -0.016896 0.000000 -0.129526
# 5 0.000730 -0.000715 -0.002272 0.000000 0.027340 0.000000
# 6 0.000000 0.000000 0.000000 -0.129526 0.000000 -0.335612
#
#
# Mechanical properties :
#
#
# Convention : Reuss Voigt Hill
#
# Bulk Modulus (GPa) = 32.11031 45.67298 38.89164
# Shear Modulus (GPa) = -19.13685 31.25515 6.05915
#
# Velocity S-wave (km/s) = -2.84790 3.63957 1.60249
# Velocity P-wave (km/s) = 1.67179 6.08433 4.46172
#
# Compressibility (1/GPa) = 0.03114265
#
# Stress axis : x y z
#
# Youngs Moduli (GPa) = 131.65959 39.50350 106.18634
#
# Poissons Ratio (x) = -0.05294 0.21322
# Poissons Ratio (y) = -0.17643 0.52288
# Poissons Ratio (z) = 0.26437 0.19452
#
# Static dielectric constant tensor:
#      x y z
#    x 4.344970 0.000000 -0.090710 
#    y 0.000000 3.841480 0.000000 
#    z -0.090710 0.000000 4.409630 
# 
# 
# High freq. dielectric constant tensor:
#      x y z
#    x 1.954410 0.000000 -0.006650 
#    y 0.000000 1.877870 0.000000 
#    z -0.006650 0.000000 1.956480 
# 
# From -- ./inp_files/39758.got.cif
#   From: 2010.06.25/outbox.cif.g09.slc.cpg/sg15_20_cif.got.tgz:39758.got - 2010.06.28 07:06:18.
