data_PCOD8152762
_publ_section_title
;
Structure prediction by ZEFSAII (Michael W. Deem and Ramdas Pophale) SiO2 
 PCOD8152762
Probable space group: C 2/C
;
_chemical_formula_sum "Si O2"
_cell_formula_units_Z 48
_cell_length_a 11.526991
_cell_length_b 25.506488
_cell_length_c 14.639996
_cell_angle_alpha 90.000000
_cell_angle_beta 29.621914
_cell_angle_gamma 90.000000
_cell_volume 2127.529953
_symmetry_space_group_name_H-M "C 2/C"
_symmetry_group_IT_number 15
_symmetry_cell_setting 'monoclinic'
loop_
_space_group_symop_operation_xyz
x,y,z
-x,y,1/2-z
-x,-y,-z
x,-y,1/2+z
1/2+x,1/2+y,z
1/2-x,1/2+y,1/2-z
1/2-x,1/2-y,-z
1/2+x,1/2-y,1/2+z
loop_
_atom_site_type_symbol
_atom_site_label
_atom_site_fract_x
_atom_site_fract_y
_atom_site_fract_z
Si Si1 0.173651 0.384319 0.559521
Si Si2 0.892892 0.179565 0.669729
Si Si3 0.519864 0.202292 0.412105
Si Si4 0.627685 0.629280 0.253719
Si Si5 0.269075 0.897210 0.347671
Si Si6 0.925475 0.440496 0.057444
O O1 0.426577 0.366773 0.425003
O O2 0.000000 0.415069 0.750000
O O3 0.024975 0.330371 0.648557
O O4 0.199983 0.420789 0.450533
O O5 0.013232 0.235903 0.576852
O O6 0.764226 0.163075 0.663583
O O7 0.690773 0.181104 0.882016
O O8 0.779238 0.184646 0.267977
O O9 0.500000 0.646865 0.250000
O O10 0.460759 0.593669 0.432529
O O11 0.845893 0.593511 0.079301
O O12 0.500000 0.904827 0.250000
O O13 0.266030 0.933561 0.258278
O O14 0.000000 0.500000 0.000000
#
# Coordination Sequence:
#
# PCOD8152762 Si02
#       6
#     8   8   8   8   8   8
#     4  11  23  44  67  99 144 180 228 294 345 416
#     4  12  22  41  66 104 140 188 229 283 347 415
#     4  11  23  39  66 103 142 183 233 277 346 424
#     4  11  22  46  68 100 141 182 231 290 342 420
#     4  12  24  45  73  96 140 184 228 292 348 412
#     4  11  26  49  71 103 134 181 240 294 359 409
#
# _framework density 22.561375000000002
#
# number of rings (size 3 to 8) (size 9 to 14) (size 15 to 20)
#    0.000    0.667    5.000    5.000    0.000    2.000 
#    3.000    3.333    0.000    0.000    0.000    0.000 
#    0.000    0.000    0.000    0.000    0.000    0.000 
#
# Total GULP energy -297324.657519 kJ/mol
# GULP energy per Si atom -12388.527397 kJ/mol
# Density = 2.251002 g / cm^3
# Si number density = 22.561375 Si / 1000 Ang^3
#
#
#
# Elastic Constant Matrix: (Units=GPa)
#
#
# Indices 1 2 3 4 5 6 
#
# 1 104.9390 21.7558 28.1658 0.0105 5.2442 -0.0360
# 2 21.7558 96.9674 3.2289 -0.0103 -1.9642 0.0262
# 3 28.1658 3.2289 126.6871 -0.0637 7.9635 0.0530
# 4 0.0105 -0.0103 -0.0637 13.8095 0.0264 17.4396
# 5 5.2442 -1.9642 7.9635 0.0264 39.7223 -0.0096
# 6 -0.0360 0.0262 0.0530 17.4396 -0.0096 -6.1698
#
#
#
# Elastic Compliance Matrix: (Units=1/GPa)
#
#
# Indices 1 2 3 4 5 6 
#
# 1 0.010671 -0.002341 -0.002245 0.000021 -0.001074 -0.000031
# 2 -0.002341 0.010848 0.000193 -0.000015 0.000807 0.000019
# 3 -0.002245 0.000193 0.008475 -0.000015 -0.001393 0.000046
# 4 0.000021 -0.000015 -0.000015 0.015847 0.000000 0.044792
# 5 -0.001074 0.000807 -0.001393 0.000000 0.025636 -0.000043
# 6 -0.000031 0.000019 0.000046 0.044792 -0.000043 -0.035468
#
#
# Mechanical properties :
#
#
# Convention : Reuss Voigt Hill
#
# Bulk Modulus (GPa) = 47.15199 48.32161 47.73680
# Shear Modulus (GPa) = 96.40665 27.83529 62.12097
#
# Velocity S-wave (km/s) = 6.54397 3.51630 5.25300
# Velocity P-wave (km/s) = 8.83419 6.16037 7.61555
#
# Compressibility (1/GPa) = 0.02120801
#
# Stress axis : x y z
#
# Youngs Moduli (GPa) = 93.71186 92.18370 117.99068
#
# Poissons Ratio (x) = 0.21582 0.26491
# Poissons Ratio (y) = 0.21939 -0.02281
# Poissons Ratio (z) = 0.21040 -0.01782
#
# Static dielectric constant tensor:
#      x y z
#    x 4.294590 0.000230 0.166390 
#    y 0.000230 4.570530 -0.000190 
#    z 0.166390 -0.000190 4.452080 
# 
# 
# High freq. dielectric constant tensor:
#      x y z
#    x 1.897540 0.000000 0.008320 
#    y 0.000000 1.853550 0.000000 
#    z 0.008320 0.000000 1.915970 
# 
# From -- ./inp_files/148687.got.cif
#   From: 2010.06.25/outbox.cif.g09.slc.cpg/sg15_75_cif.got.tgz:148687.got - 2010.06.28 07:06:18.
