data_PCOD8152006
_publ_section_title
;
Structure prediction by ZEFSAII (Michael W. Deem and Ramdas Pophale) SiO2 
 PCOD8152006
Probable space group: C 2/C
;
_chemical_formula_sum "Si O2"
_cell_formula_units_Z 60
_cell_length_a 9.341893
_cell_length_b 21.154776
_cell_length_c 14.482879
_cell_angle_alpha 90.000000
_cell_angle_beta 107.854981
_cell_angle_gamma 90.000000
_cell_volume 2724.332870
_symmetry_space_group_name_H-M "C 2/C"
_symmetry_group_IT_number 15
_symmetry_cell_setting 'monoclinic'
loop_
_space_group_symop_operation_xyz
x,y,z
-x,y,1/2-z
-x,-y,-z
x,-y,1/2+z
1/2+x,1/2+y,z
1/2-x,1/2+y,1/2-z
1/2-x,1/2-y,-z
1/2+x,1/2-y,1/2+z
loop_
_atom_site_type_symbol
_atom_site_label
_atom_site_fract_x
_atom_site_fract_y
_atom_site_fract_z
Si Si1 0.367639 0.356052 0.087472
Si Si2 0.055410 0.324979 0.101566
Si Si3 0.479111 0.031430 0.596597
Si Si4 0.049508 0.268289 0.595679
Si Si5 0.207205 0.646267 0.373473
Si Si6 0.000000 0.958001 0.250000
Si Si7 0.356268 0.725393 0.258174
Si Si8 0.218506 0.516253 0.289274
O O1 0.226491 0.322264 0.103349
O O2 0.496611 0.302807 0.108408
O O3 0.415377 0.415095 0.158656
O O4 0.310397 0.380897 0.976744
O O5 0.982780 0.393782 0.087970
O O6 0.064157 0.293543 0.204074
O O7 0.955187 0.281424 0.013983
O O8 0.500000 0.000000 0.500000
O O9 0.322533 0.014937 0.618647
O O10 0.612967 0.007741 0.687051
O O11 0.222506 0.272201 0.658817
O O12 0.952286 0.323665 0.626928
O O13 0.301010 0.701441 0.345526
O O14 0.187574 0.590853 0.294510
O O15 0.112665 0.001067 0.211277
O O16 0.500000 0.684266 0.250000
#
# Coordination Sequence:
#
# PCOD8152006 Si02
#       8
#     8   8   8   8   8   4   8   8
#     4  11  21  44  74 103 136 180 243 293 354 436
#     4  11  22  44  71 106 140 175 246 299 348 435
#     4  11  25  48  71 105 139 192 251 295 351 428
#     4  11  23  43  76  99 132 191 232 293 363 423
#     4  11  24  47  68 103 137 184 248 287 345 436
#     4  12  26  46  70 106 150 188 236 302 374 430
#     4  12  27  41  66 105 145 180 224 301 363 424
#     4  11  28  45  72 105 142 196 241 292 361 435
#
# _framework density 22.02374
#
# number of rings (size 3 to 8) (size 9 to 14) (size 15 to 20)
#    0.000    0.800    4.000    3.600    8.400    1.067 
#    2.400    0.000    0.000    0.000    0.000    0.000 
#    0.000    0.000    0.000    0.000    0.000    0.000 
#
# Total GULP energy -371785.292934 kJ/mol
# GULP energy per Si atom -12392.843098 kJ/mol
# Density = 2.197361 g / cm^3
# Si number density = 22.023740 Si / 1000 Ang^3
#
#
#
# Elastic Constant Matrix: (Units=GPa)
#
#
# Indices 1 2 3 4 5 6 
#
# 1 138.7712 26.2327 58.3987 0.0000 5.8629 0.0000
# 2 26.2327 97.1878 24.6941 0.0000 2.4649 0.0000
# 3 58.3987 24.6941 95.9754 0.0000 1.4543 0.0000
# 4 0.0000 0.0000 0.0000 24.3498 0.0000 8.0251
# 5 5.8629 2.4649 1.4543 0.0000 18.2335 0.0000
# 6 0.0000 0.0000 0.0000 8.0251 0.0000 6.0694
#
#
#
# Elastic Compliance Matrix: (Units=1/GPa)
#
#
# Indices 1 2 3 4 5 6 
#
# 1 0.009938 -0.001167 -0.005707 0.000000 -0.002582 0.000000
# 2 -0.001167 0.011175 -0.002151 0.000000 -0.000964 0.000000
# 3 -0.005707 -0.002151 0.014431 0.000000 0.000975 0.000000
# 4 0.000000 0.000000 0.000000 0.072787 0.000000 -0.096240
# 5 -0.002582 -0.000964 0.000975 0.000000 0.055727 0.000000
# 6 0.000000 0.000000 0.000000 -0.096240 0.000000 0.292012
#
#
# Mechanical properties :
#
#
# Convention : Reuss Voigt Hill
#
# Bulk Modulus (GPa) = 57.16349 61.17614 59.16981
# Shear Modulus (GPa) = 10.41775 24.57113 17.49444
#
# Velocity S-wave (km/s) = 2.17727 3.34378 2.82147
# Velocity P-wave (km/s) = 5.68616 6.53800 6.12690
#
# Compressibility (1/GPa) = 0.01749368
#
# Stress axis : x y z
#
# Youngs Moduli (GPa) = 100.62780 89.48374 69.29599
#
# Poissons Ratio (x) = 0.10440 0.39551
# Poissons Ratio (y) = 0.11740 0.14905
# Poissons Ratio (z) = 0.57433 0.19247
#
# Static dielectric constant tensor:
#      x y z
#    x 0.587300 0.000000 -1.441350 
#    y 0.000000 3.923960 0.000000 
#    z -1.441350 0.000000 3.969440 
# 
# 
# High freq. dielectric constant tensor:
#      x y z
#    x 1.867780 0.000000 -0.009880 
#    y 0.000000 1.863400 0.000000 
#    z -0.009880 0.000000 1.880080 
# 
# From -- ./inp_files/137897.got.cif
#   From: 2010.06.25/outbox.cif.g09.slc.cpg/sg15_69_cif.got.tgz:137897.got - 2010.06.28 07:06:18.
