data_PCOD8152188
_publ_section_title
;
Structure prediction by ZEFSAII (Michael W. Deem and Ramdas Pophale) SiO2 
 PCOD8152188
Probable space group: C 2/C
;
_chemical_formula_sum "Si O2"
_cell_formula_units_Z 40
_cell_length_a 16.793460
_cell_length_b 18.222813
_cell_length_c 12.204369
_cell_angle_alpha 90.000000
_cell_angle_beta 148.388903
_cell_angle_gamma 90.000000
_cell_volume 1957.614773
_symmetry_space_group_name_H-M "C 2/C"
_symmetry_group_IT_number 15
_symmetry_cell_setting 'monoclinic'
loop_
_space_group_symop_operation_xyz
x,y,z
-x,y,1/2-z
-x,-y,-z
x,-y,1/2+z
1/2+x,1/2+y,z
1/2-x,1/2+y,1/2-z
1/2-x,1/2-y,-z
1/2+x,1/2-y,1/2+z
loop_
_atom_site_type_symbol
_atom_site_label
_atom_site_fract_x
_atom_site_fract_y
_atom_site_fract_z
Si Si1 0.827974 0.201100 0.353564
Si Si2 0.664211 0.560911 0.497309
Si Si3 0.169376 0.847330 0.216172
Si Si4 0.821040 0.100056 0.538770
Si Si5 0.177031 0.676581 0.958167
O O1 0.788179 0.287361 0.310433
O O2 0.766665 0.163786 0.393122
O O3 0.008280 0.192115 0.548784
O O4 0.739570 0.160488 0.152444
O O5 0.651602 0.586716 0.608518
O O6 0.732497 0.478889 0.569480
O O7 0.785472 0.609532 0.576127
O O8 0.500000 0.568583 0.250000
O O9 0.237954 0.882555 0.407868
O O10 0.000000 0.097845 0.750000
O O11 0.000000 0.690084 0.750000
O O12 0.250000 0.750000 0.000000
#
# Coordination Sequence:
#
# PCOD8152188 Si02
#       5
#     8   8   8   8   8
#     4  11  22  39  62  89 122 158 204 249 296 356
#     4  11  22  39  63  91 122 156 201 253 301 354
#     4  11  22  39  64  92 120 158 203 248 300 358
#     4   9  23  39  62  89 121 164 199 243 299 365
#     4  12  23  38  59  90 121 159 202 249 301 353
#
# _framework density 20.433029999999999
#
# number of rings (size 3 to 8) (size 9 to 14) (size 15 to 20)
#    0.000    1.200    4.000    2.400    2.800    2.400 
#    0.000    3.000    0.000    0.000    0.000    0.000 
#    0.000    0.000    0.000    0.000    0.000    0.000 
#
# Total GULP energy -248052.200745 kJ/mol
# GULP energy per Si atom -12402.610037 kJ/mol
# Density = 2.038652 g / cm^3
# Si number density = 20.433030 Si / 1000 Ang^3
#
#
#
# Elastic Constant Matrix: (Units=GPa)
#
#
# Indices 1 2 3 4 5 6 
#
# 1 97.3020 29.2632 40.5717 0.0000 -20.6306 0.0000
# 2 29.2632 102.8677 27.5635 0.0000 -6.3824 0.0000
# 3 40.5717 27.5635 74.1359 0.0000 -12.5096 0.0000
# 4 0.0000 0.0000 0.0000 28.2312 0.0000 -8.4583
# 5 -20.6306 -6.3824 -12.5096 0.0000 50.2622 0.0000
# 6 0.0000 0.0000 0.0000 -8.4583 0.0000 24.5182
#
#
#
# Elastic Compliance Matrix: (Units=1/GPa)
#
#
# Indices 1 2 3 4 5 6 
#
# 1 0.014466 -0.002139 -0.006436 0.000000 0.004064 0.000000
# 2 -0.002139 0.011120 -0.003000 0.000000 -0.000212 0.000000
# 3 -0.006436 -0.003000 0.018388 0.000000 0.001554 0.000000
# 4 0.000000 0.000000 0.000000 0.039505 0.000000 0.013629
# 5 0.004064 -0.000212 0.001554 0.000000 0.021924 0.000000
# 6 0.000000 0.000000 0.000000 0.013629 0.000000 0.045488
#
#
# Mechanical properties :
#
#
# Convention : Reuss Voigt Hill
#
# Bulk Modulus (GPa) = 48.01685 52.12250 50.06967
# Shear Modulus (GPa) = 27.62726 32.39613 30.01170
#
# Velocity S-wave (km/s) = 3.68106 3.98613 3.83663
# Velocity P-wave (km/s) = 6.45117 6.83739 6.64709
#
# Compressibility (1/GPa) = 0.02082602
#
# Stress axis : x y z
#
# Youngs Moduli (GPa) = 69.12971 89.92611 54.38237
#
# Poissons Ratio (x) = 0.19231 0.34998
# Poissons Ratio (y) = 0.14783 0.16315
# Poissons Ratio (z) = 0.44489 0.26978
#
# Static dielectric constant tensor:
#      x y z
#    x 3.884690 0.000000 -0.447870 
#    y 0.000000 4.247280 0.000000 
#    z -0.447870 0.000000 4.267000 
# 
# 
# High freq. dielectric constant tensor:
#      x y z
#    x 1.805020 0.000000 -0.023470 
#    y 0.000000 1.801920 0.000000 
#    z -0.023470 0.000000 1.786770 
# 
# From -- ./inp_files/30174.got.cif
#   From: 2010.06.25/outbox.cif.g09.slc.cpg/sg15_16_cif.got.tgz:30174.got - 2010.06.28 07:06:18.
