data_PCOD8152428
_publ_section_title
;
Structure prediction by ZEFSAII (Michael W. Deem and Ramdas Pophale) SiO2 
 PCOD8152428
Probable space group: C 2/C
;
_chemical_formula_sum "Si O2"
_cell_formula_units_Z 56
_cell_length_a 29.521189
_cell_length_b 11.801794
_cell_length_c 9.165102
_cell_angle_alpha 90.000000
_cell_angle_beta 126.701086
_cell_angle_gamma 90.000000
_cell_volume 2560.152887
_symmetry_space_group_name_H-M "C 2/C"
_symmetry_group_IT_number 15
_symmetry_cell_setting 'monoclinic'
loop_
_space_group_symop_operation_xyz
x,y,z
-x,y,1/2-z
-x,-y,-z
x,-y,1/2+z
1/2+x,1/2+y,z
1/2-x,1/2+y,1/2-z
1/2-x,1/2-y,-z
1/2+x,1/2-y,1/2+z
loop_
_atom_site_type_symbol
_atom_site_label
_atom_site_fract_x
_atom_site_fract_y
_atom_site_fract_z
Si Si1 0.301086 0.303104 0.683498
Si Si2 0.095898 0.364475 0.131355
Si Si3 0.131727 0.002891 0.314106
Si Si4 0.056248 0.059133 0.428928
Si Si5 0.484653 0.806894 0.065714
Si Si6 0.895940 0.417054 0.680755
Si Si7 0.694571 0.725190 0.984214
O O1 0.250000 0.250000 0.500000
O O2 0.356020 0.227205 0.785554
O O3 0.315793 0.423716 0.641519
O O4 0.282840 0.315872 0.815600
O O5 0.117297 0.455996 0.291439
O O6 0.041735 0.294860 0.082701
O O7 0.082948 0.417586 0.946429
O O8 0.153295 0.873539 0.347597
O O9 0.111182 0.048791 0.430452
O O10 0.074996 0.011794 0.106249
O O11 0.043475 0.187659 0.448265
O O12 0.000000 0.002748 0.250000
O O13 0.500000 0.868657 0.250000
O O14 0.443289 0.878944 0.886476
O O15 0.839970 0.341841 0.582952
O O16 0.750000 0.750000 0.000000
#
# Coordination Sequence:
#
# PCOD8152428 Si02
#       7
#     8   8   8   8   8   8   8
#     4  11  27  46  70 101 136 186 234 292 349 421
#     4  11  25  44  68 101 140 182 238 282 352 414
#     4  12  24  49  70 108 145 180 239 292 356 426
#     4  11  24  42  73 106 144 186 226 286 353 425
#     4  11  22  41  69 104 137 183 222 280 347 418
#     4  11  24  46  69 100 139 185 232 294 347 420
#     4  11  27  46  72 101 138 186 237 298 358 413
#
# _framework density 21.873692999999999
#
# number of rings (size 3 to 8) (size 9 to 14) (size 15 to 20)
#    0.000    0.857    2.857    3.857    4.000    2.286 
#    0.000    0.000    0.000    0.000    0.000    0.000 
#    0.000    0.000    0.000    0.000    0.000    0.000 
#
# Total GULP energy -347177.566866 kJ/mol
# GULP energy per Si atom -12399.198817 kJ/mol
# Density = 2.182391 g / cm^3
# Si number density = 21.873693 Si / 1000 Ang^3
#
#
#
# Elastic Constant Matrix: (Units=GPa)
#
#
# Indices 1 2 3 4 5 6 
#
# 1 137.3256 29.2132 27.0315 0.0000 -21.8270 0.0000
# 2 29.2132 77.9183 3.2805 0.0000 -9.6933 0.0000
# 3 27.0315 3.2805 113.8503 0.0000 -10.3724 0.0000
# 4 0.0000 0.0000 0.0000 30.8169 0.0000 0.8652
# 5 -21.8270 -9.6933 -10.3724 0.0000 39.6633 0.0000
# 6 0.0000 0.0000 0.0000 0.8652 0.0000 37.4592
#
#
#
# Elastic Compliance Matrix: (Units=1/GPa)
#
#
# Indices 1 2 3 4 5 6 
#
# 1 0.008790 -0.002762 -0.001668 0.000000 0.003726 0.000000
# 2 -0.002762 0.014105 0.000435 0.000000 0.002041 0.000000
# 3 -0.001668 0.000435 0.009315 0.000000 0.001624 0.000000
# 4 0.000000 0.000000 0.000000 0.032471 0.000000 -0.000750
# 5 0.003726 0.002041 0.001624 0.000000 0.028186 0.000000
# 6 0.000000 0.000000 0.000000 -0.000750 0.000000 0.026713
#
#
# Mechanical properties :
#
#
# Convention : Reuss Voigt Hill
#
# Bulk Modulus (GPa) = 41.28657 49.79384 45.54020
# Shear Modulus (GPa) = 36.86152 39.55915 38.21033
#
# Velocity S-wave (km/s) = 4.10957 4.25729 4.18408
# Velocity P-wave (km/s) = 6.43693 6.85417 6.64883
#
# Compressibility (1/GPa) = 0.02422095
#
# Stress axis : x y z
#
# Youngs Moduli (GPa) = 113.76509 70.89683 107.35443
#
# Poissons Ratio (x) = 0.19580 0.17906
# Poissons Ratio (y) = 0.31420 -0.04673
# Poissons Ratio (z) = 0.18976 -0.03086
#
# Static dielectric constant tensor:
#      x y z
#    x 3.861370 0.000000 -0.502170 
#    y 0.000000 3.889910 0.000000 
#    z -0.502170 0.000000 3.895900 
# 
# 
# High freq. dielectric constant tensor:
#      x y z
#    x 1.866780 0.000000 -0.010460 
#    y 0.000000 1.856830 0.000000 
#    z -0.010460 0.000000 1.876740 
# 
# From -- ./inp_files/69448.got.cif
#   From: 2010.06.25/outbox.cif.g09.slc.cpg/sg15_35_cif.got.tgz:69448.got - 2010.06.28 07:06:18.
