data_PCOD8152359
_publ_section_title
;
Structure prediction by ZEFSAII (Michael W. Deem and Ramdas Pophale) SiO2 
 PCOD8152359
Probable space group: C 2/C
;
_chemical_formula_sum "Si O2"
_cell_formula_units_Z 48
_cell_length_a 8.941787
_cell_length_b 13.262130
_cell_length_c 28.495442
_cell_angle_alpha 90.000000
_cell_angle_beta 138.281582
_cell_angle_gamma 90.000000
_cell_volume 2248.752694
_symmetry_space_group_name_H-M "C 2/C"
_symmetry_group_IT_number 15
_symmetry_cell_setting 'monoclinic'
loop_
_space_group_symop_operation_xyz
x,y,z
-x,y,1/2-z
-x,-y,-z
x,-y,1/2+z
1/2+x,1/2+y,z
1/2-x,1/2+y,1/2-z
1/2-x,1/2-y,-z
1/2+x,1/2-y,1/2+z
loop_
_atom_site_type_symbol
_atom_site_label
_atom_site_fract_x
_atom_site_fract_y
_atom_site_fract_z
Si Si1 0.910418 0.468446 0.928942
Si Si2 0.240775 0.954759 0.068649
Si Si3 0.777482 0.745923 0.278734
Si Si4 0.039690 0.449278 0.708430
Si Si5 0.529463 0.434877 0.204780
Si Si6 0.286332 0.248686 0.630775
O O1 0.671764 0.523244 0.872694
O O2 0.865250 0.348041 0.915097
O O3 0.076839 0.514580 0.928297
O O4 0.000000 0.500000 0.000000
O O5 0.227737 0.834126 0.076495
O O6 0.313308 0.002947 0.135019
O O7 0.000000 0.000000 0.000000
O O8 0.877794 0.634850 0.308521
O O9 0.960388 0.813632 0.294234
O O10 0.756692 0.790812 0.326365
O O11 0.553884 0.730999 0.194413
O O12 0.227124 0.535194 0.758161
O O13 0.000000 0.400775 0.750000
O O14 0.500000 0.477437 0.250000
#
# Coordination Sequence:
#
# PCOD8152359 Si02
#       6
#     8   8   8   8   8   8
#     4  12  28  47  72 104 148 194 236 304 368 436
#     4  12  28  46  70 106 149 193 242 298 369 444
#     4  11  22  40  77 108 136 182 243 305 362 425
#     4  12  24  42  71 108 141 185 242 299 358 434
#     4  12  22  44  71 102 141 182 243 298 358 428
#     4  11  23  46  73 104 143 188 239 301 367 429
#
# _framework density 21.345165000000001
#
# number of rings (size 3 to 8) (size 9 to 14) (size 15 to 20)
#    0.000    0.333    6.667    1.500    4.667    2.667 
#    0.000    0.000    0.000    0.000    0.000    0.000 
#    0.000    0.000    0.000    0.000    0.000    0.000 
#
# Total GULP energy -297465.205197 kJ/mol
# GULP energy per Si atom -12394.383550 kJ/mol
# Density = 2.129658 g / cm^3
# Si number density = 21.345165 Si / 1000 Ang^3
#
#
#
# Elastic Constant Matrix: (Units=GPa)
#
#
# Indices 1 2 3 4 5 6 
#
# 1 82.5691 43.8524 50.4021 0.0000 -3.0746 0.0000
# 2 43.8524 141.2620 59.7494 0.0000 1.9241 0.0000
# 3 50.4021 59.7494 162.5338 0.0000 6.6941 0.0000
# 4 0.0000 0.0000 0.0000 38.2272 0.0000 -0.3207
# 5 -3.0746 1.9241 6.6941 0.0000 36.9469 0.0000
# 6 0.0000 0.0000 0.0000 -0.3207 0.0000 40.2479
#
#
#
# Elastic Compliance Matrix: (Units=1/GPa)
#
#
# Indices 1 2 3 4 5 6 
#
# 1 0.016428 -0.003477 -0.003909 0.000000 0.002256 0.000000
# 2 -0.003477 0.009119 -0.002259 0.000000 -0.000355 0.000000
# 3 -0.003909 -0.002259 0.008266 0.000000 -0.001705 0.000000
# 4 0.000000 0.000000 0.000000 0.026161 0.000000 0.000208
# 5 0.002256 -0.000355 -0.001705 0.000000 0.027581 0.000000
# 6 0.000000 0.000000 0.000000 0.000208 0.000000 0.024848
#
#
# Mechanical properties :
#
#
# Convention : Reuss Voigt Hill
#
# Bulk Modulus (GPa) = 68.86377 77.15251 73.00814
# Shear Modulus (GPa) = 36.62096 38.57513 37.59804
#
# Velocity S-wave (km/s) = 4.14654 4.25574 4.20149
# Velocity P-wave (km/s) = 7.43351 7.76995 7.60359
#
# Compressibility (1/GPa) = 0.01452142
#
# Stress axis : x y z
#
# Youngs Moduli (GPa) = 60.87189 109.66207 120.98386
#
# Poissons Ratio (x) = 0.38131 0.47293
# Poissons Ratio (y) = 0.21166 0.27335
# Poissons Ratio (z) = 0.23795 0.24777
#
# Static dielectric constant tensor:
#      x y z
#    x 3.854020 0.000000 0.054870 
#    y 0.000000 3.913770 0.000000 
#    z 0.054870 0.000000 4.087520 
# 
# 
# High freq. dielectric constant tensor:
#      x y z
#    x 1.838680 0.000000 -0.001490 
#    y 0.000000 1.850090 0.000000 
#    z -0.001490 0.000000 1.833710 
# 
# From -- ./inp_files/289125.got.cif
#   From: 2010.06.25/outbox.cif.g09.slc.cpg/sg15_145_cif.got.tgz:289125.got - 2010.06.28 07:06:18.
