data_PCOD8152309
_publ_section_title
;
Structure prediction by ZEFSAII (Michael W. Deem and Ramdas Pophale) SiO2 
 PCOD8152309
Probable space group: C 2/C
;
_chemical_formula_sum "Si O2"
_cell_formula_units_Z 40
_cell_length_a 12.467948
_cell_length_b 27.549110
_cell_length_c 9.467220
_cell_angle_alpha 90.000000
_cell_angle_beta 39.541114
_cell_angle_gamma 90.000000
_cell_volume 2070.204851
_symmetry_space_group_name_H-M "C 2/C"
_symmetry_group_IT_number 15
_symmetry_cell_setting 'monoclinic'
loop_
_space_group_symop_operation_xyz
x,y,z
-x,y,1/2-z
-x,-y,-z
x,-y,1/2+z
1/2+x,1/2+y,z
1/2-x,1/2+y,1/2-z
1/2-x,1/2-y,-z
1/2+x,1/2-y,1/2+z
loop_
_atom_site_type_symbol
_atom_site_label
_atom_site_fract_x
_atom_site_fract_y
_atom_site_fract_z
Si Si1 0.000000 0.898529 0.750000
Si Si2 0.379903 0.769828 0.478740
Si Si3 0.000000 0.871642 0.250000
Si Si4 0.829809 0.021908 0.606448
Si Si5 0.691851 0.944053 0.531953
Si Si6 0.411451 0.320171 0.619547
O O1 0.130925 0.931465 0.529989
O O2 0.096061 0.864356 0.762590
O O3 0.250000 0.750000 0.500000
O O4 0.471039 0.724505 0.457675
O O5 0.284099 0.802451 0.692685
O O6 0.500000 0.800839 0.250000
O O7 0.829296 0.902066 0.409617
O O8 0.983142 0.837115 0.399622
O O9 0.733347 0.984109 0.606552
O O10 0.704909 0.035275 0.860356
O O11 0.000000 0.000000 0.500000
O O12 0.500000 0.925259 0.750000
#
# Coordination Sequence:
#
# PCOD8152309 Si02
#       6
#     4   8   4   8   8   8
#     4  12  19  36  70  90 120 178 218 250 325 386
#     4   9  18  39  64  88 120 163 208 266 318 385
#     4  12  25  44  64  96 140 164 214 278 319 392
#     4  12  21  42  70  89 135 180 212 268 330 378
#     4  12  25  44  66  96 135 175 220 268 325 385
#     4  11  22  40  67  91 126 172 211 264 334 380
#
# _framework density 19.321759
#
# number of rings (size 3 to 8) (size 9 to 14) (size 15 to 20)
#    0.000    0.800    9.000    0.600    0.000    0.800 
#   10.800    0.000    0.000    0.000    0.000    0.000 
#    0.000    0.000    0.000    0.000    0.000    0.000 
#
# Total GULP energy -247809.622310 kJ/mol
# GULP energy per Si atom -12390.481115 kJ/mol
# Density = 1.927778 g / cm^3
# Si number density = 19.321759 Si / 1000 Ang^3
#
#
#
# Elastic Constant Matrix: (Units=GPa)
#
#
# Indices 1 2 3 4 5 6 
#
# 1 86.7027 49.3916 72.7402 0.0000 5.4817 0.0000
# 2 49.3916 103.5131 70.9288 0.0000 -0.7820 0.0000
# 3 72.7402 70.9288 182.5947 0.0000 -2.0472 0.0000
# 4 0.0000 0.0000 0.0000 469.7760 0.0000 429.7468
# 5 5.4817 -0.7820 -2.0472 0.0000 43.4356 0.0000
# 6 0.0000 0.0000 0.0000 429.7468 0.0000 417.9808
#
#
#
# Elastic Compliance Matrix: (Units=1/GPa)
#
#
# Indices 1 2 3 4 5 6 
#
# 1 0.019634 -0.005463 -0.005732 0.000000 -0.002846 0.000000
# 2 -0.005463 0.014684 -0.003519 0.000000 0.000788 0.000000
# 3 -0.005732 -0.003519 0.009139 0.000000 0.001091 0.000000
# 4 0.000000 0.000000 0.000000 0.035801 0.000000 -0.036809
# 5 -0.002846 0.000788 0.001091 0.000000 0.023447 0.000000
# 6 0.000000 0.000000 0.000000 -0.036809 0.000000 0.040238
#
#
# Mechanical properties :
#
#
# Convention : Reuss Voigt Hill
#
# Bulk Modulus (GPa) = 71.27109 84.32575 77.79842
# Shear Modulus (GPa) = 28.24096 198.22180 113.23138
#
# Velocity S-wave (km/s) = 3.82725 10.13966 7.66357
# Velocity P-wave (km/s) = 7.51645 13.44698 10.89308
#
# Compressibility (1/GPa) = 0.01403093
#
# Stress axis : x y z
#
# Youngs Moduli (GPa) = 50.93190 68.09919 109.41911
#
# Poissons Ratio (x) = 0.37200 0.62715
# Poissons Ratio (y) = 0.27822 0.38507
# Poissons Ratio (z) = 0.29192 0.23966
#
# Static dielectric constant tensor:
#      x y z
#    x 3.697350 0.000000 -0.253870 
#    y 0.000000 3.557240 0.000000 
#    z -0.253870 0.000000 4.887590 
# 
# 
# High freq. dielectric constant tensor:
#      x y z
#    x 1.744340 0.000000 0.009250 
#    y 0.000000 1.745320 0.000000 
#    z 0.009250 0.000000 1.775200 
# 
# From -- ./inp_files/35014.got.cif
#   From: 2010.06.25/outbox.cif.g09.slc.cpg/sg15_18_cif.got.tgz:35014.got - 2010.06.28 07:06:18.
