data_PCOD8152030
_publ_section_title
;
Structure prediction by ZEFSAII (Michael W. Deem and Ramdas Pophale) SiO2 
 PCOD8152030
Probable space group: C 2/C
;
_chemical_formula_sum "Si O2"
_cell_formula_units_Z 52
_cell_length_a 25.966304
_cell_length_b 14.208637
_cell_length_c 20.203503
_cell_angle_alpha 90.000000
_cell_angle_beta 161.720385
_cell_angle_gamma 90.000000
_cell_volume 2337.980882
_symmetry_space_group_name_H-M "C 2/C"
_symmetry_group_IT_number 15
_symmetry_cell_setting 'monoclinic'
loop_
_space_group_symop_operation_xyz
x,y,z
-x,y,1/2-z
-x,-y,-z
x,-y,1/2+z
1/2+x,1/2+y,z
1/2-x,1/2+y,1/2-z
1/2-x,1/2-y,-z
1/2+x,1/2-y,1/2+z
loop_
_atom_site_type_symbol
_atom_site_label
_atom_site_fract_x
_atom_site_fract_y
_atom_site_fract_z
Si Si1 0.637431 0.990587 0.559732
Si Si2 0.271695 0.131001 0.713484
Si Si3 0.765408 0.503159 0.086351
Si Si4 0.894006 0.291845 0.920012
Si Si5 0.000000 0.313774 0.750000
Si Si6 0.893385 0.837278 0.026367
Si Si7 0.196366 0.053326 0.864840
O O1 0.690218 0.044353 0.690878
O O2 0.459166 0.026162 0.319742
O O3 0.766755 0.002842 0.658929
O O4 0.630146 0.879964 0.561851
O O5 0.121355 0.194624 0.556897
O O6 0.226372 0.084580 0.587484
O O7 0.428307 0.200676 0.897903
O O8 0.676974 0.598107 0.001214
O O9 0.695409 0.481181 0.926882
O O10 0.752926 0.291647 0.693381
O O11 0.995225 0.249686 0.679007
O O12 0.834653 0.372509 0.553308
O O13 0.019490 0.898964 0.136530
#
# Coordination Sequence:
#
# PCOD8152030 Si02
#       7
#     8   8   8   8   4   8   8
#     4  11  22  45  66  93 133 177 212 274 322 391
#     4  11  24  44  68  92 137 173 217 272 319 392
#     4  11  21  46  62  90 132 180 209 263 334 380
#     4  11  25  41  67 100 127 174 223 264 329 380
#     4  12  24  38  60 100 134 166 210 256 336 392
#     4  12  24  37  63  96 137 163 212 269 321 395
#     4  12  25  39  66  94 132 173 217 265 326 390
#
# _framework density 22.241413000000001
#
# number of rings (size 3 to 8) (size 9 to 14) (size 15 to 20)
#    0.000    0.615    6.154    2.308    4.308    1.846 
#    0.000    0.769    0.000    1.846    0.000    0.000 
#    0.000    0.000    0.000    0.000    0.000    0.000 
#
# Total GULP energy -322452.819729 kJ/mol
# GULP energy per Si atom -12402.031528 kJ/mol
# Density = 2.219079 g / cm^3
# Si number density = 22.241413 Si / 1000 Ang^3
#
#
#
# Elastic Constant Matrix: (Units=GPa)
#
#
# Indices 1 2 3 4 5 6 
#
# 1 107.6910 12.4019 0.5769 0.0077 -3.2747 0.0053
# 2 12.4019 58.1242 0.5139 0.0045 -3.5850 0.0044
# 3 0.5769 0.5139 40.5065 -0.0016 -2.2076 0.0118
# 4 0.0077 0.0045 -0.0016 16.3467 0.0041 11.1934
# 5 -3.2747 -3.5850 -2.2076 0.0041 22.1211 0.0033
# 6 0.0053 0.0044 0.0118 11.1934 0.0033 26.5432
#
#
#
# Elastic Compliance Matrix: (Units=1/GPa)
#
#
# Indices 1 2 3 4 5 6 
#
# 1 0.009546 -0.001969 -0.000052 -0.000004 0.001089 0.000000
# 2 -0.001969 0.017785 -0.000057 -0.000004 0.002585 -0.000001
# 3 -0.000052 -0.000057 0.024823 0.000014 0.002460 -0.000017
# 4 -0.000004 -0.000004 0.000014 0.086012 -0.000010 -0.036272
# 5 0.001089 0.002585 0.002460 -0.000010 0.046031 -0.000003
# 6 0.000000 -0.000001 -0.000017 -0.036272 -0.000003 0.052970
#
#
# Mechanical properties :
#
#
# Convention : Reuss Voigt Hill
#
# Bulk Modulus (GPa) = 20.83397 25.92300 23.37849
# Shear Modulus (GPa) = 19.43094 25.85745 22.64419
#
# Velocity S-wave (km/s) = 2.95894 3.41336 3.19424
# Velocity P-wave (km/s) = 4.58926 5.21683 4.91308
#
# Compressibility (1/GPa) = 0.04799852
#
# Stress axis : x y z
#
# Youngs Moduli (GPa) = 104.75599 56.22831 40.28527
#
# Poissons Ratio (x) = 0.11072 0.00208
# Poissons Ratio (y) = 0.20629 0.00229
# Poissons Ratio (z) = 0.00541 0.00319
#
# Static dielectric constant tensor:
#      x y z
#    x 4.155970 -0.000010 0.111050 
#    y -0.000010 3.865490 -0.000010 
#    z 0.111050 -0.000010 4.181380 
# 
# 
# High freq. dielectric constant tensor:
#      x y z
#    x 1.886970 0.000000 0.010060 
#    y 0.000000 1.859850 0.000000 
#    z 0.010060 0.000000 1.873210 
# 
# From -- ./inp_files/249103.got.cif
#   From: 2010.06.25/outbox.cif.g09.slc.cpg/sg15_125_cif.got.tgz:249103.got - 2010.06.28 07:06:18.
