data_PCOD8152166
_publ_section_title
;
Structure prediction by ZEFSAII (Michael W. Deem and Ramdas Pophale) SiO2 
 PCOD8152166
Probable space group: C 2/C
;
_chemical_formula_sum "Si O2"
_cell_formula_units_Z 52
_cell_length_a 16.000158
_cell_length_b 13.441583
_cell_length_c 11.682388
_cell_angle_alpha 90.000000
_cell_angle_beta 80.393050
_cell_angle_gamma 90.000000
_cell_volume 2477.265597
_symmetry_space_group_name_H-M "C 2/C"
_symmetry_group_IT_number 15
_symmetry_cell_setting 'monoclinic'
loop_
_space_group_symop_operation_xyz
x,y,z
-x,y,1/2-z
-x,-y,-z
x,-y,1/2+z
1/2+x,1/2+y,z
1/2-x,1/2+y,1/2-z
1/2-x,1/2-y,-z
1/2+x,1/2-y,1/2+z
loop_
_atom_site_type_symbol
_atom_site_label
_atom_site_fract_x
_atom_site_fract_y
_atom_site_fract_z
Si Si1 0.500000 0.199760 0.250000
Si Si2 0.181788 0.186142 0.385130
Si Si3 0.709390 0.484291 0.302126
Si Si4 0.878155 0.554096 0.146396
Si Si5 0.161735 0.188333 0.648816
Si Si6 0.084815 0.654767 0.792474
Si Si7 0.709861 0.853311 0.051876
O O1 0.445914 0.133845 0.175016
O O2 0.433678 0.270139 0.331271
O O3 0.153903 0.083944 0.329197
O O4 0.192583 0.161412 0.515612
O O5 0.271464 0.230620 0.316100
O O6 0.106471 0.264102 0.383625
O O7 0.800581 0.530279 0.247761
O O8 0.666701 0.413803 0.218488
O O9 0.715247 0.427295 0.423572
O O10 0.926603 0.447772 0.133375
O O11 0.846630 0.592207 0.030628
O O12 0.157492 0.661041 0.680155
O O13 0.000000 0.685875 0.750000
O O14 0.750000 0.750000 0.000000
#
# Coordination Sequence:
#
# PCOD8152166 Si02
#       7
#     4   8   8   8   8   8   8
#     4  12  24  42  66 104 138 172 226 286 334 398
#     4  11  23  43  69  93 134 182 223 276 340 414
#     4  11  22  45  66  98 128 181 227 272 335 411
#     4  11  22  38  67  99 130 175 214 282 337 391
#     4  11  24  42  69  99 135 178 225 276 346 399
#     4  11  25  42  61 101 136 168 225 282 335 397
#     4  11  23  40  67  96 128 175 223 272 334 404
#
# _framework density 20.990886
#
# number of rings (size 3 to 8) (size 9 to 14) (size 15 to 20)
#    0.000    0.923    5.385    2.769    4.308    0.615 
#    1.385    0.769    0.000    0.000    0.000    0.000 
#    0.000    0.000    0.000    0.000    0.000    0.000 
#
# Total GULP energy -322246.621559 kJ/mol
# GULP energy per Si atom -12394.100829 kJ/mol
# Density = 2.094311 g / cm^3
# Si number density = 20.990886 Si / 1000 Ang^3
#
#
#
# Elastic Constant Matrix: (Units=GPa)
#
#
# Indices 1 2 3 4 5 6 
#
# 1 93.0962 50.8392 20.6002 0.0000 14.9745 0.0000
# 2 50.8392 156.7350 51.5180 0.0000 7.4176 0.0000
# 3 20.6002 51.5180 84.3415 0.0000 22.6498 0.0000
# 4 0.0000 0.0000 0.0000 28.0425 0.0000 9.7498
# 5 14.9745 7.4176 22.6498 0.0000 28.0387 0.0000
# 6 0.0000 0.0000 0.0000 9.7498 0.0000 35.4503
#
#
#
# Elastic Compliance Matrix: (Units=1/GPa)
#
#
# Indices 1 2 3 4 5 6 
#
# 1 0.014211 -0.004724 0.001426 0.000000 -0.007492 0.000000
# 2 -0.004724 0.009675 -0.006061 0.000000 0.004859 0.000000
# 3 0.001426 -0.006061 0.019135 0.000000 -0.014616 0.000000
# 4 0.000000 0.000000 0.000000 0.039431 0.000000 -0.010844
# 5 -0.007492 0.004859 -0.014616 0.000000 0.050188 0.000000
# 6 0.000000 0.000000 0.000000 -0.010844 0.000000 0.031191
#
#
# Mechanical properties :
#
#
# Convention : Reuss Voigt Hill
#
# Bulk Modulus (GPa) = 41.14452 64.45416 52.79934
# Shear Modulus (GPa) = 26.22648 32.38731 29.30690
#
# Velocity S-wave (km/s) = 3.53855 3.93227 3.74059
# Velocity P-wave (km/s) = 6.02817 7.16864 6.62300
#
# Compressibility (1/GPa) = 0.02430457
#
# Stress axis : x y z
#
# Youngs Moduli (GPa) = 70.37001 103.36421 52.25950
#
# Poissons Ratio (x) = 0.48826 -0.07454
# Poissons Ratio (y) = 0.33241 0.31673
# Poissons Ratio (z) = -0.10038 0.62645
#
# Static dielectric constant tensor:
#      x y z
#    x 3.720410 0.000000 0.150020 
#    y 0.000000 4.183980 0.000000 
#    z 0.150020 0.000000 3.740050 
# 
# 
# High freq. dielectric constant tensor:
#      x y z
#    x 1.798140 0.000000 0.015490 
#    y 0.000000 1.840010 0.000000 
#    z 0.015490 0.000000 1.820090 
# 
# From -- ./inp_files/104898.got.cif
#   From: 2010.06.25/outbox.cif.g09.slc.cpg/sg15_53_cif.got.tgz:104898.got - 2010.06.28 07:06:18.
