data_PCOD8152387
_publ_section_title
;
Structure prediction by ZEFSAII (Michael W. Deem and Ramdas Pophale) SiO2 
 PCOD8152387
Probable space group: C 2/C
;
_chemical_formula_sum "Si O2"
_cell_formula_units_Z 56
_cell_length_a 8.159102
_cell_length_b 11.791967
_cell_length_c 24.337219
_cell_angle_alpha 90.000000
_cell_angle_beta 86.298704
_cell_angle_gamma 90.000000
_cell_volume 2336.645085
_symmetry_space_group_name_H-M "C 2/C"
_symmetry_group_IT_number 15
_symmetry_cell_setting 'monoclinic'
loop_
_space_group_symop_operation_xyz
x,y,z
-x,y,1/2-z
-x,-y,-z
x,-y,1/2+z
1/2+x,1/2+y,z
1/2-x,1/2+y,1/2-z
1/2-x,1/2-y,-z
1/2+x,1/2-y,1/2+z
loop_
_atom_site_type_symbol
_atom_site_label
_atom_site_fract_x
_atom_site_fract_y
_atom_site_fract_z
Si Si1 0.382086 0.091702 0.345384
Si Si2 0.067997 0.791937 0.492432
Si Si3 0.538667 0.673098 0.810005
Si Si4 0.090342 0.645728 0.693408
Si Si5 0.120419 0.240707 0.396290
Si Si6 0.119893 0.074529 0.584122
Si Si7 0.071971 0.561855 0.445633
O O1 0.461515 0.203418 0.318629
O O2 0.198936 0.128148 0.367510
O O3 0.481377 0.027664 0.391906
O O4 0.379393 0.990166 0.301572
O O5 0.250000 0.750000 0.500000
O O6 0.010714 0.690729 0.453806
O O7 0.987839 0.808673 0.552893
O O8 0.026348 0.904909 0.457586
O O9 0.500000 0.626525 0.750000
O O10 0.729444 0.698432 0.815585
O O11 0.462099 0.578662 0.853329
O O12 0.000000 0.688955 0.750000
O O13 0.985023 0.687829 0.644420
O O14 0.251095 0.322731 0.422215
O O15 0.229109 0.961845 0.566282
O O16 0.000000 0.500000 0.500000
#
# Coordination Sequence:
#
# PCOD8152387 Si02
#       7
#     8   8   8   8   8   8   8
#     4  11  24  44  70  97 136 181 227 280 349 411
#     4  12  24  39  64 100 138 175 222 281 340 408
#     4  11  25  47  68  99 139 177 232 292 342 408
#     4  12  25  45  71  99 133 179 233 287 347 408
#     4  11  22  41  68  99 134 179 226 278 344 409
#     4  11  22  41  67  93 136 179 224 282 341 407
#     4  12  22  39  69  97 132 180 224 271 343 414
#
# _framework density 23.965983000000001
#
# number of rings (size 3 to 8) (size 9 to 14) (size 15 to 20)
#    0.000    0.571    5.714    4.286    0.000    1.714 
#    0.000    0.714    0.000    0.000    0.000    0.000 
#    0.000    0.000    0.000    0.000    0.000    0.000 
#
# Total GULP energy -346960.869860 kJ/mol
# GULP energy per Si atom -12391.459638 kJ/mol
# Density = 2.391144 g / cm^3
# Si number density = 23.965983 Si / 1000 Ang^3
#
#
#
# Elastic Constant Matrix: (Units=GPa)
#
#
# Indices 1 2 3 4 5 6 
#
# 1 128.5793 17.4113 43.4358 0.0000 -13.5225 0.0000
# 2 17.4113 60.6100 26.3504 0.0000 -4.9039 0.0000
# 3 43.4358 26.3504 149.6255 0.0000 -28.6865 0.0000
# 4 0.0000 0.0000 0.0000 0.4498 0.0000 -9.0890
# 5 -13.5225 -4.9039 -28.6865 0.0000 38.3617 0.0000
# 6 0.0000 0.0000 0.0000 -9.0890 0.0000 29.8065
#
#
#
# Elastic Compliance Matrix: (Units=1/GPa)
#
#
# Indices 1 2 3 4 5 6 
#
# 1 0.008815 -0.001541 -0.002019 0.000000 0.001401 0.000000
# 2 -0.001541 0.018137 -0.002809 0.000000 -0.000325 0.000000
# 3 -0.002019 -0.002809 0.008824 0.000000 0.005528 0.000000
# 4 0.000000 0.000000 0.000000 -0.430704 0.000000 -0.131336
# 5 0.001401 -0.000325 0.005528 0.000000 0.030653 0.000000
# 6 0.000000 0.000000 0.000000 -0.131336 0.000000 -0.006499
#
#
# Mechanical properties :
#
#
# Convention : Reuss Voigt Hill
#
# Bulk Modulus (GPa) = 43.40805 57.02331 50.21568
# Shear Modulus (GPa) = -14.27119 30.49808 8.11344
#
# Velocity S-wave (km/s) = -2.44289 3.57116 1.84194
# Velocity P-wave (km/s) = 3.19292 6.39135 5.05194
#
# Compressibility (1/GPa) = 0.02303720
#
# Stress axis : x y z
#
# Youngs Moduli (GPa) = 113.43803 55.13721 113.32779
#
# Poissons Ratio (x) = 0.08498 0.22883
# Poissons Ratio (y) = 0.17483 0.31834
# Poissons Ratio (z) = 0.22905 0.15488
#
# Static dielectric constant tensor:
#      x y z
#    x 4.811010 0.000000 -0.033160 
#    y 0.000000 2.361660 0.000000 
#    z -0.033160 0.000000 4.265920 
# 
# 
# High freq. dielectric constant tensor:
#      x y z
#    x 1.960450 0.000000 -0.003470 
#    y 0.000000 1.944130 0.000000 
#    z -0.003470 0.000000 1.958100 
# 
# From -- ./inp_files/287947.got.cif
#   From: 2010.06.25/outbox.cif.g09.slc.cpg/sg15_144_cif.got.tgz:287947.got - 2010.06.28 07:06:18.
