data_PCOD8152869
_publ_section_title
;
Structure prediction by ZEFSAII (Michael W. Deem and Ramdas Pophale) SiO2 
 PCOD8152869
Probable space group: C 2/C
;
_chemical_formula_sum "Si O2"
_cell_formula_units_Z 56
_cell_length_a 14.209785
_cell_length_b 14.211048
_cell_length_c 12.088116
_cell_angle_alpha 90.000000
_cell_angle_beta 90.015580
_cell_angle_gamma 90.000000
_cell_volume 2441.024937
_symmetry_space_group_name_H-M "C 2/C"
_symmetry_group_IT_number 15
_symmetry_cell_setting 'monoclinic'
loop_
_space_group_symop_operation_xyz
x,y,z
-x,y,1/2-z
-x,-y,-z
x,-y,1/2+z
1/2+x,1/2+y,z
1/2-x,1/2+y,1/2-z
1/2-x,1/2-y,-z
1/2+x,1/2-y,1/2+z
loop_
_atom_site_type_symbol
_atom_site_label
_atom_site_fract_x
_atom_site_fract_y
_atom_site_fract_z
Si Si1 0.285278 0.648560 0.307222
Si Si2 0.059819 0.101871 0.355385
Si Si3 0.652606 0.917076 0.407839
Si Si4 0.679046 0.855770 0.161321
Si Si5 0.992507 0.711183 0.962685
Si Si6 0.420886 0.893956 0.660121
Si Si7 0.310276 0.519552 0.508834
O O1 0.345302 0.647839 0.194725
O O2 0.277680 0.752891 0.354170
O O3 0.178979 0.618505 0.278782
O O4 0.333596 0.581552 0.400282
O O5 0.092103 0.015154 0.434279
O O6 0.000000 0.064664 0.250000
O O7 0.000794 0.179569 0.425540
O O8 0.680417 0.894496 0.283473
O O9 0.596307 0.832725 0.464597
O O10 0.750625 0.927936 0.473105
O O11 0.590237 0.012800 0.415369
O O12 0.570387 0.848307 0.123490
O O13 0.744704 0.922537 0.090572
O O14 0.946662 0.697203 0.084420
O O15 0.500000 0.911447 0.750000
#
# Coordination Sequence:
#
# PCOD8152869 Si02
#       7
#     8   8   8   8   8   8   8
#     4  11  24  47  71  98 139 199 237 290 364 438
#     4  12  26  47  73 104 142 190 243 296 361 435
#     4  11  23  39  68 105 137 181 231 297 360 422
#     4  12  22  45  70  97 141 195 241 282 360 433
#     4  12  23  43  72 103 139 190 234 293 361 433
#     4  11  25  41  69 108 144 180 238 297 356 425
#     4  11  26  42  71 103 142 184 242 301 357 421
#
# _framework density 22.941184
#
# number of rings (size 3 to 8) (size 9 to 14) (size 15 to 20)
#    0.000    0.571    5.714    3.857    4.000    2.286 
#    0.000    0.714    0.000    0.000    0.000    0.000 
#    0.000    0.000    0.000    0.000    0.000    0.000 
#
# Total GULP energy -347177.549100 kJ/mol
# GULP energy per Si atom -12399.198182 kJ/mol
# Density = 2.288897 g / cm^3
# Si number density = 22.941184 Si / 1000 Ang^3
#
#
#
# Elastic Constant Matrix: (Units=GPa)
#
#
# Indices 1 2 3 4 5 6 
#
# 1 86.2976 30.7149 25.1938 0.0000 17.1127 0.0000
# 2 30.7149 87.7925 18.3866 0.0000 13.7865 0.0000
# 3 25.1938 18.3866 63.6576 0.0000 11.9347 0.0000
# 4 0.0000 0.0000 0.0000 31.2827 0.0000 -2.6703
# 5 17.1127 13.7865 11.9347 0.0000 45.6956 0.0000
# 6 0.0000 0.0000 0.0000 -2.6703 0.0000 42.0545
#
#
#
# Elastic Compliance Matrix: (Units=1/GPa)
#
#
# Indices 1 2 3 4 5 6 
#
# 1 0.014804 -0.003791 -0.004142 0.000000 -0.003319 0.000000
# 2 -0.003791 0.013467 -0.001991 0.000000 -0.002123 0.000000
# 3 -0.004142 -0.001991 0.018422 0.000000 -0.002659 0.000000
# 4 0.000000 0.000000 0.000000 0.032141 0.000000 0.002041
# 5 -0.003319 -0.002123 -0.002659 0.000000 0.024462 0.000000
# 6 0.000000 0.000000 0.000000 0.002041 0.000000 0.023908
#
#
# Mechanical properties :
#
#
# Convention : Reuss Voigt Hill
#
# Bulk Modulus (GPa) = 37.25062 42.92649 40.08856
# Shear Modulus (GPa) = 32.05096 34.70339 33.37717
#
# Velocity S-wave (km/s) = 3.74183 3.89358 3.81846
# Velocity P-wave (km/s) = 5.91109 6.24223 6.07892
#
# Compressibility (1/GPa) = 0.02684519
#
# Stress axis : x y z
#
# Youngs Moduli (GPa) = 67.54781 74.25427 54.28253
#
# Poissons Ratio (x) = 0.28148 0.22484
# Poissons Ratio (y) = 0.25606 0.10810
# Poissons Ratio (z) = 0.27978 0.14787
#
# Static dielectric constant tensor:
#      x y z
#    x 4.265010 0.000000 0.012990 
#    y 0.000000 4.162010 0.000000 
#    z 0.012990 0.000000 4.172060 
# 
# 
# High freq. dielectric constant tensor:
#      x y z
#    x 1.915570 0.000000 -0.004460 
#    y 0.000000 1.895140 0.000000 
#    z -0.004460 0.000000 1.901780 
# 
# From -- ./inp_files/97063.got.cif
#   From: 2010.06.25/outbox.cif.g09.slc.cpg/sg15_49_cif.got.tgz:97063.got - 2010.06.28 07:06:18.
