data_PCOD8152849
_publ_section_title
;
Structure prediction by ZEFSAII (Michael W. Deem and Ramdas Pophale) SiO2 
 PCOD8152849
Probable space group: C 2/C
;
_chemical_formula_sum "Si O2"
_cell_formula_units_Z 56
_cell_length_a 11.122994
_cell_length_b 8.752388
_cell_length_c 27.940596
_cell_angle_alpha 90.000000
_cell_angle_beta 66.197530
_cell_angle_gamma 90.000000
_cell_volume 2488.729085
_symmetry_space_group_name_H-M "C 2/C"
_symmetry_group_IT_number 15
_symmetry_cell_setting 'monoclinic'
loop_
_space_group_symop_operation_xyz
x,y,z
-x,y,1/2-z
-x,-y,-z
x,-y,1/2+z
1/2+x,1/2+y,z
1/2-x,1/2+y,1/2-z
1/2-x,1/2-y,-z
1/2+x,1/2-y,1/2+z
loop_
_atom_site_type_symbol
_atom_site_label
_atom_site_fract_x
_atom_site_fract_y
_atom_site_fract_z
Si Si1 0.979850 0.055306 0.615083
Si Si2 0.381607 0.953120 0.232670
Si Si3 0.779057 0.162722 0.570598
Si Si4 0.159039 0.889512 0.003745
Si Si5 0.592336 0.311665 0.279080
Si Si6 0.468100 0.835672 0.485816
Si Si7 0.002829 0.283046 0.372182
O O1 0.112826 0.040636 0.562162
O O2 0.873734 0.136698 0.599525
O O3 0.997269 0.159839 0.659423
O O4 0.936273 0.886398 0.638949
O O5 0.500000 0.897454 0.250000
O O6 0.377390 0.134916 0.233638
O O7 0.232424 0.896173 0.266692
O O8 0.412038 0.891722 0.174916
O O9 0.820523 0.299668 0.527428
O O10 0.648550 0.214069 0.619506
O O11 0.761304 0.010358 0.541004
O O12 0.038005 0.819838 0.993377
O O13 0.250000 0.750000 0.000000
O O14 0.500000 0.372879 0.250000
O O15 0.498846 0.851659 0.425691
O O16 0.500000 0.000000 0.500000
#
# Coordination Sequence:
#
# PCOD8152849 Si02
#       7
#     8   8   8   8   8   8   8
#     4  11  24  44  66  98 133 178 225 280 346 408
#     4  11  27  50  73 104 138 180 234 302 356 421
#     4  11  23  43  64  97 143 183 220 278 343 416
#     4  11  23  40  63  95 143 178 219 275 337 410
#     4  11  27  50  75 103 138 179 241 296 357 424
#     4  11  23  39  61 100 137 175 228 273 329 420
#     4  12  24  41  71  95 133 180 225 276 350 407
#
# _framework density 22.501445
#
# number of rings (size 3 to 8) (size 9 to 14) (size 15 to 20)
#    0.000    0.857    2.857    3.857    8.000    5.714 
#    0.000    0.000    0.000    0.000    0.000    0.000 
#    0.000    0.000    0.000    0.000    0.000    0.000 
#
# Total GULP energy -346981.447494 kJ/mol
# GULP energy per Si atom -12392.194553 kJ/mol
# Density = 2.245023 g / cm^3
# Si number density = 22.501445 Si / 1000 Ang^3
#
#
#
# Elastic Constant Matrix: (Units=GPa)
#
#
# Indices 1 2 3 4 5 6 
#
# 1 85.8473 10.2920 28.3699 0.0000 12.7146 0.0000
# 2 10.2920 88.6113 15.8084 0.0000 10.4927 0.0000
# 3 28.3699 15.8084 114.4850 0.0000 15.4397 0.0000
# 4 0.0000 0.0000 0.0000 36.9451 0.0000 -3.7403
# 5 12.7146 10.4927 15.4397 0.0000 35.8971 0.0000
# 6 0.0000 0.0000 0.0000 -3.7403 0.0000 33.2448
#
#
#
# Elastic Compliance Matrix: (Units=1/GPa)
#
#
# Indices 1 2 3 4 5 6 
#
# 1 0.013111 -0.000649 -0.002716 0.000000 -0.003286 0.000000
# 2 -0.000649 0.011886 -0.001107 0.000000 -0.002768 0.000000
# 3 -0.002716 -0.001107 0.009965 0.000000 -0.003001 0.000000
# 4 0.000000 0.000000 0.000000 0.027379 0.000000 0.003080
# 5 -0.003286 -0.002768 -0.003001 0.000000 0.031121 0.000000
# 6 0.000000 0.000000 0.000000 0.003080 0.000000 0.030426
#
#
# Mechanical properties :
#
#
# Convention : Reuss Voigt Hill
#
# Bulk Modulus (GPa) = 38.43595 44.20937 41.32266
# Shear Modulus (GPa) = 35.33434 36.84895 36.09164
#
# Velocity S-wave (km/s) = 3.96702 4.05115 4.00930
# Velocity P-wave (km/s) = 6.17265 6.44767 6.31166
#
# Compressibility (1/GPa) = 0.02601731
#
# Stress axis : x y z
#
# Youngs Moduli (GPa) = 76.27384 84.13309 100.34753
#
# Poissons Ratio (x) = 0.05461 0.27256
# Poissons Ratio (y) = 0.04951 0.11109
# Poissons Ratio (z) = 0.20717 0.09314
#
# Static dielectric constant tensor:
#      x y z
#    x 4.034040 0.000000 0.094920 
#    y 0.000000 3.951830 0.000000 
#    z 0.094920 0.000000 4.215390 
# 
# 
# High freq. dielectric constant tensor:
#      x y z
#    x 1.889580 0.000000 0.002170 
#    y 0.000000 1.895760 0.000000 
#    z 0.002170 0.000000 1.893460 
# 
# From -- ./inp_files/291525.got.cif
#   From: 2010.06.25/outbox.cif.g09.slc.cpg/sg15_146_cif.got.tgz:291525.got - 2010.06.28 07:06:18.
