data_PCOD8152357
_publ_section_title
;
Structure prediction by ZEFSAII (Michael W. Deem and Ramdas Pophale) SiO2 
 PCOD8152357
Probable space group: C 2/C
;
_chemical_formula_sum "Si O2"
_cell_formula_units_Z 48
_cell_length_a 9.105413
_cell_length_b 17.287937
_cell_length_c 20.364657
_cell_angle_alpha 90.000000
_cell_angle_beta 49.823392
_cell_angle_gamma 90.000000
_cell_volume 2449.328811
_symmetry_space_group_name_H-M "C 2/C"
_symmetry_group_IT_number 15
_symmetry_cell_setting 'monoclinic'
loop_
_space_group_symop_operation_xyz
x,y,z
-x,y,1/2-z
-x,-y,-z
x,-y,1/2+z
1/2+x,1/2+y,z
1/2-x,1/2+y,1/2-z
1/2-x,1/2-y,-z
1/2+x,1/2-y,1/2+z
loop_
_atom_site_type_symbol
_atom_site_label
_atom_site_fract_x
_atom_site_fract_y
_atom_site_fract_z
Si Si1 0.225506 0.672780 0.682966
Si Si2 0.485443 0.410779 0.678018
Si Si3 0.377457 0.195953 0.220712
Si Si4 0.987299 0.043731 0.933297
Si Si5 0.351100 0.168122 0.475646
Si Si6 0.806391 0.707244 0.049396
O O1 0.294708 0.717846 0.728696
O O2 0.322115 0.591688 0.638218
O O3 0.293567 0.727846 0.606695
O O4 0.000000 0.658183 0.750000
O O5 0.500000 0.433930 0.750000
O O6 0.292325 0.364626 0.717058
O O7 0.513388 0.485237 0.626131
O O8 0.662124 0.359355 0.607085
O O9 0.500000 0.206651 0.250000
O O10 0.506764 0.158064 0.126727
O O11 0.798757 0.097620 0.982710
O O12 0.000000 0.000000 0.000000
O O13 0.250000 0.250000 0.500000
O O14 0.477633 0.170309 0.507170
O O15 0.750000 0.750000 0.000000
#
# Coordination Sequence:
#
# PCOD8152357 Si02
#       6
#     8   8   8   8   8   8
#     4  11  22  45  67  97 131 173 235 266 324 425
#     4  12  24  47  65  99 146 174 221 291 346 392
#     4  11  22  40  74  97 131 181 226 277 334 407
#     4  12  27  44  69 104 142 176 225 293 347 395
#     4  11  23  43  68 101 131 171 240 271 324 426
#     4  11  22  41  72  96 130 183 225 275 337 409
#
# _framework density 19.597204999999999
#
# number of rings (size 3 to 8) (size 9 to 14) (size 15 to 20)
#    0.000    0.667    8.333    2.000    2.333    3.333 
#    3.000    0.000    0.000    0.000    0.000    0.000 
#    0.000    0.000    0.000    0.000    0.000    0.000 
#
# Total GULP energy -297434.934546 kJ/mol
# GULP energy per Si atom -12393.122273 kJ/mol
# Density = 1.955260 g / cm^3
# Si number density = 19.597205 Si / 1000 Ang^3
#
#
#
# Elastic Constant Matrix: (Units=GPa)
#
#
# Indices 1 2 3 4 5 6 
#
# 1 190.8663 81.6623 78.0686 -0.0009 -1.0723 0.0005
# 2 81.6623 159.3888 67.3239 0.0001 -6.6466 -0.0002
# 3 78.0686 67.3239 92.3474 -0.0020 -8.8228 0.0002
# 4 -0.0009 0.0001 -0.0020 42.4988 0.0007 -8.1903
# 5 -1.0723 -6.6466 -8.8228 0.0007 49.6933 -0.0004
# 6 0.0005 -0.0002 0.0002 -8.1903 -0.0004 39.1420
#
#
#
# Elastic Compliance Matrix: (Units=1/GPa)
#
#
# Indices 1 2 3 4 5 6 
#
# 1 0.008441 -0.001896 -0.005860 0.000000 -0.001112 0.000000
# 2 -0.001896 0.009491 -0.005289 0.000000 0.000290 0.000000
# 3 -0.005860 -0.005289 0.019896 0.000001 0.002699 0.000000
# 4 0.000000 0.000000 0.000001 0.024519 0.000000 0.005130
# 5 -0.001112 0.000290 0.002699 0.000000 0.020617 0.000000
# 6 0.000000 0.000000 0.000000 0.005130 0.000000 0.026622
#
#
# Mechanical properties :
#
#
# Convention : Reuss Voigt Hill
#
# Bulk Modulus (GPa) = 85.18719 99.63468 92.41094
# Shear Modulus (GPa) = 35.81938 40.63666 38.22802
#
# Velocity S-wave (km/s) = 4.27989 4.55861 4.42145
# Velocity P-wave (km/s) = 8.24541 8.86902 8.56289
#
# Compressibility (1/GPa) = 0.01173885
#
# Stress axis : x y z
#
# Youngs Moduli (GPa) = 118.46885 105.35778 50.26077
#
# Poissons Ratio (x) = 0.19975 0.29452
# Poissons Ratio (y) = 0.22461 0.26583
# Poissons Ratio (z) = 0.69422 0.55725
#
# Static dielectric constant tensor:
#      x y z
#    x 4.081150 -0.000010 -0.085090 
#    y -0.000010 3.519390 0.000010 
#    z -0.085090 0.000010 3.935770 
# 
# 
# High freq. dielectric constant tensor:
#      x y z
#    x 1.784770 0.000000 -0.010130 
#    y 0.000000 1.763740 0.000000 
#    z -0.010130 0.000000 1.770170 
# 
# From -- ./inp_files/232510.got.cif
#   From: 2010.06.25/outbox.cif.g09.slc.cpg/sg15_117_cif.got.tgz:232510.got - 2010.06.28 07:06:18.
