data_PCOD8152296
_publ_section_title
;
Structure prediction by ZEFSAII (Michael W. Deem and Ramdas Pophale) SiO2 
 PCOD8152296
Probable space group: C 2/C
;
_chemical_formula_sum "Si O2"
_cell_formula_units_Z 52
_cell_length_a 12.646370
_cell_length_b 22.039322
_cell_length_c 8.743675
_cell_angle_alpha 90.000000
_cell_angle_beta 72.385466
_cell_angle_gamma 90.000000
_cell_volume 2322.752523
_symmetry_space_group_name_H-M "C 2/C"
_symmetry_group_IT_number 15
_symmetry_cell_setting 'monoclinic'
loop_
_space_group_symop_operation_xyz
x,y,z
-x,y,1/2-z
-x,-y,-z
x,-y,1/2+z
1/2+x,1/2+y,z
1/2-x,1/2+y,1/2-z
1/2-x,1/2-y,-z
1/2+x,1/2-y,1/2+z
loop_
_atom_site_type_symbol
_atom_site_label
_atom_site_fract_x
_atom_site_fract_y
_atom_site_fract_z
Si Si1 0.087462 0.634465 0.832949
Si Si2 0.498504 0.770782 0.911555
Si Si3 0.840993 0.822216 0.581113
Si Si4 0.773200 0.068849 0.890232
Si Si5 0.884065 0.966719 0.023548
Si Si6 0.729591 0.732691 0.838067
Si Si7 0.500000 0.380918 0.750000
O O1 0.143394 0.578255 0.900688
O O2 0.194312 0.674317 0.732457
O O3 0.000000 0.606853 0.750000
O O4 0.003074 0.677279 0.961202
O O5 0.500000 0.805549 0.750000
O O6 0.597683 0.721346 0.886759
O O7 0.385210 0.732697 0.959112
O O8 0.805488 0.873266 0.477891
O O9 0.745142 0.793120 0.726783
O O10 0.938998 0.841138 0.651608
O O11 0.844690 0.061886 0.702088
O O12 0.790167 0.011541 0.995047
O O13 0.904812 0.918406 0.880607
O O14 0.000000 0.000000 0.000000
O O15 0.750000 0.750000 0.000000
#
# Coordination Sequence:
#
# PCOD8152296 Si02
#       7
#     8   8   8   8   8   8   4
#     4  11  25  44  65  99 137 184 234 275 336 414
#     4  11  23  40  64  98 143 180 220 277 324 418
#     4  11  25  38  65 108 134 179 227 268 349 421
#     4  12  25  45  69  96 137 175 229 294 357 404
#     4  12  24  43  66  99 132 167 224 298 350 413
#     4  11  22  40  65  98 143 181 221 270 331 411
#     4  12  24  38  66  96 136 168 218 280 348 412
#
# _framework density 22.387232999999998
#
# number of rings (size 3 to 8) (size 9 to 14) (size 15 to 20)
#    0.000    0.615    4.615    2.769    8.615    2.462 
#    0.000    0.769    0.000    0.000    0.000    0.000 
#    0.000    0.000    0.000    0.000    0.000    0.000 
#
# Total GULP energy -322110.512668 kJ/mol
# GULP energy per Si atom -12388.865872 kJ/mol
# Density = 2.233628 g / cm^3
# Si number density = 22.387233 Si / 1000 Ang^3
#
#
#
# Elastic Constant Matrix: (Units=GPa)
#
#
# Indices 1 2 3 4 5 6 
#
# 1 123.9761 14.5149 24.8005 0.0000 10.1778 0.0000
# 2 14.5149 58.1455 23.4206 0.0000 1.9521 0.0000
# 3 24.8005 23.4206 125.7380 0.0000 8.9961 0.0000
# 4 0.0000 0.0000 0.0000 15.0833 0.0000 7.6857
# 5 10.1778 1.9521 8.9961 0.0000 34.9215 0.0000
# 6 0.0000 0.0000 0.0000 7.6857 0.0000 40.1171
#
#
#
# Elastic Compliance Matrix: (Units=1/GPa)
#
#
# Indices 1 2 3 4 5 6 
#
# 1 0.008678 -0.001586 -0.001265 0.000000 -0.002115 0.000000
# 2 -0.001586 0.018884 -0.003222 0.000000 0.000236 0.000000
# 3 -0.001265 -0.003222 0.008928 0.000000 -0.001751 0.000000
# 4 0.000000 0.000000 0.000000 0.073471 0.000000 -0.014076
# 5 -0.002115 0.000236 -0.001751 0.000000 0.029690 0.000000
# 6 0.000000 0.000000 0.000000 -0.014076 0.000000 0.027624
#
#
# Mechanical properties :
#
#
# Convention : Reuss Voigt Hill
#
# Bulk Modulus (GPa) = 41.07568 48.14794 44.61181
# Shear Modulus (GPa) = 26.66175 34.36594 30.51384
#
# Velocity S-wave (km/s) = 3.45474 3.92225 3.69589
# Velocity P-wave (km/s) = 5.85673 6.48580 6.17927
#
# Compressibility (1/GPa) = 0.02434531
#
# Stress axis : x y z
#
# Youngs Moduli (GPa) = 115.22842 52.95551 112.00836
#
# Poissons Ratio (x) = 0.08398 0.14169
# Poissons Ratio (y) = 0.18273 0.36084
# Poissons Ratio (z) = 0.14577 0.17060
#
# Static dielectric constant tensor:
#      x y z
#    x 4.111280 0.000000 0.108730 
#    y 0.000000 4.194600 0.000000 
#    z 0.108730 0.000000 4.445140 
# 
# 
# High freq. dielectric constant tensor:
#      x y z
#    x 1.888450 0.000000 0.018190 
#    y 0.000000 1.854020 0.000000 
#    z 0.018190 0.000000 1.903940 
# 
# From -- ./inp_files/33492.got.cif
#   From: 2010.06.25/outbox.cif.g09.slc.cpg/sg15_17_cif.got.tgz:33492.got - 2010.06.28 07:06:18.
