data_PCOD8152861
_publ_section_title
;
Structure prediction by ZEFSAII (Michael W. Deem and Ramdas Pophale) SiO2 
 PCOD8152861
Probable space group: C 2/C
;
_chemical_formula_sum "Si O2"
_cell_formula_units_Z 48
_cell_length_a 15.732042
_cell_length_b 21.425168
_cell_length_c 14.014706
_cell_angle_alpha 90.000000
_cell_angle_beta 151.518828
_cell_angle_gamma 90.000000
_cell_volume 2252.647706
_symmetry_space_group_name_H-M "C 2/C"
_symmetry_group_IT_number 15
_symmetry_cell_setting 'monoclinic'
loop_
_space_group_symop_operation_xyz
x,y,z
-x,y,1/2-z
-x,-y,-z
x,-y,1/2+z
1/2+x,1/2+y,z
1/2-x,1/2+y,1/2-z
1/2-x,1/2-y,-z
1/2+x,1/2-y,1/2+z
loop_
_atom_site_type_symbol
_atom_site_label
_atom_site_fract_x
_atom_site_fract_y
_atom_site_fract_z
Si Si1 0.639708 0.103704 0.505472
Si Si2 0.561229 0.705106 0.709884
Si Si3 0.832777 0.920362 0.771420
Si Si4 0.694194 0.169322 0.273207
Si Si5 0.709499 0.511515 0.453237
Si Si6 0.778948 0.047895 0.828270
O O1 0.437129 0.127364 0.290738
O O2 0.678580 0.047353 0.472875
O O3 0.650527 0.084845 0.629020
O O4 0.772483 0.159955 0.612486
O O5 0.500000 0.735651 0.750000
O O6 0.617668 0.760344 0.692839
O O7 0.393359 0.665199 0.510074
O O8 0.716737 0.860867 0.690584
O O9 0.769349 0.932506 0.601243
O O10 0.805763 0.979446 0.812912
O O11 0.045149 0.909292 0.986425
O O12 0.500000 0.492065 0.250000
O O13 0.794339 0.535370 0.636723
#
# Coordination Sequence:
#
# PCOD8152861 Si02
#       6
#     8   8   8   8   8   8
#     4  11  23  39  65  93 129 167 206 257 308 370
#     4  12  26  42  61  91 126 168 211 255 311 361
#     4   9  19  35  60  90 127 163 203 256 314 367
#     4  12  25  41  62  91 125 166 210 257 304 373
#     4   9  19  36  63  95 127 166 204 252 316 373
#     4   9  18  37  62  92 127 164 201 254 316 374
#
# _framework density 21.308257999999999
#
# number of rings (size 3 to 8) (size 9 to 14) (size 15 to 20)
#    0.000    1.667    3.333    2.000    2.333    2.667 
#    0.000    2.500    0.000    1.000    4.333    0.000 
#    0.000    0.000    0.000    0.000    0.000    0.000 
#
# Total GULP energy -297457.745248 kJ/mol
# GULP energy per Si atom -12394.072719 kJ/mol
# Density = 2.125976 g / cm^3
# Si number density = 21.308258 Si / 1000 Ang^3
#
#
#
# Elastic Constant Matrix: (Units=GPa)
#
#
# Indices 1 2 3 4 5 6 
#
# 1 134.2936 50.6601 29.3864 0.0000 -4.6374 0.0000
# 2 50.6601 81.9887 21.1334 0.0000 13.2344 0.0000
# 3 29.3864 21.1334 65.7531 0.0000 19.3688 0.0000
# 4 0.0000 0.0000 0.0000 24.5696 0.0000 12.4750
# 5 -4.6374 13.2344 19.3688 0.0000 29.9760 0.0000
# 6 0.0000 0.0000 0.0000 12.4750 0.0000 42.6259
#
#
#
# Elastic Compliance Matrix: (Units=1/GPa)
#
#
# Indices 1 2 3 4 5 6 
#
# 1 0.011609 -0.007148 -0.005372 0.000000 0.008423 0.000000
# 2 -0.007148 0.018068 0.000078 0.000000 -0.009133 0.000000
# 3 -0.005372 0.000078 0.022033 0.000000 -0.015102 0.000000
# 4 0.000000 0.000000 0.000000 0.047804 0.000000 -0.013991
# 5 0.008423 -0.009133 -0.015102 0.000000 0.048453 0.000000
# 6 0.000000 0.000000 0.000000 -0.013991 0.000000 0.027554
#
#
# Mechanical properties :
#
#
# Convention : Reuss Voigt Hill
#
# Bulk Modulus (GPa) = 37.27864 53.82168 45.55016
# Shear Modulus (GPa) = 23.88364 31.49133 27.68748
#
# Velocity S-wave (km/s) = 3.35156 3.84851 3.60860
# Velocity P-wave (km/s) = 5.70177 6.71278 6.22783
#
# Compressibility (1/GPa) = 0.02682502
#
# Stress axis : x y z
#
# Youngs Moduli (GPa) = 86.13777 55.34723 45.38688
#
# Poissons Ratio (x) = 0.39563 0.24382
# Poissons Ratio (y) = 0.61573 -0.00354
# Poissons Ratio (z) = 0.46274 -0.00431
#
# Static dielectric constant tensor:
#      x y z
#    x 4.161180 0.000000 0.042900 
#    y 0.000000 3.644280 0.000000 
#    z 0.042900 0.000000 3.909520 
# 
# 
# High freq. dielectric constant tensor:
#      x y z
#    x 1.834560 0.000000 0.011600 
#    y 0.000000 1.809690 0.000000 
#    z 0.011600 0.000000 1.839180 
# 
# From -- ./inp_files/156842.got.cif
#   From: 2010.06.25/outbox.cif.g09.slc.cpg/sg15_79_cif.got.tgz:156842.got - 2010.06.28 07:06:18.
