data_PCOD8152090
_publ_section_title
;
Structure prediction by ZEFSAII (Michael W. Deem and Ramdas Pophale) SiO2 
 PCOD8152090
Probable space group: C 2/C
;
_chemical_formula_sum "Si O2"
_cell_formula_units_Z 56
_cell_length_a 17.792446
_cell_length_b 11.088775
_cell_length_c 15.587971
_cell_angle_alpha 90.000000
_cell_angle_beta 116.477258
_cell_angle_gamma 90.000000
_cell_volume 2752.871273
_symmetry_space_group_name_H-M "C 2/C"
_symmetry_group_IT_number 15
_symmetry_cell_setting 'monoclinic'
loop_
_space_group_symop_operation_xyz
x,y,z
-x,y,1/2-z
-x,-y,-z
x,-y,1/2+z
1/2+x,1/2+y,z
1/2-x,1/2+y,1/2-z
1/2-x,1/2-y,-z
1/2+x,1/2-y,1/2+z
loop_
_atom_site_type_symbol
_atom_site_label
_atom_site_fract_x
_atom_site_fract_y
_atom_site_fract_z
Si Si1 0.013397 0.631263 0.463518
Si Si2 0.347249 0.256110 0.069009
Si Si3 0.675814 0.525992 0.450151
Si Si4 0.253507 0.167946 0.345064
Si Si5 0.369337 0.872579 0.755121
Si Si6 0.908769 0.743383 0.538734
Si Si7 0.332659 0.897213 0.143271
O O1 0.105187 0.664094 0.472509
O O2 0.000000 0.500000 0.500000
O O3 0.950100 0.654926 0.353283
O O4 0.995311 0.726738 0.530853
O O5 0.370005 0.396783 0.068390
O O6 0.366964 0.222610 0.176872
O O7 0.250000 0.250000 0.000000
O O8 0.703398 0.559202 0.366530
O O9 0.603156 0.617837 0.442583
O O10 0.756786 0.536844 0.553499
O O11 0.282141 0.132103 0.264297
O O12 0.333637 0.197773 0.441944
O O13 0.198644 0.288999 0.312218
O O14 0.379464 0.007192 0.725768
O O15 0.904994 0.656019 0.618867
#
# Coordination Sequence:
#
# PCOD8152090 Si02
#       7
#     8   8   8   8   8   8   8
#     4  11  25  42  63  90 125 170 211 260 321 378
#     4  12  25  38  61  94 127 163 208 263 320 376
#     4   9  18  37  60  87 124 158 207 258 313 372
#     4   8  18  31  57  88 119 161 205 253 311 375
#     4  11  22  36  60  88 128 162 207 260 316 375
#     4   8  17  37  61  82 115 167 205 247 317 376
#     4   9  16  34  60  90 118 161 208 254 309 380
#
# _framework density 20.342396000000001
#
# number of rings (size 3 to 8) (size 9 to 14) (size 15 to 20)
#    0.000    2.286    1.429    3.000    6.000    0.571 
#    0.000    0.000    0.000    6.857    0.000    0.000 
#    0.000    0.000    0.000    0.000    0.000    0.000 
#
# Total GULP energy -347028.614323 kJ/mol
# GULP energy per Si atom -12393.879083 kJ/mol
# Density = 2.029610 g / cm^3
# Si number density = 20.342396 Si / 1000 Ang^3
#
#
#
# Elastic Constant Matrix: (Units=GPa)
#
#
# Indices 1 2 3 4 5 6 
#
# 1 132.1811 53.0861 46.1110 0.0000 -25.5617 0.0000
# 2 53.0861 138.7067 38.5682 0.0000 -19.4949 0.0000
# 3 46.1110 38.5682 62.6191 0.0000 -17.1281 0.0000
# 4 0.0000 0.0000 0.0000 21.4198 0.0000 -0.1951
# 5 -25.5617 -19.4949 -17.1281 0.0000 29.1135 0.0000
# 6 0.0000 0.0000 0.0000 -0.1951 0.0000 24.0683
#
#
#
# Elastic Compliance Matrix: (Units=1/GPa)
#
#
# Indices 1 2 3 4 5 6 
#
# 1 0.011389 -0.002034 -0.005686 0.000000 0.005292 0.000000
# 2 -0.002034 0.009318 -0.003603 0.000000 0.002334 0.000000
# 3 -0.005686 -0.003603 0.024253 0.000000 0.006864 0.000000
# 4 0.000000 0.000000 0.000000 0.046689 0.000000 0.000378
# 5 0.005292 0.002334 0.006864 0.000000 0.044596 0.000000
# 6 0.000000 0.000000 0.000000 0.000378 0.000000 0.041552
#
#
# Mechanical properties :
#
#
# Convention : Reuss Voigt Hill
#
# Bulk Modulus (GPa) = 44.81492 67.67081 56.24286
# Shear Modulus (GPa) = 24.05217 27.96977 26.01097
#
# Velocity S-wave (km/s) = 3.44229 3.71205 3.57971
# Velocity P-wave (km/s) = 6.15445 7.19101 6.69283
#
# Compressibility (1/GPa) = 0.02231400
#
# Stress axis : x y z
#
# Youngs Moduli (GPa) = 87.80059 107.32258 41.23146
#
# Poissons Ratio (x) = 0.21829 0.23446
# Poissons Ratio (y) = 0.17859 0.14855
# Poissons Ratio (z) = 0.49927 0.38666
#
# Static dielectric constant tensor:
#      x y z
#    x 4.439720 0.000000 -0.598510 
#    y 0.000000 3.983120 0.000000 
#    z -0.598510 0.000000 3.564250 
# 
# 
# High freq. dielectric constant tensor:
#      x y z
#    x 1.790730 0.000000 -0.026050 
#    y 0.000000 1.798550 0.000000 
#    z -0.026050 0.000000 1.772640 
# 
# From -- ./inp_files/161427.got.cif
#   From: 2010.06.25/outbox.cif.g09.slc.cpg/sg15_81_cif.got.tgz:161427.got - 2010.06.28 07:06:18.
