data_PCOD8152106
_publ_section_title
;
Structure prediction by ZEFSAII (Michael W. Deem and Ramdas Pophale) SiO2 
 PCOD8152106
Probable space group: C 2/C
;
_chemical_formula_sum "Si O2"
_cell_formula_units_Z 48
_cell_length_a 27.586741
_cell_length_b 12.586282
_cell_length_c 22.275237
_cell_angle_alpha 90.000000
_cell_angle_beta 161.405379
_cell_angle_gamma 90.000000
_cell_volume 2466.234112
_symmetry_space_group_name_H-M "C 2/C"
_symmetry_group_IT_number 15
_symmetry_cell_setting 'monoclinic'
loop_
_space_group_symop_operation_xyz
x,y,z
-x,y,1/2-z
-x,-y,-z
x,-y,1/2+z
1/2+x,1/2+y,z
1/2-x,1/2+y,1/2-z
1/2-x,1/2-y,-z
1/2+x,1/2-y,1/2+z
loop_
_atom_site_type_symbol
_atom_site_label
_atom_site_fract_x
_atom_site_fract_y
_atom_site_fract_z
Si Si1 0.395915 0.844508 0.362583
Si Si2 0.092695 0.552057 0.193445
Si Si3 0.919030 0.148946 0.947175
Si Si4 0.103176 0.166503 0.926176
Si Si5 0.604849 0.918000 0.927061
Si Si6 0.934864 0.058414 0.834315
O O1 0.531688 0.882278 0.565158
O O2 0.245598 0.813065 0.223249
O O3 0.457657 0.742028 0.399491
O O4 0.355959 0.935360 0.267475
O O5 0.232458 0.613212 0.388054
O O6 0.960771 0.539936 0.087406
O O7 0.906952 0.119463 0.863461
O O8 0.971041 0.049000 0.047468
O O9 0.122767 0.291766 0.946753
O O10 0.000000 0.125669 0.750000
O O11 0.029450 0.136285 0.902893
O O12 0.500000 0.959093 0.750000
O O13 0.771290 0.968960 0.113766
#
# Coordination Sequence:
#
# PCOD8152106 Si02
#       6
#     8   8   8   8   8   8
#     4  11  24  39  63  89 118 156 196 244 295 346
#     4  11  23  39  59  90 124 153 193 243 296 349
#     4  11  24  39  63  89 118 156 196 244 295 346
#     4  11  22  39  61  87 121 159 197 240 292 351
#     4  11  22  37  61  91 119 157 195 238 294 355
#     4  11  23  39  59  90 124 153 193 243 296 349
#
# _framework density 19.462872999999998
#
# number of rings (size 3 to 8) (size 9 to 14) (size 15 to 20)
#    0.000    1.000    3.333    4.000    4.667    2.667 
#    0.000    0.000    0.000    6.000    0.000    0.000 
#    0.000    0.000    0.000    0.000    0.000    0.000 
#
# Total GULP energy -297776.967617 kJ/mol
# GULP energy per Si atom -12407.373651 kJ/mol
# Density = 1.941857 g / cm^3
# Si number density = 19.462873 Si / 1000 Ang^3
#
#
#
# Elastic Constant Matrix: (Units=GPa)
#
#
# Indices 1 2 3 4 5 6 
#
# 1 48.6799 25.0457 13.1552 -0.0004 9.4650 -0.0016
# 2 25.0457 60.5382 22.2305 -0.0043 2.5228 -0.0071
# 3 13.1552 22.2305 101.6827 -0.0043 8.1699 -0.0093
# 4 -0.0004 -0.0043 -0.0043 23.7755 -0.0013 8.6611
# 5 9.4650 2.5228 8.1699 -0.0013 40.4639 -0.0029
# 6 -0.0016 -0.0071 -0.0093 8.6611 -0.0029 28.6121
#
#
#
# Elastic Compliance Matrix: (Units=1/GPa)
#
#
# Indices 1 2 3 4 5 6 
#
# 1 0.027400 -0.010836 -0.000727 -0.000001 -0.005587 -0.000002
# 2 -0.010836 0.022250 -0.003613 0.000002 0.001877 0.000003
# 3 -0.000727 -0.003613 0.010863 0.000000 -0.001798 0.000002
# 4 -0.000001 0.000002 0.000000 0.047273 0.000001 -0.014310
# 5 -0.005587 0.001877 -0.001798 0.000001 0.026266 0.000002
# 6 -0.000002 0.000003 0.000002 -0.014310 0.000002 0.039282
#
#
# Mechanical properties :
#
#
# Convention : Reuss Voigt Hill
#
# Bulk Modulus (GPa) = 33.15590 36.86260 35.00925
# Shear Modulus (GPa) = 23.39275 28.60160 25.99717
#
# Velocity S-wave (km/s) = 3.47063 3.83763 3.65873
# Velocity P-wave (km/s) = 5.75611 6.21430 5.98959
#
# Compressibility (1/GPa) = 0.03016054
#
# Stress axis : x y z
#
# Youngs Moduli (GPa) = 36.49597 44.94327 92.05560
#
# Poissons Ratio (x) = 0.48701 0.06692
# Poissons Ratio (y) = 0.39548 0.33263
# Poissons Ratio (z) = 0.02653 0.16240
#
# Static dielectric constant tensor:
#      x y z
#    x 3.545530 0.000000 0.052550 
#    y 0.000000 3.422430 0.000000 
#    z 0.052550 0.000000 3.705660 
# 
# 
# High freq. dielectric constant tensor:
#      x y z
#    x 1.760180 0.000000 0.015470 
#    y 0.000000 1.740610 0.000000 
#    z 0.015470 0.000000 1.768290 
# 
# From -- ./inp_files/252621.got.cif
#   From: 2010.06.25/outbox.cif.g09.slc.cpg/sg15_127_cif.got.tgz:252621.got - 2010.06.28 07:06:18.
