data_PCOD8152638
_publ_section_title
;
Structure prediction by ZEFSAII (Michael W. Deem and Ramdas Pophale) SiO2 
 PCOD8152638
Probable space group: C 2/C
;
_chemical_formula_sum "Si O2"
_cell_formula_units_Z 48
_cell_length_a 13.098583
_cell_length_b 26.573645
_cell_length_c 10.718452
_cell_angle_alpha 90.000000
_cell_angle_beta 35.178599
_cell_angle_gamma 90.000000
_cell_volume 2149.442269
_symmetry_space_group_name_H-M "C 2/C"
_symmetry_group_IT_number 15
_symmetry_cell_setting 'monoclinic'
loop_
_space_group_symop_operation_xyz
x,y,z
-x,y,1/2-z
-x,-y,-z
x,-y,1/2+z
1/2+x,1/2+y,z
1/2-x,1/2+y,1/2-z
1/2-x,1/2-y,-z
1/2+x,1/2-y,1/2+z
loop_
_atom_site_type_symbol
_atom_site_label
_atom_site_fract_x
_atom_site_fract_y
_atom_site_fract_z
Si Si1 0.198022 0.462755 0.578147
Si Si2 0.931355 0.869001 0.685781
Si Si3 0.678892 0.475443 0.782496
Si Si4 0.148808 0.697191 0.373021
Si Si5 0.263010 0.310755 0.247759
Si Si6 0.207163 0.647873 0.061706
O O1 0.199948 0.486230 0.716396
O O2 0.263797 0.501206 0.406820
O O3 0.296399 0.408160 0.472488
O O4 0.000000 0.449409 0.750000
O O5 0.839161 0.915830 0.710743
O O6 0.774883 0.826714 0.854695
O O7 0.000000 0.886795 0.750000
O O8 0.110964 0.852105 0.438405
O O9 0.500000 0.500000 0.000000
O O10 0.162087 0.756916 0.367051
O O11 0.245984 0.676704 0.151480
O O12 0.942167 0.681310 0.590831
O O13 0.286131 0.317711 0.372916
O O14 0.000000 0.643488 0.250000
#
# Coordination Sequence:
#
# PCOD8152638 Si02
#       6
#     8   8   8   8   8   8
#     4  11  23  44  72 103 142 180 231 289 353 416
#     4  12  27  46  66  97 138 181 239 281 341 417
#     4  12  25  46  70 102 139 184 235 290 350 419
#     4  11  22  44  66 102 136 176 227 281 342 411
#     4  11  23  42  70  99 137 179 224 285 344 405
#     4   9  20  38  68 102 135 170 219 278 346 413
#
# _framework density 22.331374
#
# number of rings (size 3 to 8) (size 9 to 14) (size 15 to 20)
#    0.000    1.000    3.333    3.500    0.000    2.000 
#    6.000    0.000    0.000    0.000    0.000    0.000 
#    0.000    0.000    0.000    0.000    0.000    0.000 
#
# Total GULP energy -297450.991438 kJ/mol
# GULP energy per Si atom -12393.791310 kJ/mol
# Density = 2.228055 g / cm^3
# Si number density = 22.331374 Si / 1000 Ang^3
#
#
#
# Elastic Constant Matrix: (Units=GPa)
#
#
# Indices 1 2 3 4 5 6 
#
# 1 117.7282 15.6734 21.7029 0.0000 12.4660 0.0000
# 2 15.6734 102.2441 25.7627 0.0000 12.2866 0.0000
# 3 21.7029 25.7627 91.7794 0.0000 3.0087 0.0000
# 4 0.0000 0.0000 0.0000 34.0678 0.0000 3.2575
# 5 12.4660 12.2866 3.0087 0.0000 32.4163 0.0000
# 6 0.0000 0.0000 0.0000 3.2575 0.0000 30.5752
#
#
#
# Elastic Compliance Matrix: (Units=1/GPa)
#
#
# Indices 1 2 3 4 5 6 
#
# 1 0.009259 -0.000552 -0.001931 0.000000 -0.003173 0.000000
# 2 -0.000552 0.011027 -0.002843 0.000000 -0.003703 0.000000
# 3 -0.001931 -0.002843 0.012128 0.000000 0.000695 0.000000
# 4 0.000000 0.000000 0.000000 0.029655 0.000000 -0.003160
# 5 -0.003173 -0.003703 0.000695 0.000000 0.033408 0.000000
# 6 0.000000 0.000000 0.000000 -0.003160 0.000000 0.033043
#
#
# Mechanical properties :
#
#
# Convention : Reuss Voigt Hill
#
# Bulk Modulus (GPa) = 45.95135 48.66998 47.31066
# Shear Modulus (GPa) = 34.14714 35.98604 35.06659
#
# Velocity S-wave (km/s) = 3.91463 4.01865 3.96698
# Velocity P-wave (km/s) = 6.40735 6.58593 6.49725
#
# Compressibility (1/GPa) = 0.02176215
#
# Stress axis : x y z
#
# Youngs Moduli (GPa) = 107.99790 90.69025 82.45650
#
# Poissons Ratio (x) = 0.05003 0.15920
# Poissons Ratio (y) = 0.05958 0.23445
# Poissons Ratio (z) = 0.20851 0.25786
#
# Static dielectric constant tensor:
#      x y z
#    x 4.307000 0.000000 0.068120 
#    y 0.000000 3.737070 0.000000 
#    z 0.068120 0.000000 3.975310 
# 
# 
# High freq. dielectric constant tensor:
#      x y z
#    x 1.890900 0.000000 -0.005330 
#    y 0.000000 1.884790 0.000000 
#    z -0.005330 0.000000 1.870440 
# 
# From -- ./inp_files/101242.got.cif
#   From: 2010.06.25/outbox.cif.g09.slc.cpg/sg15_51_cif.got.tgz:101242.got - 2010.06.28 07:06:18.
