data_PCOD8152824
_publ_section_title
;
Structure prediction by ZEFSAII (Michael W. Deem and Ramdas Pophale) SiO2 
 PCOD8152824
Probable space group: C 2/C
;
_chemical_formula_sum "Si O2"
_cell_formula_units_Z 48
_cell_length_a 15.228012
_cell_length_b 23.466976
_cell_length_c 8.899681
_cell_angle_alpha 90.000000
_cell_angle_beta 140.474381
_cell_angle_gamma 90.000000
_cell_volume 2024.047813
_symmetry_space_group_name_H-M "C 2/C"
_symmetry_group_IT_number 15
_symmetry_cell_setting 'monoclinic'
loop_
_space_group_symop_operation_xyz
x,y,z
-x,y,1/2-z
-x,-y,-z
x,-y,1/2+z
1/2+x,1/2+y,z
1/2-x,1/2+y,1/2-z
1/2-x,1/2-y,-z
1/2+x,1/2-y,1/2+z
loop_
_atom_site_type_symbol
_atom_site_label
_atom_site_fract_x
_atom_site_fract_y
_atom_site_fract_z
Si Si1 0.954357 0.237508 0.349660
Si Si2 0.867752 0.644826 0.855398
Si Si3 0.140177 0.088364 0.003291
Si Si4 0.862477 0.878912 0.664036
Si Si5 0.192541 0.190136 0.870991
Si Si6 0.064665 0.448713 0.674623
O O1 0.889689 0.288405 0.356511
O O2 0.842516 0.188424 0.171362
O O3 0.000000 0.263268 0.250000
O O4 0.073762 0.203200 0.594600
O O5 0.771401 0.608653 0.614346
O O6 0.801546 0.647220 0.934797
O O7 0.013742 0.612667 0.044296
O O8 0.137849 0.085559 0.181702
O O9 0.269078 0.050991 0.114452
O O10 0.143109 0.154383 0.950767
O O11 0.000000 0.060369 0.750000
O O12 0.000000 0.892280 0.750000
O O13 0.250000 0.250000 0.000000
O O14 0.000000 0.457529 0.750000
O O15 0.000000 0.500000 0.500000
#
# Coordination Sequence:
#
# PCOD8152824 Si02
#       6
#     8   8   8   8   8   8
#     4  11  23  37  62 107 152 198 247 289 356 456
#     4  12  25  44  70 101 152 202 241 303 377 437
#     4  12  25  48  79 108 145 198 245 307 380 447
#     4  11  23  43  68 110 154 196 244 291 357 452
#     4  12  24  39  66 107 154 198 242 300 364 454
#     4  12  31  55  79 109 144 187 256 323 377 438
#
# _framework density 23.714856000000001
#
# number of rings (size 3 to 8) (size 9 to 14) (size 15 to 20)
#    0.000    0.333    6.667    2.500    7.000    0.000 
#    0.000    1.667    0.000    0.000    0.000    0.000 
#    0.000    0.000    0.000    0.000    0.000    0.000 
#
# Total GULP energy -297568.994831 kJ/mol
# GULP energy per Si atom -12398.708118 kJ/mol
# Density = 2.366088 g / cm^3
# Si number density = 23.714856 Si / 1000 Ang^3
#
#
#
# Elastic Constant Matrix: (Units=GPa)
#
#
# Indices 1 2 3 4 5 6 
#
# 1 145.6051 30.8062 59.4821 0.0000 -2.2250 0.0000
# 2 30.8062 50.8117 29.6108 0.0000 6.8215 0.0000
# 3 59.4821 29.6108 127.2404 0.0000 11.7562 0.0000
# 4 0.0000 0.0000 0.0000 27.4520 0.0000 3.9173
# 5 -2.2250 6.8215 11.7562 0.0000 48.7962 0.0000
# 6 0.0000 0.0000 0.0000 3.9173 0.0000 0.2190
#
#
#
# Elastic Compliance Matrix: (Units=1/GPa)
#
#
# Indices 1 2 3 4 5 6 
#
# 1 0.009139 -0.003697 -0.003578 0.000000 0.001796 0.000000
# 2 -0.003697 0.024447 -0.003712 0.000000 -0.002692 0.000000
# 3 -0.003578 -0.003712 0.010599 0.000000 -0.002198 0.000000
# 4 0.000000 0.000000 0.000000 -0.023466 0.000000 0.419724
# 5 0.001796 -0.002692 -0.002198 0.000000 0.021481 0.000000
# 6 0.000000 0.000000 0.000000 0.419724 0.000000 -2.941383
#
#
# Mechanical properties :
#
#
# Convention : Reuss Voigt Hill
#
# Bulk Modulus (GPa) = 45.02399 62.60615 53.81507
# Shear Modulus (GPa) = -1.74228 28.87730 13.56751
#
# Velocity S-wave (km/s) = -0.85806 3.49332 2.39448
# Velocity P-wave (km/s) = 4.24795 6.53666 5.51240
#
# Compressibility (1/GPa) = 0.02221038
#
# Stress axis : x y z
#
# Youngs Moduli (GPa) = 109.41956 40.90560 94.35144
#
# Poissons Ratio (x) = 0.15122 0.33758
# Poissons Ratio (y) = 0.40451 0.35025
# Poissons Ratio (z) = 0.39149 0.15185
#
# Static dielectric constant tensor:
#      x y z
#    x 4.420080 0.000000 -0.282870 
#    y 0.000000 3.919590 0.000000 
#    z -0.282870 0.000000 5.197550 
# 
# 
# High freq. dielectric constant tensor:
#      x y z
#    x 1.948820 0.000000 -0.006910 
#    y 0.000000 1.907000 0.000000 
#    z -0.006910 0.000000 1.959200 
# 
# From -- ./inp_files/43961.got.cif
#   From: 2010.06.25/outbox.cif.g09.slc.cpg/sg15_22_cif.got.tgz:43961.got - 2010.06.28 07:06:18.
