data_PCOD8152804
_publ_section_title
;
Structure prediction by ZEFSAII (Michael W. Deem and Ramdas Pophale) SiO2 
 PCOD8152804
Probable space group: C 2/C
;
_chemical_formula_sum "Si O2"
_cell_formula_units_Z 44
_cell_length_a 16.496865
_cell_length_b 14.865750
_cell_length_c 9.024625
_cell_angle_alpha 90.000000
_cell_angle_beta 55.283381
_cell_angle_gamma 90.000000
_cell_volume 1819.190045
_symmetry_space_group_name_H-M "C 2/C"
_symmetry_group_IT_number 15
_symmetry_cell_setting 'monoclinic'
loop_
_space_group_symop_operation_xyz
x,y,z
-x,y,1/2-z
-x,-y,-z
x,-y,1/2+z
1/2+x,1/2+y,z
1/2-x,1/2+y,1/2-z
1/2-x,1/2-y,-z
1/2+x,1/2-y,1/2+z
loop_
_atom_site_type_symbol
_atom_site_label
_atom_site_fract_x
_atom_site_fract_y
_atom_site_fract_z
Si Si1 0.316744 0.282877 0.763403
Si Si2 0.000000 0.182603 0.250000
Si Si3 0.603825 0.074827 0.201129
Si Si4 0.280159 0.031971 0.149861
Si Si5 0.609937 0.715844 0.640205
Si Si6 0.830585 0.128829 0.626340
O O1 0.421414 0.259317 0.735004
O O2 0.275187 0.380235 0.858016
O O3 0.331453 0.295677 0.573019
O O4 0.241573 0.201564 0.881532
O O5 0.936096 0.124258 0.433236
O O6 0.500000 0.036604 0.250000
O O7 0.622497 0.056347 0.355581
O O8 0.607769 0.180441 0.181140
O O9 0.689722 0.027665 0.020099
O O10 0.209604 0.972431 0.329717
O O11 0.500000 0.676374 0.750000
O O12 0.665457 0.661545 0.708881
#
# Coordination Sequence:
#
# PCOD8152804 Si02
#       6
#     8   4   8   8   8   8
#     4  12  25  49  72 102 144 186 234 294 342 426
#     4  12  28  44  68 110 146 186 226 284 374 400
#     4  11  24  45  73 107 136 183 236 297 347 416
#     4  12  25  45  72 104 142 184 234 284 358 410
#     4  11  22  48  79  97 133 190 245 280 346 415
#     4  12  25  49  72 102 144 186 234 294 342 426
#
# _framework density 24.186586999999999
#
# number of rings (size 3 to 8) (size 9 to 14) (size 15 to 20)
#    0.000    0.364    5.455    3.818    0.000    0.727 
#    9.818    0.000    0.000    0.000    0.000    0.000 
#    0.000    0.000    0.000    0.000    0.000    0.000 
#
# Total GULP energy -272820.568377 kJ/mol
# GULP energy per Si atom -12400.934926 kJ/mol
# Density = 2.413154 g / cm^3
# Si number density = 24.186587 Si / 1000 Ang^3
#
#
#
# Elastic Constant Matrix: (Units=GPa)
#
#
# Indices 1 2 3 4 5 6 
#
# 1 154.4855 39.8398 18.7493 0.0000 0.8967 0.0000
# 2 39.8398 107.4013 15.4923 0.0000 -7.3497 0.0000
# 3 18.7493 15.4923 88.1008 0.0000 -11.9760 0.0000
# 4 0.0000 0.0000 0.0000 44.8910 0.0000 9.2318
# 5 0.8967 -7.3497 -11.9760 0.0000 44.8448 0.0000
# 6 0.0000 0.0000 0.0000 9.2318 0.0000 30.8202
#
#
#
# Elastic Compliance Matrix: (Units=1/GPa)
#
#
# Indices 1 2 3 4 5 6 
#
# 1 0.007294 -0.002591 -0.001218 0.000000 -0.000896 0.000000
# 2 -0.002591 0.010532 -0.001099 0.000000 0.001485 0.000000
# 3 -0.001218 -0.001099 0.012226 0.000000 0.003109 0.000000
# 4 0.000000 0.000000 0.000000 0.023738 0.000000 -0.007111
# 5 -0.000896 0.001485 0.003109 0.000000 0.023391 0.000000
# 6 0.000000 0.000000 0.000000 -0.007111 0.000000 0.034576
#
#
# Mechanical properties :
#
#
# Convention : Reuss Voigt Hill
#
# Bulk Modulus (GPa) = 49.41882 55.35003 52.38442
# Shear Modulus (GPa) = 38.96505 42.50496 40.73500
#
# Velocity S-wave (km/s) = 4.01810 4.19666 4.10835
# Velocity P-wave (km/s) = 6.48102 6.81299 6.64908
#
# Compressibility (1/GPa) = 0.02023521
#
# Stress axis : x y z
#
# Youngs Moduli (GPa) = 137.09025 94.94682 81.79414
#
# Poissons Ratio (x) = 0.24604 0.09966
# Poissons Ratio (y) = 0.35525 0.08987
# Poissons Ratio (z) = 0.16704 0.10433
#
# Static dielectric constant tensor:
#      x y z
#    x 4.800690 0.000000 0.032930 
#    y 0.000000 4.114340 0.000000 
#    z 0.032930 0.000000 4.314270 
# 
# 
# High freq. dielectric constant tensor:
#      x y z
#    x 1.979690 0.000000 0.012960 
#    y 0.000000 1.939440 0.000000 
#    z 0.012960 0.000000 1.977800 
# 
# From -- ./inp_files/47422.got.cif
#   From: 2010.06.25/outbox.cif.g09.slc.cpg/sg15_24_cif.got.tgz:47422.got - 2010.06.28 07:06:18.
