data_PCOD8152669
_publ_section_title
;
Structure prediction by ZEFSAII (Michael W. Deem and Ramdas Pophale) SiO2 
 PCOD8152669
Probable space group: C 2/C
;
_chemical_formula_sum "Si O2"
_cell_formula_units_Z 44
_cell_length_a 16.855728
_cell_length_b 10.475475
_cell_length_c 12.991399
_cell_angle_alpha 90.000000
_cell_angle_beta 61.086016
_cell_angle_gamma 90.000000
_cell_volume 2007.969833
_symmetry_space_group_name_H-M "C 2/C"
_symmetry_group_IT_number 15
_symmetry_cell_setting 'monoclinic'
loop_
_space_group_symop_operation_xyz
x,y,z
-x,y,1/2-z
-x,-y,-z
x,-y,1/2+z
1/2+x,1/2+y,z
1/2-x,1/2+y,1/2-z
1/2-x,1/2-y,-z
1/2+x,1/2-y,1/2+z
loop_
_atom_site_type_symbol
_atom_site_label
_atom_site_fract_x
_atom_site_fract_y
_atom_site_fract_z
Si Si1 0.024807 0.363460 0.020432
Si Si2 0.227879 0.596956 0.344060
Si Si3 0.868753 0.940595 0.918940
Si Si4 0.510762 0.669258 0.854198
Si Si5 0.500000 0.759129 0.250000
Si Si6 0.204296 0.870379 0.314958
O O1 0.982041 0.343820 0.159918
O O2 0.132737 0.360879 0.951671
O O3 0.000000 0.500000 0.000000
O O4 0.984166 0.259697 0.965953
O O5 0.283935 0.527970 0.399764
O O6 0.258959 0.734246 0.274857
O O7 0.227161 0.486483 0.257039
O O8 0.913378 0.825921 0.827908
O O9 0.941671 0.050594 0.895230
O O10 0.831512 0.890635 0.048566
O O11 0.500000 0.740204 0.750000
O O12 0.615202 0.623409 0.797139
#
# Coordination Sequence:
#
# PCOD8152669 Si02
#       6
#     8   8   8   8   4   8
#     4  11  29  46  69 105 148 195 230 301 376 435
#     4  11  25  45  68 105 139 186 240 298 365 429
#     4  12  23  42  74 104 133 185 249 300 352 425
#     4  11  22  44  70 105 138 185 247 294 357 432
#     4  12  24  44  74  98 142 182 244 288 362 430
#     4  11  24  43  69 104 146 184 239 303 362 437
#
# _framework density 21.912678
#
# number of rings (size 3 to 8) (size 9 to 14) (size 15 to 20)
#    0.000    0.727    6.364    1.091    6.364    0.000 
#    3.273    1.818    0.000    0.000    0.000    0.000 
#    0.000    0.000    0.000    0.000    0.000    0.000 
#
# Total GULP energy -272591.889275 kJ/mol
# GULP energy per Si atom -12390.540422 kJ/mol
# Density = 2.186280 g / cm^3
# Si number density = 21.912678 Si / 1000 Ang^3
#
#
#
# Elastic Constant Matrix: (Units=GPa)
#
#
# Indices 1 2 3 4 5 6 
#
# 1 87.0870 48.9986 30.9247 0.0000 22.3674 0.0000
# 2 48.9986 161.6564 63.6731 0.0000 22.5010 0.0000
# 3 30.9247 63.6731 161.2469 0.0000 32.4762 0.0000
# 4 0.0000 0.0000 0.0000 22.9250 0.0000 38.3268
# 5 22.3674 22.5010 32.4762 0.0000 22.9661 0.0000
# 6 0.0000 0.0000 0.0000 38.3268 0.0000 -110.9120
#
#
#
# Elastic Compliance Matrix: (Units=1/GPa)
#
#
# Indices 1 2 3 4 5 6 
#
# 1 0.016776 -0.003498 0.001069 0.000000 -0.014422 0.000000
# 2 -0.003498 0.008374 -0.002334 0.000000 -0.001496 0.000000
# 3 0.001069 -0.002334 0.009323 0.000000 -0.011937 0.000000
# 4 0.000000 0.000000 0.000000 0.027648 0.000000 0.009554
# 5 -0.014422 -0.001496 -0.011937 0.000000 0.075935 0.000000
# 6 0.000000 0.000000 0.000000 0.009554 0.000000 -0.005715
#
#
# Mechanical properties :
#
#
# Convention : Reuss Voigt Hill
#
# Bulk Modulus (GPa) = 40.08882 77.46479 58.77681
# Shear Modulus (GPa) = 33.29270 4.75542 19.02406
#
# Velocity S-wave (km/s) = 3.90209 1.47475 2.94968
# Velocity P-wave (km/s) = 6.21581 6.19098 6.20341
#
# Compressibility (1/GPa) = 0.02494461
#
# Stress axis : x y z
#
# Youngs Moduli (GPa) = 59.60975 119.41623 107.26500
#
# Poissons Ratio (x) = 0.41776 -0.11465
# Poissons Ratio (y) = 0.20853 0.25041
# Poissons Ratio (z) = -0.06371 0.27878
#
# Static dielectric constant tensor:
#      x y z
#    x 4.049350 0.000000 -0.263030 
#    y 0.000000 4.344230 0.000000 
#    z -0.263030 0.000000 5.700210 
# 
# 
# High freq. dielectric constant tensor:
#      x y z
#    x 1.858320 0.000000 0.011080 
#    y 0.000000 1.866800 0.000000 
#    z 0.011080 0.000000 1.867260 
# 
# From -- ./inp_files/104085.got.cif
#   From: 2010.06.25/outbox.cif.g09.slc.cpg/sg15_53_cif.got.tgz:104085.got - 2010.06.28 07:06:18.
