data_PCOD8152451
_publ_section_title
;
Structure prediction by ZEFSAII (Michael W. Deem and Ramdas Pophale) SiO2 
 PCOD8152451
Probable space group: C 2/C
;
_chemical_formula_sum "Si O2"
_cell_formula_units_Z 48
_cell_length_a 11.004042
_cell_length_b 15.037941
_cell_length_c 14.627563
_cell_angle_alpha 90.000000
_cell_angle_beta 114.090762
_cell_angle_gamma 90.000000
_cell_volume 2209.712646
_symmetry_space_group_name_H-M "C 2/C"
_symmetry_group_IT_number 15
_symmetry_cell_setting 'monoclinic'
loop_
_space_group_symop_operation_xyz
x,y,z
-x,y,1/2-z
-x,-y,-z
x,-y,1/2+z
1/2+x,1/2+y,z
1/2-x,1/2+y,1/2-z
1/2-x,1/2-y,-z
1/2+x,1/2-y,1/2+z
loop_
_atom_site_type_symbol
_atom_site_label
_atom_site_fract_x
_atom_site_fract_y
_atom_site_fract_z
Si Si1 0.500000 0.464612 0.250000
Si Si2 0.238864 0.851312 0.263150
Si Si3 0.377535 0.601978 0.089212
Si Si4 0.652562 0.822272 0.647100
Si Si5 0.336898 0.068073 0.622264
Si Si6 0.498838 0.212641 0.925521
Si Si7 0.500000 0.076632 0.250000
O O1 0.626152 0.399830 0.286324
O O2 0.481237 0.527488 0.155492
O O3 0.182667 0.780143 0.174757
O O4 0.304316 0.926595 0.219976
O O5 0.342212 0.803820 0.363631
O O6 0.282031 0.629248 0.144581
O O7 0.462404 0.684798 0.077844
O O8 0.291920 0.558526 0.981382
O O9 0.533404 0.822166 0.537088
O O10 0.608031 0.864659 0.729234
O O11 0.417715 0.156385 0.621697
O O12 0.427994 0.980083 0.647253
#
# Coordination Sequence:
#
# PCOD8152451 Si02
#       7
#     4   8   8   8   8   8   4
#     4  12  29  39  64 102 140 174 212 287 339 380
#     4  12  23  46  64  99 137 175 220 276 331 396
#     4  11  23  45  71 100 126 178 232 271 317 394
#     4  11  24  44  68  98 135 178 224 261 337 403
#     4  11  22  41  72  99 131 170 225 276 324 388
#     4  11  22  43  77  95 124 181 231 271 312 399
#     4  12  25  39  64 106 142 174 206 277 341 392
#
# _framework density 21.722280999999999
#
# number of rings (size 3 to 8) (size 9 to 14) (size 15 to 20)
#    0.000    0.667    5.000    3.500    2.333    2.000 
#    3.000    1.667    0.000    0.000    0.000    0.000 
#    0.000    0.000    0.000    0.000    0.000    0.000 
#
# Total GULP energy -297654.702523 kJ/mol
# GULP energy per Si atom -12402.279272 kJ/mol
# Density = 2.167284 g / cm^3
# Si number density = 21.722281 Si / 1000 Ang^3
#
#
#
# Elastic Constant Matrix: (Units=GPa)
#
#
# Indices 1 2 3 4 5 6 
#
# 1 76.9049 40.2732 37.0548 0.0000 15.2973 0.0000
# 2 40.2732 63.3989 42.5462 0.0000 14.5460 0.0000
# 3 37.0548 42.5462 111.2657 0.0000 25.4174 0.0000
# 4 0.0000 0.0000 0.0000 23.0714 0.0000 1.3965
# 5 15.2973 14.5460 25.4174 0.0000 36.0590 0.0000
# 6 0.0000 0.0000 0.0000 1.3965 0.0000 28.0924
#
#
#
# Elastic Compliance Matrix: (Units=1/GPa)
#
#
# Indices 1 2 3 4 5 6 
#
# 1 0.020192 -0.010895 -0.001914 0.000000 -0.002822 0.000000
# 2 -0.010895 0.027449 -0.006429 0.000000 -0.001919 0.000000
# 3 -0.001914 -0.006429 0.013475 0.000000 -0.006093 0.000000
# 4 0.000000 0.000000 0.000000 0.043474 0.000000 -0.002161
# 5 -0.002822 -0.001919 -0.006093 0.000000 0.033998 0.000000
# 6 0.000000 0.000000 0.000000 -0.002161 0.000000 0.035704
#
#
# Mechanical properties :
#
#
# Convention : Reuss Voigt Hill
#
# Bulk Modulus (GPa) = 44.16962 54.59088 49.38025
# Shear Modulus (GPa) = 22.69473 26.22426 24.45950
#
# Velocity S-wave (km/s) = 3.23579 3.47832 3.35925
# Velocity P-wave (km/s) = 5.85990 6.42787 6.15044
#
# Compressibility (1/GPa) = 0.02263999
#
# Stress axis : x y z
#
# Youngs Moduli (GPa) = 49.52491 36.43152 74.21035
#
# Poissons Ratio (x) = 0.39691 0.14203
# Poissons Ratio (y) = 0.53956 0.47712
# Poissons Ratio (z) = 0.09478 0.23423
#
# Static dielectric constant tensor:
#      x y z
#    x 3.701600 0.000000 0.228040 
#    y 0.000000 3.858790 0.000000 
#    z 0.228040 0.000000 3.947400 
# 
# 
# High freq. dielectric constant tensor:
#      x y z
#    x 1.838420 0.000000 0.013390 
#    y 0.000000 1.856350 0.000000 
#    z 0.013390 0.000000 1.859450 
# 
# From -- ./inp_files/144417.got.cif
#   From: 2010.06.25/outbox.cif.g09.slc.cpg/sg15_73_cif.got.tgz:144417.got - 2010.06.28 07:06:18.
