data_PCOD8152543
_publ_section_title
;
Structure prediction by ZEFSAII (Michael W. Deem and Ramdas Pophale) SiO2 
 PCOD8152543
Probable space group: C 2/C
;
_chemical_formula_sum "Si O2"
_cell_formula_units_Z 40
_cell_length_a 16.254759
_cell_length_b 6.318902
_cell_length_c 28.748920
_cell_angle_alpha 90.000000
_cell_angle_beta 38.334379
_cell_angle_gamma 90.000000
_cell_volume 1831.514355
_symmetry_space_group_name_H-M "C 2/C"
_symmetry_group_IT_number 15
_symmetry_cell_setting 'monoclinic'
loop_
_space_group_symop_operation_xyz
x,y,z
-x,y,1/2-z
-x,-y,-z
x,-y,1/2+z
1/2+x,1/2+y,z
1/2-x,1/2+y,1/2-z
1/2-x,1/2-y,-z
1/2+x,1/2-y,1/2+z
loop_
_atom_site_type_symbol
_atom_site_label
_atom_site_fract_x
_atom_site_fract_y
_atom_site_fract_z
Si Si1 0.573882 0.063341 0.817293
Si Si2 0.665836 0.653137 0.078805
Si Si3 0.357232 0.096797 0.552616
Si Si4 0.797990 0.141812 0.167227
Si Si5 0.976804 0.176893 0.918338
O O1 0.653232 0.961518 0.738986
O O2 0.535446 0.894292 0.873342
O O3 0.442734 0.177780 0.855444
O O4 0.668625 0.232633 0.800430
O O5 0.760509 0.593686 0.079739
O O6 0.594179 0.442510 0.092296
O O7 0.750000 0.750000 0.000000
O O8 0.290462 0.203350 0.626741
O O9 0.370499 0.269912 0.505729
O O10 0.500000 0.000000 0.500000
O O11 0.908310 0.963531 0.109175
#
# Coordination Sequence:
#
# PCOD8152543 Si02
#       5
#     8   8   8   8   8
#     4  11  22  42  72  97 135 187 222 279 352 422
#     4  11  24  43  71  99 137 181 228 279 347 416
#     4  12  23  43  73 105 132 175 238 291 331 408
#     4  11  23  41  72 100 135 176 233 286 346 411
#     4  11  22  43  73  96 133 180 226 277 348 408
#
# _framework density 21.839849000000001
#
# number of rings (size 3 to 8) (size 9 to 14) (size 15 to 20)
#    0.000    0.800    6.000    2.400    0.000    0.000 
#    0.000    1.000    8.800    0.000    0.000    0.000 
#    0.000    0.000    0.000    0.000    0.000    0.000 
#
# Total GULP energy -248119.076335 kJ/mol
# GULP energy per Si atom -12405.953817 kJ/mol
# Density = 2.179014 g / cm^3
# Si number density = 21.839849 Si / 1000 Ang^3
#
#
#
# Elastic Constant Matrix: (Units=GPa)
#
#
# Indices 1 2 3 4 5 6 
#
# 1 122.5908 53.2422 57.5492 -0.0080 -15.9997 0.0034
# 2 53.2422 106.6849 54.8529 -0.1664 -10.6159 0.1207
# 3 57.5492 54.8529 151.9627 -0.0010 -7.7960 -0.0182
# 4 -0.0080 -0.1664 -0.0010 56.2119 0.0109 -2.5112
# 5 -15.9997 -10.6159 -7.7960 0.0109 30.7229 0.0151
# 6 0.0034 0.1207 -0.0182 -2.5112 0.0151 40.7684
#
#
#
# Elastic Compliance Matrix: (Units=1/GPa)
#
#
# Indices 1 2 3 4 5 6 
#
# 1 0.011737 -0.004026 -0.002786 -0.000011 0.004015 0.000008
# 2 -0.004026 0.013163 -0.003142 0.000036 0.001654 -0.000038
# 3 -0.002786 -0.003142 0.008753 -0.000009 -0.000315 0.000013
# 4 -0.000011 0.000036 -0.000009 0.017839 -0.000002 0.001099
# 5 0.004015 0.001654 -0.000315 -0.000002 0.035131 -0.000019
# 6 0.000008 -0.000038 0.000013 0.001099 -0.000019 0.024597
#
#
# Mechanical properties :
#
#
# Convention : Reuss Voigt Hill
#
# Bulk Modulus (GPa) = 72.74541 79.16966 75.95754
# Shear Modulus (GPa) = 36.84335 39.91358 38.37846
#
# Velocity S-wave (km/s) = 4.11174 4.27963 4.19653
# Velocity P-wave (km/s) = 7.47815 7.79417 7.63780
#
# Compressibility (1/GPa) = 0.01374657
#
# Stress axis : x y z
#
# Youngs Moduli (GPa) = 85.19742 75.97279 114.24026
#
# Poissons Ratio (x) = 0.30585 0.31826
# Poissons Ratio (y) = 0.34299 0.35891
# Poissons Ratio (z) = 0.23735 0.23869
#
# Static dielectric constant tensor:
#      x y z
#    x 3.881570 -0.000930 -0.202630 
#    y -0.000930 4.174490 -0.000690 
#    z -0.202630 -0.000690 3.931920 
# 
# 
# High freq. dielectric constant tensor:
#      x y z
#    x 1.841110 -0.000040 -0.014030 
#    y -0.000040 1.874960 -0.000040 
#    z -0.014030 -0.000040 1.857360 
# 
# From -- ./inp_files/314788.got.cif
#   From: 2010.06.25/outbox.cif.g09.slc.cpg/sg15_158_cif.got.tgz:314788.got - 2010.06.28 07:06:18.
