data_PCOD8152410
_publ_section_title
;
Structure prediction by ZEFSAII (Michael W. Deem and Ramdas Pophale) SiO2 
 PCOD8152410
Probable space group: C 2/C
;
_chemical_formula_sum "Si O2"
_cell_formula_units_Z 40
_cell_length_a 10.537151
_cell_length_b 11.734792
_cell_length_c 16.866529
_cell_angle_alpha 90.000000
_cell_angle_beta 118.266416
_cell_angle_gamma 90.000000
_cell_volume 1836.874472
_symmetry_space_group_name_H-M "C 2/C"
_symmetry_group_IT_number 15
_symmetry_cell_setting 'monoclinic'
loop_
_space_group_symop_operation_xyz
x,y,z
-x,y,1/2-z
-x,-y,-z
x,-y,1/2+z
1/2+x,1/2+y,z
1/2-x,1/2+y,1/2-z
1/2-x,1/2-y,-z
1/2+x,1/2-y,1/2+z
loop_
_atom_site_type_symbol
_atom_site_label
_atom_site_fract_x
_atom_site_fract_y
_atom_site_fract_z
Si Si1 0.632889 0.137614 0.088021
Si Si2 0.371307 0.267162 0.767171
Si Si3 0.287031 0.475132 0.491102
Si Si4 0.439918 0.669116 0.460951
Si Si5 0.499743 0.971490 0.332300
O O1 0.720548 0.212147 0.177706
O O2 0.744508 0.066810 0.066417
O O3 0.541531 0.042917 0.104556
O O4 0.507269 0.209228 0.006685
O O5 0.500000 0.316710 0.750000
O O6 0.367136 0.325546 0.852461
O O7 0.391439 0.133044 0.786465
O O8 0.323129 0.611846 0.488463
O O9 0.425574 0.412268 0.502230
O O10 0.161396 0.428897 0.396598
O O11 0.500000 0.043317 0.250000
#
# Coordination Sequence:
#
# PCOD8152410 Si02
#       5
#     8   8   8   8   8
#     4  12  24  44  67  99 137 176 220 284 341 397
#     4  11  22  41  68  92 130 176 221 271 334 402
#     4  11  23  42  69  98 127 177 227 273 342 408
#     4  11  23  42  70  98 131 174 228 279 330 411
#     4  11  24  43  66  96 135 177 221 271 341 413
#
# _framework density 21.776119999999999
#
# number of rings (size 3 to 8) (size 9 to 14) (size 15 to 20)
#    0.000    0.800    4.000    4.800    0.000    2.400 
#    3.600    0.000    0.000    0.000    0.000    0.000 
#    0.000    0.000    0.000    0.000    0.000    0.000 
#
# Total GULP energy -247791.086181 kJ/mol
# GULP energy per Si atom -12389.554309 kJ/mol
# Density = 2.172656 g / cm^3
# Si number density = 21.776120 Si / 1000 Ang^3
#
#
#
# Elastic Constant Matrix: (Units=GPa)
#
#
# Indices 1 2 3 4 5 6 
#
# 1 70.0727 47.8539 41.4766 0.0000 -17.0104 0.0000
# 2 47.8539 90.2013 41.6084 0.0000 -25.2504 0.0000
# 3 41.4766 41.6084 147.2588 0.0000 -3.8537 0.0000
# 4 0.0000 0.0000 0.0000 40.1064 0.0000 -5.6732
# 5 -17.0104 -25.2504 -3.8537 0.0000 23.2966 0.0000
# 6 0.0000 0.0000 0.0000 -5.6732 0.0000 29.7647
#
#
#
# Elastic Compliance Matrix: (Units=1/GPa)
#
#
# Indices 1 2 3 4 5 6 
#
# 1 0.024823 -0.009107 -0.004221 0.000000 0.007556 0.000000
# 2 -0.009107 0.022111 -0.003243 0.000000 0.016779 0.000000
# 3 -0.004221 -0.003243 0.008761 0.000000 -0.005148 0.000000
# 4 0.000000 0.000000 0.000000 0.025625 0.000000 0.004884
# 5 0.007556 0.016779 -0.005148 0.000000 0.065777 0.000000
# 6 0.000000 0.000000 0.000000 0.004884 0.000000 0.034528
#
#
# Mechanical properties :
#
#
# Convention : Reuss Voigt Hill
#
# Bulk Modulus (GPa) = 44.34006 63.26786 53.80396
# Shear Modulus (GPa) = 22.49385 30.40647 26.45016
#
# Velocity S-wave (km/s) = 3.21746 3.74079 3.48895
# Velocity P-wave (km/s) = 5.84882 6.91194 6.40248
#
# Compressibility (1/GPa) = 0.02255297
#
# Stress axis : x y z
#
# Youngs Moduli (GPa) = 40.28593 45.22644 114.13929
#
# Poissons Ratio (x) = 0.41188 0.48173
# Poissons Ratio (y) = 0.36688 0.37019
# Poissons Ratio (z) = 0.17003 0.14669
#
# Static dielectric constant tensor:
#      x y z
#    x 4.618200 0.000000 0.051540 
#    y 0.000000 4.218210 0.000000 
#    z 0.051540 0.000000 4.282940 
# 
# 
# High freq. dielectric constant tensor:
#      x y z
#    x 1.850190 0.000000 0.000870 
#    y 0.000000 1.842780 0.000000 
#    z 0.000870 0.000000 1.876910 
# 
# From -- ./inp_files/141697.got.cif
#   From: 2010.06.25/outbox.cif.g09.slc.cpg/sg15_71_cif.got.tgz:141697.got - 2010.06.28 07:06:18.
