data_PCOD8152993
_publ_section_title
;
Structure prediction by ZEFSAII (Michael W. Deem and Ramdas Pophale) SiO2 
 PCOD8152993
Probable space group: C 2/C
;
_chemical_formula_sum "Si O2"
_cell_formula_units_Z 48
_cell_length_a 27.570897
_cell_length_b 11.419134
_cell_length_c 14.454238
_cell_angle_alpha 90.000000
_cell_angle_beta 150.429906
_cell_angle_gamma 90.000000
_cell_volume 2245.721140
_symmetry_space_group_name_H-M "C 2/C"
_symmetry_group_IT_number 15
_symmetry_cell_setting 'monoclinic'
loop_
_space_group_symop_operation_xyz
x,y,z
-x,y,1/2-z
-x,-y,-z
x,-y,1/2+z
1/2+x,1/2+y,z
1/2-x,1/2+y,1/2-z
1/2-x,1/2-y,-z
1/2+x,1/2-y,1/2+z
loop_
_atom_site_type_symbol
_atom_site_label
_atom_site_fract_x
_atom_site_fract_y
_atom_site_fract_z
Si Si1 0.574624 0.559695 0.793425
Si Si2 0.267161 0.701011 0.359950
Si Si3 0.072410 0.742174 0.146287
Si Si4 0.100951 0.815060 0.756359
Si Si5 0.901022 0.592052 0.137211
Si Si6 0.777123 0.639560 0.421493
O O1 0.500000 0.596383 0.750000
O O2 0.553284 0.637241 0.668132
O O3 0.557387 0.425392 0.738745
O O4 0.685454 0.585448 0.013828
O O5 0.177171 0.747617 0.270739
O O6 0.350215 0.801960 0.496637
O O7 0.230594 0.668176 0.198631
O O8 0.070492 0.631458 0.211769
O O9 0.985720 0.732786 0.927155
O O10 0.169327 0.862370 0.787180
O O11 0.159255 0.740478 0.927325
O O12 0.000000 0.552303 0.250000
O O13 0.826298 0.485241 0.018964
#
# Coordination Sequence:
#
# PCOD8152993 Si02
#       6
#     8   8   8   8   8   8
#     4  11  23  41  71  98 132 173 224 272 329 388
#     4  11  24  42  69  96 133 173 224 267 331 388
#     4  11  23  43  70  95 134 173 223 270 328 391
#     4  11  25  43  66  97 135 169 224 271 329 388
#     4  11  24  44  68  94 134 174 220 265 333 391
#     4  11  26  43  65  96 135 175 217 276 327 390
#
# _framework density 21.373982000000002
#
# number of rings (size 3 to 8) (size 9 to 14) (size 15 to 20)
#    0.000    1.000    0.000    8.500    7.000    0.667 
#    0.000    0.000    0.000    0.000    0.000    0.000 
#    0.000    0.000    0.000    0.000    0.000    0.000 
#
# Total GULP energy -297747.891134 kJ/mol
# GULP energy per Si atom -12406.162131 kJ/mol
# Density = 2.132533 g / cm^3
# Si number density = 21.373982 Si / 1000 Ang^3
#
#
#
# Elastic Constant Matrix: (Units=GPa)
#
#
# Indices 1 2 3 4 5 6 
#
# 1 79.3261 17.0896 26.4742 0.0000 3.5265 0.0000
# 2 17.0896 81.1345 14.5988 0.0000 -2.0634 0.0000
# 3 26.4742 14.5988 96.6171 0.0000 10.0138 0.0000
# 4 0.0000 0.0000 0.0000 14.6159 0.0000 8.0946
# 5 3.5265 -2.0634 10.0138 0.0000 34.4859 0.0000
# 6 0.0000 0.0000 0.0000 8.0946 0.0000 23.6359
#
#
#
# Elastic Compliance Matrix: (Units=1/GPa)
#
#
# Indices 1 2 3 4 5 6 
#
# 1 0.014318 -0.002401 -0.003499 0.000000 -0.000592 0.000000
# 2 -0.002401 0.013134 -0.001478 0.000000 0.001461 0.000000
# 3 -0.003499 -0.001478 0.011861 0.000000 -0.003175 0.000000
# 4 0.000000 0.000000 0.000000 0.084433 0.000000 -0.028916
# 5 -0.000592 0.001461 -0.003175 0.000000 0.030067 0.000000
# 6 0.000000 0.000000 0.000000 -0.028916 0.000000 0.052211
#
#
# Mechanical properties :
#
#
# Convention : Reuss Voigt Hill
#
# Bulk Modulus (GPa) = 40.72242 41.48922 41.10582
# Shear Modulus (GPa) = 21.83728 27.80855 24.82291
#
# Velocity S-wave (km/s) = 3.19983 3.61092 3.41157
# Velocity P-wave (km/s) = 5.72238 6.06945 5.89847
#
# Compressibility (1/GPa) = 0.02455650
#
# Stress axis : x y z
#
# Youngs Moduli (GPa) = 69.84431 76.13792 84.30797
#
# Poissons Ratio (x) = 0.18282 0.29500
# Poissons Ratio (y) = 0.16771 0.12460
# Poissons Ratio (z) = 0.24439 0.11253
#
# Static dielectric constant tensor:
#      x y z
#    x 3.957470 0.000000 0.027050 
#    y 0.000000 3.720770 0.000000 
#    z 0.027050 0.000000 3.979640 
# 
# 
# High freq. dielectric constant tensor:
#      x y z
#    x 1.850290 0.000000 0.001490 
#    y 0.000000 1.833910 0.000000 
#    z 0.001490 0.000000 1.851280 
# 
# From -- ./inp_files/152481.got.cif
#   From: 2010.06.25/outbox.cif.g09.slc.cpg/sg15_77_cif.got.tgz:152481.got - 2010.06.28 07:06:18.
