data_PCOD8152879
_publ_section_title
;
Structure prediction by ZEFSAII (Michael W. Deem and Ramdas Pophale) SiO2 
 PCOD8152879
Probable space group: C 2/C
;
_chemical_formula_sum "Si O2"
_cell_formula_units_Z 40
_cell_length_a 9.243474
_cell_length_b 26.652231
_cell_length_c 15.663899
_cell_angle_alpha 90.000000
_cell_angle_beta 151.797900
_cell_angle_gamma 90.000000
_cell_volume 1823.672388
_symmetry_space_group_name_H-M "C 2/C"
_symmetry_group_IT_number 15
_symmetry_cell_setting 'monoclinic'
loop_
_space_group_symop_operation_xyz
x,y,z
-x,y,1/2-z
-x,-y,-z
x,-y,1/2+z
1/2+x,1/2+y,z
1/2-x,1/2+y,1/2-z
1/2-x,1/2-y,-z
1/2+x,1/2-y,1/2+z
loop_
_atom_site_type_symbol
_atom_site_label
_atom_site_fract_x
_atom_site_fract_y
_atom_site_fract_z
Si Si1 0.604372 0.712629 0.218619
Si Si2 0.333821 0.396429 0.249764
Si Si3 0.139793 0.945276 0.569587
Si Si4 0.808737 0.287339 0.379582
Si Si5 0.358499 0.397081 0.589048
O O1 0.500000 0.741524 0.250000
O O2 0.533738 0.748340 0.102842
O O3 0.389431 0.663318 0.099620
O O4 0.965531 0.699308 0.423336
O O5 0.500000 0.417582 0.250000
O O6 0.532657 0.412521 0.433743
O O7 0.308850 0.336520 0.231055
O O8 0.990945 0.416511 0.088886
O O9 0.500000 0.949734 0.750000
O O10 0.042414 0.918365 0.605407
O O11 0.000000 0.000000 0.500000
O O12 0.500000 0.259692 0.250000
O O13 0.500000 0.417923 0.750000
#
# Coordination Sequence:
#
# PCOD8152879 Si02
#       5
#     8   8   8   8   8
#     4  11  23  40  62  99 136 185 230 279 340 402
#     4  11  24  45  70 101 141 184 231 287 345 411
#     4  12  28  48  76 107 135 176 232 286 357 419
#     4  11  24  40  64  96 139 182 237 278 341 403
#     4  11  23  45  70 100 145 181 231 284 346 411
#
# _framework density 21.933762999999999
#
# number of rings (size 3 to 8) (size 9 to 14) (size 15 to 20)
#    0.000    0.800    4.000    4.200    5.600    1.600 
#    0.000    4.000    0.000    0.000    0.000    0.000 
#    0.000    0.000    0.000    0.000    0.000    0.000 
#
# Total GULP energy -247907.566172 kJ/mol
# GULP energy per Si atom -12395.378309 kJ/mol
# Density = 2.188384 g / cm^3
# Si number density = 21.933763 Si / 1000 Ang^3
#
#
#
# Elastic Constant Matrix: (Units=GPa)
#
#
# Indices 1 2 3 4 5 6 
#
# 1 167.5665 30.6631 58.0098 0.0001 3.1592 0.0000
# 2 30.6631 66.4673 35.1864 0.0000 -17.4669 0.0000
# 3 58.0098 35.1864 158.3263 0.0001 8.7864 0.0000
# 4 0.0001 0.0000 0.0001 32.9266 0.0000 5.3989
# 5 3.1592 -17.4669 8.7864 0.0000 54.5363 0.0000
# 6 0.0000 0.0000 0.0000 5.3989 0.0000 20.0525
#
#
#
# Elastic Compliance Matrix: (Units=1/GPa)
#
#
# Indices 1 2 3 4 5 6 
#
# 1 0.007132 -0.002450 -0.002020 0.000000 -0.000872 0.000000
# 2 -0.002450 0.020195 -0.003993 0.000000 0.007253 0.000000
# 3 -0.002020 -0.003993 0.008080 0.000000 -0.002464 0.000000
# 4 0.000000 0.000000 0.000000 0.031773 0.000000 -0.008555
# 5 -0.000872 0.007253 -0.002464 0.000000 0.021107 0.000000
# 6 0.000000 0.000000 0.000000 -0.008555 0.000000 0.052172
#
#
# Mechanical properties :
#
#
# Convention : Reuss Voigt Hill
#
# Bulk Modulus (GPa) = 54.10931 71.11984 62.61458
# Shear Modulus (GPa) = 30.57230 39.40313 34.98772
#
# Velocity S-wave (km/s) = 3.73748 4.24307 3.99827
# Velocity P-wave (km/s) = 6.58391 7.51665 7.06569
#
# Compressibility (1/GPa) = 0.01848111
#
# Stress axis : x y z
#
# Youngs Moduli (GPa) = 140.21478 49.51680 123.75614
#
# Poissons Ratio (x) = 0.12131 0.25001
# Poissons Ratio (y) = 0.34351 0.49417
# Poissons Ratio (z) = 0.28326 0.19772
#
# Static dielectric constant tensor:
#      x y z
#    x 4.433410 -0.000010 0.252590 
#    y -0.000010 1.697670 0.000000 
#    z 0.252590 0.000000 4.292080 
# 
# 
# High freq. dielectric constant tensor:
#      x y z
#    x 1.883070 0.000000 0.017370 
#    y 0.000000 1.834040 0.000000 
#    z 0.017370 0.000000 1.886060 
# 
# From -- ./inp_files/44964.got.cif
#   From: 2010.06.25/outbox.cif.g09.slc.cpg/sg15_23_cif.got.tgz:44964.got - 2010.06.28 07:06:18.
