data_PCOD8152899
_publ_section_title
;
Structure prediction by ZEFSAII (Michael W. Deem and Ramdas Pophale) SiO2 
 PCOD8152899
Probable space group: C 2/C
;
_chemical_formula_sum "Si O2"
_cell_formula_units_Z 48
_cell_length_a 21.413227
_cell_length_b 9.440191
_cell_length_c 11.550726
_cell_angle_alpha 90.000000
_cell_angle_beta 106.946345
_cell_angle_gamma 90.000000
_cell_volume 2233.534328
_symmetry_space_group_name_H-M "C 2/C"
_symmetry_group_IT_number 15
_symmetry_cell_setting 'monoclinic'
loop_
_space_group_symop_operation_xyz
x,y,z
-x,y,1/2-z
-x,-y,-z
x,-y,1/2+z
1/2+x,1/2+y,z
1/2-x,1/2+y,1/2-z
1/2-x,1/2-y,-z
1/2+x,1/2-y,1/2+z
loop_
_atom_site_type_symbol
_atom_site_label
_atom_site_fract_x
_atom_site_fract_y
_atom_site_fract_z
Si Si1 0.577287 0.828495 0.514446
Si Si2 0.699879 0.302865 0.210011
Si Si3 0.179831 0.873017 0.685029
Si Si4 0.139875 0.173498 0.916772
Si Si5 0.534944 0.894839 0.880800
Si Si6 0.427072 0.396075 0.684088
O O1 0.642500 0.782578 0.615414
O O2 0.515435 0.809834 0.564751
O O3 0.568181 0.741438 0.392371
O O4 0.577732 0.992836 0.476593
O O5 0.765955 0.217301 0.215385
O O6 0.703389 0.466176 0.171433
O O7 0.692765 0.305720 0.344882
O O8 0.170432 0.794167 0.557893
O O9 0.111853 0.865985 0.717928
O O10 0.082525 0.279548 0.853596
O O11 0.111726 0.015127 0.906637
O O12 0.500000 0.966787 0.750000
O O13 0.500000 0.449489 0.750000
#
# Coordination Sequence:
#
# PCOD8152899 Si02
#       6
#     8   8   8   8   8   8
#     4  11  24  43  65 100 136 170 223 272 329 396
#     4  11  25  46  66  97 134 175 225 270 330 395
#     4  11  26  44  68  98 133 180 220 270 333 390
#     4  11  23  43  70  97 130 174 222 272 329 393
#     4  11  23  40  68 101 133 175 216 272 336 387
#     4  11  24  43  69  99 133 170 218 277 331 392
#
# _framework density 21.490601999999999
#
# number of rings (size 3 to 8) (size 9 to 14) (size 15 to 20)
#    0.000    1.000    3.333    2.500    4.667    4.667 
#    0.000    0.000    0.000    0.000    0.000    0.000 
#    0.000    0.000    0.000    0.000    0.000    0.000 
#
# Total GULP energy -297641.470523 kJ/mol
# GULP energy per Si atom -12401.727938 kJ/mol
# Density = 2.144169 g / cm^3
# Si number density = 21.490602 Si / 1000 Ang^3
#
#
#
# Elastic Constant Matrix: (Units=GPa)
#
#
# Indices 1 2 3 4 5 6 
#
# 1 100.1597 40.2032 20.3837 0.0000 10.3147 0.0000
# 2 40.2032 70.7519 28.7578 0.0000 1.3481 0.0000
# 3 20.3837 28.7578 93.1634 0.0000 9.5578 0.0000
# 4 0.0000 0.0000 0.0000 28.2790 0.0000 -0.4345
# 5 10.3147 1.3481 9.5578 0.0000 25.4224 0.0000
# 6 0.0000 0.0000 0.0000 -0.4345 0.0000 31.2919
#
#
#
# Elastic Compliance Matrix: (Units=1/GPa)
#
#
# Indices 1 2 3 4 5 6 
#
# 1 0.013565 -0.007565 -0.000114 0.000000 -0.005060 0.000000
# 2 -0.007565 0.020408 -0.005043 0.000000 0.003883 0.000000
# 3 -0.000114 -0.005043 0.012776 0.000000 -0.004490 0.000000
# 4 0.000000 0.000000 0.000000 0.035369 0.000000 0.000491
# 5 -0.005060 0.003883 -0.004490 0.000000 0.042870 0.000000
# 6 0.000000 0.000000 0.000000 0.000491 0.000000 0.031964
#
#
# Mechanical properties :
#
#
# Convention : Reuss Voigt Hill
#
# Bulk Modulus (GPa) = 46.93564 49.19605 48.06584
# Shear Modulus (GPa) = 26.38541 28.64734 27.51638
#
# Velocity S-wave (km/s) = 3.50775 3.65501 3.58214
# Velocity P-wave (km/s) = 6.18815 6.38386 6.28677
#
# Compressibility (1/GPa) = 0.02130577
#
# Stress axis : x y z
#
# Youngs Moduli (GPa) = 73.71957 48.99922 78.27231
#
# Poissons Ratio (x) = 0.37070 0.00889
# Poissons Ratio (y) = 0.55772 0.39471
# Poissons Ratio (z) = 0.00837 0.24709
#
# Static dielectric constant tensor:
#      x y z
#    x 3.805170 0.000000 -0.061150 
#    y 0.000000 3.771180 0.000000 
#    z -0.061150 0.000000 3.791200 
# 
# 
# High freq. dielectric constant tensor:
#      x y z
#    x 1.840440 0.000000 -0.001500 
#    y 0.000000 1.844100 0.000000 
#    z -0.001500 0.000000 1.853970 
# 
# From -- ./inp_files/116723.got.cif
#   From: 2010.06.25/outbox.cif.g09.slc.cpg/sg15_59_cif.got.tgz:116723.got - 2010.06.28 07:06:18.
