data_PCOD8152379
_publ_section_title
;
Structure prediction by ZEFSAII (Michael W. Deem and Ramdas Pophale) SiO2 
 PCOD8152379
Probable space group: C 2/C
;
_chemical_formula_sum "Si O2"
_cell_formula_units_Z 48
_cell_length_a 10.517434
_cell_length_b 16.820975
_cell_length_c 24.897371
_cell_angle_alpha 90.000000
_cell_angle_beta 147.520627
_cell_angle_gamma 90.000000
_cell_volume 2365.295785
_symmetry_space_group_name_H-M "C 2/C"
_symmetry_group_IT_number 15
_symmetry_cell_setting 'monoclinic'
loop_
_space_group_symop_operation_xyz
x,y,z
-x,y,1/2-z
-x,-y,-z
x,-y,1/2+z
1/2+x,1/2+y,z
1/2-x,1/2+y,1/2-z
1/2-x,1/2-y,-z
1/2+x,1/2-y,1/2+z
loop_
_atom_site_type_symbol
_atom_site_label
_atom_site_fract_x
_atom_site_fract_y
_atom_site_fract_z
Si Si1 0.596195 0.098123 0.727932
Si Si2 0.760913 0.663583 0.065256
Si Si3 0.296604 0.512778 0.971640
Si Si4 0.892304 0.960378 0.820816
Si Si5 0.638803 0.258077 0.136412
Si Si6 0.000000 0.870817 0.750000
Si Si7 0.000000 0.379246 0.750000
O O1 0.500000 0.062929 0.750000
O O2 0.665704 0.190763 0.760402
O O3 0.391360 0.080462 0.611804
O O4 0.836830 0.054124 0.794740
O O5 0.814479 0.575340 0.060263
O O6 0.803937 0.668556 0.145223
O O7 0.938539 0.728165 0.104980
O O8 0.488244 0.688287 0.954877
O O9 0.500000 0.500000 0.000000
O O10 0.393181 0.548902 0.061385
O O11 0.645211 0.926288 0.756094
O O12 0.961835 0.923987 0.788787
O O13 0.771027 0.183571 0.156965
#
# Coordination Sequence:
#
# PCOD8152379 Si02
#       7
#     8   8   8   8   8   4   4
#     4  12  20  38  69  98 123 170 234 275 322 402
#     4  11  22  41  66  95 132 178 227 272 346 400
#     4  12  20  37  70 103 121 163 235 295 319 391
#     4  12  23  41  67  98 130 171 225 279 333 404
#     4  11  24  41  65  93 140 186 214 273 356 410
#     4  12  26  45  63  98 146 182 206 284 366 399
#     4  12  20  39  67  92 124 168 228 278 312 397
#
# _framework density 20.293444999999998
#
# number of rings (size 3 to 8) (size 9 to 14) (size 15 to 20)
#    0.000    0.333   10.000    0.000    0.000    0.000 
#    3.000    5.833    0.000    0.000    0.000    0.000 
#    0.000    0.000    0.000    0.000    0.000    0.000 
#
# Total GULP energy -297438.582912 kJ/mol
# GULP energy per Si atom -12393.274288 kJ/mol
# Density = 2.024726 g / cm^3
# Si number density = 20.293445 Si / 1000 Ang^3
#
#
#
# Elastic Constant Matrix: (Units=GPa)
#
#
# Indices 1 2 3 4 5 6 
#
# 1 100.3233 47.1772 42.1330 0.0008 -15.8046 0.0004
# 2 47.1772 95.2002 44.4650 0.0004 -7.6928 0.0003
# 3 42.1330 44.4650 141.2673 0.0021 -19.0871 0.0015
# 4 0.0008 0.0004 0.0021 36.9202 0.0012 10.3192
# 5 -15.8046 -7.6928 -19.0871 0.0012 27.8791 0.0007
# 6 0.0004 0.0003 0.0015 10.3192 0.0007 34.1801
#
#
#
# Elastic Compliance Matrix: (Units=1/GPa)
#
#
# Indices 1 2 3 4 5 6 
#
# 1 0.014268 -0.005849 -0.001697 0.000000 0.005313 0.000000
# 2 -0.005849 0.014729 -0.003075 0.000000 -0.001357 0.000000
# 3 -0.001697 -0.003075 0.009155 -0.000001 0.004458 0.000000
# 4 0.000000 0.000000 -0.000001 0.029582 -0.000002 -0.008931
# 5 0.005313 -0.001357 0.004458 -0.000002 0.041559 -0.000001
# 6 0.000000 0.000000 0.000000 -0.008931 -0.000001 0.031953
#
#
# Mechanical properties :
#
#
# Convention : Reuss Voigt Hill
#
# Bulk Modulus (GPa) = 59.13265 67.14904 63.14084
# Shear Modulus (GPa) = 29.74016 33.33023 31.53519
#
# Velocity S-wave (km/s) = 3.83235 4.05707 3.94631
# Velocity P-wave (km/s) = 6.98459 7.42343 7.20735
#
# Compressibility (1/GPa) = 0.01691113
#
# Stress axis : x y z
#
# Youngs Moduli (GPa) = 70.08880 67.89235 109.23057
#
# Poissons Ratio (x) = 0.39708 0.18531
# Poissons Ratio (y) = 0.40993 0.33589
# Poissons Ratio (z) = 0.11891 0.20877
#
# Static dielectric constant tensor:
#      x y z
#    x 3.386310 0.000000 0.081060 
#    y 0.000000 3.774140 0.000000 
#    z 0.081060 0.000000 4.060050 
# 
# 
# High freq. dielectric constant tensor:
#      x y z
#    x 1.753840 0.000000 0.008960 
#    y 0.000000 1.786540 0.000000 
#    z 0.008960 0.000000 1.816920 
# 
# From -- ./inp_files/293406.got.cif
#   From: 2010.06.25/outbox.cif.g09.slc.cpg/sg15_147_cif.got.tgz:293406.got - 2010.06.28 07:06:18.
