data_PCOD8152777
_publ_section_title
;
Structure prediction by ZEFSAII (Michael W. Deem and Ramdas Pophale) SiO2 
 PCOD8152777
Probable space group: C 2/C
;
_chemical_formula_sum "Si O2"
_cell_formula_units_Z 40
_cell_length_a 6.552663
_cell_length_b 23.143554
_cell_length_c 11.335356
_cell_angle_alpha 90.000000
_cell_angle_beta 85.985590
_cell_angle_gamma 90.000000
_cell_volume 1714.810708
_symmetry_space_group_name_H-M "C 2/C"
_symmetry_group_IT_number 15
_symmetry_cell_setting 'monoclinic'
loop_
_space_group_symop_operation_xyz
x,y,z
-x,y,1/2-z
-x,-y,-z
x,-y,1/2+z
1/2+x,1/2+y,z
1/2-x,1/2+y,1/2-z
1/2-x,1/2-y,-z
1/2+x,1/2-y,1/2+z
loop_
_atom_site_type_symbol
_atom_site_label
_atom_site_fract_x
_atom_site_fract_y
_atom_site_fract_z
Si Si1 0.853389 0.512930 0.353926
Si Si2 0.470013 0.905456 0.478049
Si Si3 0.892077 0.834434 0.941797
Si Si4 0.000000 0.928352 0.750000
Si Si5 0.324092 0.344231 0.347710
Si Si6 0.000000 0.741303 0.750000
O O1 0.934350 0.574467 0.401802
O O2 0.643172 0.525218 0.302518
O O3 0.000000 0.487743 0.250000
O O4 0.830108 0.460330 0.446886
O O5 0.332527 0.846625 0.490660
O O6 0.658760 0.894277 0.380677
O O7 0.911859 0.890206 0.858663
O O8 0.896482 0.778310 0.859285
O O9 0.067388 0.826609 0.033453
O O10 0.500000 0.365711 0.250000
O O11 0.194396 0.292551 0.294494
#
# Coordination Sequence:
#
# PCOD8152777 Si02
#       6
#     8   8   8   4   8   4
#     4  11  24  44  72 109 149 192 238 293 350 434
#     4  11  26  46  71 108 149 189 242 294 357 429
#     4  11  25  47  77 105 142 193 243 301 361 434
#     4  11  22  46  74 110 144 194 242 287 358 428
#     4  12  27  48  73 106 144 194 240 307 362 432
#     4  11  28  50  74 108 142 186 248 311 370 422
#
# _framework density 23.326191000000001
#
# number of rings (size 3 to 8) (size 9 to 14) (size 15 to 20)
#    0.000    0.800    4.000    1.800    4.200    7.200 
#    0.000    0.000    0.000    0.000    0.000    0.000 
#    0.000    0.000    0.000    0.000    0.000    0.000 
#
# Total GULP energy -247863.871236 kJ/mol
# GULP energy per Si atom -12393.193562 kJ/mol
# Density = 2.327310 g / cm^3
# Si number density = 23.326191 Si / 1000 Ang^3
#
#
#
# Elastic Constant Matrix: (Units=GPa)
#
#
# Indices 1 2 3 4 5 6 
#
# 1 154.4142 59.3349 61.7165 0.0000 16.5215 0.0000
# 2 59.3349 92.0576 47.7200 0.0000 15.0748 0.0000
# 3 61.7165 47.7200 112.4246 0.0000 18.2601 0.0000
# 4 0.0000 0.0000 0.0000 38.0956 0.0000 3.0640
# 5 16.5215 15.0748 18.2601 0.0000 55.5491 0.0000
# 6 0.0000 0.0000 0.0000 3.0640 0.0000 33.3130
#
#
#
# Elastic Compliance Matrix: (Units=1/GPa)
#
#
# Indices 1 2 3 4 5 6 
#
# 1 0.009519 -0.004335 -0.003293 0.000000 -0.000572 0.000000
# 2 -0.004335 0.016102 -0.004178 0.000000 -0.001707 0.000000
# 3 -0.003293 -0.004178 0.012817 0.000000 -0.002100 0.000000
# 4 0.000000 0.000000 0.000000 0.026445 0.000000 -0.002432
# 5 -0.000572 -0.001707 -0.002100 0.000000 0.019326 0.000000
# 6 0.000000 0.000000 0.000000 -0.002432 0.000000 0.030242
#
#
# Mechanical properties :
#
#
# Convention : Reuss Voigt Hill
#
# Bulk Modulus (GPa) = 67.44311 77.38215 72.41263
# Shear Modulus (GPa) = 34.96407 38.06653 36.51530
#
# Velocity S-wave (km/s) = 3.87579 4.04409 3.96083
# Velocity P-wave (km/s) = 7.00034 7.41971 7.21308
#
# Compressibility (1/GPa) = 0.01482731
#
# Stress axis : x y z
#
# Youngs Moduli (GPa) = 105.05259 62.10432 78.02301
#
# Poissons Ratio (x) = 0.26922 0.25690
# Poissons Ratio (y) = 0.45539 0.32596
# Poissons Ratio (z) = 0.34590 0.25945
#
# Static dielectric constant tensor:
#      x y z
#    x 4.284950 0.000000 0.106670 
#    y 0.000000 3.964800 0.000000 
#    z 0.106670 0.000000 4.534080 
# 
# 
# High freq. dielectric constant tensor:
#      x y z
#    x 1.928590 0.000000 0.008150 
#    y 0.000000 1.912020 0.000000 
#    z 0.008150 0.000000 1.946110 
# 
# From -- ./inp_files/73289.got.cif
#   From: 2010.06.25/outbox.cif.g09.slc.cpg/sg15_37_cif.got.tgz:73289.got - 2010.06.28 07:06:18.
