data_PCOD8152259
_publ_section_title
;
Structure prediction by ZEFSAII (Michael W. Deem and Ramdas Pophale) SiO2 
 PCOD8152259
Probable space group: C 2/C
;
_chemical_formula_sum "Si O2"
_cell_formula_units_Z 52
_cell_length_a 15.384598
_cell_length_b 17.623934
_cell_length_c 11.922314
_cell_angle_alpha 90.000000
_cell_angle_beta 55.436158
_cell_angle_gamma 90.000000
_cell_volume 2662.013780
_symmetry_space_group_name_H-M "C 2/C"
_symmetry_group_IT_number 15
_symmetry_cell_setting 'monoclinic'
loop_
_space_group_symop_operation_xyz
x,y,z
-x,y,1/2-z
-x,-y,-z
x,-y,1/2+z
1/2+x,1/2+y,z
1/2-x,1/2+y,1/2-z
1/2-x,1/2-y,-z
1/2+x,1/2-y,1/2+z
loop_
_atom_site_type_symbol
_atom_site_label
_atom_site_fract_x
_atom_site_fract_y
_atom_site_fract_z
Si Si1 0.229714 0.640432 0.799946
Si Si2 0.564113 0.710148 0.921771
Si Si3 0.295787 0.185732 0.046278
Si Si4 0.000000 0.295969 0.750000
Si Si5 0.801322 0.396897 0.934026
Si Si6 0.375818 0.060816 0.823438
Si Si7 0.836258 0.812179 0.644695
O O1 0.342860 0.647530 0.654567
O O2 0.148422 0.595524 0.780624
O O3 0.184159 0.723464 0.859220
O O4 0.243131 0.595767 0.907012
O O5 0.599704 0.781393 0.971356
O O6 0.542109 0.741038 0.814746
O O7 0.461530 0.671633 0.052044
O O8 0.209672 0.161424 0.202302
O O9 0.250000 0.250000 0.000000
O O10 0.325158 0.111300 0.957506
O O11 0.907539 0.348468 0.863709
O O12 0.823881 0.478712 0.866415
O O13 0.714851 0.357568 0.919772
O O14 0.500000 0.055237 0.750000
#
# Coordination Sequence:
#
# PCOD8152259 Si02
#       7
#     8   8   8   4   8   8   8
#     4  11  23  43  64  96 128 165 224 263 313 389
#     4  11  22  39  71  94 125 169 226 269 317 368
#     4  11  23  42  64  95 133 167 215 261 313 388
#     4  12  20  38  66 102 126 162 210 274 330 374
#     4  12  25  40  66  99 131 164 209 271 331 381
#     4  12  27  42  64  97 135 169 205 267 333 388
#     4  11  22  42  68  96 125 169 220 268 309 381
#
# _framework density 19.534082999999999
#
# number of rings (size 3 to 8) (size 9 to 14) (size 15 to 20)
#    0.000    0.615    8.462    2.308    2.154    0.615 
#    0.000    0.769    3.385    0.000    0.000    0.000 
#    0.000    0.000    0.000    0.000    0.000    0.000 
#
# Total GULP energy -322519.346279 kJ/mol
# GULP energy per Si atom -12404.590241 kJ/mol
# Density = 1.948962 g / cm^3
# Si number density = 19.534083 Si / 1000 Ang^3
#
#
#
# Elastic Constant Matrix: (Units=GPa)
#
#
# Indices 1 2 3 4 5 6 
#
# 1 118.5452 37.8762 52.2714 0.0000 -0.4651 0.0000
# 2 37.8762 89.8485 31.8561 0.0000 2.8254 0.0000
# 3 52.2714 31.8561 119.4430 0.0000 1.9979 0.0000
# 4 0.0000 0.0000 0.0000 16.0620 0.0000 9.6227
# 5 -0.4651 2.8254 1.9979 0.0000 48.8154 0.0000
# 6 0.0000 0.0000 0.0000 9.6227 0.0000 15.7618
#
#
#
# Elastic Compliance Matrix: (Units=1/GPa)
#
#
# Indices 1 2 3 4 5 6 
#
# 1 0.011294 -0.003336 -0.004061 0.000000 0.000467 0.000000
# 2 -0.003336 0.013294 -0.002074 0.000000 -0.000716 0.000000
# 3 -0.004061 -0.002074 0.010708 0.000000 -0.000357 0.000000
# 4 0.000000 0.000000 0.000000 0.098161 0.000000 -0.059927
# 5 0.000467 -0.000716 -0.000357 0.000000 0.020546 0.000000
# 6 0.000000 0.000000 0.000000 -0.059927 0.000000 0.100030
#
#
# Mechanical properties :
#
#
# Convention : Reuss Voigt Hill
#
# Bulk Modulus (GPa) = 61.14134 63.53823 62.33978
# Shear Modulus (GPa) = 17.95817 29.85006 23.90412
#
# Velocity S-wave (km/s) = 3.03533 3.91333 3.50196
# Velocity P-wave (km/s) = 6.60697 7.28124 6.95228
#
# Compressibility (1/GPa) = 0.01635555
#
# Stress axis : x y z
#
# Youngs Moduli (GPa) = 88.54452 75.22251 93.38617
#
# Poissons Ratio (x) = 0.25094 0.37920
# Poissons Ratio (y) = 0.29538 0.19365
# Poissons Ratio (z) = 0.35954 0.15599
#
# Static dielectric constant tensor:
#      x y z
#    x 3.614750 0.000000 -0.050520 
#    y 0.000000 3.454000 0.000000 
#    z -0.050520 0.000000 4.013820 
# 
# 
# High freq. dielectric constant tensor:
#      x y z
#    x 1.773230 0.000000 0.005750 
#    y 0.000000 1.738200 0.000000 
#    z 0.005750 0.000000 1.775520 
# 
# From -- ./inp_files/98183.got.cif
#   From: 2010.06.25/outbox.cif.g09.slc.cpg/sg15_50_cif.got.tgz:98183.got - 2010.06.28 07:06:18.
