data_PCOD8152791
_publ_section_title
;
Structure prediction by ZEFSAII (Michael W. Deem and Ramdas Pophale) SiO2 
 PCOD8152791
Probable space group: C 2/C
;
_chemical_formula_sum "Si O2"
_cell_formula_units_Z 44
_cell_length_a 8.281965
_cell_length_b 22.410933
_cell_length_c 11.107139
_cell_angle_alpha 90.000000
_cell_angle_beta 71.515582
_cell_angle_gamma 90.000000
_cell_volume 1955.201941
_symmetry_space_group_name_H-M "C 2/C"
_symmetry_group_IT_number 15
_symmetry_cell_setting 'monoclinic'
loop_
_space_group_symop_operation_xyz
x,y,z
-x,y,1/2-z
-x,-y,-z
x,-y,1/2+z
1/2+x,1/2+y,z
1/2-x,1/2+y,1/2-z
1/2-x,1/2-y,-z
1/2+x,1/2-y,1/2+z
loop_
_atom_site_type_symbol
_atom_site_label
_atom_site_fract_x
_atom_site_fract_y
_atom_site_fract_z
Si Si1 0.131880 0.315943 0.377836
Si Si2 0.290830 0.597021 0.011982
Si Si3 0.196222 0.519683 0.663310
Si Si4 0.500000 0.449692 0.250000
Si Si5 0.238389 0.349504 0.105990
Si Si6 0.543083 0.688915 0.379004
O O1 0.153968 0.357096 0.489712
O O2 0.261388 0.340859 0.244993
O O3 0.160197 0.245125 0.392686
O O4 0.938193 0.319578 0.384548
O O5 0.444193 0.588992 0.879679
O O6 0.209263 0.534166 0.065964
O O7 0.357611 0.627506 0.118396
O O8 0.333509 0.512526 0.741889
O O9 0.238453 0.579677 0.578638
O O10 0.000000 0.523547 0.750000
O O11 0.374925 0.312282 0.999839
O O12 0.500000 0.692924 0.250000
#
# Coordination Sequence:
#
# PCOD8152791 Si02
#       6
#     8   8   8   4   8   8
#     4  11  23  46  72  99 140 191 237 286 362 424
#     4  12  26  45  72 108 139 185 243 293 353 434
#     4  12  26  47  73 107 143 189 237 300 361 428
#     4  12  24  48  74 102 146 194 228 294 374 418
#     4  11  22  47  73  99 139 191 234 288 365 427
#     4  12  26  42  71 105 144 184 235 295 350 424
#
# _framework density 22.504068
#
# number of rings (size 3 to 8) (size 9 to 14) (size 15 to 20)
#    0.000    0.364    7.273    1.636    1.273    4.364 
#    0.000    0.000    0.000    0.000    0.000    0.000 
#    0.000    0.000    0.000    0.000    0.000    0.000 
#
# Total GULP energy -272716.807943 kJ/mol
# GULP energy per Si atom -12396.218543 kJ/mol
# Density = 2.245285 g / cm^3
# Si number density = 22.504068 Si / 1000 Ang^3
#
#
#
# Elastic Constant Matrix: (Units=GPa)
#
#
# Indices 1 2 3 4 5 6 
#
# 1 89.7984 19.8272 32.0077 0.0000 4.9232 0.0000
# 2 19.8272 161.2536 64.6580 0.0000 -2.8074 0.0000
# 3 32.0077 64.6580 93.7682 0.0000 5.9559 0.0000
# 4 0.0000 0.0000 0.0000 39.7598 0.0000 8.8542
# 5 4.9232 -2.8074 5.9559 0.0000 27.6528 0.0000
# 6 0.0000 0.0000 0.0000 8.8542 0.0000 28.6179
#
#
#
# Elastic Compliance Matrix: (Units=1/GPa)
#
#
# Indices 1 2 3 4 5 6 
#
# 1 0.012731 0.000167 -0.004378 0.000000 -0.001307 0.000000
# 2 0.000167 0.008704 -0.006198 0.000000 0.002189 0.000000
# 3 -0.004378 -0.006198 0.016651 0.000000 -0.003436 0.000000
# 4 0.000000 0.000000 0.000000 0.027012 0.000000 -0.008357
# 5 -0.001307 0.002189 -0.003436 0.000000 0.037358 0.000000
# 6 0.000000 0.000000 0.000000 -0.008357 0.000000 0.037529
#
#
# Mechanical properties :
#
#
# Convention : Reuss Voigt Hill
#
# Bulk Modulus (GPa) = 57.90791 64.20065 61.05428
# Shear Modulus (GPa) = 30.01920 34.42791 32.22356
#
# Velocity S-wave (km/s) = 3.65628 3.91558 3.78815
# Velocity P-wave (km/s) = 6.60398 7.00234 6.80608
#
# Compressibility (1/GPa) = 0.01726880
#
# Stress axis : x y z
#
# Youngs Moduli (GPa) = 78.54647 114.88677 60.05529
#
# Poissons Ratio (x) = -0.01923 0.26294
# Poissons Ratio (y) = -0.01315 0.37223
# Poissons Ratio (z) = 0.34390 0.71209
#
# Static dielectric constant tensor:
#      x y z
#    x 4.153480 0.000000 0.091980 
#    y 0.000000 4.094550 0.000000 
#    z 0.091980 0.000000 3.990570 
# 
# 
# High freq. dielectric constant tensor:
#      x y z
#    x 1.891540 0.000000 0.003270 
#    y 0.000000 1.898190 0.000000 
#    z 0.003270 0.000000 1.872680 
# 
# From -- ./inp_files/78109.got.cif
#   From: 2010.06.25/outbox.cif.g09.slc.cpg/sg15_40_cif.got.tgz:78109.got - 2010.06.28 07:06:18.
