data_PCOD8152510
_publ_section_title
;
Structure prediction by ZEFSAII (Michael W. Deem and Ramdas Pophale) SiO2 
 PCOD8152510
Probable space group: C 2/C
;
_chemical_formula_sum "Si O2"
_cell_formula_units_Z 40
_cell_length_a 12.392147
_cell_length_b 15.250989
_cell_length_c 9.570080
_cell_angle_alpha 90.000000
_cell_angle_beta 90.138527
_cell_angle_gamma 90.000000
_cell_volume 1808.668035
_symmetry_space_group_name_H-M "C 2/C"
_symmetry_group_IT_number 15
_symmetry_cell_setting 'monoclinic'
loop_
_space_group_symop_operation_xyz
x,y,z
-x,y,1/2-z
-x,-y,-z
x,-y,1/2+z
1/2+x,1/2+y,z
1/2-x,1/2+y,1/2-z
1/2-x,1/2-y,-z
1/2+x,1/2-y,1/2+z
loop_
_atom_site_type_symbol
_atom_site_label
_atom_site_fract_x
_atom_site_fract_y
_atom_site_fract_z
Si Si1 0.119533 0.697759 0.265401
Si Si2 0.262230 0.362821 0.198490
Si Si3 0.923426 0.020393 0.127155
Si Si4 0.887657 0.448321 0.509261
Si Si5 0.738687 0.118234 0.012293
O O1 0.191133 0.768490 0.351666
O O2 0.114665 0.607519 0.350387
O O3 0.158677 0.673661 0.108947
O O4 0.000000 0.737737 0.250000
O O5 0.351295 0.437566 0.174679
O O6 0.147573 0.387603 0.124346
O O7 0.246506 0.337495 0.361424
O O8 0.000000 0.051968 0.250000
O O9 0.852508 0.106294 0.090989
O O10 0.000000 0.000000 0.000000
O O11 0.796029 0.519707 0.524976
O O12 0.000000 0.500000 0.500000
#
# Coordination Sequence:
#
# PCOD8152510 Si02
#       5
#     8   8   8   8   8
#     4  12  25  44  68 100 142 182 231 294 359 410
#     4  11  25  43  68 100 140 176 233 293 350 407
#     4  11  22  42  69  97 131 178 230 284 346 423
#     4  11  23  45  70  99 136 188 235 282 343 423
#     4  11  24  42  71  98 135 181 238 287 345 425
#
# _framework density 22.115722000000002
#
# number of rings (size 3 to 8) (size 9 to 14) (size 15 to 20)
#    0.000    0.800    4.000    4.200    2.800    0.000 
#    0.000    0.000    0.000    0.000    0.000    0.000 
#    0.000    0.000    0.000    0.000    0.000    0.000 
#
# Total GULP energy -247902.329200 kJ/mol
# GULP energy per Si atom -12395.116460 kJ/mol
# Density = 2.206539 g / cm^3
# Si number density = 22.115722 Si / 1000 Ang^3
#
#
#
# Elastic Constant Matrix: (Units=GPa)
#
#
# Indices 1 2 3 4 5 6 
#
# 1 139.6621 40.1065 64.9830 0.0000 9.5562 0.0000
# 2 40.1065 92.6503 21.3919 0.0000 8.7319 0.0000
# 3 64.9830 21.3919 132.9195 0.0000 -0.5673 0.0000
# 4 0.0000 0.0000 0.0000 21.5379 0.0000 12.5593
# 5 9.5562 8.7319 -0.5673 0.0000 42.6187 0.0000
# 6 0.0000 0.0000 0.0000 12.5593 0.0000 35.8371
#
#
#
# Elastic Compliance Matrix: (Units=1/GPa)
#
#
# Indices 1 2 3 4 5 6 
#
# 1 0.010320 -0.003261 -0.004528 0.000000 -0.001706 0.000000
# 2 -0.003261 0.012475 -0.000421 0.000000 -0.001830 0.000000
# 3 -0.004528 -0.000421 0.009810 0.000000 0.001232 0.000000
# 4 0.000000 0.000000 0.000000 0.058355 0.000000 -0.020451
# 5 -0.001706 -0.001830 0.001232 0.000000 0.024238 0.000000
# 6 0.000000 0.000000 0.000000 -0.020451 0.000000 0.035071
#
#
# Mechanical properties :
#
#
# Convention : Reuss Voigt Hill
#
# Bulk Modulus (GPa) = 61.78722 68.68827 65.23774
# Shear Modulus (GPa) = 29.05560 35.91546 32.48553
#
# Velocity S-wave (km/s) = 3.62857 4.03423 3.83677
# Velocity P-wave (km/s) = 6.74938 7.26815 7.01356
#
# Compressibility (1/GPa) = 0.01618458
#
# Stress axis : x y z
#
# Youngs Moduli (GPa) = 96.89804 80.16230 101.93678
#
# Poissons Ratio (x) = 0.26142 0.46155
# Poissons Ratio (y) = 0.31600 0.04293
# Poissons Ratio (z) = 0.43874 0.03376
#
# Static dielectric constant tensor:
#      x y z
#    x 4.300560 0.000000 0.256740 
#    y 0.000000 4.022230 0.000000 
#    z 0.256740 0.000000 4.139970 
# 
# 
# High freq. dielectric constant tensor:
#      x y z
#    x 1.875580 0.000000 0.005700 
#    y 0.000000 1.869280 0.000000 
#    z 0.005700 0.000000 1.876540 
# 
# From -- ./inp_files/29241.got.cif
#   From: 2010.06.25/outbox.cif.g09.slc.cpg/sg15_15_cif.got.tgz:29241.got - 2010.06.28 07:06:18.
