data_PCOD8152903
_publ_section_title
;
Structure prediction by ZEFSAII (Michael W. Deem and Ramdas Pophale) SiO2 
 PCOD8152903
Probable space group: C 2/C
;
_chemical_formula_sum "Si O2"
_cell_formula_units_Z 64
_cell_length_a 22.747751
_cell_length_b 15.295974
_cell_length_c 17.515952
_cell_angle_alpha 90.000000
_cell_angle_beta 29.157368
_cell_angle_gamma 90.000000
_cell_volume 2969.378444
_symmetry_space_group_name_H-M "C 2/C"
_symmetry_group_IT_number 15
_symmetry_cell_setting 'monoclinic'
loop_
_space_group_symop_operation_xyz
x,y,z
-x,y,1/2-z
-x,-y,-z
x,-y,1/2+z
1/2+x,1/2+y,z
1/2-x,1/2+y,1/2-z
1/2-x,1/2-y,-z
1/2+x,1/2-y,1/2+z
loop_
_atom_site_type_symbol
_atom_site_label
_atom_site_fract_x
_atom_site_fract_y
_atom_site_fract_z
Si Si1 0.217915 0.001789 0.448364
Si Si2 0.428792 0.364385 0.965280
Si Si3 0.959079 0.156605 0.877115
Si Si4 0.922388 0.581137 0.116054
Si Si5 0.802137 0.691405 0.122896
Si Si6 0.821749 0.930131 0.844574
Si Si7 0.637489 0.593264 0.797199
Si Si8 0.361997 0.203008 0.587844
O O1 0.188798 0.911193 0.438139
O O2 0.233399 0.981578 0.520741
O O3 0.103171 0.063129 0.563925
O O4 0.339414 0.046801 0.279723
O O5 0.549712 0.385842 0.780461
O O6 0.409811 0.259901 0.985520
O O7 0.444979 0.399494 0.033677
O O8 0.000000 0.194652 0.750000
O O9 0.074154 0.146990 0.801521
O O10 0.866684 0.226509 0.015108
O O11 0.839942 0.618883 0.142072
O O12 0.000000 0.500000 0.000000
O O13 0.008120 0.659404 0.046766
O O14 0.771105 0.644043 0.078450
O O15 0.684671 0.745800 0.284203
O O16 0.842917 0.993907 0.749106
O O17 0.768337 0.630693 0.667520
#
# Coordination Sequence:
#
# PCOD8152903 Si02
#       8
#     8   8   8   8   8   8   8   8
#     4  12  25  44  67 100 140 179 224 287 349 410
#     4  11  23  41  68 101 133 179 238 290 334 401
#     4  12  23  41  65 100 143 176 223 287 340 402
#     4  12  25  47  71  97 142 178 226 291 345 409
#     4  11  23  43  71 101 134 180 240 285 335 410
#     4  12  23  42  68  98 138 182 230 278 350 417
#     4  11  23  40  69 100 131 183 236 273 335 409
#     4  11  24  42  68 105 138 183 231 283 343 401
#
# _framework density 21.553334
#
# number of rings (size 3 to 8) (size 9 to 14) (size 15 to 20)
#    0.000    0.500    3.750    6.750    0.000    2.000 
#    0.000    3.125    0.000    0.000    0.000    0.000 
#    0.000    0.000    0.000    0.000    0.000    0.000 
#
# Total GULP energy -396941.415369 kJ/mol
# GULP energy per Si atom -12404.419230 kJ/mol
# Density = 2.150428 g / cm^3
# Si number density = 21.553334 Si / 1000 Ang^3
#
#
#
# Elastic Constant Matrix: (Units=GPa)
#
#
# Indices 1 2 3 4 5 6 
#
# 1 105.7207 36.3709 39.7903 0.0000 -0.1528 0.0000
# 2 36.3709 111.1415 36.5292 0.0000 4.1335 0.0000
# 3 39.7903 36.5292 98.0330 0.0000 -4.5283 0.0000
# 4 0.0000 0.0000 0.0000 38.1623 0.0001 3.5669
# 5 -0.1528 4.1335 -4.5283 0.0001 24.2361 0.0000
# 6 0.0000 0.0000 0.0000 3.5669 0.0000 20.7062
#
#
#
# Elastic Compliance Matrix: (Units=1/GPa)
#
#
# Indices 1 2 3 4 5 6 
#
# 1 0.011792 -0.002593 -0.003829 0.000000 -0.000199 0.000000
# 2 -0.002593 0.010974 -0.003151 0.000000 -0.002477 0.000000
# 3 -0.003829 -0.003151 0.013065 0.000000 0.002954 0.000000
# 4 0.000000 0.000000 0.000000 0.026633 0.000000 -0.004588
# 5 -0.000199 -0.002477 0.002954 0.000000 0.042234 0.000000
# 6 0.000000 0.000000 0.000000 -0.004588 0.000000 0.049085
#
#
# Mechanical properties :
#
#
# Convention : Reuss Voigt Hill
#
# Bulk Modulus (GPa) = 59.93452 60.03065 59.98259
# Shear Modulus (GPa) = 28.01269 30.10126 29.05697
#
# Velocity S-wave (km/s) = 3.60903 3.74116 3.67569
# Velocity P-wave (km/s) = 6.72568 6.82454 6.77529
#
# Compressibility (1/GPa) = 0.01668488
#
# Stress axis : x y z
#
# Youngs Moduli (GPa) = 84.80460 91.12570 76.53768
#
# Poissons Ratio (x) = 0.23628 0.29307
# Poissons Ratio (y) = 0.21989 0.24117
# Poissons Ratio (z) = 0.32473 0.28714
#
# Static dielectric constant tensor:
#      x y z
#    x 3.795440 0.000000 0.007150 
#    y 0.000000 4.054110 0.000000 
#    z 0.007150 0.000000 3.894080 
# 
# 
# High freq. dielectric constant tensor:
#      x y z
#    x 1.840990 0.000000 -0.001820 
#    y 0.000000 1.860650 0.000000 
#    z -0.001820 0.000000 1.838390 
# 
# From -- ./inp_files/219723.got.cif
#   From: 2010.06.25/outbox.cif.g09.slc.cpg/sg15_110_cif.got.tgz:219723.got - 2010.06.28 07:06:18.
