data_PCOD8152324
_publ_section_title
;
Structure prediction by ZEFSAII (Michael W. Deem and Ramdas Pophale) SiO2 
 PCOD8152324
Probable space group: C 2/C
;
_chemical_formula_sum "Si O2"
_cell_formula_units_Z 44
_cell_length_a 25.229155
_cell_length_b 15.859303
_cell_length_c 13.825872
_cell_angle_alpha 90.000000
_cell_angle_beta 159.198290
_cell_angle_gamma 90.000000
_cell_volume 1964.593220
_symmetry_space_group_name_H-M "C 2/C"
_symmetry_group_IT_number 15
_symmetry_cell_setting 'monoclinic'
loop_
_space_group_symop_operation_xyz
x,y,z
-x,y,1/2-z
-x,-y,-z
x,-y,1/2+z
1/2+x,1/2+y,z
1/2-x,1/2+y,1/2-z
1/2-x,1/2-y,-z
1/2+x,1/2-y,1/2+z
loop_
_atom_site_type_symbol
_atom_site_label
_atom_site_fract_x
_atom_site_fract_y
_atom_site_fract_z
Si Si1 0.737798 0.734025 0.844572
Si Si2 0.297087 0.882022 0.277410
Si Si3 0.859696 0.029733 0.382248
Si Si4 0.000000 0.836539 0.250000
Si Si5 0.690568 0.535326 0.418830
Si Si6 0.370429 0.872952 0.720862
O O1 0.730427 0.699629 0.721521
O O2 0.613931 0.804469 0.663648
O O3 0.739844 0.655200 0.922050
O O4 0.896890 0.778142 0.140543
O O5 0.475240 0.880281 0.573294
O O6 0.254668 0.966592 0.262360
O O7 0.227614 0.884510 0.050571
O O8 0.880674 0.111905 0.483172
O O9 0.790844 0.058258 0.162011
O O10 0.020701 0.987334 0.649140
O O11 0.808384 0.462639 0.652452
#
# Coordination Sequence:
#
# PCOD8152324 Si02
#       6
#     8   8   8   4   8   8
#     4  11  23  39  68  98 138 180 230 279 346 419
#     4  12  22  42  69 104 138 178 229 295 337 400
#     4  11  23  40  69  98 134 182 234 275 337 422
#     4  12  20  44  66  94 132 188 222 278 344 414
#     4  11  23  39  66  99 136 179 231 282 343 405
#     4  11  22  40  68 104 134 178 235 288 342 409
#
# _framework density 22.396495000000002
#
# number of rings (size 3 to 8) (size 9 to 14) (size 15 to 20)
#    0.000    0.727    7.273    0.545    0.000    0.000 
#    0.000    0.909    4.000    0.000    0.000    0.000 
#    0.000    0.000    0.000    0.000    0.000    0.000 
#
# Total GULP energy -272650.116555 kJ/mol
# GULP energy per Si atom -12393.187116 kJ/mol
# Density = 2.234552 g / cm^3
# Si number density = 22.396495 Si / 1000 Ang^3
#
#
#
# Elastic Constant Matrix: (Units=GPa)
#
#
# Indices 1 2 3 4 5 6 
#
# 1 140.7289 52.4836 48.1732 0.0000 -10.6401 0.0000
# 2 52.4836 84.0090 28.8730 0.0000 -8.5512 0.0000
# 3 48.1732 28.8730 59.7901 0.0000 -5.9234 0.0000
# 4 0.0000 0.0000 0.0000 28.5847 0.0000 3.5958
# 5 -10.6401 -8.5512 -5.9234 0.0000 46.6985 0.0000
# 6 0.0000 0.0000 0.0000 3.5958 0.0000 46.5103
#
#
#
# Elastic Compliance Matrix: (Units=1/GPa)
#
#
# Indices 1 2 3 4 5 6 
#
# 1 0.011178 -0.004592 -0.006704 0.000000 0.000856 0.000000
# 2 -0.004592 0.016303 -0.004032 0.000000 0.001428 0.000000
# 3 -0.006704 -0.004032 0.024152 0.000000 0.000798 0.000000
# 4 0.000000 0.000000 0.000000 0.035327 0.000000 -0.002731
# 5 0.000856 0.001428 0.000798 0.000000 0.021972 0.000000
# 6 0.000000 0.000000 0.000000 -0.002731 0.000000 0.021712
#
#
# Mechanical properties :
#
#
# Convention : Reuss Voigt Hill
#
# Bulk Modulus (GPa) = 47.66770 60.39862 54.03316
# Shear Modulus (GPa) = 29.71024 34.69193 32.20109
#
# Velocity S-wave (km/s) = 3.64615 3.93999 3.79591
# Velocity P-wave (km/s) = 6.24945 6.90829 6.58711
#
# Compressibility (1/GPa) = 0.02097856
#
# Stress axis : x y z
#
# Youngs Moduli (GPa) = 89.46191 61.33719 41.40384
#
# Poissons Ratio (x) = 0.28167 0.27756
# Poissons Ratio (y) = 0.41082 0.16692
# Poissons Ratio (z) = 0.59973 0.24729
#
# Static dielectric constant tensor:
#      x y z
#    x 4.471430 0.000000 -0.035020 
#    y 0.000000 4.181280 0.000000 
#    z -0.035020 0.000000 3.762860 
# 
# 
# High freq. dielectric constant tensor:
#      x y z
#    x 1.910220 0.000000 0.015350 
#    y 0.000000 1.872910 0.000000 
#    z 0.015350 0.000000 1.842500 
# 
# From -- ./inp_files/178806.got.cif
#   From: 2010.06.25/outbox.cif.g09.slc.cpg/sg15_90_cif.got.tgz:178806.got - 2010.06.28 07:06:18.
