data_PCOD8152274
_publ_section_title
;
Structure prediction by ZEFSAII (Michael W. Deem and Ramdas Pophale) SiO2 
 PCOD8152274
Probable space group: C 2/C
;
_chemical_formula_sum "Si O2"
_cell_formula_units_Z 60
_cell_length_a 8.401477
_cell_length_b 24.846906
_cell_length_c 15.856618
_cell_angle_alpha 90.000000
_cell_angle_beta 117.299407
_cell_angle_gamma 90.000000
_cell_volume 2941.410068
_symmetry_space_group_name_H-M "C 2/C"
_symmetry_group_IT_number 15
_symmetry_cell_setting 'monoclinic'
loop_
_space_group_symop_operation_xyz
x,y,z
-x,y,1/2-z
-x,-y,-z
x,-y,1/2+z
1/2+x,1/2+y,z
1/2-x,1/2+y,1/2-z
1/2-x,1/2-y,-z
1/2+x,1/2-y,1/2+z
loop_
_atom_site_type_symbol
_atom_site_label
_atom_site_fract_x
_atom_site_fract_y
_atom_site_fract_z
Si Si1 0.791063 0.290388 0.215897
Si Si2 0.695912 0.583377 0.935273
Si Si3 0.857703 0.319850 0.779901
Si Si4 0.581060 0.114785 0.045300
Si Si5 0.695579 0.309390 0.012119
Si Si6 0.615854 0.380019 0.600626
Si Si7 0.109991 0.034443 0.362090
Si Si8 0.500000 0.348947 0.250000
O O1 0.780675 0.225675 0.222464
O O2 0.684239 0.312440 0.109780
O O3 0.681033 0.315781 0.268138
O O4 0.000000 0.306137 0.250000
O O5 0.649813 0.520904 0.918833
O O6 0.558336 0.614772 0.842623
O O7 0.692236 0.605984 0.028614
O O8 0.902264 0.591216 0.959819
O O9 0.954627 0.344749 0.885228
O O10 0.765100 0.368681 0.707021
O O11 0.000000 0.293024 0.750000
O O12 0.706028 0.066557 0.110237
O O13 0.664261 0.147523 0.988185
O O14 0.750000 0.250000 0.000000
O O15 0.500494 0.325013 0.929955
O O16 0.504826 0.431550 0.600685
O O17 0.000000 0.024437 0.250000
#
# Coordination Sequence:
#
# PCOD8152274 Si02
#       8
#     8   8   8   8   8   8   8   4
#     4  12  25  43  66  99 142 179 230 277 334 415
#     4  12  24  45  66  92 135 176 226 283 345 402
#     4  12  23  41  65 101 135 174 224 280 336 401
#     4  11  24  41  69  98 131 175 227 283 342 410
#     4  11  22  40  63  97 130 171 220 270 339 405
#     4  11  24  40  68  94 127 174 217 278 335 403
#     4  11  23  42  69  96 130 172 227 281 349 406
#     4  12  26  46  68  98 140 190 220 282 346 408
#
# _framework density 20.398378999999998
#
# number of rings (size 3 to 8) (size 9 to 14) (size 15 to 20)
#    0.000    0.533    6.667    2.400    1.867    0.000 
#    0.000    2.667    0.000    0.000    0.000    0.000 
#    0.000    0.000    0.000    0.000    0.000    0.000 
#
# Total GULP energy -371923.582165 kJ/mol
# GULP energy per Si atom -12397.452739 kJ/mol
# Density = 2.035195 g / cm^3
# Si number density = 20.398379 Si / 1000 Ang^3
#
#
#
# Elastic Constant Matrix: (Units=GPa)
#
#
# Indices 1 2 3 4 5 6 
#
# 1 101.1049 34.1530 15.3679 0.0000 3.8573 0.0000
# 2 34.1530 113.9965 31.0197 0.0000 1.8098 0.0000
# 3 15.3679 31.0197 85.3015 0.0000 -3.2565 0.0000
# 4 0.0000 0.0000 0.0000 29.9067 0.0000 5.6273
# 5 3.8573 1.8098 -3.2565 0.0000 35.2481 0.0000
# 6 0.0000 0.0000 0.0000 5.6273 0.0000 18.4934
#
#
#
# Elastic Compliance Matrix: (Units=1/GPa)
#
#
# Indices 1 2 3 4 5 6 
#
# 1 0.011109 -0.003056 -0.000934 0.000000 -0.001145 0.000000
# 2 -0.003056 0.010600 -0.003324 0.000000 -0.000517 0.000000
# 3 -0.000934 -0.003324 0.013157 0.000000 0.001488 0.000000
# 4 0.000000 0.000000 0.000000 0.035468 0.000000 -0.010792
# 5 -0.001145 -0.000517 0.001488 0.000000 0.028660 0.000000
# 6 0.000000 0.000000 0.000000 -0.010792 0.000000 0.057357
#
#
# Mechanical properties :
#
#
# Convention : Reuss Voigt Hill
#
# Bulk Modulus (GPa) = 49.41032 51.27602 50.34317
# Shear Modulus (GPa) = 28.13340 31.38710 29.76025
#
# Velocity S-wave (km/s) = 3.71778 3.92689 3.82377
# Velocity P-wave (km/s) = 6.53487 6.76406 6.65045
#
# Compressibility (1/GPa) = 0.02023869
#
# Stress axis : x y z
#
# Youngs Moduli (GPa) = 90.02043 94.33584 76.00548
#
# Poissons Ratio (x) = 0.28827 0.07097
# Poissons Ratio (y) = 0.27509 0.25264
# Poissons Ratio (z) = 0.08406 0.31357
#
# Static dielectric constant tensor:
#      x y z
#    x 3.800850 0.000000 0.065500 
#    y 0.000000 3.663340 0.000000 
#    z 0.065500 0.000000 3.966730 
# 
# 
# High freq. dielectric constant tensor:
#      x y z
#    x 1.803770 0.000000 -0.003890 
#    y 0.000000 1.794680 0.000000 
#    z -0.003890 0.000000 1.804540 
# 
# From -- ./inp_files/137905.got.cif
#   From: 2010.06.25/outbox.cif.g09.slc.cpg/sg15_69_cif.got.tgz:137905.got - 2010.06.28 07:06:18.
