data_PCOD8152868
_publ_section_title
;
Structure prediction by ZEFSAII (Michael W. Deem and Ramdas Pophale) SiO2 
 PCOD8152868
Probable space group: C 2/C
;
_chemical_formula_sum "Si O2"
_cell_formula_units_Z 48
_cell_length_a 20.835783
_cell_length_b 11.648374
_cell_length_c 19.678188
_cell_angle_alpha 90.000000
_cell_angle_beta 155.285141
_cell_angle_gamma 90.000000
_cell_volume 1996.839593
_symmetry_space_group_name_H-M "C 2/C"
_symmetry_group_IT_number 15
_symmetry_cell_setting 'monoclinic'
loop_
_space_group_symop_operation_xyz
x,y,z
-x,y,1/2-z
-x,-y,-z
x,-y,1/2+z
1/2+x,1/2+y,z
1/2-x,1/2+y,1/2-z
1/2-x,1/2-y,-z
1/2+x,1/2-y,1/2+z
loop_
_atom_site_type_symbol
_atom_site_label
_atom_site_fract_x
_atom_site_fract_y
_atom_site_fract_z
Si Si1 0.514744 0.264863 0.457055
Si Si2 0.856560 0.670770 0.439741
Si Si3 0.736518 0.321595 0.383354
Si Si4 0.324258 0.913316 0.600997
Si Si5 0.175336 0.961988 0.669117
Si Si6 0.828847 0.610787 0.706751
O O1 0.436950 0.215920 0.448924
O O2 0.395714 0.345017 0.299895
O O3 0.592144 0.165042 0.485382
O O4 0.666761 0.338480 0.623612
O O5 0.746961 0.562905 0.313129
O O6 0.758433 0.768288 0.383232
O O7 0.987553 0.628986 0.617443
O O8 0.723870 0.190765 0.397201
O O9 0.723793 0.408981 0.434510
O O10 0.500000 0.900499 0.750000
O O11 0.284733 0.032913 0.599976
O O12 0.282416 0.051135 0.733049
O O13 0.000000 0.000000 0.500000
#
# Coordination Sequence:
#
# PCOD8152868 Si02
#       6
#     8   8   8   8   8   8
#     4  12  20  40  68 104 142 170 222 305 368 413
#     4  12  24  43  72 106 149 184 229 306 366 443
#     4  11  23  39  68 100 145 174 228 302 356 424
#     4  11  24  42  64  97 135 191 243 280 347 422
#     4  12  24  40  66 110 141 180 233 285 376 443
#     4  12  24  45  69 103 147 188 240 292 368 434
#
# _framework density 24.037984000000002
#
# number of rings (size 3 to 8) (size 9 to 14) (size 15 to 20)
#    0.000    0.333    8.333    0.500    0.000    1.333 
#    0.000    0.833    0.000    0.000    0.000    0.000 
#    0.000    0.000    0.000    0.000    0.000    0.000 
#
# Total GULP energy -297592.720241 kJ/mol
# GULP energy per Si atom -12399.696677 kJ/mol
# Density = 2.398327 g / cm^3
# Si number density = 24.037984 Si / 1000 Ang^3
#
#
#
# Elastic Constant Matrix: (Units=GPa)
#
#
# Indices 1 2 3 4 5 6 
#
# 1 61.9532 6.3146 13.4950 0.0009 1.2656 0.0003
# 2 6.3146 71.0293 25.9115 0.0016 1.0890 0.0011
# 3 13.4950 25.9115 119.1943 0.0020 1.8596 0.0012
# 4 0.0009 0.0016 0.0020 40.7557 0.0006 -1.5844
# 5 1.2656 1.0890 1.8596 0.0006 32.4358 0.0004
# 6 0.0003 0.0011 0.0012 -1.5844 0.0004 34.8741
#
#
#
# Elastic Compliance Matrix: (Units=1/GPa)
#
#
# Indices 1 2 3 4 5 6 
#
# 1 0.016606 -0.000853 -0.001687 0.000000 -0.000523 0.000000
# 2 -0.000853 0.015339 -0.003233 0.000000 -0.000296 0.000000
# 3 -0.001687 -0.003233 0.009289 0.000000 -0.000358 0.000000
# 4 0.000000 0.000000 0.000000 0.024580 0.000000 0.001117
# 5 -0.000523 -0.000296 -0.000358 0.000000 0.030881 0.000000
# 6 0.000000 0.000000 0.000000 0.001117 0.000000 0.028725
#
#
# Mechanical properties :
#
#
# Convention : Reuss Voigt Hill
#
# Bulk Modulus (GPa) = 33.68341 38.17989 35.93165
# Shear Modulus (GPa) = 34.04564 35.37684 34.71124
#
# Velocity S-wave (km/s) = 3.76749 3.84044 3.80414
# Velocity P-wave (km/s) = 5.74181 5.96515 5.85454
#
# Compressibility (1/GPa) = 0.02968821
#
# Stress axis : x y z
#
# Youngs Moduli (GPa) = 60.21846 65.19513 107.65341
#
# Poissons Ratio (x) = 0.05561 0.18156
# Poissons Ratio (y) = 0.05137 0.34807
# Poissons Ratio (z) = 0.10156 0.21079
#
# Static dielectric constant tensor:
#      x y z
#    x 4.294610 0.000000 -0.111430 
#    y 0.000000 4.572050 0.000000 
#    z -0.111430 0.000000 4.735960 
# 
# 
# High freq. dielectric constant tensor:
#      x y z
#    x 1.941200 0.000000 0.006920 
#    y 0.000000 1.943970 0.000000 
#    z 0.006920 0.000000 1.964980 
# 
# From -- ./inp_files/283561.got.cif
#   From: 2010.06.25/outbox.cif.g09.slc.cpg/sg15_142_cif.got.tgz:283561.got - 2010.06.28 07:06:18.
