data_PCOD8152550
_publ_section_title
;
Structure prediction by ZEFSAII (Michael W. Deem and Ramdas Pophale) SiO2 
 PCOD8152550
Probable space group: C 2/C
;
_chemical_formula_sum "Si O2"
_cell_formula_units_Z 56
_cell_length_a 11.068217
_cell_length_b 10.704593
_cell_length_c 20.481251
_cell_angle_alpha 90.000000
_cell_angle_beta 104.295292
_cell_angle_gamma 90.000000
_cell_volume 2351.495906
_symmetry_space_group_name_H-M "C 2/C"
_symmetry_group_IT_number 15
_symmetry_cell_setting 'monoclinic'
loop_
_space_group_symop_operation_xyz
x,y,z
-x,y,1/2-z
-x,-y,-z
x,-y,1/2+z
1/2+x,1/2+y,z
1/2-x,1/2+y,1/2-z
1/2-x,1/2-y,-z
1/2+x,1/2-y,1/2+z
loop_
_atom_site_type_symbol
_atom_site_label
_atom_site_fract_x
_atom_site_fract_y
_atom_site_fract_z
Si Si1 0.354598 0.606116 0.541416
Si Si2 0.404937 0.948429 0.538547
Si Si3 0.314782 0.197470 0.573303
Si Si4 0.548203 0.219091 0.345065
Si Si5 0.236827 0.083186 0.199515
Si Si6 0.981433 0.130989 0.427832
Si Si7 0.220975 0.204155 0.702966
O O1 0.207158 0.626013 0.511218
O O2 0.376513 0.663234 0.616149
O O3 0.430972 0.671593 0.492338
O O4 0.402696 0.464246 0.549410
O O5 0.329951 0.049771 0.571129
O O6 0.500000 0.000000 0.500000
O O7 0.487791 0.863687 0.596850
O O8 0.250000 0.250000 0.500000
O O9 0.456070 0.249563 0.597980
O O10 0.235700 0.225496 0.627608
O O11 0.631688 0.132755 0.309853
O O12 0.422409 0.269382 0.294624
O O13 0.130104 0.075899 0.130465
O O14 0.198193 0.187231 0.249464
O O15 0.254712 0.939687 0.228510
#
# Coordination Sequence:
#
# PCOD8152550 Si02
#       7
#     8   8   8   8   8   8   8
#     4  11  22  42  74 108 152 194 245 317 392 460
#     4  12  24  39  72 117 153 188 249 315 398 460
#     4  12  24  45  74 110 153 193 248 329 388 457
#     4  12  25  47  77 106 152 199 259 316 394 458
#     4  12  28  53  77 108 153 212 266 321 390 476
#     4  11  23  43  73 109 149 197 251 310 391 469
#     4  12  28  54  77 109 157 209 266 324 395 474
#
# _framework density 23.814629
#
# number of rings (size 3 to 8) (size 9 to 14) (size 15 to 20)
#    0.000    0.286    5.714    3.429    2.000    2.857 
#    5.143    0.000    0.000    0.000    0.000    0.000 
#    0.000    0.000    0.000    0.000    0.000    0.000 
#
# Total GULP energy -347085.647888 kJ/mol
# GULP energy per Si atom -12395.915996 kJ/mol
# Density = 2.376043 g / cm^3
# Si number density = 23.814629 Si / 1000 Ang^3
#
#
#
# Elastic Constant Matrix: (Units=GPa)
#
#
# Indices 1 2 3 4 5 6 
#
# 1 110.7801 35.4302 13.9337 0.0000 -6.3755 0.0000
# 2 35.4302 128.0734 38.0478 0.0000 2.1615 0.0000
# 3 13.9337 38.0478 75.9954 0.0000 -5.0816 0.0000
# 4 0.0000 0.0000 0.0000 43.1927 0.0000 -1.3855
# 5 -6.3755 2.1615 -5.0816 0.0000 25.1204 0.0000
# 6 0.0000 0.0000 0.0000 -1.3855 0.0000 43.7184
#
#
#
# Elastic Compliance Matrix: (Units=1/GPa)
#
#
# Indices 1 2 3 4 5 6 
#
# 1 0.010102 -0.002755 -0.000290 0.000000 0.002742 0.000000
# 2 -0.002755 0.009999 -0.004669 0.000000 -0.002504 0.000000
# 3 -0.000290 -0.004669 0.015785 0.000000 0.003521 0.000000
# 4 0.000000 0.000000 0.000000 0.023176 0.000000 0.000734
# 5 0.002742 -0.002504 0.003521 0.000000 0.041432 0.000000
# 6 0.000000 0.000000 0.000000 0.000734 0.000000 0.022897
#
#
# Mechanical properties :
#
#
# Convention : Reuss Voigt Hill
#
# Bulk Modulus (GPa) = 48.87585 54.40803 51.64194
# Shear Modulus (GPa) = 34.33191 37.56876 35.95033
#
# Velocity S-wave (km/s) = 3.80100 3.97615 3.88956
# Velocity P-wave (km/s) = 6.31122 6.63142 6.47330
#
# Compressibility (1/GPa) = 0.02046000
#
# Stress axis : x y z
#
# Youngs Moduli (GPa) = 98.98794 100.00658 63.35283
#
# Poissons Ratio (x) = 0.27551 0.01835
# Poissons Ratio (y) = 0.27271 0.29577
# Poissons Ratio (z) = 0.02866 0.46689
#
# Static dielectric constant tensor:
#      x y z
#    x 4.291340 0.000000 0.020260 
#    y 0.000000 4.668420 0.000000 
#    z 0.020260 0.000000 4.278450 
# 
# 
# High freq. dielectric constant tensor:
#      x y z
#    x 1.942720 0.000000 -0.002570 
#    y 0.000000 1.960740 0.000000 
#    z -0.002570 0.000000 1.934650 
# 
# From -- ./inp_files/237652.got.cif
#   From: 2010.06.25/outbox.cif.g09.slc.cpg/sg15_119_cif.got.tgz:237652.got - 2010.06.28 07:06:18.
