data_PCOD8152987
_publ_section_title
;
Structure prediction by ZEFSAII (Michael W. Deem and Ramdas Pophale) SiO2 
 PCOD8152987
Probable space group: C 2/C
;
_chemical_formula_sum "Si O2"
_cell_formula_units_Z 32
_cell_length_a 32.438945
_cell_length_b 7.175847
_cell_length_c 11.193440
_cell_angle_alpha 90.000000
_cell_angle_beta 147.820343
_cell_angle_gamma 90.000000
_cell_volume 1387.665834
_symmetry_space_group_name_H-M "C 2/C"
_symmetry_group_IT_number 15
_symmetry_cell_setting 'monoclinic'
loop_
_space_group_symop_operation_xyz
x,y,z
-x,y,1/2-z
-x,-y,-z
x,-y,1/2+z
1/2+x,1/2+y,z
1/2-x,1/2+y,1/2-z
1/2-x,1/2-y,-z
1/2+x,1/2-y,1/2+z
loop_
_atom_site_type_symbol
_atom_site_label
_atom_site_fract_x
_atom_site_fract_y
_atom_site_fract_z
Si Si1 0.486114 0.624094 0.346917
Si Si2 0.331223 0.219931 0.549625
Si Si3 0.130165 0.637664 0.234804
Si Si4 0.763769 0.897131 0.888428
O O1 0.500000 0.523317 0.250000
O O2 0.500000 0.500000 0.500000
O O3 0.399167 0.700968 0.131844
O O4 0.543703 0.801334 0.490777
O O5 0.266715 0.096280 0.322315
O O6 0.287673 0.399503 0.498288
O O7 0.369886 0.084841 0.742275
O O8 0.161607 0.760453 0.423901
O O9 0.190813 0.686521 0.280028
#
# Coordination Sequence:
#
# PCOD8152987 Si02
#       4
#     8   8   8   8
#     4  12  26  49  73 104 148 191 241 299 362 432
#     4  12  23  44  71 102 140 192 237 296 366 428
#     4  11  24  44  68 101 140 186 238 300 355 427
#     4  11  23  41  71 100 140 182 241 295 357 428
#
# _framework density 23.060305
#
# number of rings (size 3 to 8) (size 9 to 14) (size 15 to 20)
#    0.000    0.500    7.500    1.500    0.000    0.000 
#    9.000    0.000    0.000    0.000    0.000    0.000 
#    0.000    0.000    0.000    0.000    0.000    0.000 
#
# Total GULP energy -198276.281965 kJ/mol
# GULP energy per Si atom -12392.267623 kJ/mol
# Density = 2.300782 g / cm^3
# Si number density = 23.060305 Si / 1000 Ang^3
#
#
#
# Elastic Constant Matrix: (Units=GPa)
#
#
# Indices 1 2 3 4 5 6 
#
# 1 72.1726 9.6270 22.0749 0.0000 -9.7133 0.0000
# 2 9.6270 115.2998 32.2076 0.0000 -6.9994 0.0000
# 3 22.0749 32.2076 97.0758 0.0000 0.0666 0.0000
# 4 0.0000 0.0000 0.0000 42.1512 0.0000 1.0487
# 5 -9.7133 -6.9994 0.0666 0.0000 34.2236 0.0000
# 6 0.0000 0.0000 0.0000 1.0487 0.0000 29.2547
#
#
#
# Elastic Compliance Matrix: (Units=1/GPa)
#
#
# Indices 1 2 3 4 5 6 
#
# 1 0.015531 -0.000046 -0.003519 0.000000 0.004405 0.000000
# 2 -0.000046 0.009693 -0.003207 0.000000 0.001975 0.000000
# 3 -0.003519 -0.003207 0.012167 0.000000 -0.001678 0.000000
# 4 0.000000 0.000000 0.000000 0.023745 0.000000 -0.000851
# 5 0.004405 0.001975 -0.001678 0.000000 0.030877 0.000000
# 6 0.000000 0.000000 0.000000 -0.000851 0.000000 0.034213
#
#
# Mechanical properties :
#
#
# Convention : Reuss Voigt Hill
#
# Bulk Modulus (GPa) = 41.93620 45.81856 43.87738
# Shear Modulus (GPa) = 33.84800 35.83513 34.84157
#
# Velocity S-wave (km/s) = 3.83535 3.94633 3.89123
# Velocity P-wave (km/s) = 6.15127 6.37784 6.26558
#
# Compressibility (1/GPa) = 0.02384575
#
# Stress axis : x y z
#
# Youngs Moduli (GPa) = 64.38646 103.17205 82.19231
#
# Poissons Ratio (x) = 0.00477 0.28927
# Poissons Ratio (y) = 0.00298 0.26356
# Poissons Ratio (z) = 0.22661 0.33083
#
# Static dielectric constant tensor:
#      x y z
#    x 3.919470 0.000000 0.034530 
#    y 0.000000 3.867650 0.000000 
#    z 0.034530 0.000000 4.347650 
# 
# 
# High freq. dielectric constant tensor:
#      x y z
#    x 1.891810 0.000000 0.006550 
#    y 0.000000 1.899060 0.000000 
#    z 0.006550 0.000000 1.927140 
# 
# From -- ./inp_files/116113.got.cif
#   From: 2010.06.25/outbox.cif.g09.slc.cpg/sg15_59_cif.got.tgz:116113.got - 2010.06.28 07:06:18.
