data_PCOD8152729
_publ_section_title
;
Structure prediction by ZEFSAII (Michael W. Deem and Ramdas Pophale) SiO2 
 PCOD8152729
Probable space group: C 2/C
;
_chemical_formula_sum "Si O2"
_cell_formula_units_Z 48
_cell_length_a 16.045597
_cell_length_b 8.664659
_cell_length_c 29.541812
_cell_angle_alpha 90.000000
_cell_angle_beta 35.009850
_cell_angle_gamma 90.000000
_cell_volume 2356.364091
_symmetry_space_group_name_H-M "C 2/C"
_symmetry_group_IT_number 15
_symmetry_cell_setting 'monoclinic'
loop_
_space_group_symop_operation_xyz
x,y,z
-x,y,1/2-z
-x,-y,-z
x,-y,1/2+z
1/2+x,1/2+y,z
1/2-x,1/2+y,1/2-z
1/2-x,1/2-y,-z
1/2+x,1/2-y,1/2+z
loop_
_atom_site_type_symbol
_atom_site_label
_atom_site_fract_x
_atom_site_fract_y
_atom_site_fract_z
Si Si1 0.840504 0.332379 0.998740
Si Si2 0.331141 0.168394 0.833219
Si Si3 0.152142 0.262222 0.831495
Si Si4 0.633157 0.391100 0.927863
Si Si5 0.380393 0.401292 0.666376
Si Si6 0.185746 0.156135 0.069386
O O1 0.004264 0.354535 0.907903
O O2 0.750000 0.250000 0.000000
O O3 0.842034 0.239097 0.045458
O O4 0.766251 0.494919 0.040694
O O5 0.500000 0.167127 0.750000
O O6 0.257506 0.272092 0.827461
O O7 0.282750 0.244510 0.900955
O O8 0.278783 0.991713 0.857872
O O9 0.229121 0.342437 0.754602
O O10 0.116997 0.085204 0.837280
O O11 0.601753 0.323233 0.891484
O O12 0.500000 0.500000 0.000000
O O13 0.513586 0.357476 0.639201
O O14 0.250000 0.250000 0.000000
#
# Coordination Sequence:
#
# PCOD8152729 Si02
#       6
#     8   8   8   8   8   8
#     4  12  24  44  70  99 132 178 228 278 336 412
#     4  11  23  44  67  97 136 176 216 280 345 400
#     4  11  25  43  69  96 137 175 222 279 345 402
#     4  11  22  45  70  96 135 175 225 281 340 399
#     4  11  24  45  66 100 137 177 222 284 338 415
#     4  12  26  42  69  99 138 175 229 281 338 409
#
# _framework density 20.370367000000002
#
# number of rings (size 3 to 8) (size 9 to 14) (size 15 to 20)
#    0.000    0.667    6.667    2.000    2.333    4.667 
#    0.000    0.000    0.000    0.000    0.000    0.000 
#    0.000    0.000    0.000    0.000    0.000    0.000 
#
# Total GULP energy -297649.471074 kJ/mol
# GULP energy per Si atom -12402.061295 kJ/mol
# Density = 2.032400 g / cm^3
# Si number density = 20.370367 Si / 1000 Ang^3
#
#
#
# Elastic Constant Matrix: (Units=GPa)
#
#
# Indices 1 2 3 4 5 6 
#
# 1 107.9167 17.5345 38.9898 0.0049 2.6974 0.0317
# 2 17.5345 62.1334 12.3611 0.0270 6.5098 0.0541
# 3 38.9898 12.3611 125.7682 -0.0080 -1.1785 -0.0039
# 4 0.0049 0.0270 -0.0080 40.2703 -0.0026 3.6944
# 5 2.6974 6.5098 -1.1785 -0.0026 48.2279 0.0017
# 6 0.0317 0.0541 -0.0039 3.6944 0.0017 28.9406
#
#
#
# Elastic Compliance Matrix: (Units=1/GPa)
#
#
# Indices 1 2 3 4 5 6 
#
# 1 0.010788 -0.002388 -0.003113 0.000000 -0.000357 -0.000008
# 2 -0.002388 0.017193 -0.000970 -0.000009 -0.002211 -0.000028
# 3 -0.003113 -0.000970 0.009017 0.000002 0.000525 0.000006
# 4 0.000000 -0.000009 0.000002 0.025126 0.000003 -0.003207
# 5 -0.000357 -0.002211 0.000525 0.000003 0.021066 0.000003
# 6 -0.000008 -0.000028 0.000006 -0.003207 0.000003 0.034963
#
#
# Mechanical properties :
#
#
# Convention : Reuss Voigt Hill
#
# Bulk Modulus (GPa) = 41.57091 48.17657 44.87374
# Shear Modulus (GPa) = 35.94180 38.61662 37.27921
#
# Velocity S-wave (km/s) = 4.20505 4.35872 4.28257
# Velocity P-wave (km/s) = 6.63539 7.00235 6.82134
#
# Compressibility (1/GPa) = 0.02405528
#
# Stress axis : x y z
#
# Youngs Moduli (GPa) = 92.69519 58.16346 110.90741
#
# Poissons Ratio (x) = 0.13888 0.34527
# Poissons Ratio (y) = 0.22133 0.10761
# Poissons Ratio (z) = 0.28857 0.05644
#
# Static dielectric constant tensor:
#      x y z
#    x 4.374220 -0.000060 0.197860 
#    y -0.000060 3.151670 0.000110 
#    z 0.197860 0.000110 3.985040 
# 
# 
# High freq. dielectric constant tensor:
#      x y z
#    x 1.816560 -0.000010 0.000240 
#    y -0.000010 1.783360 0.000000 
#    z 0.000240 0.000000 1.814480 
# 
# From -- ./inp_files/209264.got.cif
#   From: 2010.06.25/outbox.cif.g09.slc.cpg/sg15_105_cif.got.tgz:209264.got - 2010.06.28 07:06:18.
