data_PCOD8152864
_publ_section_title
;
Structure prediction by ZEFSAII (Michael W. Deem and Ramdas Pophale) SiO2 
 PCOD8152864
Probable space group: C 2/C
;
_chemical_formula_sum "Si O2"
_cell_formula_units_Z 56
_cell_length_a 11.588120
_cell_length_b 8.853828
_cell_length_c 28.525742
_cell_angle_alpha 90.000000
_cell_angle_beta 57.721823
_cell_angle_gamma 90.000000
_cell_volume 2474.439280
_symmetry_space_group_name_H-M "C 2/C"
_symmetry_group_IT_number 15
_symmetry_cell_setting 'monoclinic'
loop_
_space_group_symop_operation_xyz
x,y,z
-x,y,1/2-z
-x,-y,-z
x,-y,1/2+z
1/2+x,1/2+y,z
1/2-x,1/2+y,1/2-z
1/2-x,1/2-y,-z
1/2+x,1/2-y,1/2+z
loop_
_atom_site_type_symbol
_atom_site_label
_atom_site_fract_x
_atom_site_fract_y
_atom_site_fract_z
Si Si1 0.468502 0.525024 0.155274
Si Si2 0.258244 0.584203 0.279621
Si Si3 0.703247 0.347399 0.155655
Si Si4 0.841960 0.768032 0.121680
Si Si5 0.474005 0.020868 0.559781
Si Si6 0.031488 0.557505 0.191946
Si Si7 0.376007 0.814631 0.399661
O O1 0.358539 0.600165 0.214172
O O2 0.575293 0.432270 0.161865
O O3 0.400054 0.422257 0.130016
O O4 0.543041 0.658755 0.111761
O O5 0.270995 0.412893 0.297386
O O6 0.281067 0.702182 0.318022
O O7 0.105928 0.634771 0.297494
O O8 0.839842 0.374155 0.095639
O O9 0.661621 0.171426 0.165587
O O10 0.957542 0.639604 0.090040
O O11 0.780755 0.791250 0.082308
O O12 0.500000 0.000000 0.500000
O O13 0.607427 0.098803 0.554352
O O14 0.059632 0.411924 0.155601
O O15 0.000000 0.495200 0.250000
#
# Coordination Sequence:
#
# PCOD8152864 Si02
#       7
#     8   8   8   8   8   8   8
#     4  12  24  41  69 103 147 184 221 278 346 420
#     4  11  23  39  65  99 147 187 221 261 338 422
#     4  11  23  45  67  97 141 182 229 289 337 413
#     4  11  25  46  66 101 144 176 237 288 337 432
#     4  11  26  52  75  95 133 184 242 312 366 402
#     4  12  25  39  68 103 147 189 224 264 345 431
#     4  12  26  43  70 102 139 182 232 284 351 419
#
# _framework density 22.631388999999999
#
# number of rings (size 3 to 8) (size 9 to 14) (size 15 to 20)
#    0.000    0.571    7.143    2.143    8.000    0.571 
#    0.000    3.571    0.000    0.000    0.000    0.000 
#    0.000    0.000    0.000    0.000    0.000    0.000 
#
# Total GULP energy -347088.295398 kJ/mol
# GULP energy per Si atom -12396.010550 kJ/mol
# Density = 2.257988 g / cm^3
# Si number density = 22.631389 Si / 1000 Ang^3
#
#
#
# Elastic Constant Matrix: (Units=GPa)
#
#
# Indices 1 2 3 4 5 6 
#
# 1 99.3204 31.6086 9.8223 0.0000 12.6968 0.0000
# 2 31.6086 89.2734 1.6933 0.0000 15.7616 0.0000
# 3 9.8223 1.6933 53.7874 0.0000 24.3300 0.0000
# 4 0.0000 0.0000 0.0000 12.1405 0.0000 5.0656
# 5 12.6968 15.7616 24.3300 0.0000 32.0436 0.0000
# 6 0.0000 0.0000 0.0000 5.0656 0.0000 51.0120
#
#
#
# Elastic Compliance Matrix: (Units=1/GPa)
#
#
# Indices 1 2 3 4 5 6 
#
# 1 0.011619 -0.003761 -0.001154 0.000000 -0.001878 0.000000
# 2 -0.003761 0.013951 0.004078 0.000000 -0.008469 0.000000
# 3 -0.001154 0.004078 0.029510 0.000000 -0.023955 0.000000
# 4 0.000000 0.000000 0.000000 0.085929 0.000000 -0.008533
# 5 -0.001878 -0.008469 -0.023955 0.000000 0.054306 0.000000
# 6 0.000000 0.000000 0.000000 -0.008533 0.000000 0.020451
#
#
# Mechanical properties :
#
#
# Convention : Reuss Voigt Hill
#
# Bulk Modulus (GPa) = 18.72400 36.51440 27.61920
# Shear Modulus (GPa) = 21.25482 32.32301 26.78892
#
# Velocity S-wave (km/s) = 3.06792 3.78330 3.44424
# Velocity P-wave (km/s) = 4.56519 5.93750 5.29598
#
# Compressibility (1/GPa) = 0.05340740
#
# Stress axis : x y z
#
# Youngs Moduli (GPa) = 86.06269 71.68030 33.88711
#
# Poissons Ratio (x) = 0.26956 0.03910
# Poissons Ratio (y) = 0.32364 -0.13820
# Poissons Ratio (z) = 0.09931 -0.29233
#
# Static dielectric constant tensor:
#      x y z
#    x 4.800150 0.000000 0.187290 
#    y 0.000000 4.282690 0.000000 
#    z 0.187290 0.000000 3.673290 
# 
# 
# High freq. dielectric constant tensor:
#      x y z
#    x 1.911700 0.000000 0.017830 
#    y 0.000000 1.900540 0.000000 
#    z 0.017830 0.000000 1.849110 
# 
# From -- ./inp_files/310238.got.cif
#   From: 2010.06.25/outbox.cif.g09.slc.cpg/sg15_156_cif.got.tgz:310238.got - 2010.06.28 07:06:18.
