data_PCOD8152365
_publ_section_title
;
Structure prediction by ZEFSAII (Michael W. Deem and Ramdas Pophale) SiO2 
 PCOD8152365
Probable space group: C 2/C
;
_chemical_formula_sum "Si O2"
_cell_formula_units_Z 52
_cell_length_a 11.428646
_cell_length_b 8.914870
_cell_length_c 25.161957
_cell_angle_alpha 90.000000
_cell_angle_beta 92.248460
_cell_angle_gamma 90.000000
_cell_volume 2561.649549
_symmetry_space_group_name_H-M "C 2/C"
_symmetry_group_IT_number 15
_symmetry_cell_setting 'monoclinic'
loop_
_space_group_symop_operation_xyz
x,y,z
-x,y,1/2-z
-x,-y,-z
x,-y,1/2+z
1/2+x,1/2+y,z
1/2-x,1/2+y,1/2-z
1/2-x,1/2-y,-z
1/2+x,1/2-y,1/2+z
loop_
_atom_site_type_symbol
_atom_site_label
_atom_site_fract_x
_atom_site_fract_y
_atom_site_fract_z
Si Si1 0.258157 0.598112 0.711181
Si Si2 0.475914 0.370207 0.540949
Si Si3 0.000000 0.922153 0.250000
Si Si4 0.267061 0.360209 0.920450
Si Si5 0.872624 0.567700 0.500280
Si Si6 0.817876 0.912295 0.804674
Si Si7 0.214534 0.026549 0.904205
O O1 0.391666 0.667217 0.721277
O O2 0.170172 0.735967 0.707246
O O3 0.228713 0.489641 0.760335
O O4 0.248561 0.504596 0.656358
O O5 0.500000 0.500000 0.500000
O O6 0.601690 0.308441 0.561223
O O7 0.389581 0.242109 0.515949
O O8 0.409314 0.444957 0.589403
O O9 0.052143 0.023672 0.202650
O O10 0.208304 0.477661 0.959284
O O11 0.270015 0.440766 0.863037
O O12 0.196879 0.203508 0.917912
O O13 0.812951 0.553903 0.441827
O O14 0.000000 0.500000 0.500000
#
# Coordination Sequence:
#
# PCOD8152365 Si02
#       7
#     8   8   4   8   8   8   8
#     4   9  20  39  63  89 120 159 205 249 307 365
#     4  12  24  40  64  92 123 166 208 255 313 375
#     4   8  18  40  62  84 122 152 200 256 306 350
#     4  11  23  43  62  90 132 161 208 259 313 371
#     4  12  24  42  63  93 127 167 208 254 312 373
#     4   9  20  40  63  89 121 163 199 257 305 360
#     4  11  22  41  63  90 128 164 206 258 310 370
#
# _framework density 20.299420000000001
#
# number of rings (size 3 to 8) (size 9 to 14) (size 15 to 20)
#    0.923    0.615    3.077    2.769    0.000    1.231 
#    0.000    3.846    0.000    0.000    0.000    0.000 
#    0.000    0.000    0.000    0.000    0.000    0.000 
#
# Total GULP energy -322159.052497 kJ/mol
# GULP energy per Si atom -12390.732788 kJ/mol
# Density = 2.025322 g / cm^3
# Si number density = 20.299420 Si / 1000 Ang^3
#
#
#
# Elastic Constant Matrix: (Units=GPa)
#
#
# Indices 1 2 3 4 5 6 
#
# 1 73.6223 10.3440 14.8097 0.0000 -1.0743 0.0000
# 2 10.3440 56.5335 9.4187 0.0000 0.1226 0.0000
# 3 14.8097 9.4187 108.1688 0.0000 16.3430 0.0000
# 4 0.0000 0.0000 0.0000 28.1769 0.0000 1.5674
# 5 -1.0743 0.1226 16.3430 0.0000 20.2849 0.0000
# 6 0.0000 0.0000 0.0000 1.5674 0.0000 27.8373
#
#
#
# Elastic Compliance Matrix: (Units=1/GPa)
#
#
# Indices 1 2 3 4 5 6 
#
# 1 0.014371 -0.002277 -0.002148 0.000000 0.002505 0.000000
# 2 -0.002277 0.018340 -0.001424 0.000000 0.000915 0.000000
# 3 -0.002148 -0.001424 0.011020 0.000000 -0.008984 0.000000
# 4 0.000000 0.000000 0.000000 0.035602 0.000000 -0.002005
# 5 0.002505 0.000915 -0.008984 0.000000 0.056663 0.000000
# 6 0.000000 0.000000 0.000000 -0.002005 0.000000 0.036036
#
#
# Mechanical properties :
#
#
# Convention : Reuss Voigt Hill
#
# Bulk Modulus (GPa) = 31.21588 34.16326 32.68957
# Shear Modulus (GPa) = 25.71910 28.84329 27.28119
#
# Velocity S-wave (km/s) = 3.56334 3.77356 3.66996
# Velocity P-wave (km/s) = 5.68691 5.98770 5.83924
#
# Compressibility (1/GPa) = 0.03203497
#
# Stress axis : x y z
#
# Youngs Moduli (GPa) = 69.58267 54.52426 90.74254
#
# Poissons Ratio (x) = 0.12416 0.19490
# Poissons Ratio (y) = 0.15845 0.12917
# Poissons Ratio (z) = 0.14946 0.07762
#
# Static dielectric constant tensor:
#      x y z
#    x 3.819620 0.000000 0.067280 
#    y 0.000000 3.598190 0.000000 
#    z 0.067280 0.000000 3.766130 
# 
# 
# High freq. dielectric constant tensor:
#      x y z
#    x 1.784970 0.000000 0.003360 
#    y 0.000000 1.782840 0.000000 
#    z 0.003360 0.000000 1.800350 
# 
# From -- ./inp_files/291203.got.cif
#   From: 2010.06.25/outbox.cif.g09.slc.cpg/sg15_146_cif.got.tgz:291203.got - 2010.06.28 07:06:18.
