data_PCOD8152906
_publ_section_title
;
Structure prediction by ZEFSAII (Michael W. Deem and Ramdas Pophale) SiO2 
 PCOD8152906
Probable space group: C 2/C
;
_chemical_formula_sum "Si O2"
_cell_formula_units_Z 48
_cell_length_a 8.439494
_cell_length_b 15.247243
_cell_length_c 22.880519
_cell_angle_alpha 90.000000
_cell_angle_beta 48.486798
_cell_angle_gamma 90.000000
_cell_volume 2204.657803
_symmetry_space_group_name_H-M "C 2/C"
_symmetry_group_IT_number 15
_symmetry_cell_setting 'monoclinic'
loop_
_space_group_symop_operation_xyz
x,y,z
-x,y,1/2-z
-x,-y,-z
x,-y,1/2+z
1/2+x,1/2+y,z
1/2-x,1/2+y,1/2-z
1/2-x,1/2-y,-z
1/2+x,1/2-y,1/2+z
loop_
_atom_site_type_symbol
_atom_site_label
_atom_site_fract_x
_atom_site_fract_y
_atom_site_fract_z
Si Si1 0.867329 0.900254 0.597664
Si Si2 0.639394 0.053925 0.920432
Si Si3 0.283718 0.227175 0.837984
Si Si4 0.175638 0.234794 0.583542
Si Si5 0.276801 0.069871 0.924751
Si Si6 0.437401 0.601510 0.331128
O O1 0.784385 0.805156 0.599480
O O2 0.103758 0.922866 0.518283
O O3 0.874754 0.904200 0.666804
O O4 0.716277 0.974797 0.607937
O O5 0.749722 0.137577 0.920489
O O6 0.504435 0.084586 0.897840
O O7 0.820662 0.989815 0.854438
O O8 0.500000 0.000000 0.000000
O O9 0.500000 0.207976 0.750000
O O10 0.226759 0.142578 0.889551
O O11 0.298332 0.310933 0.879056
O O12 0.078916 0.241810 0.846403
O O13 0.250000 0.250000 0.500000
O O14 0.500000 0.625971 0.250000
#
# Coordination Sequence:
#
# PCOD8152906 Si02
#       6
#     8   8   8   8   8   8
#     4  11  23  42  70 104 139 179 236 289 349 412
#     4  12  24  40  67 103 138 179 231 287 347 416
#     4  11  25  45  67 102 144 184 232 288 355 421
#     4  12  24  42  72 105 140 183 235 290 351 419
#     4  11  23  40  69 104 137 180 229 292 348 417
#     4  11  25  45  67  98 142 189 232 289 352 418
#
# _framework density 21.772086000000002
#
# number of rings (size 3 to 8) (size 9 to 14) (size 15 to 20)
#    0.000    0.667    3.333    5.000    0.000    4.000 
#    0.000   10.000    0.000    0.000    0.000    0.000 
#    0.000    0.000    0.000    0.000    0.000    0.000 
#
# Total GULP energy -297586.480296 kJ/mol
# GULP energy per Si atom -12399.436679 kJ/mol
# Density = 2.172253 g / cm^3
# Si number density = 21.772086 Si / 1000 Ang^3
#
#
#
# Elastic Constant Matrix: (Units=GPa)
#
#
# Indices 1 2 3 4 5 6 
#
# 1 133.8160 24.9857 36.7365 0.0019 -5.0609 -0.0006
# 2 24.9857 139.8057 15.9305 0.0013 -4.0464 -0.0003
# 3 36.7365 15.9305 61.2183 0.0006 0.0190 -0.0009
# 4 0.0019 0.0013 0.0006 23.9486 -0.0017 -4.6730
# 5 -5.0609 -4.0464 0.0190 -0.0017 36.7082 0.0009
# 6 -0.0006 -0.0003 -0.0009 -4.6730 0.0009 43.1973
#
#
#
# Elastic Compliance Matrix: (Units=1/GPa)
#
#
# Indices 1 2 3 4 5 6 
#
# 1 0.009138 -0.001005 -0.005222 0.000000 0.001152 0.000000
# 2 -0.001005 0.007506 -0.001351 0.000000 0.000690 0.000000
# 3 -0.005222 -0.001351 0.019821 0.000000 -0.000879 0.000000
# 4 0.000000 0.000000 0.000000 0.042656 0.000002 0.004615
# 5 0.001152 0.000690 -0.000879 0.000002 0.027477 0.000000
# 6 0.000000 0.000000 0.000000 0.004615 0.000000 0.023649
#
#
# Mechanical properties :
#
#
# Convention : Reuss Voigt Hill
#
# Bulk Modulus (GPa) = 46.92804 54.46060 50.69432
# Shear Modulus (GPa) = 32.78569 37.91665 35.35117
#
# Velocity S-wave (km/s) = 3.88475 4.17769 4.03388
# Velocity P-wave (km/s) = 6.45931 6.95263 6.71050
#
# Compressibility (1/GPa) = 0.02130922
#
# Stress axis : x y z
#
# Youngs Moduli (GPa) = 109.43542 133.22327 50.45242
#
# Poissons Ratio (x) = 0.13384 0.26348
# Poissons Ratio (y) = 0.10995 0.06814
# Poissons Ratio (z) = 0.57152 0.17993
#
# Static dielectric constant tensor:
#      x y z
#    x 4.033300 0.000180 -0.312550 
#    y 0.000180 2.810380 0.000550 
#    z -0.312550 0.000550 3.407080 
# 
# 
# High freq. dielectric constant tensor:
#      x y z
#    x 1.869360 0.000000 -0.003850 
#    y 0.000000 1.884660 0.000000 
#    z -0.003850 0.000000 1.827420 
# 
# From -- ./inp_files/289005.got.cif
#   From: 2010.06.25/outbox.cif.g09.slc.cpg/sg15_145_cif.got.tgz:289005.got - 2010.06.28 07:06:18.
