data_PCOD8152940
_publ_section_title
;
Structure prediction by ZEFSAII (Michael W. Deem and Ramdas Pophale) SiO2 
 PCOD8152940
Probable space group: C 2/C
;
_chemical_formula_sum "Si O2"
_cell_formula_units_Z 56
_cell_length_a 17.142007
_cell_length_b 22.031265
_cell_length_c 8.200592
_cell_angle_alpha 90.000000
_cell_angle_beta 57.843489
_cell_angle_gamma 90.000000
_cell_volume 2621.942919
_symmetry_space_group_name_H-M "C 2/C"
_symmetry_group_IT_number 15
_symmetry_cell_setting 'monoclinic'
loop_
_space_group_symop_operation_xyz
x,y,z
-x,y,1/2-z
-x,-y,-z
x,-y,1/2+z
1/2+x,1/2+y,z
1/2-x,1/2+y,1/2-z
1/2-x,1/2-y,-z
1/2+x,1/2-y,1/2+z
loop_
_atom_site_type_symbol
_atom_site_label
_atom_site_fract_x
_atom_site_fract_y
_atom_site_fract_z
Si Si1 0.864333 0.634033 0.152367
Si Si2 0.564105 0.258046 0.519809
Si Si3 0.151563 0.493189 0.940910
Si Si4 0.000000 0.198176 0.750000
Si Si5 0.893162 0.875918 0.877485
Si Si6 0.210610 0.995298 0.461407
Si Si7 0.341161 0.621793 0.068139
Si Si8 0.000000 0.580677 0.250000
O O1 0.872989 0.578460 0.013080
O O2 0.765516 0.636570 0.353192
O O3 0.944325 0.625557 0.195874
O O4 0.875547 0.697319 0.045382
O O5 0.500000 0.255147 0.750000
O O6 0.512168 0.262414 0.401997
O O7 0.625468 0.318568 0.481707
O O8 0.180265 0.504300 0.720053
O O9 0.257748 0.504811 0.886283
O O10 0.068404 0.537324 0.074016
O O11 0.091272 0.157235 0.628272
O O12 0.860003 0.859751 0.733231
O O13 0.000000 0.893489 0.750000
O O14 0.839598 0.932129 0.014979
O O15 0.144512 0.049656 0.475529
#
# Coordination Sequence:
#
# PCOD8152940 Si02
#       8
#     8   8   8   4   8   8   8   4
#     4  11  25  44  71 101 145 187 237 290 357 424
#     4  11  26  47  69 104 141 192 244 289 344 428
#     4  11  23  42  67  99 142 173 230 294 350 425
#     4  12  25  48  74 100 151 182 236 310 342 418
#     4  11  23  45  67 102 142 183 242 289 348 430
#     4  11  23  41  65 105 139 177 231 290 356 421
#     4  11  24  45  69 105 140 185 236 295 363 422
#     4  12  23  44  68 108 137 184 238 296 358 428
#
# _framework density 21.358208000000001
#
# number of rings (size 3 to 8) (size 9 to 14) (size 15 to 20)
#    0.000    0.857    8.571    0.857    4.000    1.714 
#    0.000    0.000    0.000    0.000    0.000    0.000 
#    0.000    0.000    0.000    0.000    0.000    0.000 
#
# Total GULP energy -346965.568719 kJ/mol
# GULP energy per Si atom -12391.627454 kJ/mol
# Density = 2.130960 g / cm^3
# Si number density = 21.358208 Si / 1000 Ang^3
#
#
#
# Elastic Constant Matrix: (Units=GPa)
#
#
# Indices 1 2 3 4 5 6 
#
# 1 110.3153 41.4008 23.8132 0.0000 0.3405 0.0000
# 2 41.4008 139.7106 54.6222 0.0000 -10.6258 0.0000
# 3 23.8132 54.6222 77.7217 0.0000 -7.5457 0.0000
# 4 0.0000 0.0000 0.0000 21.8301 0.0000 -2.4290
# 5 0.3405 -10.6258 -7.5457 0.0000 37.7782 0.0000
# 6 0.0000 0.0000 0.0000 -2.4290 0.0000 28.0805
#
#
#
# Elastic Compliance Matrix: (Units=1/GPa)
#
#
# Indices 1 2 3 4 5 6 
#
# 1 0.010353 -0.002579 -0.001468 0.000000 -0.001112 0.000000
# 2 -0.002579 0.010587 -0.006485 0.000000 0.001706 0.000000
# 3 -0.001468 -0.006485 0.018048 0.000000 0.001794 0.000000
# 4 0.000000 0.000000 0.000000 0.046253 0.000000 0.004001
# 5 -0.001112 0.001706 0.001794 0.000000 0.027318 0.000000
# 6 0.000000 0.000000 0.000000 0.004001 0.000000 0.035958
#
#
# Mechanical properties :
#
#
# Convention : Reuss Voigt Hill
#
# Bulk Modulus (GPa) = 55.78690 63.04668 59.41679
# Shear Modulus (GPa) = 28.48120 31.39853 29.93986
#
# Velocity S-wave (km/s) = 3.65568 3.83834 3.74812
# Velocity P-wave (km/s) = 6.63287 7.01617 6.82721
#
# Compressibility (1/GPa) = 0.01792536
#
# Stress axis : x y z
#
# Youngs Moduli (GPa) = 96.59089 94.45732 55.40888
#
# Poissons Ratio (x) = 0.24357 0.08133
# Poissons Ratio (y) = 0.24907 0.35931
# Poissons Ratio (z) = 0.14177 0.61252
#
# Static dielectric constant tensor:
#      x y z
#    x 3.991810 0.000000 0.077100 
#    y 0.000000 3.999500 0.000000 
#    z 0.077100 0.000000 3.868090 
# 
# 
# High freq. dielectric constant tensor:
#      x y z
#    x 1.842960 0.000000 0.011400 
#    y 0.000000 1.838980 0.000000 
#    z 0.011400 0.000000 1.837790 
# 
# From -- ./inp_files/50158.got.cif
#   From: 2010.06.25/outbox.cif.g09.slc.cpg/sg15_26_cif.got.tgz:50158.got - 2010.06.28 07:06:18.
