data_PCOD8152928
_publ_section_title
;
Structure prediction by ZEFSAII (Michael W. Deem and Ramdas Pophale) SiO2 
 PCOD8152928
Probable space group: C 2/C
;
_chemical_formula_sum "Si O2"
_cell_formula_units_Z 44
_cell_length_a 11.200813
_cell_length_b 23.791734
_cell_length_c 9.173174
_cell_angle_alpha 90.000000
_cell_angle_beta 125.349753
_cell_angle_gamma 90.000000
_cell_volume 1993.844995
_symmetry_space_group_name_H-M "C 2/C"
_symmetry_group_IT_number 15
_symmetry_cell_setting 'monoclinic'
loop_
_space_group_symop_operation_xyz
x,y,z
-x,y,1/2-z
-x,-y,-z
x,-y,1/2+z
1/2+x,1/2+y,z
1/2-x,1/2+y,1/2-z
1/2-x,1/2-y,-z
1/2+x,1/2-y,1/2+z
loop_
_atom_site_type_symbol
_atom_site_label
_atom_site_fract_x
_atom_site_fract_y
_atom_site_fract_z
Si Si1 0.323498 0.458946 0.270935
Si Si2 0.000000 0.721796 0.750000
Si Si3 0.724766 0.184875 0.408500
Si Si4 0.786211 0.654922 0.784704
Si Si5 0.534806 0.734097 0.584963
Si Si6 0.351964 0.435830 0.957965
O O1 0.205520 0.411728 0.234442
O O2 0.475030 0.437884 0.451286
O O3 0.274403 0.520254 0.292474
O O4 0.327515 0.460162 0.100692
O O5 0.134451 0.683356 0.794903
O O6 0.955784 0.760056 0.582625
O O7 0.645217 0.172440 0.508720
O O8 0.611329 0.211979 0.214729
O O9 0.784211 0.125884 0.384858
O O10 0.867398 0.226835 0.527451
O O11 0.618258 0.676140 0.678213
#
# Coordination Sequence:
#
# PCOD8152928 Si02
#       6
#     8   4   8   8   8   8
#     4   9  18  35  62  89 126 156 209 261 323 365
#     4  12  28  40  58  94 138 166 212 260 330 382
#     4  11  24  40  71  91 130 169 224 253 320 382
#     4  11  23  41  63  93 127 169 212 263 313 383
#     4  12  24  43  61  94 128 174 210 266 315 385
#     4   9  18  36  59  97 121 158 206 269 312 375
#
# _framework density 22.067913999999998
#
# number of rings (size 3 to 8) (size 9 to 14) (size 15 to 20)
#    0.000    1.455    3.636    1.636    2.545    1.455 
#    0.000    0.000    0.000    9.818    0.000    0.000 
#    0.000    0.000    0.000    0.000    0.000    0.000 
#
# Total GULP energy -272718.460899 kJ/mol
# GULP energy per Si atom -12396.293677 kJ/mol
# Density = 2.201769 g / cm^3
# Si number density = 22.067914 Si / 1000 Ang^3
#
#
#
# Elastic Constant Matrix: (Units=GPa)
#
#
# Indices 1 2 3 4 5 6 
#
# 1 83.9297 15.1734 19.6858 0.0000 -2.0672 0.0000
# 2 15.1734 158.3228 47.7278 0.0000 -4.1436 0.0000
# 3 19.6858 47.7278 94.9098 0.0000 -6.3006 0.0000
# 4 0.0000 0.0000 0.0000 35.1867 0.0000 -7.7970
# 5 -2.0672 -4.1436 -6.3006 0.0000 36.1355 0.0000
# 6 0.0000 0.0000 0.0000 -7.7970 0.0000 29.1434
#
#
#
# Elastic Compliance Matrix: (Units=1/GPa)
#
#
# Indices 1 2 3 4 5 6 
#
# 1 0.012559 -0.000491 -0.002341 0.000000 0.000254 0.000000
# 2 -0.000491 0.007466 -0.003639 0.000000 0.000193 0.000000
# 3 -0.002341 -0.003639 0.012966 0.000000 0.001709 0.000000
# 4 0.000000 0.000000 0.000000 0.030211 0.000000 0.008083
# 5 0.000254 0.000193 0.001709 0.000000 0.028008 0.000000
# 6 0.000000 0.000000 0.000000 0.008083 0.000000 0.036476
#
#
# Mechanical properties :
#
#
# Convention : Reuss Voigt Hill
#
# Bulk Modulus (GPa) = 49.88417 55.81516 52.84966
# Shear Modulus (GPa) = 33.94195 37.06480 35.50337
#
# Velocity S-wave (km/s) = 3.92608 4.10271 4.01537
# Velocity P-wave (km/s) = 6.57313 6.91306 6.74523
#
# Compressibility (1/GPa) = 0.02004644
#
# Stress axis : x y z
#
# Youngs Moduli (GPa) = 79.62486 133.94931 77.12730
#
# Poissons Ratio (x) = 0.06580 0.18056
# Poissons Ratio (y) = 0.03912 0.28070
# Poissons Ratio (z) = 0.18640 0.48751
#
# Static dielectric constant tensor:
#      x y z
#    x 3.889780 0.000000 -0.041620 
#    y 0.000000 4.156390 0.000000 
#    z -0.041620 0.000000 3.900640 
# 
# 
# High freq. dielectric constant tensor:
#      x y z
#    x 1.855910 0.000000 -0.009280 
#    y 0.000000 1.880270 0.000000 
#    z -0.009280 0.000000 1.858220 
# 
# From -- ./inp_files/34481.got.cif
#   From: 2010.06.25/outbox.cif.g09.slc.cpg/sg15_18_cif.got.tgz:34481.got - 2010.06.28 07:06:18.
