data_PCOD8152740
_publ_section_title
;
Structure prediction by ZEFSAII (Michael W. Deem and Ramdas Pophale) SiO2 
 PCOD8152740
Probable space group: C 2/C
;
_chemical_formula_sum "Si O2"
_cell_formula_units_Z 60
_cell_length_a 22.776390
_cell_length_b 9.440306
_cell_length_c 13.452358
_cell_angle_alpha 90.000000
_cell_angle_beta 105.936845
_cell_angle_gamma 90.000000
_cell_volume 2781.301035
_symmetry_space_group_name_H-M "C 2/C"
_symmetry_group_IT_number 15
_symmetry_cell_setting 'monoclinic'
loop_
_space_group_symop_operation_xyz
x,y,z
-x,y,1/2-z
-x,-y,-z
x,-y,1/2+z
1/2+x,1/2+y,z
1/2-x,1/2+y,1/2-z
1/2-x,1/2-y,-z
1/2+x,1/2-y,1/2+z
loop_
_atom_site_type_symbol
_atom_site_label
_atom_site_fract_x
_atom_site_fract_y
_atom_site_fract_z
Si Si1 0.620575 0.117456 0.789247
Si Si2 0.813504 0.367258 0.770575
Si Si3 0.112980 0.280926 0.509635
Si Si4 0.117542 0.112892 0.761317
Si Si5 0.500000 0.945777 0.750000
Si Si6 0.008170 0.225765 0.591422
Si Si7 0.673548 0.357478 0.687912
Si Si8 0.606846 0.550567 0.981187
O O1 0.625639 0.153542 0.908114
O O2 0.626639 0.260003 0.728246
O O3 0.676285 0.021309 0.773676
O O4 0.555719 0.043379 0.739006
O O5 0.852809 0.267214 0.717374
O O6 0.743577 0.318465 0.736937
O O7 0.837230 0.354134 0.895091
O O8 0.044773 0.309980 0.520987
O O9 0.116149 0.111148 0.517777
O O10 0.051991 0.125672 0.678441
O O11 0.113331 0.049658 0.867526
O O12 0.162819 0.016657 0.719005
O O13 0.477902 0.845587 0.648482
O O14 0.958302 0.120685 0.520608
O O15 0.657041 0.354212 0.562729
#
# Coordination Sequence:
#
# PCOD8152740 Si02
#       8
#     8   8   8   8   4   8   8   8
#     4  12  27  43  71 111 138 187 232 293 356 421
#     4  11  25  50  68  99 149 184 230 297 358 410
#     4  11  25  44  73 101 140 189 231 289 357 412
#     4  11  22  46  69  98 140 183 232 289 351 412
#     4  12  24  46  70 102 158 174 218 306 360 416
#     4  11  22  45  72 101 143 186 227 289 353 424
#     4  12  27  43  72 106 136 183 248 290 337 429
#     4  12  23  42  74 104 132 188 238 286 350 415
#
# _framework density 21.572637
#
# number of rings (size 3 to 8) (size 9 to 14) (size 15 to 20)
#    0.000    0.533    8.000    1.200    1.867    4.800 
#    0.000    0.000    0.000    0.000    0.000    0.000 
#    0.000    0.000    0.000    0.000    0.000    0.000 
#
# Total GULP energy -371896.431533 kJ/mol
# GULP energy per Si atom -12396.547718 kJ/mol
# Density = 2.152354 g / cm^3
# Si number density = 21.572637 Si / 1000 Ang^3
#
#
#
# Elastic Constant Matrix: (Units=GPa)
#
#
# Indices 1 2 3 4 5 6 
#
# 1 80.9652 25.7538 42.9426 0.0000 11.6987 0.0000
# 2 25.7538 81.2037 50.8961 0.0000 1.9494 0.0000
# 3 42.9426 50.8961 109.3606 0.0000 -3.2960 0.0000
# 4 0.0000 0.0000 0.0000 32.8484 0.0000 -14.2362
# 5 11.6987 1.9494 -3.2960 0.0000 34.6555 0.0000
# 6 0.0000 0.0000 0.0000 -14.2362 0.0000 39.2214
#
#
#
# Elastic Compliance Matrix: (Units=1/GPa)
#
#
# Indices 1 2 3 4 5 6 
#
# 1 0.016987 -0.001325 -0.006242 0.000000 -0.006253 0.000000
# 2 -0.001325 0.017596 -0.007707 0.000000 -0.001276 0.000000
# 3 -0.006242 -0.007707 0.015303 0.000000 0.003996 0.000000
# 4 0.000000 0.000000 0.000000 0.036126 0.000000 0.013113
# 5 -0.006253 -0.001276 0.003996 0.000000 0.031418 0.000000
# 6 0.000000 0.000000 0.000000 0.013113 0.000000 0.030256
#
#
# Mechanical properties :
#
#
# Convention : Reuss Voigt Hill
#
# Bulk Modulus (GPa) = 51.71490 56.74608 54.23049
# Shear Modulus (GPa) = 27.07391 31.47420 29.27405
#
# Velocity S-wave (km/s) = 3.54646 3.82381 3.68774
# Velocity P-wave (km/s) = 6.38704 6.77179 6.58223
#
# Compressibility (1/GPa) = 0.01933679
#
# Stress axis : x y z
#
# Youngs Moduli (GPa) = 58.86988 56.82996 65.34841
#
# Poissons Ratio (x) = 0.07529 0.40790
# Poissons Ratio (y) = 0.07800 0.50367
# Poissons Ratio (z) = 0.36747 0.43802
#
# Static dielectric constant tensor:
#      x y z
#    x 3.801180 0.000000 -0.134670 
#    y 0.000000 3.957490 0.000000 
#    z -0.134670 0.000000 3.960240 
# 
# 
# High freq. dielectric constant tensor:
#      x y z
#    x 1.840980 0.000000 -0.011980 
#    y 0.000000 1.853720 0.000000 
#    z -0.011980 0.000000 1.850300 
# 
# From -- ./inp_files/172420.got.cif
#   From: 2010.06.25/outbox.cif.g09.slc.cpg/sg15_87_cif.got.tgz:172420.got - 2010.06.28 07:06:18.
