data_PCOD8152905
_publ_section_title
;
Structure prediction by ZEFSAII (Michael W. Deem and Ramdas Pophale) SiO2 
 PCOD8152905
Probable space group: C 2/C
;
_chemical_formula_sum "Si O2"
_cell_formula_units_Z 56
_cell_length_a 21.192768
_cell_length_b 18.108762
_cell_length_c 9.625416
_cell_angle_alpha 90.000000
_cell_angle_beta 44.508477
_cell_angle_gamma 90.000000
_cell_volume 2589.543016
_symmetry_space_group_name_H-M "C 2/C"
_symmetry_group_IT_number 15
_symmetry_cell_setting 'monoclinic'
loop_
_space_group_symop_operation_xyz
x,y,z
-x,y,1/2-z
-x,-y,-z
x,-y,1/2+z
1/2+x,1/2+y,z
1/2-x,1/2+y,1/2-z
1/2-x,1/2-y,-z
1/2+x,1/2-y,1/2+z
loop_
_atom_site_type_symbol
_atom_site_label
_atom_site_fract_x
_atom_site_fract_y
_atom_site_fract_z
Si Si1 0.500000 0.234427 0.750000
Si Si2 0.059097 0.998696 0.271684
Si Si3 0.000000 0.229809 0.750000
Si Si4 0.494913 0.846978 0.982759
Si Si5 0.135456 0.855419 0.518430
Si Si6 0.817969 0.567735 0.728430
Si Si7 0.674209 0.076849 0.106232
Si Si8 0.850612 0.140909 0.823508
O O1 0.472151 0.182823 0.921341
O O2 0.588362 0.282640 0.657211
O O3 0.144940 0.948257 0.165216
O O4 0.000000 0.955427 0.250000
O O5 0.082335 0.077490 0.171373
O O6 0.000000 0.000000 0.500000
O O7 0.035694 0.280162 0.568601
O O8 0.087069 0.183832 0.665031
O O9 0.411131 0.900487 0.138079
O O10 0.574976 0.893044 0.788215
O O11 0.240673 0.870552 0.383539
O O12 0.117735 0.842627 0.382288
O O13 0.819532 0.549808 0.562610
O O14 0.800828 0.490808 0.832539
O O15 0.742856 0.147894 0.019792
#
# Coordination Sequence:
#
# PCOD8152905 Si02
#       8
#     4   8   4   8   8   8   8   8
#     4  12  26  45  69  98 142 182 216 276 346 414
#     4  12  21  35  61  93 131 173 214 276 331 389
#     4  12  24  45  67  98 136 180 222 266 348 410
#     4  12  27  47  68  99 136 185 229 275 332 406
#     4  11  23  43  66 101 137 172 226 279 339 403
#     4  11  25  46  73  99 134 175 235 287 332 390
#     4  11  25  46  72 101 132 177 234 287 332 392
#     4  11  23  40  69 103 132 176 222 281 341 402
#
# _framework density 21.625437999999999
#
# number of rings (size 3 to 8) (size 9 to 14) (size 15 to 20)
#    0.000    0.571    7.143    0.429    2.000    2.286 
#    2.571    0.000    0.000    0.000    0.000    0.000 
#    0.000    0.000    0.000    0.000    0.000    0.000 
#
# Total GULP energy -346991.543866 kJ/mol
# GULP energy per Si atom -12392.555138 kJ/mol
# Density = 2.157622 g / cm^3
# Si number density = 21.625438 Si / 1000 Ang^3
#
#
#
# Elastic Constant Matrix: (Units=GPa)
#
#
# Indices 1 2 3 4 5 6 
#
# 1 84.0877 24.5504 39.1470 0.0000 -8.7395 0.0000
# 2 24.5504 61.1648 29.5263 0.0000 0.2012 0.0000
# 3 39.1470 29.5263 118.7136 0.0000 -9.2954 0.0000
# 4 0.0000 0.0000 0.0000 18.8938 0.0000 2.3340
# 5 -8.7395 0.2012 -9.2954 0.0000 43.0306 0.0000
# 6 0.0000 0.0000 0.0000 2.3340 0.0000 33.9703
#
#
#
# Elastic Compliance Matrix: (Units=1/GPa)
#
#
# Indices 1 2 3 4 5 6 
#
# 1 0.015119 -0.004268 -0.003746 0.000000 0.002282 0.000000
# 2 -0.004268 0.019837 -0.003663 0.000000 -0.001751 0.000000
# 3 -0.003746 -0.003663 0.010693 0.000000 0.001566 0.000000
# 4 0.000000 0.000000 0.000000 0.053381 0.000000 -0.003668
# 5 0.002282 -0.001751 0.001566 0.000000 0.024049 0.000000
# 6 0.000000 0.000000 0.000000 -0.003668 0.000000 0.029689
#
#
# Mechanical properties :
#
#
# Convention : Reuss Voigt Hill
#
# Bulk Modulus (GPa) = 44.85411 50.04595 47.45003
# Shear Modulus (GPa) = 27.24008 30.56177 28.90092
#
# Velocity S-wave (km/s) = 3.55298 3.76338 3.65969
# Velocity P-wave (km/s) = 6.13335 6.48663 6.31246
#
# Compressibility (1/GPa) = 0.02229450
#
# Stress axis : x y z
#
# Youngs Moduli (GPa) = 66.14059 50.41198 93.52296
#
# Poissons Ratio (x) = 0.21516 0.35030
# Poissons Ratio (y) = 0.28229 0.34261
# Poissons Ratio (z) = 0.24773 0.18468
#
# Static dielectric constant tensor:
#      x y z
#    x 1.935960 0.000000 -0.566500 
#    y 0.000000 3.827370 0.000000 
#    z -0.566500 0.000000 3.919610 
# 
# 
# High freq. dielectric constant tensor:
#      x y z
#    x 1.855080 0.000000 -0.006070 
#    y 0.000000 1.838070 0.000000 
#    z -0.006070 0.000000 1.863760 
# 
# From -- ./inp_files/57820.got.cif
#   From: 2010.06.25/outbox.cif.g09.slc.cpg/sg15_29_cif.got.tgz:57820.got - 2010.06.28 07:06:18.
