data_PCOD8152894
_publ_section_title
;
Structure prediction by ZEFSAII (Michael W. Deem and Ramdas Pophale) SiO2 
 PCOD8152894
Probable space group: C 2/C
;
_chemical_formula_sum "Si O2"
_cell_formula_units_Z 40
_cell_length_a 26.041416
_cell_length_b 7.402941
_cell_length_c 9.303350
_cell_angle_alpha 90.000000
_cell_angle_beta 86.285668
_cell_angle_gamma 90.000000
_cell_volume 1789.760934
_symmetry_space_group_name_H-M "C 2/C"
_symmetry_group_IT_number 15
_symmetry_cell_setting 'monoclinic'
loop_
_space_group_symop_operation_xyz
x,y,z
-x,y,1/2-z
-x,-y,-z
x,-y,1/2+z
1/2+x,1/2+y,z
1/2-x,1/2+y,1/2-z
1/2-x,1/2-y,-z
1/2+x,1/2-y,1/2+z
loop_
_atom_site_type_symbol
_atom_site_label
_atom_site_fract_x
_atom_site_fract_y
_atom_site_fract_z
Si Si1 0.440683 0.869701 0.232127
Si Si2 0.802928 0.123652 0.649964
Si Si3 0.867628 0.933376 0.865015
Si Si4 0.396810 0.834346 0.933369
Si Si5 0.285107 0.116897 0.401817
O O1 0.500000 0.835683 0.250000
O O2 0.410584 0.706829 0.311718
O O3 0.422821 0.062934 0.295629
O O4 0.431685 0.871188 0.064284
O O5 0.838943 0.152698 0.506560
O O6 0.798647 0.306705 0.741120
O O7 0.826628 0.963164 0.744204
O O8 0.745249 0.070013 0.610536
O O9 0.894919 0.122238 0.898260
O O10 0.339149 0.911702 0.973144
O O11 0.250000 0.250000 0.500000
#
# Coordination Sequence:
#
# PCOD8152894 Si02
#       5
#     8   8   8   8   8
#     4  12  28  48  74 101 133 186 238 292 355 401
#     4  11  23  41  66 103 137 185 222 278 341 414
#     4  11  24  47  69 100 146 176 235 283 343 413
#     4  11  27  45  70 104 142 177 233 289 342 412
#     4  11  23  40  66  99 140 177 224 270 339 412
#
# _framework density 22.349356
#
# number of rings (size 3 to 8) (size 9 to 14) (size 15 to 20)
#    0.000    0.800    6.000    0.600   11.200    2.400 
#    0.000    0.000    0.000    0.000    0.000    0.000 
#    0.000    0.000    0.000    0.000    0.000    0.000 
#
# Total GULP energy -248104.638110 kJ/mol
# GULP energy per Si atom -12405.231905 kJ/mol
# Density = 2.229849 g / cm^3
# Si number density = 22.349356 Si / 1000 Ang^3
#
#
#
# Elastic Constant Matrix: (Units=GPa)
#
#
# Indices 1 2 3 4 5 6 
#
# 1 95.3699 5.7913 -11.0859 0.0000 14.5438 0.0000
# 2 5.7913 72.5877 -4.0487 0.0000 -6.9348 0.0000
# 3 -11.0859 -4.0487 51.0093 0.0000 5.6884 0.0000
# 4 0.0000 0.0000 0.0000 37.0741 0.0000 -11.7380
# 5 14.5438 -6.9348 5.6884 0.0000 41.6744 0.0000
# 6 0.0000 0.0000 0.0000 -11.7380 0.0000 26.0855
#
#
#
# Elastic Compliance Matrix: (Units=1/GPa)
#
#
# Indices 1 2 3 4 5 6 
#
# 1 0.011611 -0.001207 0.002947 0.000000 -0.004655 0.000000
# 2 -0.001207 0.014162 0.000561 0.000000 0.002701 0.000000
# 3 0.002947 0.000561 0.020709 0.000000 -0.003762 0.000000
# 4 0.000000 0.000000 0.000000 0.031454 0.000000 0.014154
# 5 -0.004655 0.002701 -0.003762 0.000000 0.026583 0.000000
# 6 0.000000 0.000000 0.000000 0.014154 0.000000 0.044704
#
#
# Mechanical properties :
#
#
# Convention : Reuss Voigt Hill
#
# Bulk Modulus (GPa) = 19.57589 22.25337 20.91463
# Shear Modulus (GPa) = 30.93095 36.18747 33.55921
#
# Velocity S-wave (km/s) = 3.72422 4.02826 3.87922
# Velocity P-wave (km/s) = 5.22218 5.62268 5.42612
#
# Compressibility (1/GPa) = 0.05108324
#
# Stress axis : x y z
#
# Youngs Moduli (GPa) = 86.12359 70.61120 48.28885
#
# Poissons Ratio (x) = 0.08521 -0.14230
# Poissons Ratio (y) = 0.10393 -0.02707
# Poissons Ratio (z) = -0.25379 -0.03958
#
# Static dielectric constant tensor:
#      x y z
#    x 4.202650 0.000000 0.132900 
#    y 0.000000 3.921990 0.000000 
#    z 0.132900 0.000000 4.195540 
# 
# 
# High freq. dielectric constant tensor:
#      x y z
#    x 1.878710 0.000000 0.005720 
#    y 0.000000 1.877480 0.000000 
#    z 0.005720 0.000000 1.895240 
# 
# From -- ./inp_files/59911.got.cif
#   From: 2010.06.25/outbox.cif.g09.slc.cpg/sg15_30_cif.got.tgz:59911.got - 2010.06.28 07:06:18.
