data_PCOD8152794
_publ_section_title
;
Structure prediction by ZEFSAII (Michael W. Deem and Ramdas Pophale) SiO2 
 PCOD8152794
Probable space group: C 2/C
;
_chemical_formula_sum "Si O2"
_cell_formula_units_Z 60
_cell_length_a 11.458540
_cell_length_b 9.406859
_cell_length_c 25.234081
_cell_angle_alpha 90.000000
_cell_angle_beta 97.755643
_cell_angle_gamma 90.000000
_cell_volume 2695.072611
_symmetry_space_group_name_H-M "C 2/C"
_symmetry_group_IT_number 15
_symmetry_cell_setting 'monoclinic'
loop_
_space_group_symop_operation_xyz
x,y,z
-x,y,1/2-z
-x,-y,-z
x,-y,1/2+z
1/2+x,1/2+y,z
1/2-x,1/2+y,1/2-z
1/2-x,1/2-y,-z
1/2+x,1/2-y,1/2+z
loop_
_atom_site_type_symbol
_atom_site_label
_atom_site_fract_x
_atom_site_fract_y
_atom_site_fract_z
Si Si1 0.988863 0.927803 0.942767
Si Si2 0.893106 0.291821 0.658701
Si Si3 0.000000 0.169111 0.250000
Si Si4 0.736818 0.420347 0.904424
Si Si5 0.710927 0.217350 0.556579
Si Si6 0.852127 0.407227 0.202542
Si Si7 0.627257 0.322111 0.125972
Si Si8 0.301616 0.466005 0.214670
O O1 0.917042 0.782167 0.941088
O O2 0.113496 0.890301 0.925202
O O3 0.917365 0.032916 0.901182
O O4 0.000000 0.000000 0.000000
O O5 0.807870 0.276793 0.603066
O O6 0.899505 0.454682 0.676329
O O7 0.854316 0.189675 0.704601
O O8 0.024320 0.254704 0.650745
O O9 0.049919 0.280935 0.297381
O O10 0.109033 0.062651 0.242947
O O11 0.802550 0.548961 0.937563
O O12 0.819753 0.282303 0.916034
O O13 0.718591 0.451435 0.841257
O O14 0.750000 0.250000 0.500000
O O15 0.728620 0.354979 0.173413
O O16 0.822015 0.444676 0.262262
#
# Coordination Sequence:
#
# PCOD8152794 Si02
#       8
#     8   8   4   8   8   8   8   8
#     4  12  24  48  76  99 141 183 232 294 361 428
#     4  11  25  45  72 102 146 188 235 296 353 423
#     4  12  26  42  66  98 138 182 246 276 344 408
#     4  11  26  44  70 107 137 183 235 292 356 427
#     4  11  22  47  76 103 138 182 234 297 364 421
#     4  12  27  42  69 102 142 191 240 286 346 423
#     4  12  25  47  68 107 144 185 235 292 357 420
#     4  11  24  45  66  98 140 186 232 288 343 410
#
# _framework density 22.262848999999999
#
# number of rings (size 3 to 8) (size 9 to 14) (size 15 to 20)
#    0.000    0.533    6.667    1.600    1.867    4.267 
#    0.000    1.333    0.000    0.000    0.000    0.000 
#    0.000    0.000    0.000    0.000    0.000    0.000 
#
# Total GULP energy -371921.950580 kJ/mol
# GULP energy per Si atom -12397.398353 kJ/mol
# Density = 2.221218 g / cm^3
# Si number density = 22.262849 Si / 1000 Ang^3
#
#
#
# Elastic Constant Matrix: (Units=GPa)
#
#
# Indices 1 2 3 4 5 6 
#
# 1 90.7341 35.7802 26.4439 0.0000 -0.3944 0.0000
# 2 35.7802 113.1324 11.9383 0.0000 -5.7267 0.0000
# 3 26.4439 11.9383 82.2090 0.0000 -13.3040 0.0000
# 4 0.0000 0.0000 0.0000 29.2836 0.0000 -0.7618
# 5 -0.3944 -5.7267 -13.3040 0.0000 31.9202 0.0000
# 6 0.0000 0.0000 0.0000 -0.7618 0.0000 35.4625
#
#
#
# Elastic Compliance Matrix: (Units=1/GPa)
#
#
# Indices 1 2 3 4 5 6 
#
# 1 0.013844 -0.004048 -0.004241 0.000000 -0.002323 0.000000
# 2 -0.004048 0.010200 0.000117 0.000000 0.001829 0.000000
# 3 -0.004241 0.000117 0.014483 0.000000 0.006005 0.000000
# 4 0.000000 0.000000 0.000000 0.034168 0.000000 0.000734
# 5 -0.002323 0.001829 0.006005 0.000000 0.034130 0.000000
# 6 0.000000 0.000000 0.000000 0.000734 0.000000 0.028215
#
#
# Mechanical properties :
#
#
# Convention : Reuss Voigt Hill
#
# Bulk Modulus (GPa) = 45.08233 48.26671 46.67452
# Shear Modulus (GPa) = 31.49050 33.46080 32.47565
#
# Velocity S-wave (km/s) = 3.76505 3.88104 3.82349
# Velocity P-wave (km/s) = 6.26057 6.46613 6.36418
#
# Compressibility (1/GPa) = 0.02218164
#
# Stress axis : x y z
#
# Youngs Moduli (GPa) = 72.23567 98.04126 69.04573
#
# Poissons Ratio (x) = 0.39690 0.29283
# Poissons Ratio (y) = 0.29243 -0.00807
# Poissons Ratio (z) = 0.30636 -0.01147
#
# Static dielectric constant tensor:
#      x y z
#    x 4.189570 0.000000 0.039060 
#    y 0.000000 4.561600 0.000000 
#    z 0.039060 0.000000 3.974170 
# 
# 
# High freq. dielectric constant tensor:
#      x y z
#    x 1.884860 0.000000 0.002090 
#    y 0.000000 1.896690 0.000000 
#    z 0.002090 0.000000 1.863670 
# 
# From -- ./inp_files/291567.got.cif
#   From: 2010.06.25/outbox.cif.g09.slc.cpg/sg15_146_cif.got.tgz:291567.got - 2010.06.28 07:06:18.
