data_PCOD8152547
_publ_section_title
;
Structure prediction by ZEFSAII (Michael W. Deem and Ramdas Pophale) SiO2 
 PCOD8152547
Probable space group: C 2/C
;
_chemical_formula_sum "Si O2"
_cell_formula_units_Z 52
_cell_length_a 11.668042
_cell_length_b 15.090363
_cell_length_c 14.237680
_cell_angle_alpha 90.000000
_cell_angle_beta 110.818647
_cell_angle_gamma 90.000000
_cell_volume 2343.224037
_symmetry_space_group_name_H-M "C 2/C"
_symmetry_group_IT_number 15
_symmetry_cell_setting 'monoclinic'
loop_
_space_group_symop_operation_xyz
x,y,z
-x,y,1/2-z
-x,-y,-z
x,-y,1/2+z
1/2+x,1/2+y,z
1/2-x,1/2+y,1/2-z
1/2-x,1/2-y,-z
1/2+x,1/2-y,1/2+z
loop_
_atom_site_type_symbol
_atom_site_label
_atom_site_fract_x
_atom_site_fract_y
_atom_site_fract_z
Si Si1 0.358643 0.420735 0.034811
Si Si2 0.872752 0.365839 0.266027
Si Si3 0.605554 0.927049 0.026817
Si Si4 0.575326 0.760636 0.903021
Si Si5 0.318273 0.777040 0.762044
Si Si6 0.500000 0.516333 0.750000
Si Si7 0.292833 0.463284 0.812558
O O1 0.242102 0.466416 0.054142
O O2 0.361177 0.314336 0.012571
O O3 0.468584 0.430519 0.143664
O O4 0.368321 0.463599 0.933705
O O5 0.907751 0.369086 0.384808
O O6 0.797956 0.275011 0.229602
O O7 0.793389 0.450397 0.211867
O O8 0.000000 0.361056 0.250000
O O9 0.606692 0.861461 0.938367
O O10 0.500000 0.000000 0.000000
O O11 0.427426 0.762246 0.868135
O O12 0.630212 0.734107 0.818083
O O13 0.293343 0.879462 0.731549
O O14 0.384954 0.459039 0.750890
#
# Coordination Sequence:
#
# PCOD8152547 Si02
#       7
#     8   8   8   8   8   4   8
#     4  12  23  45  71 100 135 182 241 288 345 418
#     4  12  26  45  68 102 145 181 229 296 356 409
#     4  12  23  41  67 102 139 177 233 290 346 415
#     4  11  22  42  73  99 130 184 238 283 338 421
#     4  11  24  43  70 103 142 178 233 289 347 417
#     4  12  26  44  70 100 142 180 234 292 348 418
#     4  12  25  44  72 103 139 187 233 287 356 418
#
# _framework density 22.191648000000001
#
# number of rings (size 3 to 8) (size 9 to 14) (size 15 to 20)
#    0.000    0.308    4.615    5.538    3.231    0.000 
#    0.000    0.769    0.000    0.000    0.000    0.000 
#    0.000    0.000    0.000    0.000    0.000    0.000 
#
# Total GULP energy -322128.424791 kJ/mol
# GULP energy per Si atom -12389.554800 kJ/mol
# Density = 2.214114 g / cm^3
# Si number density = 22.191648 Si / 1000 Ang^3
#
#
#
# Elastic Constant Matrix: (Units=GPa)
#
#
# Indices 1 2 3 4 5 6 
#
# 1 132.9703 29.0663 40.7576 0.0000 -6.5917 0.0000
# 2 29.0663 97.5938 31.2964 0.0000 7.1136 0.0000
# 3 40.7576 31.2964 74.0698 0.0000 1.4424 0.0000
# 4 0.0000 0.0000 0.0000 31.5902 0.0000 -2.9298
# 5 -6.5917 7.1136 1.4424 0.0000 35.2728 0.0000
# 6 0.0000 0.0000 0.0000 -2.9298 0.0000 -16.4680
#
#
#
# Elastic Compliance Matrix: (Units=1/GPa)
#
#
# Indices 1 2 3 4 5 6 
#
# 1 0.009355 -0.001486 -0.004563 0.000000 0.002234 0.000000
# 2 -0.001486 0.012259 -0.004312 0.000000 -0.002574 0.000000
# 3 -0.004563 -0.004312 0.017848 0.000000 -0.000713 0.000000
# 4 0.000000 0.000000 0.000000 0.031142 0.000000 -0.005540
# 5 0.002234 -0.002574 -0.000713 0.000000 0.029316 0.000000
# 6 0.000000 0.000000 0.000000 -0.005540 0.000000 -0.059738
#
#
# Mechanical properties :
#
#
# Convention : Reuss Voigt Hill
#
# Bulk Modulus (GPa) = 53.36354 56.31938 54.84146
# Shear Modulus (GPa) = 74.45943 23.64658 49.05300
#
# Velocity S-wave (km/s) = 5.79877 3.26784 4.70662
# Velocity P-wave (km/s) = 8.30260 6.29858 7.36903
#
# Compressibility (1/GPa) = 0.01873939
#
# Stress axis : x y z
#
# Youngs Moduli (GPa) = 106.89796 81.56943 56.02943
#
# Poissons Ratio (x) = 0.12118 0.25568
# Poissons Ratio (y) = 0.15881 0.24162
# Poissons Ratio (z) = 0.48781 0.35176
#
# Static dielectric constant tensor:
#      x y z
#    x 4.155590 0.000000 0.182300 
#    y 0.000000 4.126980 0.000000 
#    z 0.182300 0.000000 4.278770 
# 
# 
# High freq. dielectric constant tensor:
#      x y z
#    x 1.882060 0.000000 0.015350 
#    y 0.000000 1.863900 0.000000 
#    z 0.015350 0.000000 1.877900 
# 
# From -- ./inp_files/144324.got.cif
#   From: 2010.06.25/outbox.cif.g09.slc.cpg/sg15_73_cif.got.tgz:144324.got - 2010.06.28 07:06:18.
