data_PCOD8152012
_publ_section_title
;
Structure prediction by ZEFSAII (Michael W. Deem and Ramdas Pophale) SiO2 
 PCOD8152012
Probable space group: C 2/C
;
_chemical_formula_sum "Si O2"
_cell_formula_units_Z 64
_cell_length_a 15.447674
_cell_length_b 12.059967
_cell_length_c 29.138266
_cell_angle_alpha 90.000000
_cell_angle_beta 143.167345
_cell_angle_gamma 90.000000
_cell_volume 3254.224584
_symmetry_space_group_name_H-M "C 2/C"
_symmetry_group_IT_number 15
_symmetry_cell_setting 'monoclinic'
loop_
_space_group_symop_operation_xyz
x,y,z
-x,y,1/2-z
-x,-y,-z
x,-y,1/2+z
1/2+x,1/2+y,z
1/2-x,1/2+y,1/2-z
1/2-x,1/2-y,-z
1/2+x,1/2-y,1/2+z
loop_
_atom_site_type_symbol
_atom_site_label
_atom_site_fract_x
_atom_site_fract_y
_atom_site_fract_z
Si Si1 0.903465 0.477181 0.082825
Si Si2 0.771185 0.303295 0.558223
Si Si3 0.514709 0.422037 0.049441
Si Si4 0.908118 0.949276 0.590119
Si Si5 0.608035 0.980452 0.587199
Si Si6 0.518312 0.762934 0.330856
Si Si7 0.124737 0.102609 0.838316
Si Si8 0.760028 0.249301 0.155774
O O1 0.877167 0.591283 0.099181
O O2 0.948334 0.386241 0.138688
O O3 0.034440 0.485566 0.103290
O O4 0.759185 0.443596 0.994524
O O5 0.750000 0.250000 0.500000
O O6 0.613382 0.333823 0.509388
O O7 0.838716 0.217651 0.622024
O O8 0.502756 0.491735 0.091291
O O9 0.668921 0.362118 0.113459
O O10 0.500000 0.500000 0.000000
O O11 0.967673 0.824721 0.621606
O O12 0.925952 0.013625 0.645575
O O13 0.650329 0.852574 0.610439
O O14 0.500000 0.000000 0.500000
O O15 0.744611 0.057881 0.636757
O O16 0.356484 0.755937 0.242516
O O17 0.637100 0.731630 0.343747
O O18 0.000000 0.128307 0.750000
#
# Coordination Sequence:
#
# PCOD8152012 Si02
#       8
#     8   8   8   8   8   8   8   8
#     4  11  23  41  67  93 127 169 218 265 320 393
#     4  11  21  45  68  92 131 176 215 265 335 386
#     4  11  24  42  67  95 127 172 221 263 320 391
#     4  11  22  42  69  93 130 169 214 273 324 381
#     4  12  22  40  69  97 123 167 227 268 313 392
#     4  11  24  42  62  94 133 173 208 265 334 385
#     4  12  24  41  68  99 130 170 221 273 328 385
#     4  11  23  41  63  92 135 171 210 266 331 384
#
# _framework density 19.666744000000001
#
# number of rings (size 3 to 8) (size 9 to 14) (size 15 to 20)
#    0.000    0.750    5.000    4.125    0.000    4.000 
#    4.500    0.000    0.000    0.000    0.000    0.000 
#    0.000    0.000    0.000    0.000    0.000    0.000 
#
# Total GULP energy -396965.671538 kJ/mol
# GULP energy per Si atom -12405.177236 kJ/mol
# Density = 1.962198 g / cm^3
# Si number density = 19.666744 Si / 1000 Ang^3
#
#
#
# Elastic Constant Matrix: (Units=GPa)
#
#
# Indices 1 2 3 4 5 6 
#
# 1 76.1632 29.5116 42.1975 0.0000 4.8792 0.0000
# 2 29.5116 138.6526 65.8188 0.0000 0.6621 0.0000
# 3 42.1975 65.8188 122.9526 0.0000 3.7203 0.0000
# 4 0.0000 0.0000 0.0000 31.8467 0.0000 -4.1109
# 5 4.8792 0.6621 3.7203 0.0000 23.4741 0.0000
# 6 0.0000 0.0000 0.0000 -4.1109 0.0000 40.0738
#
#
#
# Elastic Compliance Matrix: (Units=1/GPa)
#
#
# Indices 1 2 3 4 5 6 
#
# 1 0.016492 -0.001137 -0.004972 0.000000 -0.002608 0.000000
# 2 -0.001137 0.009755 -0.004854 0.000000 0.000731 0.000000
# 3 -0.004972 -0.004854 0.012462 0.000000 -0.000805 0.000000
# 4 0.000000 0.000000 0.000000 0.031822 0.000000 0.003264
# 5 -0.002608 0.000731 -0.000805 0.000000 0.043249 0.000000
# 6 0.000000 0.000000 0.000000 0.003264 0.000000 0.025289
#
#
# Mechanical properties :
#
#
# Convention : Reuss Voigt Hill
#
# Bulk Modulus (GPa) = 59.58564 68.09157 63.83860
# Shear Modulus (GPa) = 30.01363 32.42829 31.22096
#
# Velocity S-wave (km/s) = 3.91078 4.06506 3.98867
# Velocity P-wave (km/s) = 7.12431 7.53198 7.33098
#
# Compressibility (1/GPa) = 0.01678257
#
# Stress axis : x y z
#
# Youngs Moduli (GPa) = 60.63388 102.51181 80.24134
#
# Poissons Ratio (x) = 0.11660 0.39899
# Poissons Ratio (y) = 0.06897 0.38947
# Poissons Ratio (z) = 0.30150 0.49757
#
# Static dielectric constant tensor:
#      x y z
#    x 3.635470 0.000000 0.032260 
#    y 0.000000 3.694360 0.000000 
#    z 0.032260 0.000000 3.534770 
# 
# 
# High freq. dielectric constant tensor:
#      x y z
#    x 1.773620 0.000000 0.001350 
#    y 0.000000 1.780480 0.000000 
#    z 0.001350 0.000000 1.765890 
# 
# From -- ./inp_files/296136.got.cif
#   From: 2010.06.25/outbox.cif.g09.slc.cpg/sg15_149_cif.got.tgz:296136.got - 2010.06.28 07:06:18.
