data_PCOD8152229
_publ_section_title
;
Structure prediction by ZEFSAII (Michael W. Deem and Ramdas Pophale) SiO2 
 PCOD8152229
Probable space group: C 2/C
;
_chemical_formula_sum "Si O2"
_cell_formula_units_Z 48
_cell_length_a 18.105292
_cell_length_b 14.678474
_cell_length_c 17.651494
_cell_angle_alpha 90.000000
_cell_angle_beta 148.267152
_cell_angle_gamma 90.000000
_cell_volume 2467.289339
_symmetry_space_group_name_H-M "C 2/C"
_symmetry_group_IT_number 15
_symmetry_cell_setting 'monoclinic'
loop_
_space_group_symop_operation_xyz
x,y,z
-x,y,1/2-z
-x,-y,-z
x,-y,1/2+z
1/2+x,1/2+y,z
1/2-x,1/2+y,1/2-z
1/2-x,1/2-y,-z
1/2+x,1/2-y,1/2+z
loop_
_atom_site_type_symbol
_atom_site_label
_atom_site_fract_x
_atom_site_fract_y
_atom_site_fract_z
Si Si1 0.066217 0.283179 0.229942
Si Si2 0.708309 0.959027 0.051345
Si Si3 0.646980 0.716839 0.844178
Si Si4 0.347293 0.975760 0.152018
Si Si5 0.599219 0.119284 0.192122
Si Si6 0.187545 0.651000 0.100105
O O1 0.163881 0.369892 0.335820
O O2 0.170249 0.210164 0.283120
O O3 0.000000 0.243416 0.250000
O O4 0.938355 0.312605 0.063218
O O5 0.809538 0.876039 0.160371
O O6 0.728995 0.046832 0.121306
O O7 0.557544 0.915333 0.935165
O O8 0.749706 0.992893 0.002286
O O9 0.500000 0.692941 0.750000
O O10 0.633001 0.793338 0.770023
O O11 0.750000 0.750000 0.000000
O O12 0.500000 0.996595 0.250000
O O13 0.309543 0.035239 0.193757
O O14 0.633833 0.150154 0.138312
#
# Coordination Sequence:
#
# PCOD8152229 Si02
#       6
#     8   8   8   8   8   8
#     4  11  23  43  66  91 122 171 216 255 310 376
#     4  11  22  42  66  92 123 174 216 248 311 381
#     4  12  23  40  68  96 127 169 213 258 309 380
#     4   9  17  37  67  88 117 167 214 248 298 380
#     4  11  22  39  66  96 127 163 210 260 318 374
#     4  12  26  39  67  96 127 165 209 266 317 369
#
# _framework density 19.454549
#
# number of rings (size 3 to 8) (size 9 to 14) (size 15 to 20)
#    0.000    1.000    8.333    1.500    2.333    0.667 
#    0.000    0.000    0.000    3.000    0.000    0.000 
#    0.000    0.000    0.000    0.000    0.000    0.000 
#
# Total GULP energy -297345.785355 kJ/mol
# GULP energy per Si atom -12389.407723 kJ/mol
# Density = 1.941027 g / cm^3
# Si number density = 19.454549 Si / 1000 Ang^3
#
#
#
# Elastic Constant Matrix: (Units=GPa)
#
#
# Indices 1 2 3 4 5 6 
#
# 1 125.9531 58.7325 40.6840 0.0000 -14.4895 0.0001
# 2 58.7325 155.7333 47.5215 0.0000 8.4251 0.0001
# 3 40.6840 47.5215 81.2146 0.0000 -7.4959 0.0002
# 4 0.0000 0.0000 0.0000 36.7227 0.0000 7.8417
# 5 -14.4895 8.4251 -7.4959 0.0000 27.7856 0.0001
# 6 0.0001 0.0001 0.0002 7.8417 0.0001 41.5205
#
#
#
# Elastic Compliance Matrix: (Units=1/GPa)
#
#
# Indices 1 2 3 4 5 6 
#
# 1 0.011339 -0.003722 -0.002925 0.000000 0.006253 0.000000
# 2 -0.003722 0.009427 -0.004199 0.000000 -0.005932 0.000000
# 3 -0.002925 -0.004199 0.016626 0.000000 0.004233 0.000000
# 4 0.000000 0.000000 0.000000 0.028376 0.000000 -0.005359
# 5 0.006253 -0.005932 0.004233 0.000000 0.042191 0.000000
# 6 0.000000 0.000000 0.000000 -0.005359 0.000000 0.025097
#
#
# Mechanical properties :
#
#
# Convention : Reuss Voigt Hill
#
# Bulk Modulus (GPa) = 63.69582 72.97525 68.33554
# Shear Modulus (GPa) = 31.25335 35.60327 33.42831
#
# Velocity S-wave (km/s) = 4.01244 4.28258 4.14971
# Velocity P-wave (km/s) = 7.36737 7.87693 7.62641
#
# Compressibility (1/GPa) = 0.01569962
#
# Stress axis : x y z
#
# Youngs Moduli (GPa) = 88.18906 106.07524 60.14558
#
# Poissons Ratio (x) = 0.39482 0.17595
# Poissons Ratio (y) = 0.32824 0.25257
# Poissons Ratio (z) = 0.25798 0.44543
#
# Static dielectric constant tensor:
#      x y z
#    x 3.665720 0.000000 -0.272530 
#    y 0.000000 3.775110 0.000000 
#    z -0.272530 0.000000 3.612070 
# 
# 
# High freq. dielectric constant tensor:
#      x y z
#    x 1.748850 0.000000 -0.015520 
#    y 0.000000 1.777500 0.000000 
#    z -0.015520 0.000000 1.736330 
# 
# From -- ./inp_files/211435.got.cif
#   From: 2010.06.25/outbox.cif.g09.slc.cpg/sg15_106_cif.got.tgz:211435.got - 2010.06.28 07:06:18.
