data_PCOD8152616
_publ_section_title
;
Structure prediction by ZEFSAII (Michael W. Deem and Ramdas Pophale) SiO2 
 PCOD8152616
Probable space group: C 2/C
;
_chemical_formula_sum "Si O2"
_cell_formula_units_Z 56
_cell_length_a 19.862657
_cell_length_b 7.863965
_cell_length_c 17.700406
_cell_angle_alpha 90.000000
_cell_angle_beta 115.938093
_cell_angle_gamma 90.000000
_cell_volume 2486.284848
_symmetry_space_group_name_H-M "C 2/C"
_symmetry_group_IT_number 15
_symmetry_cell_setting 'monoclinic'
loop_
_space_group_symop_operation_xyz
x,y,z
-x,y,1/2-z
-x,-y,-z
x,-y,1/2+z
1/2+x,1/2+y,z
1/2-x,1/2+y,1/2-z
1/2-x,1/2-y,-z
1/2+x,1/2-y,1/2+z
loop_
_atom_site_type_symbol
_atom_site_label
_atom_site_fract_x
_atom_site_fract_y
_atom_site_fract_z
Si Si1 0.679468 0.449123 0.438542
Si Si2 0.042282 0.249800 0.195370
Si Si3 0.927736 0.615975 0.252561
Si Si4 0.661376 0.281612 0.159808
Si Si5 0.589636 0.259010 0.968769
Si Si6 0.195414 0.058912 0.281693
Si Si7 0.847051 0.424400 0.564598
O O1 0.640130 0.624493 0.439824
O O2 0.683915 0.439346 0.349429
O O3 0.759689 0.460704 0.516626
O O4 0.637700 0.276555 0.447614
O O5 0.040342 0.452710 0.188835
O O6 0.126878 0.186491 0.235457
O O7 0.000000 0.183936 0.250000
O O8 0.995746 0.196688 0.097216
O O9 0.889842 0.737397 0.294004
O O10 0.869448 0.546053 0.162213
O O11 0.000000 0.710925 0.250000
O O12 0.725200 0.149909 0.167649
O O13 0.702492 0.452833 0.207426
O O14 0.604941 0.310031 0.062593
O O15 0.608201 0.058166 0.965788
#
# Coordination Sequence:
#
# PCOD8152616 Si02
#       7
#     8   8   8   8   8   8   8
#     4  11  24  41  75 103 144 194 245 286 350 443
#     4  11  23  44  74 102 142 190 242 289 355 434
#     4  11  23  46  73 101 137 192 235 286 363 440
#     4  12  29  44  73 107 145 185 235 307 366 409
#     4  12  25  46  71 109 144 188 238 307 355 413
#     4  12  25  45  68 108 147 187 240 298 357 436
#     4  11  22  43  72 107 137 191 246 285 350 431
#
# _framework density 22.523565000000001
#
# number of rings (size 3 to 8) (size 9 to 14) (size 15 to 20)
#    0.000    0.571    7.143    1.286    4.000    2.857 
#    2.571    0.000    0.000    0.000    0.000    0.000 
#    0.000    0.000    0.000    0.000    0.000    0.000 
#
# Total GULP energy -347130.847094 kJ/mol
# GULP energy per Si atom -12397.530253 kJ/mol
# Density = 2.247230 g / cm^3
# Si number density = 22.523565 Si / 1000 Ang^3
#
#
#
# Elastic Constant Matrix: (Units=GPa)
#
#
# Indices 1 2 3 4 5 6 
#
# 1 79.3988 21.0058 32.9404 0.0000 10.0835 0.0000
# 2 21.0058 73.5965 13.4585 0.0000 -2.0469 0.0000
# 3 32.9404 13.4585 167.1210 0.0000 16.7597 0.0000
# 4 0.0000 0.0000 0.0000 32.0712 0.0000 1.3547
# 5 10.0835 -2.0469 16.7597 0.0000 37.0961 0.0000
# 6 0.0000 0.0000 0.0000 1.3547 0.0000 23.5826
#
#
#
# Elastic Compliance Matrix: (Units=1/GPa)
#
#
# Indices 1 2 3 4 5 6 
#
# 1 0.015014 -0.003952 -0.002315 0.000000 -0.003253 0.000000
# 2 -0.003952 0.014893 -0.000639 0.000000 0.002185 0.000000
# 3 -0.002315 -0.000639 0.006737 0.000000 -0.002450 0.000000
# 4 0.000000 0.000000 0.000000 0.031256 0.000000 -0.001795
# 5 -0.003253 0.002185 -0.002450 0.000000 0.029069 0.000000
# 6 0.000000 0.000000 0.000000 -0.001795 0.000000 0.042507
#
#
# Mechanical properties :
#
#
# Convention : Reuss Voigt Hill
#
# Bulk Modulus (GPa) = 43.79996 50.54731 47.17364
# Shear Modulus (GPa) = 31.07514 35.39743 33.23629
#
# Velocity S-wave (km/s) = 3.71842 3.96861 3.84555
# Velocity P-wave (km/s) = 6.15825 6.59473 6.38023
#
# Compressibility (1/GPa) = 0.02283107
#
# Stress axis : x y z
#
# Youngs Moduli (GPa) = 66.60545 67.14389 148.43142
#
# Poissons Ratio (x) = 0.26538 0.34358
# Poissons Ratio (y) = 0.26325 0.09492
# Poissons Ratio (z) = 0.15417 0.04294
#
# Static dielectric constant tensor:
#      x y z
#    x 3.837450 0.000000 0.261390 
#    y 0.000000 4.083300 0.000000 
#    z 0.261390 0.000000 4.341410 
# 
# 
# High freq. dielectric constant tensor:
#      x y z
#    x 1.862980 0.000000 0.025560 
#    y 0.000000 1.888130 0.000000 
#    z 0.025560 0.000000 1.908750 
# 
# From -- ./inp_files/214020.got.cif
#   From: 2010.06.25/outbox.cif.g09.slc.cpg/sg15_108_cif.got.tgz:214020.got - 2010.06.28 07:06:18.
