data_PCOD8152432
_publ_section_title
;
Structure prediction by ZEFSAII (Michael W. Deem and Ramdas Pophale) SiO2 
 PCOD8152432
Probable space group: C 2/C
;
_chemical_formula_sum "Si O2"
_cell_formula_units_Z 52
_cell_length_a 9.451813
_cell_length_b 20.877519
_cell_length_c 18.083984
_cell_angle_alpha 90.000000
_cell_angle_beta 134.070688
_cell_angle_gamma 90.000000
_cell_volume 2563.918120
_symmetry_space_group_name_H-M "C 2/C"
_symmetry_group_IT_number 15
_symmetry_cell_setting 'monoclinic'
loop_
_space_group_symop_operation_xyz
x,y,z
-x,y,1/2-z
-x,-y,-z
x,-y,1/2+z
1/2+x,1/2+y,z
1/2-x,1/2+y,1/2-z
1/2-x,1/2-y,-z
1/2+x,1/2-y,1/2+z
loop_
_atom_site_type_symbol
_atom_site_label
_atom_site_fract_x
_atom_site_fract_y
_atom_site_fract_z
Si Si1 0.733346 0.166985 0.331958
Si Si2 0.693153 0.741568 0.273155
Si Si3 0.280323 0.605718 0.585847
Si Si4 0.587427 0.233430 0.498961
Si Si5 0.723414 0.374308 0.251574
Si Si6 0.000000 0.544963 0.750000
Si Si7 0.798347 0.962484 0.942855
O O1 0.500000 0.177098 0.250000
O O2 0.786258 0.174392 0.264268
O O3 0.857412 0.225638 0.409756
O O4 0.804348 0.101806 0.395671
O O5 0.500000 0.738393 0.250000
O O6 0.687915 0.802535 0.214832
O O7 0.868911 0.750676 0.394991
O O8 0.105181 0.656991 0.515002
O O9 0.262236 0.585670 0.665855
O O10 0.494736 0.635689 0.647910
O O11 0.260922 0.549955 0.516967
O O12 0.750000 0.250000 0.500000
O O13 0.832737 0.413271 0.227758
O O14 0.107746 0.502302 0.850264
O O15 0.000000 0.000000 0.000000
#
# Coordination Sequence:
#
# PCOD8152432 Si02
#       7
#     8   8   8   8   8   4   8
#     4  12  22  42  71  99 128 172 227 273 329 403
#     4  12  25  41  63 103 141 165 211 288 349 384
#     4  11  22  42  69  97 125 171 232 268 324 396
#     4  12  21  37  70  99 126 169 219 270 331 395
#     4  11  22  41  69  97 130 171 219 280 328 399
#     4  12  26  44  66  98 134 178 220 272 334 388
#     4  12  25  44  67  94 134 182 223 269 326 403
#
# _framework density 20.281459000000002
#
# number of rings (size 3 to 8) (size 9 to 14) (size 15 to 20)
#    0.000    0.308    9.231    0.000    0.000    1.231 
#    2.769    1.538    0.000    0.000    0.000    0.000 
#    0.000    0.000    0.000    0.000    0.000    0.000 
#
# Total GULP energy -322182.474132 kJ/mol
# GULP energy per Si atom -12391.633620 kJ/mol
# Density = 2.023530 g / cm^3
# Si number density = 20.281459 Si / 1000 Ang^3
#
#
#
# Elastic Constant Matrix: (Units=GPa)
#
#
# Indices 1 2 3 4 5 6 
#
# 1 129.1708 38.0910 54.8306 0.0000 3.9747 -0.0001
# 2 38.0910 82.6667 40.3862 0.0000 -6.6872 0.0000
# 3 54.8306 40.3862 120.1650 0.0000 3.5745 0.0000
# 4 0.0000 0.0000 0.0000 38.4919 0.0000 -6.0239
# 5 3.9747 -6.6872 3.5745 0.0000 30.4299 0.0000
# 6 -0.0001 0.0000 0.0000 -6.0239 0.0000 16.4983
#
#
#
# Elastic Compliance Matrix: (Units=1/GPa)
#
#
# Indices 1 2 3 4 5 6 
#
# 1 0.010221 -0.003091 -0.003578 0.000000 -0.001594 0.000000
# 2 -0.003091 0.015851 -0.004047 0.000000 0.004362 0.000000
# 3 -0.003578 -0.004047 0.011367 0.000000 -0.001757 0.000000
# 4 0.000000 0.000000 0.000000 0.027554 0.000000 0.010061
# 5 -0.001594 0.004362 -0.001757 0.000000 0.034236 0.000000
# 6 0.000000 0.000000 0.000000 0.010061 0.000000 0.064286
#
#
# Mechanical properties :
#
#
# Convention : Reuss Voigt Hill
#
# Bulk Modulus (GPa) = 62.46788 66.51313 64.49050
# Shear Modulus (GPa) = 26.27713 30.33033 28.30373
#
# Velocity S-wave (km/s) = 3.60338 3.87133 3.73975
# Velocity P-wave (km/s) = 6.94117 7.26974 7.10735
#
# Compressibility (1/GPa) = 0.01600823
#
# Stress axis : x y z
#
# Youngs Moduli (GPa) = 97.84048 63.08829 87.97668
#
# Poissons Ratio (x) = 0.19498 0.31474
# Poissons Ratio (y) = 0.30239 0.35602
# Poissons Ratio (z) = 0.35002 0.25531
#
# Static dielectric constant tensor:
#      x y z
#    x 3.272420 0.000000 -0.020080 
#    y 0.000000 3.578340 0.000000 
#    z -0.020080 0.000000 3.647310 
# 
# 
# High freq. dielectric constant tensor:
#      x y z
#    x 1.785440 0.000000 -0.005310 
#    y 0.000000 1.775170 0.000000 
#    z -0.005310 0.000000 1.811060 
# 
# From -- ./inp_files/192605.got.cif
#   From: 2010.06.25/outbox.cif.g09.slc.cpg/sg15_97_cif.got.tgz:192605.got - 2010.06.28 07:06:18.
