data_PCOD8152371
_publ_section_title
;
Structure prediction by ZEFSAII (Michael W. Deem and Ramdas Pophale) SiO2 
 PCOD8152371
Probable space group: C 2/C
;
_chemical_formula_sum "Si O2"
_cell_formula_units_Z 48
_cell_length_a 20.243016
_cell_length_b 14.370081
_cell_length_c 12.162481
_cell_angle_alpha 90.000000
_cell_angle_beta 37.822379
_cell_angle_gamma 90.000000
_cell_volume 2169.550813
_symmetry_space_group_name_H-M "C 2/C"
_symmetry_group_IT_number 15
_symmetry_cell_setting 'monoclinic'
loop_
_space_group_symop_operation_xyz
x,y,z
-x,y,1/2-z
-x,-y,-z
x,-y,1/2+z
1/2+x,1/2+y,z
1/2-x,1/2+y,1/2-z
1/2-x,1/2-y,-z
1/2+x,1/2-y,1/2+z
loop_
_atom_site_type_symbol
_atom_site_label
_atom_site_fract_x
_atom_site_fract_y
_atom_site_fract_z
Si Si1 0.949298 0.307128 0.147632
Si Si2 0.160965 0.732206 0.493241
Si Si3 0.510534 0.311077 0.120179
Si Si4 0.597632 0.489677 0.201653
Si Si5 0.736915 0.072890 0.668249
Si Si6 0.181575 0.078743 0.292065
O O1 0.864351 0.256383 0.342507
O O2 0.888862 0.402821 0.191449
O O3 0.980065 0.253286 0.996747
O O4 0.060621 0.317768 0.064898
O O5 0.193807 0.832582 0.401705
O O6 0.256163 0.661103 0.348927
O O7 0.500000 0.253994 0.250000
O O8 0.407966 0.380455 0.258000
O O9 0.615402 0.380372 0.983907
O O10 0.500000 0.523027 0.250000
O O11 0.590716 0.546321 0.324799
O O12 0.714001 0.514177 0.996909
O O13 0.743328 0.007347 0.767895
#
# Coordination Sequence:
#
# PCOD8152371 Si02
#       6
#     8   8   8   8   8   8
#     4  11  24  44  70  98 145 183 233 281 355 418
#     4  11  25  42  70 103 138 181 234 294 341 415
#     4  11  22  41  65 102 141 175 224 295 347 402
#     4  11  23  37  66 107 132 172 229 290 344 397
#     4  12  23  40  70 103 132 182 232 280 350 414
#     4  12  23  42  66 101 141 177 234 290 346 412
#
# _framework density 22.124396000000001
#
# number of rings (size 3 to 8) (size 9 to 14) (size 15 to 20)
#    0.000    0.667    6.667    3.000    4.667    0.667 
#    0.000    2.500    3.667    0.000    0.000    0.000 
#    0.000    0.000    0.000    0.000    0.000    0.000 
#
# Total GULP energy -297339.086610 kJ/mol
# GULP energy per Si atom -12389.128609 kJ/mol
# Density = 2.207404 g / cm^3
# Si number density = 22.124396 Si / 1000 Ang^3
#
#
#
# Elastic Constant Matrix: (Units=GPa)
#
#
# Indices 1 2 3 4 5 6 
#
# 1 81.2250 38.1742 53.0538 0.0000 26.1011 0.0000
# 2 38.1742 88.6528 49.8307 0.0000 12.3457 0.0000
# 3 53.0538 49.8307 120.8600 0.0000 26.8600 0.0000
# 4 0.0000 0.0000 0.0000 44.2836 0.0000 2.9357
# 5 26.1011 12.3457 26.8600 0.0000 34.2026 0.0000
# 6 0.0000 0.0000 0.0000 2.9357 0.0000 27.9554
#
#
#
# Elastic Compliance Matrix: (Units=1/GPa)
#
#
# Indices 1 2 3 4 5 6 
#
# 1 0.021240 -0.004886 -0.004965 0.000000 -0.010546 0.000000
# 2 -0.004886 0.015819 -0.004769 0.000000 0.001764 0.000000
# 3 -0.004965 -0.004769 0.013562 0.000000 -0.005140 0.000000
# 4 0.000000 0.000000 0.000000 0.022740 0.000000 -0.002388
# 5 -0.010546 0.001764 -0.005140 0.000000 0.040685 0.000000
# 6 0.000000 0.000000 0.000000 -0.002388 0.000000 0.036022
#
#
# Mechanical properties :
#
#
# Convention : Reuss Voigt Hill
#
# Bulk Modulus (GPa) = 46.77429 63.65058 55.21243
# Shear Modulus (GPa) = 26.81864 31.26694 29.04279
#
# Velocity S-wave (km/s) = 3.48541 3.76338 3.62706
# Velocity P-wave (km/s) = 6.11431 6.90767 6.52306
#
# Compressibility (1/GPa) = 0.02137927
#
# Stress axis : x y z
#
# Youngs Moduli (GPa) = 47.08095 63.21438 73.73314
#
# Poissons Ratio (x) = 0.30890 0.36611
# Poissons Ratio (y) = 0.23006 0.35166
# Poissons Ratio (z) = 0.23377 0.30149
#
# Static dielectric constant tensor:
#      x y z
#    x 4.129660 0.000000 0.062040 
#    y 0.000000 3.806540 0.000000 
#    z 0.062040 0.000000 4.241960 
# 
# 
# High freq. dielectric constant tensor:
#      x y z
#    x 1.868710 0.000000 0.018110 
#    y 0.000000 1.846540 0.000000 
#    z 0.018110 0.000000 1.878060 
# 
# From -- ./inp_files/112934.got.cif
#   From: 2010.06.25/outbox.cif.g09.slc.cpg/sg15_57_cif.got.tgz:112934.got - 2010.06.28 07:06:18.
