data_PCOD8152317
_publ_section_title
;
Structure prediction by ZEFSAII (Michael W. Deem and Ramdas Pophale) SiO2 
 PCOD8152317
Probable space group: C 2/C
;
_chemical_formula_sum "Si O2"
_cell_formula_units_Z 40
_cell_length_a 12.105844
_cell_length_b 26.251911
_cell_length_c 9.569027
_cell_angle_alpha 90.000000
_cell_angle_beta 38.748176
_cell_angle_gamma 90.000000
_cell_volume 1903.390018
_symmetry_space_group_name_H-M "C 2/C"
_symmetry_group_IT_number 15
_symmetry_cell_setting 'monoclinic'
loop_
_space_group_symop_operation_xyz
x,y,z
-x,y,1/2-z
-x,-y,-z
x,-y,1/2+z
1/2+x,1/2+y,z
1/2-x,1/2+y,1/2-z
1/2-x,1/2-y,-z
1/2+x,1/2-y,1/2+z
loop_
_atom_site_type_symbol
_atom_site_label
_atom_site_fract_x
_atom_site_fract_y
_atom_site_fract_z
Si Si1 0.326469 0.975891 0.601168
Si Si2 0.500000 0.890813 0.250000
Si Si3 0.500000 0.863968 0.750000
Si Si4 0.308982 0.442233 0.482472
Si Si5 0.857790 0.785103 0.791746
Si Si6 0.507803 0.187033 0.525273
O O1 0.367169 0.925511 0.470528
O O2 0.500000 0.000000 0.500000
O O3 0.240514 0.014805 0.579526
O O4 0.189345 0.963856 0.860909
O O5 0.594615 0.851774 0.267041
O O6 0.669331 0.897318 0.616618
O O7 0.545274 0.827928 0.576983
O O8 0.500000 0.420881 0.250000
O O9 0.720625 0.820981 0.843408
O O10 0.000000 0.815614 0.750000
O O11 0.959111 0.746335 0.587659
O O12 0.750000 0.750000 0.000000
#
# Coordination Sequence:
#
# PCOD8152317 Si02
#       6
#     8   4   4   8   8   8
#     4  12  21  42  68  91 136 184 215 271 335 385
#     4  12  19  36  70  92 122 182 230 256 329 392
#     4  12  25  44  66  98 144 172 216 282 331 404
#     4  12  25  44  66  98 137 177 223 274 329 390
#     4   9  18  39  63  88 122 165 212 273 325 389
#     4  11  22  40  67  96 128 177 219 271 342 396
#
# _framework density 21.015135999999998
#
# number of rings (size 3 to 8) (size 9 to 14) (size 15 to 20)
#    0.000    0.800    9.000    0.600    0.000    0.800 
#    7.200    1.000    0.000    0.000    0.000    0.000 
#    0.000    0.000    0.000    0.000    0.000    0.000 
#
# Total GULP energy -247834.232496 kJ/mol
# GULP energy per Si atom -12391.711625 kJ/mol
# Density = 2.096730 g / cm^3
# Si number density = 21.015136 Si / 1000 Ang^3
#
#
#
# Elastic Constant Matrix: (Units=GPa)
#
#
# Indices 1 2 3 4 5 6 
#
# 1 75.8753 22.6663 32.4383 0.0000 23.0175 0.0000
# 2 22.6663 64.3465 14.2148 0.0000 8.9118 0.0000
# 3 32.4383 14.2148 109.0970 0.0000 17.8637 0.0000
# 4 0.0000 0.0000 0.0000 19.7476 0.0000 11.0821
# 5 23.0175 8.9118 17.8637 0.0000 48.9979 0.0000
# 6 0.0000 0.0000 0.0000 11.0821 0.0000 -46.7525
#
#
#
# Elastic Compliance Matrix: (Units=1/GPa)
#
#
# Indices 1 2 3 4 5 6 
#
# 1 0.018079 -0.004673 -0.003738 0.000000 -0.006280 0.000000
# 2 -0.004673 0.017454 -0.000770 0.000000 -0.000699 0.000000
# 3 -0.003738 -0.000770 0.010707 0.000000 -0.002007 0.000000
# 4 0.000000 0.000000 0.000000 0.044694 0.000000 0.010594
# 5 -0.006280 -0.000699 -0.002007 0.000000 0.024218 0.000000
# 6 0.000000 0.000000 0.000000 0.010594 0.000000 -0.018878
#
#
# Mechanical properties :
#
#
# Convention : Reuss Voigt Hill
#
# Bulk Modulus (GPa) = 35.87265 43.10639 39.48952
# Shear Modulus (GPa) = 40.34605 16.39856 28.37230
#
# Velocity S-wave (km/s) = 4.38637 2.79645 3.67834
# Velocity P-wave (km/s) = 6.53916 5.56628 6.07224
#
# Compressibility (1/GPa) = 0.02787639
#
# Stress axis : x y z
#
# Youngs Moduli (GPa) = 55.31375 57.29416 93.39924
#
# Poissons Ratio (x) = 0.26772 0.34915
# Poissons Ratio (y) = 0.25846 0.07196
# Poissons Ratio (z) = 0.20678 0.04414
#
# Static dielectric constant tensor:
#      x y z
#    x 3.745150 0.000000 -0.145950 
#    y 0.000000 11.449230 0.000000 
#    z -0.145950 0.000000 4.439830 
# 
# 
# High freq. dielectric constant tensor:
#      x y z
#    x 1.819900 0.000000 0.016610 
#    y 0.000000 1.812070 0.000000 
#    z 0.016610 0.000000 1.822560 
# 
# From -- ./inp_files/35027.got.cif
#   From: 2010.06.25/outbox.cif.g09.slc.cpg/sg15_18_cif.got.tgz:35027.got - 2010.06.28 07:06:18.
