data_PCOD8152331
_publ_section_title
;
Structure prediction by ZEFSAII (Michael W. Deem and Ramdas Pophale) SiO2 
 PCOD8152331
Probable space group: C 2/C
;
_chemical_formula_sum "Si O2"
_cell_formula_units_Z 56
_cell_length_a 11.804520
_cell_length_b 8.702403
_cell_length_c 28.140616
_cell_angle_alpha 90.000000
_cell_angle_beta 122.643608
_cell_angle_gamma 90.000000
_cell_volume 2434.192531
_symmetry_space_group_name_H-M "C 2/C"
_symmetry_group_IT_number 15
_symmetry_cell_setting 'monoclinic'
loop_
_space_group_symop_operation_xyz
x,y,z
-x,y,1/2-z
-x,-y,-z
x,-y,1/2+z
1/2+x,1/2+y,z
1/2-x,1/2+y,1/2-z
1/2-x,1/2-y,-z
1/2+x,1/2-y,1/2+z
loop_
_atom_site_type_symbol
_atom_site_label
_atom_site_fract_x
_atom_site_fract_y
_atom_site_fract_z
Si Si1 0.807522 0.511715 0.312341
Si Si2 0.993757 0.054395 0.629142
Si Si3 0.396472 0.744139 0.763715
Si Si4 0.682267 0.737118 0.605641
Si Si5 0.295255 0.873598 0.471466
Si Si6 0.950616 0.331196 0.021802
Si Si7 0.041802 0.723032 0.872417
O O1 0.685388 0.392404 0.280489
O O2 0.801680 0.624469 0.265039
O O3 0.806668 0.606752 0.361124
O O4 0.945052 0.418970 0.343356
O O5 0.837599 0.047587 0.578836
O O6 0.010525 0.178363 0.673710
O O7 0.093227 0.103170 0.608963
O O8 0.028477 0.885039 0.657347
O O9 0.500000 0.819753 0.750000
O O10 0.625313 0.763223 0.540446
O O11 0.834055 0.679069 0.633337
O O12 0.250000 0.750000 0.500000
O O13 0.387427 0.807444 0.449253
O O14 0.401051 0.993111 0.519173
O O15 0.914424 0.246919 0.062619
#
# Coordination Sequence:
#
# PCOD8152331 Si02
#       7
#     8   8   8   8   8   8   8
#     4  11  26  47  70  99 132 178 224 286 343 402
#     4  11  25  44  67 104 134 181 229 279 340 406
#     4  11  26  46  73  98 130 173 232 282 345 400
#     4  11  24  47  67 102 142 177 227 278 333 408
#     4  11  22  40  68  97 140 181 226 275 335 401
#     4  11  24  40  67 101 140 182 226 268 335 407
#     4  12  26  42  69 101 142 177 223 279 335 402
#
# _framework density 23.005575
#
# number of rings (size 3 to 8) (size 9 to 14) (size 15 to 20)
#    0.000    0.857    2.857    3.857    4.000    5.143 
#    0.000    0.714    0.000    0.000    0.000    0.000 
#    0.000    0.000    0.000    0.000    0.000    0.000 
#
# Total GULP energy -347118.429945 kJ/mol
# GULP energy per Si atom -12397.086784 kJ/mol
# Density = 2.295321 g / cm^3
# Si number density = 23.005575 Si / 1000 Ang^3
#
#
#
# Elastic Constant Matrix: (Units=GPa)
#
#
# Indices 1 2 3 4 5 6 
#
# 1 171.9300 45.6055 29.7531 0.0000 7.4984 0.0000
# 2 45.6055 57.0404 11.6448 0.0000 6.7637 0.0000
# 3 29.7531 11.6448 60.8983 0.0000 4.9291 0.0000
# 4 0.0000 0.0000 0.0000 23.7203 0.0000 2.5880
# 5 7.4984 6.7637 4.9291 0.0000 31.0172 0.0000
# 6 0.0000 0.0000 0.0000 2.5880 0.0000 43.4525
#
#
#
# Elastic Compliance Matrix: (Units=1/GPa)
#
#
# Indices 1 2 3 4 5 6 
#
# 1 0.007794 -0.005652 -0.002709 0.000000 -0.000221 0.000000
# 2 -0.005652 0.022719 -0.001309 0.000000 -0.003380 0.000000
# 3 -0.002709 -0.001309 0.018152 0.000000 -0.001944 0.000000
# 4 0.000000 0.000000 0.000000 0.042434 0.000000 -0.002527
# 5 -0.000221 -0.003380 -0.001944 0.000000 0.033340 0.000000
# 6 0.000000 0.000000 0.000000 -0.002527 0.000000 0.023164
#
#
# Mechanical properties :
#
#
# Convention : Reuss Voigt Hill
#
# Bulk Modulus (GPa) = 34.10224 51.54172 42.82198
# Shear Modulus (GPa) = 28.29362 33.16235 30.72798
#
# Velocity S-wave (km/s) = 3.51074 3.80082 3.65865
# Velocity P-wave (km/s) = 5.59369 6.45866 6.04167
#
# Compressibility (1/GPa) = 0.02932359
#
# Stress axis : x y z
#
# Youngs Moduli (GPa) = 128.30173 44.01668 55.08985
#
# Poissons Ratio (x) = 0.24880 0.14925
# Poissons Ratio (y) = 0.72520 0.07212
# Poissons Ratio (z) = 0.34760 0.05762
#
# Static dielectric constant tensor:
#      x y z
#    x 4.446110 0.000000 -0.084850 
#    y 0.000000 4.174280 0.000000 
#    z -0.084850 0.000000 4.031900 
# 
# 
# High freq. dielectric constant tensor:
#      x y z
#    x 1.929410 0.000000 -0.000490 
#    y 0.000000 1.903410 0.000000 
#    z -0.000490 0.000000 1.901820 
# 
# From -- ./inp_files/310382.got.cif
#   From: 2010.06.25/outbox.cif.g09.slc.cpg/sg15_156_cif.got.tgz:310382.got - 2010.06.28 07:06:18.
