data_PCOD8152221
_publ_section_title
;
Structure prediction by ZEFSAII (Michael W. Deem and Ramdas Pophale) SiO2 
 PCOD8152221
Probable space group: C 2/C
;
_chemical_formula_sum "Si O2"
_cell_formula_units_Z 60
_cell_length_a 12.805918
_cell_length_b 19.131659
_cell_length_c 14.526150
_cell_angle_alpha 90.000000
_cell_angle_beta 121.726142
_cell_angle_gamma 90.000000
_cell_volume 3027.084751
_symmetry_space_group_name_H-M "C 2/C"
_symmetry_group_IT_number 15
_symmetry_cell_setting 'monoclinic'
loop_
_space_group_symop_operation_xyz
x,y,z
-x,y,1/2-z
-x,-y,-z
x,-y,1/2+z
1/2+x,1/2+y,z
1/2-x,1/2+y,1/2-z
1/2-x,1/2-y,-z
1/2+x,1/2-y,1/2+z
loop_
_atom_site_type_symbol
_atom_site_label
_atom_site_fract_x
_atom_site_fract_y
_atom_site_fract_z
Si Si1 0.000000 0.885876 0.250000
Si Si2 0.886168 0.523834 0.889668
Si Si3 0.115571 0.773385 0.971189
Si Si4 0.827697 0.148929 0.821052
Si Si5 0.207127 0.017420 0.163708
Si Si6 0.943329 0.337169 0.323445
Si Si7 0.808095 0.967456 0.046738
Si Si8 0.971531 0.087016 0.135934
O O1 0.096548 0.839117 0.238048
O O2 0.066699 0.929378 0.362925
O O3 0.816650 0.467955 0.789605
O O4 0.945077 0.582824 0.853621
O O5 0.789338 0.551443 0.919945
O O6 0.000000 0.500000 0.000000
O O7 0.054714 0.830322 0.875160
O O8 0.024753 0.707276 0.932497
O O9 0.250000 0.750000 0.000000
O O10 0.109782 0.809340 0.067721
O O11 0.697724 0.186946 0.743746
O O12 0.816103 0.066404 0.840424
O O13 0.084794 0.061901 0.126042
O O14 0.245144 0.047966 0.080524
O O15 0.000000 0.328293 0.250000
O O16 0.843736 0.049088 0.050047
O O17 0.000000 0.060521 0.250000
#
# Coordination Sequence:
#
# PCOD8152221 Si02
#       8
#     4   8   8   8   8   8   8   8
#     4  12  20  42  68  98 126 174 216 274 350 384
#     4  11  26  40  63  93 132 179 212 273 338 401
#     4  12  26  39  64  95 131 180 221 271 329 399
#     4  11  22  42  67  94 129 173 221 277 329 401
#     4  11  22  39  65  99 128 167 221 282 337 383
#     4  11  24  45  63  95 134 175 222 265 339 405
#     4  12  20  37  64  97 129 161 217 277 333 390
#     4  12  21  37  64  99 128 156 220 282 329 384
#
# _framework density 19.821051000000001
#
# number of rings (size 3 to 8) (size 9 to 14) (size 15 to 20)
#    0.000    0.533    8.667    1.600    5.600    0.000 
#    0.000    0.667    0.000    0.000    0.000    0.000 
#    0.000    0.000    0.000    0.000    0.000    0.000 
#
# Total GULP energy -371699.064866 kJ/mol
# GULP energy per Si atom -12389.968829 kJ/mol
# Density = 1.977594 g / cm^3
# Si number density = 19.821051 Si / 1000 Ang^3
#
#
#
# Elastic Constant Matrix: (Units=GPa)
#
#
# Indices 1 2 3 4 5 6 
#
# 1 117.2503 30.0703 52.3969 0.0000 1.1653 0.0000
# 2 30.0703 55.3620 19.3148 0.0000 12.4349 0.0000
# 3 52.3969 19.3148 140.6941 0.0000 -2.2008 0.0000
# 4 0.0000 0.0000 0.0000 27.6551 0.0000 2.9436
# 5 1.1653 12.4349 -2.2008 0.0000 39.6149 0.0000
# 6 0.0000 0.0000 0.0000 2.9436 0.0000 17.6925
#
#
#
# Elastic Compliance Matrix: (Units=1/GPa)
#
#
# Indices 1 2 3 4 5 6 
#
# 1 0.011433 -0.005230 -0.003523 0.000000 0.001110 0.000000
# 2 -0.005230 0.022964 -0.001316 0.000000 -0.007128 0.000000
# 3 -0.003523 -0.001316 0.008616 0.000000 0.000995 0.000000
# 4 0.000000 0.000000 0.000000 0.036812 0.000000 -0.006125
# 5 0.001110 -0.007128 0.000995 0.000000 0.027503 0.000000
# 6 0.000000 0.000000 0.000000 -0.006125 0.000000 0.057540
#
#
# Mechanical properties :
#
#
# Convention : Reuss Voigt Hill
#
# Bulk Modulus (GPa) = 43.71622 57.43005 50.57314
# Shear Modulus (GPa) = 25.95637 31.09411 28.52524
#
# Velocity S-wave (km/s) = 3.62268 3.96503 3.79771
# Velocity P-wave (km/s) = 6.29299 7.07101 6.69331
#
# Compressibility (1/GPa) = 0.02287480
#
# Stress axis : x y z
#
# Youngs Moduli (GPa) = 87.46388 43.54642 116.06675
#
# Poissons Ratio (x) = 0.22777 0.40885
# Poissons Ratio (y) = 0.45747 0.15276
# Poissons Ratio (z) = 0.30810 0.05731
#
# Static dielectric constant tensor:
#      x y z
#    x 3.490400 0.000000 0.180590 
#    y 0.000000 3.334630 0.000000 
#    z 0.180590 0.000000 4.078730 
# 
# 
# High freq. dielectric constant tensor:
#      x y z
#    x 1.775740 0.000000 -0.000450 
#    y 0.000000 1.729720 0.000000 
#    z -0.000450 0.000000 1.796020 
# 
# From -- ./inp_files/147195.got.cif
#   From: 2010.06.25/outbox.cif.g09.slc.cpg/sg15_74_cif.got.tgz:147195.got - 2010.06.28 07:06:18.
