data_PCOD8152485
_publ_section_title
;
Structure prediction by ZEFSAII (Michael W. Deem and Ramdas Pophale) SiO2 
 PCOD8152485
Probable space group: C 2/C
;
_chemical_formula_sum "Si O2"
_cell_formula_units_Z 56
_cell_length_a 14.278487
_cell_length_b 21.980969
_cell_length_c 8.931200
_cell_angle_alpha 90.000000
_cell_angle_beta 71.612444
_cell_angle_gamma 90.000000
_cell_volume 2659.987970
_symmetry_space_group_name_H-M "C 2/C"
_symmetry_group_IT_number 15
_symmetry_cell_setting 'monoclinic'
loop_
_space_group_symop_operation_xyz
x,y,z
-x,y,1/2-z
-x,-y,-z
x,-y,1/2+z
1/2+x,1/2+y,z
1/2-x,1/2+y,1/2-z
1/2-x,1/2-y,-z
1/2+x,1/2-y,1/2+z
loop_
_atom_site_type_symbol
_atom_site_label
_atom_site_fract_x
_atom_site_fract_y
_atom_site_fract_z
Si Si1 0.150277 0.733738 0.961291
Si Si2 0.500000 0.556339 0.250000
Si Si3 0.614156 0.862295 0.223228
Si Si4 0.640174 0.363286 0.874950
Si Si5 0.343443 0.530838 0.929951
Si Si6 0.156917 0.387245 0.871419
Si Si7 0.707465 0.015220 0.747243
Si Si8 0.000000 0.670866 0.250000
O O1 0.161642 0.685471 0.818114
O O2 0.102564 0.794901 0.915931
O O3 0.250000 0.750000 0.000000
O O4 0.077036 0.711952 0.124873
O O5 0.421737 0.600484 0.214841
O O6 0.561617 0.513549 0.104808
O O7 0.500000 0.848340 0.250000
O O8 0.628475 0.930289 0.280920
O O9 0.667515 0.860442 0.034415
O O10 0.753600 0.359085 0.767384
O O11 0.629258 0.401140 0.033622
O O12 0.308849 0.536133 0.776419
O O13 0.247028 0.506386 0.066789
O O14 0.158190 0.460384 0.865270
O O15 0.053520 0.369604 0.848068
#
# Coordination Sequence:
#
# PCOD8152485 Si02
#       8
#     8   4   8   8   8   8   8   4
#     4  12  27  50  69  99 139 187 238 289 352 420
#     4  12  22  41  68 105 136 176 232 284 346 416
#     4  12  26  43  72 103 136 182 237 286 340 424
#     4  11  25  43  69  95 140 180 224 285 346 414
#     4  11  22  42  67  97 139 175 221 282 345 412
#     4  11  24  46  69 103 136 182 227 294 352 416
#     4  11  23  42  66 103 138 176 224 284 357 408
#     4  12  26  47  72  97 140 182 238 294 350 416
#
# _framework density 21.052726
#
# number of rings (size 3 to 8) (size 9 to 14) (size 15 to 20)
#    0.000    0.571    7.143    1.286    4.000    1.714 
#    5.143    0.000    0.000    0.000    0.000    0.000 
#    0.000    0.000    0.000    0.000    0.000    0.000 
#
# Total GULP energy -347107.989412 kJ/mol
# GULP energy per Si atom -12396.713908 kJ/mol
# Density = 2.100481 g / cm^3
# Si number density = 21.052726 Si / 1000 Ang^3
#
#
#
# Elastic Constant Matrix: (Units=GPa)
#
#
# Indices 1 2 3 4 5 6 
#
# 1 98.1924 30.4557 33.0884 0.0000 3.8473 0.0000
# 2 30.4557 142.4257 54.5292 0.0000 4.6571 0.0000
# 3 33.0884 54.5292 99.1134 0.0000 8.7904 0.0000
# 4 0.0000 0.0000 0.0000 30.7293 0.0000 2.7690
# 5 3.8473 4.6571 8.7904 0.0000 31.0590 0.0000
# 6 0.0000 0.0000 0.0000 2.7690 0.0000 36.3174
#
#
#
# Elastic Compliance Matrix: (Units=1/GPa)
#
#
# Indices 1 2 3 4 5 6 
#
# 1 0.011657 -0.001271 -0.003161 0.000000 -0.000359 0.000000
# 2 -0.001271 0.009033 -0.004554 0.000000 0.000092 0.000000
# 3 -0.003161 -0.004554 0.013904 0.000000 -0.002861 0.000000
# 4 0.000000 0.000000 0.000000 0.032767 0.000000 -0.002498
# 5 -0.000359 0.000092 -0.002861 0.000000 0.033037 0.000000
# 6 0.000000 0.000000 0.000000 -0.002498 0.000000 0.027725
#
#
# Mechanical properties :
#
#
# Convention : Reuss Voigt Hill
#
# Bulk Modulus (GPa) = 60.15489 63.98647 62.07068
# Shear Modulus (GPa) = 32.97356 34.39835 33.68596
#
# Velocity S-wave (km/s) = 3.96186 4.04656 4.00443
# Velocity P-wave (km/s) = 7.04017 7.23134 7.13639
#
# Compressibility (1/GPa) = 0.01662375
#
# Stress axis : x y z
#
# Youngs Moduli (GPa) = 85.78222 110.69989 71.92329
#
# Poissons Ratio (x) = 0.14069 0.22733
# Poissons Ratio (y) = 0.10902 0.32752
# Poissons Ratio (z) = 0.27113 0.50410
#
# Static dielectric constant tensor:
#      x y z
#    x 4.188110 0.000000 0.163250 
#    y 0.000000 3.941260 0.000000 
#    z 0.163250 0.000000 3.813020 
# 
# 
# High freq. dielectric constant tensor:
#      x y z
#    x 1.830950 0.000000 0.012820 
#    y 0.000000 1.824610 0.000000 
#    z 0.012820 0.000000 1.828160 
# 
# From -- ./inp_files/42584.got.cif
#   From: 2010.06.25/outbox.cif.g09.slc.cpg/sg15_22_cif.got.tgz:42584.got - 2010.06.28 07:06:18.
