data_PCOD8152780
_publ_section_title
;
Structure prediction by ZEFSAII (Michael W. Deem and Ramdas Pophale) SiO2 
 PCOD8152780
Probable space group: C 2/C
;
_chemical_formula_sum "Si O2"
_cell_formula_units_Z 60
_cell_length_a 17.738468
_cell_length_b 28.485453
_cell_length_c 11.339038
_cell_angle_alpha 90.000000
_cell_angle_beta 152.935314
_cell_angle_gamma 90.000000
_cell_volume 2606.892750
_symmetry_space_group_name_H-M "C 2/C"
_symmetry_group_IT_number 15
_symmetry_cell_setting 'monoclinic'
loop_
_space_group_symop_operation_xyz
x,y,z
-x,y,1/2-z
-x,-y,-z
x,-y,1/2+z
1/2+x,1/2+y,z
1/2-x,1/2+y,1/2-z
1/2-x,1/2-y,-z
1/2+x,1/2-y,1/2+z
loop_
_atom_site_type_symbol
_atom_site_label
_atom_site_fract_x
_atom_site_fract_y
_atom_site_fract_z
Si Si1 0.995081 0.789376 0.529354
Si Si2 0.175719 0.685212 0.434722
Si Si3 0.500000 0.642130 0.250000
Si Si4 0.321394 0.200694 0.327351
Si Si5 0.177084 0.580296 0.468852
Si Si6 0.256250 0.071445 0.681920
Si Si7 0.321590 0.465461 0.962366
Si Si8 0.572502 0.094574 0.980732
O O1 0.030445 0.827432 0.677319
O O2 0.964732 0.739371 0.553573
O O3 0.151276 0.787741 0.658515
O O4 0.825917 0.803221 0.229171
O O5 0.207728 0.709383 0.353450
O O6 0.173002 0.630204 0.397604
O O7 0.000000 0.699922 0.250000
O O8 0.659883 0.609006 0.469676
O O9 0.393198 0.149966 0.460321
O O10 0.276027 0.586376 0.728258
O O11 0.231936 0.538939 0.461365
O O12 0.000000 0.560325 0.250000
O O13 0.446316 0.075444 0.904785
O O14 0.179423 0.019877 0.569498
O O15 0.242399 0.434302 0.745322
O O16 0.500000 0.445789 0.250000
O O17 0.500000 0.083140 0.750000
#
# Coordination Sequence:
#
# PCOD8152780 Si02
#       8
#     8   8   4   8   8   8   8   8
#     4  12  28  46  76 108 154 194 254 314 382 460
#     4  11  22  46  77 109 146 195 252 314 373 448
#     4  12  28  50  74 108 154 200 254 316 386 460
#     4  12  27  48  75 113 147 202 250 316 382 456
#     4  11  23  44  75 105 145 198 246 303 373 442
#     4  12  26  50  75 109 149 203 251 311 387 453
#     4  12  28  46  77 114 150 198 254 318 376 456
#     4  12  28  48  77 110 156 195 258 314 387 454
#
# _framework density 23.015906000000001
#
# number of rings (size 3 to 8) (size 9 to 14) (size 15 to 20)
#    0.000    0.267    4.667    3.600    6.533    2.133 
#    0.000    0.000    0.000    0.000    0.000    0.000 
#    0.000    0.000    0.000    0.000    0.000    0.000 
#
# Total GULP energy -371901.268263 kJ/mol
# GULP energy per Si atom -12396.708942 kJ/mol
# Density = 2.296352 g / cm^3
# Si number density = 23.015906 Si / 1000 Ang^3
#
#
#
# Elastic Constant Matrix: (Units=GPa)
#
#
# Indices 1 2 3 4 5 6 
#
# 1 132.5724 45.1717 50.8214 0.0000 3.0010 0.0000
# 2 45.1717 120.7683 54.4286 0.0000 -8.3176 0.0000
# 3 50.8214 54.4286 134.8297 0.0000 -7.8846 0.0000
# 4 0.0000 0.0000 0.0000 34.3151 0.0000 -2.7134
# 5 3.0010 -8.3176 -7.8846 0.0000 38.5204 0.0000
# 6 0.0000 0.0000 0.0000 -2.7134 0.0000 13.6255
#
#
#
# Elastic Compliance Matrix: (Units=1/GPa)
#
#
# Indices 1 2 3 4 5 6 
#
# 1 0.009445 -0.002451 -0.002677 0.000000 -0.001813 0.000000
# 2 -0.002451 0.010830 -0.003340 0.000000 0.001846 0.000000
# 3 -0.002677 -0.003340 0.009862 0.000000 0.001506 0.000000
# 4 0.000000 0.000000 0.000000 0.029608 0.000000 0.005896
# 5 -0.001813 0.001846 0.001506 0.000000 0.026808 0.000000
# 6 0.000000 0.000000 0.000000 0.005896 0.000000 0.074566
#
#
# Mechanical properties :
#
#
# Convention : Reuss Voigt Hill
#
# Bulk Modulus (GPa) = 75.75081 76.55706 76.15393
# Shear Modulus (GPa) = 27.40396 33.14212 30.27304
#
# Velocity S-wave (km/s) = 3.45433 3.79880 3.63065
# Velocity P-wave (km/s) = 6.99240 7.25094 7.12284
#
# Compressibility (1/GPa) = 0.01320118
#
# Stress axis : x y z
#
# Youngs Moduli (GPa) = 105.87058 92.33991 101.39968
#
# Poissons Ratio (x) = 0.22637 0.27142
# Poissons Ratio (y) = 0.25954 0.33865
# Poissons Ratio (z) = 0.28338 0.30839
#
# Static dielectric constant tensor:
#      x y z
#    x 4.094990 0.000000 -0.183310 
#    y 0.000000 4.276200 0.000000 
#    z -0.183310 0.000000 4.305370 
# 
# 
# High freq. dielectric constant tensor:
#      x y z
#    x 1.914550 0.000000 -0.006810 
#    y 0.000000 1.925160 0.000000 
#    z -0.006810 0.000000 1.916490 
# 
# From -- ./inp_files/108430.got.cif
#   From: 2010.06.25/outbox.cif.g09.slc.cpg/sg15_55_cif.got.tgz:108430.got - 2010.06.28 07:06:18.
