data_PCOD8152496
_publ_section_title
;
Structure prediction by ZEFSAII (Michael W. Deem and Ramdas Pophale) SiO2 
 PCOD8152496
Probable space group: C 2/C
;
_chemical_formula_sum "Si O2"
_cell_formula_units_Z 60
_cell_length_a 28.610710
_cell_length_b 16.156609
_cell_length_c 20.629607
_cell_angle_alpha 90.000000
_cell_angle_beta 17.147377
_cell_angle_gamma 90.000000
_cell_volume 2811.527237
_symmetry_space_group_name_H-M "C 2/C"
_symmetry_group_IT_number 15
_symmetry_cell_setting 'monoclinic'
loop_
_space_group_symop_operation_xyz
x,y,z
-x,y,1/2-z
-x,-y,-z
x,-y,1/2+z
1/2+x,1/2+y,z
1/2-x,1/2+y,1/2-z
1/2-x,1/2-y,-z
1/2+x,1/2-y,1/2+z
loop_
_atom_site_type_symbol
_atom_site_label
_atom_site_fract_x
_atom_site_fract_y
_atom_site_fract_z
Si Si1 0.447761 0.921696 0.892525
Si Si2 0.060917 0.246306 0.242444
Si Si3 0.866089 0.831012 0.212612
Si Si4 0.850339 0.598480 0.050094
Si Si5 0.427850 0.447270 0.486608
Si Si6 0.566433 0.616104 0.337996
Si Si7 0.000000 0.073691 0.750000
Si Si8 0.790235 0.684933 0.392894
O O1 0.500000 0.907752 0.750000
O O2 0.555713 0.868923 0.797403
O O3 0.272590 0.886832 0.133085
O O4 0.459416 0.017280 0.898106
O O5 0.025447 0.158994 0.324261
O O6 0.000000 0.238752 0.250000
O O7 0.969056 0.322918 0.399193
O O8 0.250000 0.250000 0.000000
O O9 0.813171 0.737167 0.296679
O O10 0.940898 0.875392 0.176991
O O11 0.000109 0.823487 0.981007
O O12 0.739509 0.585846 0.261429
O O13 0.751671 0.606592 0.112871
O O14 0.481344 0.527640 0.455507
O O15 0.431832 0.473525 0.404650
O O16 0.143735 0.126442 0.583137
O O17 0.750000 0.750000 0.500000
#
# Coordination Sequence:
#
# PCOD8152496 Si02
#       8
#     8   8   8   8   8   8   4   8
#     4  12  22  39  71  96 133 183 232 284 337 430
#     4  12  27  49  72 106 144 190 247 313 364 425
#     4  11  22  42  68  98 135 174 229 280 347 423
#     4  11  24  47  72 102 132 188 252 285 351 439
#     4  11  23  45  70 100 137 183 228 292 359 421
#     4  11  24  46  74 100 136 184 241 296 360 421
#     4  12  26  42  62 100 148 176 216 290 356 422
#     4  12  24  39  61 103 136 177 220 275 356 419
#
# _framework density 21.340713999999998
#
# number of rings (size 3 to 8) (size 9 to 14) (size 15 to 20)
#    0.000    0.533    6.667    2.000    2.800    1.067 
#    0.000    0.667    0.000    0.000    0.000    0.000 
#    0.000    0.000    0.000    0.000    0.000    0.000 
#
# Total GULP energy -371767.386132 kJ/mol
# GULP energy per Si atom -12392.246204 kJ/mol
# Density = 2.129214 g / cm^3
# Si number density = 21.340714 Si / 1000 Ang^3
#
#
#
# Elastic Constant Matrix: (Units=GPa)
#
#
# Indices 1 2 3 4 5 6 
#
# 1 105.2280 24.1902 31.5914 0.0013 9.2075 -0.0014
# 2 24.1902 95.2589 39.2390 0.0118 3.8138 -0.0128
# 3 31.5914 39.2390 101.9055 0.0112 -9.6153 -0.0144
# 4 0.0013 0.0118 0.0112 35.3716 -0.0069 -0.8461
# 5 9.2075 3.8138 -9.6153 -0.0069 27.1307 0.0078
# 6 -0.0014 -0.0128 -0.0144 -0.8461 0.0078 35.2026
#
#
#
# Elastic Compliance Matrix: (Units=1/GPa)
#
#
# Indices 1 2 3 4 5 6 
#
# 1 0.011257 -0.001231 -0.003476 0.000000 -0.004879 0.000000
# 2 -0.001231 0.012956 -0.004903 -0.000003 -0.003141 0.000003
# 3 -0.003476 -0.004903 0.013403 -0.000001 0.006619 0.000002
# 4 0.000000 -0.000003 -0.000001 0.028287 0.000007 0.000680
# 5 -0.004879 -0.003141 0.006619 0.000007 0.041302 -0.000008
# 6 0.000000 0.000003 0.000002 0.000680 -0.000008 0.028423
#
#
# Mechanical properties :
#
#
# Convention : Reuss Voigt Hill
#
# Bulk Modulus (GPa) = 54.36402 54.71486 54.53944
# Shear Modulus (GPa) = 31.05951 33.36577 32.21264
#
# Velocity S-wave (km/s) = 3.81912 3.95838 3.88937
# Velocity P-wave (km/s) = 6.70651 6.82540 6.76621
#
# Compressibility (1/GPa) = 0.01839452
#
# Stress axis : x y z
#
# Youngs Moduli (GPa) = 88.83604 77.18447 74.60932
#
# Poissons Ratio (x) = 0.09505 0.25933
# Poissons Ratio (y) = 0.10940 0.36584
# Poissons Ratio (z) = 0.30878 0.37846
#
# Static dielectric constant tensor:
#      x y z
#    x 3.933250 -0.000030 -0.066020 
#    y -0.000030 4.513160 -0.000070 
#    z -0.066020 -0.000070 3.932190 
# 
# 
# High freq. dielectric constant tensor:
#      x y z
#    x 1.828560 0.000000 0.008460 
#    y 0.000000 1.837020 0.000000 
#    z 0.008460 0.000000 1.845880 
# 
# From -- ./inp_files/257865.got.cif
#   From: 2010.06.25/outbox.cif.g09.slc.cpg/sg15_129_cif.got.tgz:257865.got - 2010.06.28 07:06:18.
