data_PCOD8152821
_publ_section_title
;
Structure prediction by ZEFSAII (Michael W. Deem and Ramdas Pophale) SiO2 
 PCOD8152821
Probable space group: C 2/C
;
_chemical_formula_sum "Si O2"
_cell_formula_units_Z 60
_cell_length_a 12.128836
_cell_length_b 22.546279
_cell_length_c 15.608241
_cell_angle_alpha 90.000000
_cell_angle_beta 49.297752
_cell_angle_gamma 90.000000
_cell_volume 3235.783621
_symmetry_space_group_name_H-M "C 2/C"
_symmetry_group_IT_number 15
_symmetry_cell_setting 'monoclinic'
loop_
_space_group_symop_operation_xyz
x,y,z
-x,y,1/2-z
-x,-y,-z
x,-y,1/2+z
1/2+x,1/2+y,z
1/2-x,1/2+y,1/2-z
1/2-x,1/2-y,-z
1/2+x,1/2-y,1/2+z
loop_
_atom_site_type_symbol
_atom_site_label
_atom_site_fract_x
_atom_site_fract_y
_atom_site_fract_z
Si Si1 0.143679 0.585292 0.222974
Si Si2 0.000000 0.033321 0.750000
Si Si3 0.173716 0.819161 0.966976
Si Si4 0.403767 0.377878 0.162409
Si Si5 0.167356 0.019457 0.911908
Si Si6 0.505103 0.906521 0.965039
Si Si7 0.783040 0.309798 0.104030
Si Si8 0.211818 0.511705 0.460894
O O1 0.251429 0.530762 0.183706
O O2 0.000000 0.560522 0.250000
O O3 0.105631 0.611824 0.334621
O O4 0.211165 0.636182 0.130736
O O5 0.000052 0.075159 0.833031
O O6 0.145205 0.993158 0.671995
O O7 0.205114 0.814834 0.052038
O O8 0.008725 0.842080 0.044981
O O9 0.181754 0.759706 0.905899
O O10 0.302814 0.418073 0.151750
O O11 0.319398 0.332345 0.266937
O O12 0.237527 0.024772 0.969301
O O13 0.000000 0.000000 0.000000
O O14 0.607245 0.934717 0.985895
O O15 0.431987 0.846595 0.036437
O O16 0.376128 0.950381 0.000920
#
# Coordination Sequence:
#
# PCOD8152821 Si02
#       8
#     8   4   8   8   8   8   8   8
#     4  12  22  38  58  93 127 154 193 251 308 365
#     4  12  18  36  60  90 126 162 196 244 304 370
#     4  11  23  38  61  88 120 157 203 248 304 361
#     4  12  22  37  61  88 124 156 201 253 295 365
#     4  12  23  38  60  92 124 161 205 248 301 369
#     4  11  23  40  57  88 129 157 195 251 303 366
#     4  11  23  38  60  88 120 162 199 249 305 363
#     4  11  23  37  59  89 124 165 198 241 308 363
#
# _framework density 18.542650999999999
#
# number of rings (size 3 to 8) (size 9 to 14) (size 15 to 20)
#    0.000    0.533    8.000    0.800    3.733    0.000 
#    0.000    0.000    0.000    0.800    3.467    0.000 
#    0.000    0.000    0.000    0.000    0.000    0.000 
#
# Total GULP energy -371990.879936 kJ/mol
# GULP energy per Si atom -12399.695998 kJ/mol
# Density = 1.850045 g / cm^3
# Si number density = 18.542651 Si / 1000 Ang^3
#
#
#
# Elastic Constant Matrix: (Units=GPa)
#
#
# Indices 1 2 3 4 5 6 
#
# 1 93.9285 42.3434 33.9500 0.0001 -3.2822 0.0000
# 2 42.3434 112.4375 40.1663 0.0001 -14.7307 0.0000
# 3 33.9500 40.1663 101.6428 0.0004 -18.0058 -0.0001
# 4 0.0001 0.0001 0.0004 35.0424 -0.0002 0.6870
# 5 -3.2822 -14.7307 -18.0058 -0.0002 30.8418 0.0000
# 6 0.0000 0.0000 -0.0001 0.6870 0.0000 20.2275
#
#
#
# Elastic Compliance Matrix: (Units=1/GPa)
#
#
# Indices 1 2 3 4 5 6 
#
# 1 0.013700 -0.004304 -0.003325 0.000000 -0.002539 0.000000
# 2 -0.004304 0.011938 -0.002622 0.000000 0.003713 0.000000
# 3 -0.003325 -0.002622 0.013050 0.000000 0.006013 0.000000
# 4 0.000000 0.000000 0.000000 0.028556 0.000000 -0.000970
# 5 -0.002539 0.003713 0.006013 0.000000 0.037437 0.000000
# 6 0.000000 0.000000 0.000000 -0.000970 0.000000 0.049471
#
#
# Mechanical properties :
#
#
# Convention : Reuss Voigt Hill
#
# Bulk Modulus (GPa) = 54.98816 60.10314 57.54565
# Shear Modulus (GPa) = 27.66783 29.99229 28.83006
#
# Velocity S-wave (km/s) = 3.86699 4.02615 3.94737
# Velocity P-wave (km/s) = 7.04680 7.35507 7.20258
#
# Compressibility (1/GPa) = 0.01818573
#
# Stress axis : x y z
#
# Youngs Moduli (GPa) = 72.99419 83.76683 76.62712
#
# Poissons Ratio (x) = 0.36055 0.25477
# Poissons Ratio (y) = 0.31418 0.20093
# Poissons Ratio (z) = 0.24269 0.21965
#
# Static dielectric constant tensor:
#      x y z
#    x 3.373220 0.000000 -0.059180 
#    y 0.000000 3.460810 0.000000 
#    z -0.059180 0.000000 3.606090 
# 
# 
# High freq. dielectric constant tensor:
#      x y z
#    x 1.698040 0.000000 -0.010340 
#    y 0.000000 1.704230 0.000000 
#    z -0.010340 0.000000 1.739500 
# 
# From -- ./inp_files/148100.got.cif
#   From: 2010.06.25/outbox.cif.g09.slc.cpg/sg15_75_cif.got.tgz:148100.got - 2010.06.28 07:06:18.
