data_PCOD8152642
_publ_section_title
;
Structure prediction by ZEFSAII (Michael W. Deem and Ramdas Pophale) SiO2 
 PCOD8152642
Probable space group: C 2/C
;
_chemical_formula_sum "Si O2"
_cell_formula_units_Z 48
_cell_length_a 19.172678
_cell_length_b 7.792013
_cell_length_c 20.307162
_cell_angle_alpha 90.000000
_cell_angle_beta 36.664963
_cell_angle_gamma 90.000000
_cell_volume 1811.565407
_symmetry_space_group_name_H-M "C 2/C"
_symmetry_group_IT_number 15
_symmetry_cell_setting 'monoclinic'
loop_
_space_group_symop_operation_xyz
x,y,z
-x,y,1/2-z
-x,-y,-z
x,-y,1/2+z
1/2+x,1/2+y,z
1/2-x,1/2+y,1/2-z
1/2-x,1/2-y,-z
1/2+x,1/2-y,1/2+z
loop_
_atom_site_type_symbol
_atom_site_label
_atom_site_fract_x
_atom_site_fract_y
_atom_site_fract_z
Si Si1 0.132684 0.865274 0.666714
Si Si2 0.489507 0.113998 0.420873
Si Si3 0.199358 0.435852 0.539965
Si Si4 0.153549 0.232152 0.365405
Si Si5 0.688390 0.028795 0.688740
Si Si6 0.878783 0.061380 0.702405
O O1 0.202456 0.729852 0.661295
O O2 0.000000 0.806311 0.750000
O O3 0.201225 0.916559 0.547802
O O4 0.134975 0.038076 0.708938
O O5 0.390813 0.034310 0.450229
O O6 0.441208 0.130960 0.532901
O O7 0.511800 0.313564 0.387476
O O8 0.603859 0.998715 0.317212
O O9 0.250000 0.250000 0.500000
O O10 0.136785 0.461460 0.657823
O O11 0.264899 0.344782 0.256500
O O12 0.194992 0.083933 0.386391
O O13 0.095418 0.123627 0.350445
#
# Coordination Sequence:
#
# PCOD8152642 Si02
#       6
#     8   8   8   8   8   8
#     4  12  25  43  67 104 141 181 235 288 349 412
#     4  11  22  44  67 102 133 182 232 279 350 411
#     4  12  21  42  69  98 139 183 228 286 348 411
#     4  11  23  46  70 101 137 188 232 287 354 416
#     4  11  25  42  69 103 144 180 231 291 343 421
#     4  11  24  44  70  98 139 181 237 286 342 423
#
# _framework density 26.496418999999999
#
# number of rings (size 3 to 8) (size 9 to 14) (size 15 to 20)
#    0.000    0.667    3.333    5.500    0.000    0.000 
#    0.000    7.500    0.000    0.000    0.000    0.000 
#    0.000    0.000    0.000    0.000    0.000    0.000 
#
# Total GULP energy -297359.604079 kJ/mol
# GULP energy per Si atom -12389.983503 kJ/mol
# Density = 2.643611 g / cm^3
# Si number density = 26.496419 Si / 1000 Ang^3
#
#
#
# Elastic Constant Matrix: (Units=GPa)
#
#
# Indices 1 2 3 4 5 6 
#
# 1 32.2635 -5.4440 7.5882 -0.0001 0.6474 0.0001
# 2 -5.4440 89.1970 35.5611 0.0002 -1.3144 0.0000
# 3 7.5882 35.5611 123.2634 0.0001 16.8461 0.0000
# 4 -0.0001 0.0002 0.0001 39.7536 -0.0001 10.0219
# 5 0.6474 -1.3144 16.8461 -0.0001 44.8921 0.0000
# 6 0.0001 0.0000 0.0000 10.0219 0.0000 53.1681
#
#
#
# Elastic Compliance Matrix: (Units=1/GPa)
#
#
# Indices 1 2 3 4 5 6 
#
# 1 0.032222 0.003175 -0.003003 0.000000 0.000755 0.000000
# 2 0.003175 0.013126 -0.004246 0.000000 0.001932 0.000000
# 3 -0.003003 -0.004246 0.010049 0.000000 -0.003852 0.000000
# 4 0.000000 0.000000 0.000000 0.026410 0.000000 -0.004978
# 5 0.000755 0.001932 -0.003852 0.000000 0.023767 0.000000
# 6 0.000000 0.000000 0.000000 -0.004978 0.000000 0.019747
#
#
# Mechanical properties :
#
#
# Convention : Reuss Voigt Hill
#
# Bulk Modulus (GPa) = 21.16474 35.57049 28.36762
# Shear Modulus (GPa) = 33.50796 41.36400 37.43598
#
# Velocity S-wave (km/s) = 3.56001 3.95538 3.76289
# Velocity P-wave (km/s) = 4.99033 5.85780 5.44138
#
# Compressibility (1/GPa) = 0.04724839
#
# Stress axis : x y z
#
# Youngs Moduli (GPa) = 31.03516 76.18279 99.51174
#
# Poissons Ratio (x) = -0.24187 0.29880
# Poissons Ratio (y) = -0.09853 0.42257
# Poissons Ratio (z) = 0.09319 0.32350
#
# Static dielectric constant tensor:
#      x y z
#    x 5.794610 -0.000090 -0.019980 
#    y -0.000090 6.577650 0.000020 
#    z -0.019980 0.000020 5.076840 
# 
# 
# High freq. dielectric constant tensor:
#      x y z
#    x 2.052390 0.000000 0.022070 
#    y 0.000000 2.081840 0.000000 
#    z 0.022070 0.000000 2.059440 
# 
# From -- ./inp_files/281607.got.cif
#   From: 2010.06.25/outbox.cif.g09.slc.cpg/sg15_141_cif.got.tgz:281607.got - 2010.06.28 07:06:18.
