data_PCOD8152449
_publ_section_title
;
Structure prediction by ZEFSAII (Michael W. Deem and Ramdas Pophale) SiO2 
 PCOD8152449
Probable space group: C 2/C
;
_chemical_formula_sum "Si O2"
_cell_formula_units_Z 48
_cell_length_a 13.539570
_cell_length_b 13.092104
_cell_length_c 25.435406
_cell_angle_alpha 90.000000
_cell_angle_beta 30.335411
_cell_angle_gamma 90.000000
_cell_volume 2277.177828
_symmetry_space_group_name_H-M "C 2/C"
_symmetry_group_IT_number 15
_symmetry_cell_setting 'monoclinic'
loop_
_space_group_symop_operation_xyz
x,y,z
-x,y,1/2-z
-x,-y,-z
x,-y,1/2+z
1/2+x,1/2+y,z
1/2-x,1/2+y,1/2-z
1/2-x,1/2-y,-z
1/2+x,1/2-y,1/2+z
loop_
_atom_site_type_symbol
_atom_site_label
_atom_site_fract_x
_atom_site_fract_y
_atom_site_fract_z
Si Si1 0.000000 0.642177 0.750000
Si Si2 0.880506 0.482021 0.884863
Si Si3 0.938639 0.887156 0.401430
Si Si4 0.207660 0.497451 0.314077
Si Si5 0.841985 0.276501 0.635487
Si Si6 0.190699 0.659961 0.913024
Si Si7 0.000000 0.318773 0.750000
O O1 0.865343 0.573658 0.850149
O O2 0.847588 0.709460 0.788209
O O3 0.984296 0.385406 0.809729
O O4 0.007019 0.522214 0.875507
O O5 0.666761 0.448326 0.002831
O O6 0.785959 0.865288 0.425435
O O7 0.112382 0.957910 0.302248
O O8 0.021574 0.779587 0.384279
O O9 0.240955 0.617440 0.305109
O O10 0.190164 0.441852 0.378260
O O11 0.971289 0.299507 0.523931
O O12 0.311175 0.747355 0.827505
#
# Coordination Sequence:
#
# PCOD8152449 Si02
#       7
#     4   8   8   8   8   8   4
#     4  11  28  47  66 106 142 175 228 293 356 396
#     4  11  25  45  69 102 139 180 232 282 340 413
#     4  12  24  46  73 101 136 189 229 278 343 417
#     4  12  26  42  70 106 142 174 230 293 333 408
#     4  12  26  46  71  99 142 185 223 287 350 400
#     4  12  24  42  73 107 133 180 238 277 340 411
#     4  11  22  41  72  98 134 181 238 279 326 418
#
# _framework density 21.078721999999999
#
# number of rings (size 3 to 8) (size 9 to 14) (size 15 to 20)
#    0.000    0.333    6.667    2.000    2.333    2.000 
#    0.000    1.667    0.000    0.000    0.000    0.000 
#    0.000    0.000    0.000    0.000    0.000    0.000 
#
# Total GULP energy -297711.126622 kJ/mol
# GULP energy per Si atom -12404.630276 kJ/mol
# Density = 2.103075 g / cm^3
# Si number density = 21.078722 Si / 1000 Ang^3
#
#
#
# Elastic Constant Matrix: (Units=GPa)
#
#
# Indices 1 2 3 4 5 6 
#
# 1 92.5019 41.9967 15.4012 0.0014 11.3167 0.0000
# 2 41.9967 127.6433 70.8383 -0.0036 15.0078 0.0015
# 3 15.4012 70.8383 138.8323 0.0130 13.0251 0.0100
# 4 0.0014 -0.0036 0.0130 33.0933 -0.0027 -0.7212
# 5 11.3167 15.0078 13.0251 -0.0027 26.9206 -0.0012
# 6 0.0000 0.0015 0.0100 -0.7212 -0.0012 42.6755
#
#
#
# Elastic Compliance Matrix: (Units=1/GPa)
#
#
# Indices 1 2 3 4 5 6 
#
# 1 0.013119 -0.004570 0.001210 -0.000002 -0.003552 0.000000
# 2 -0.004570 0.012856 -0.005825 0.000004 -0.002428 0.000001
# 3 0.001210 -0.005825 0.010249 -0.000005 -0.002220 -0.000002
# 4 -0.000002 0.000004 -0.000005 0.030229 0.000004 0.000511
# 5 -0.003552 -0.002428 -0.002220 0.000004 0.041067 0.000002
# 6 0.000000 0.000001 -0.000002 0.000511 0.000002 0.023441
#
#
# Mechanical properties :
#
#
# Convention : Reuss Voigt Hill
#
# Bulk Modulus (GPa) = 56.01158 68.38333 62.19746
# Shear Modulus (GPa) = 32.19940 35.92063 34.06002
#
# Velocity S-wave (km/s) = 3.91266 4.13258 4.02412
# Velocity P-wave (km/s) = 6.85873 7.43527 7.15281
#
# Compressibility (1/GPa) = 0.01785345
#
# Stress axis : x y z
#
# Youngs Moduli (GPa) = 76.22792 77.78443 97.56878
#
# Poissons Ratio (x) = 0.35547 -0.11803
# Poissons Ratio (y) = 0.34836 0.56834
# Poissons Ratio (z) = -0.09222 0.45309
#
# Static dielectric constant tensor:
#      x y z
#    x 3.692780 0.000000 0.077070 
#    y 0.000000 4.003700 0.000010 
#    z 0.077070 0.000010 4.256120 
# 
# 
# High freq. dielectric constant tensor:
#      x y z
#    x 1.816160 0.000000 0.009020 
#    y 0.000000 1.840000 0.000000 
#    z 0.009020 0.000000 1.839560 
# 
# From -- ./inp_files/151888.got.cif
#   From: 2010.06.25/outbox.cif.g09.slc.cpg/sg15_76_cif.got.tgz:151888.got - 2010.06.28 07:06:18.
