data_PCOD8152156
_publ_section_title
;
Structure prediction by ZEFSAII (Michael W. Deem and Ramdas Pophale) SiO2 
 PCOD8152156
Probable space group: C 2/C
;
_chemical_formula_sum "Si O2"
_cell_formula_units_Z 56
_cell_length_a 27.481358
_cell_length_b 11.456036
_cell_length_c 8.727450
_cell_angle_alpha 90.000000
_cell_angle_beta 102.659253
_cell_angle_gamma 90.000000
_cell_volume 2680.847253
_symmetry_space_group_name_H-M "C 2/C"
_symmetry_group_IT_number 15
_symmetry_cell_setting 'monoclinic'
loop_
_space_group_symop_operation_xyz
x,y,z
-x,y,1/2-z
-x,-y,-z
x,-y,1/2+z
1/2+x,1/2+y,z
1/2-x,1/2+y,1/2-z
1/2-x,1/2-y,-z
1/2+x,1/2-y,1/2+z
loop_
_atom_site_type_symbol
_atom_site_label
_atom_site_fract_x
_atom_site_fract_y
_atom_site_fract_z
Si Si1 0.278837 0.869585 0.692740
Si Si2 0.164407 0.473689 0.052263
Si Si3 0.894390 0.273405 0.354111
Si Si4 0.006472 0.372503 0.936488
Si Si5 0.592021 0.185510 0.981326
Si Si6 0.835509 0.847232 0.297117
Si Si7 0.332157 0.579830 0.462025
O O1 0.317949 0.911989 0.591178
O O2 0.286872 0.734070 0.742816
O O3 0.222424 0.867811 0.600266
O O4 0.289021 0.953063 0.846478
O O5 0.148335 0.371586 0.157438
O O6 0.115897 0.555546 0.989633
O O7 0.941444 0.310660 0.489220
O O8 0.908797 0.259668 0.187568
O O9 0.873129 0.148083 0.390616
O O10 0.000000 0.376130 0.750000
O O11 0.000000 0.500000 0.000000
O O12 0.963257 0.302557 0.991779
O O13 0.621244 0.261121 0.124113
O O14 0.828141 0.943497 0.421854
O O15 0.848892 0.911400 0.148900
#
# Coordination Sequence:
#
# PCOD8152156 Si02
#       7
#     8   8   8   8   8   8   8
#     4  11  24  41  66  97 140 180 230 285 345 407
#     4  11  22  38  65  98 135 173 222 280 342 402
#     4  12  24  41  67  98 137 177 226 281 345 406
#     4  12  25  40  68 104 139 176 225 285 359 417
#     4  11  24  43  67 100 136 175 223 287 349 415
#     4  11  25  43  65  95 132 181 232 283 338 411
#     4  12  25  43  67  93 138 185 235 282 341 408
#
# _framework density 20.888918
#
# number of rings (size 3 to 8) (size 9 to 14) (size 15 to 20)
#    0.000    0.571    4.286    4.286    4.000    0.000 
#    0.000    4.286    0.000    0.000    0.000    0.000 
#    0.000    0.000    0.000    0.000    0.000    0.000 
#
# Total GULP energy -347262.973016 kJ/mol
# GULP energy per Si atom -12402.249036 kJ/mol
# Density = 2.084137 g / cm^3
# Si number density = 20.888918 Si / 1000 Ang^3
#
#
#
# Elastic Constant Matrix: (Units=GPa)
#
#
# Indices 1 2 3 4 5 6 
#
# 1 96.9212 32.3727 18.7586 0.0000 4.2966 0.0000
# 2 32.3727 112.3940 20.4197 0.0000 -1.5499 0.0000
# 3 18.7586 20.4197 92.5908 0.0000 -2.5166 0.0000
# 4 0.0000 0.0000 0.0000 39.6232 0.0000 -7.0661
# 5 4.2966 -1.5499 -2.5166 0.0000 27.4213 0.0000
# 6 0.0000 0.0000 0.0000 -7.0661 0.0000 24.0688
#
#
#
# Elastic Compliance Matrix: (Units=1/GPa)
#
#
# Indices 1 2 3 4 5 6 
#
# 1 0.011794 -0.003107 -0.001764 0.000000 -0.002185 0.000000
# 2 -0.003107 0.010090 -0.001571 0.000000 0.000913 0.000000
# 3 -0.001764 -0.001571 0.011538 0.000000 0.001246 0.000000
# 4 0.000000 0.000000 0.000000 0.026632 0.000000 0.007819
# 5 -0.002185 0.000913 0.001246 0.000000 0.036976 0.000000
# 6 0.000000 0.000000 0.000000 0.007819 0.000000 0.043843
#
#
# Mechanical properties :
#
#
# Convention : Reuss Voigt Hill
#
# Bulk Modulus (GPa) = 48.68791 49.44531 49.06661
# Shear Modulus (GPa) = 31.13293 33.57966 32.35629
#
# Velocity S-wave (km/s) = 3.86476 4.01376 3.93996
# Velocity P-wave (km/s) = 6.57828 6.72327 6.65117
#
# Compressibility (1/GPa) = 0.02053898
#
# Stress axis : x y z
#
# Youngs Moduli (GPa) = 84.79243 99.10732 86.67116
#
# Poissons Ratio (x) = 0.30789 0.15285
# Poissons Ratio (y) = 0.26342 0.13616
# Poissons Ratio (z) = 0.14954 0.15570
#
# Static dielectric constant tensor:
#      x y z
#    x 5.536150 0.000000 0.636580 
#    y 0.000000 3.891400 0.000000 
#    z 0.636580 0.000000 4.116100 
# 
# 
# High freq. dielectric constant tensor:
#      x y z
#    x 1.810810 0.000000 -0.000760 
#    y 0.000000 1.815560 0.000000 
#    z -0.000760 0.000000 1.835260 
# 
# From -- ./inp_files/65448.got.cif
#   From: 2010.06.25/outbox.cif.g09.slc.cpg/sg15_33_cif.got.tgz:65448.got - 2010.06.28 07:06:18.
