data_PCOD8152686
_publ_section_title
;
Structure prediction by ZEFSAII (Michael W. Deem and Ramdas Pophale) SiO2 
 PCOD8152686
Probable space group: C 2/C
;
_chemical_formula_sum "Si O2"
_cell_formula_units_Z 56
_cell_length_a 27.549272
_cell_length_b 9.540507
_cell_length_c 18.233620
_cell_angle_alpha 90.000000
_cell_angle_beta 146.070620
_cell_angle_gamma 90.000000
_cell_volume 2674.985767
_symmetry_space_group_name_H-M "C 2/C"
_symmetry_group_IT_number 15
_symmetry_cell_setting 'monoclinic'
loop_
_space_group_symop_operation_xyz
x,y,z
-x,y,1/2-z
-x,-y,-z
x,-y,1/2+z
1/2+x,1/2+y,z
1/2-x,1/2+y,1/2-z
1/2-x,1/2-y,-z
1/2+x,1/2-y,1/2+z
loop_
_atom_site_type_symbol
_atom_site_label
_atom_site_fract_x
_atom_site_fract_y
_atom_site_fract_z
Si Si1 0.974072 0.751606 0.408068
Si Si2 0.164844 0.663317 0.662476
Si Si3 0.283209 0.103089 0.357815
Si Si4 0.466154 0.238263 0.567877
Si Si5 0.046930 0.008665 0.736708
Si Si6 0.262505 0.410255 0.535584
Si Si7 0.382890 0.024160 0.750306
O O1 0.964391 0.789970 0.481413
O O2 0.955854 0.884358 0.334450
O O3 0.905006 0.630639 0.305032
O O4 0.069381 0.691662 0.511564
O O5 0.219357 0.805983 0.726732
O O6 0.209238 0.548125 0.668134
O O7 0.165308 0.609562 0.746382
O O8 0.373141 0.186127 0.479055
O O9 0.238334 0.073272 0.378699
O O10 0.494283 0.368708 0.651742
O O11 0.530892 0.108957 0.663425
O O12 0.000000 0.074047 0.750000
O O13 0.146518 0.970885 0.880061
O O14 0.250000 0.250000 0.500000
O O15 0.182562 0.495163 0.399637
#
# Coordination Sequence:
#
# PCOD8152686 Si02
#       7
#     8   8   8   8   8   8   8
#     4  11  24  47  67  98 139 177 223 281 341 394
#     4  11  24  42  66 102 133 172 226 278 331 402
#     4  12  25  39  72 103 133 175 226 276 339 399
#     4  11  22  44  72  99 130 182 223 274 340 396
#     4  12  28  44  68  98 138 180 226 282 339 399
#     4  12  24  44  66  99 132 175 228 275 331 404
#     4  11  22  46  70  92 142 175 219 279 332 405
#
# _framework density 20.934692999999999
#
# number of rings (size 3 to 8) (size 9 to 14) (size 15 to 20)
#    0.000    0.571    5.714    3.000    4.000    1.714 
#    0.000    0.000    0.000    0.000    0.000    0.000 
#    0.000    0.000    0.000    0.000    0.000    0.000 
#
# Total GULP energy -347367.281972 kJ/mol
# GULP energy per Si atom -12405.974356 kJ/mol
# Density = 2.088704 g / cm^3
# Si number density = 20.934693 Si / 1000 Ang^3
#
#
#
# Elastic Constant Matrix: (Units=GPa)
#
#
# Indices 1 2 3 4 5 6 
#
# 1 76.1322 14.0137 31.0117 0.0000 15.0044 0.0000
# 2 14.0137 54.2405 26.9041 0.0000 -4.3597 0.0000
# 3 31.0117 26.9041 117.1206 0.0000 1.9462 0.0000
# 4 0.0000 0.0000 0.0000 25.3541 0.0000 4.0328
# 5 15.0044 -4.3597 1.9462 0.0000 28.2359 0.0000
# 6 0.0000 0.0000 0.0000 4.0328 0.0000 31.6366
#
#
#
# Elastic Compliance Matrix: (Units=1/GPa)
#
#
# Indices 1 2 3 4 5 6 
#
# 1 0.017058 -0.003380 -0.003585 0.000000 -0.009339 0.000000
# 2 -0.003380 0.021838 -0.004212 0.000000 0.005458 0.000000
# 3 -0.003585 -0.004212 0.010446 0.000000 0.000535 0.000000
# 4 0.000000 0.000000 0.000000 0.040258 0.000000 -0.005132
# 5 -0.009339 0.005458 0.000535 0.000000 0.041185 0.000000
# 6 0.000000 0.000000 0.000000 -0.005132 0.000000 0.032263
#
#
# Mechanical properties :
#
#
# Convention : Reuss Voigt Hill
#
# Bulk Modulus (GPa) = 37.05345 43.48358 40.26851
# Shear Modulus (GPa) = 25.72054 28.74957 27.23506
#
# Velocity S-wave (km/s) = 3.50895 3.70982 3.61079
# Velocity P-wave (km/s) = 5.84423 6.25832 6.05481
#
# Compressibility (1/GPa) = 0.02698804
#
# Stress axis : x y z
#
# Youngs Moduli (GPa) = 58.62301 45.79265 95.72833
#
# Poissons Ratio (x) = 0.15476 0.34321
# Poissons Ratio (y) = 0.19812 0.40323
# Poissons Ratio (z) = 0.21018 0.19289
#
# Static dielectric constant tensor:
#      x y z
#    x 4.012840 0.000000 -0.131590 
#    y 0.000000 7.127130 0.000000 
#    z -0.131590 0.000000 4.066720 
# 
# 
# High freq. dielectric constant tensor:
#      x y z
#    x 1.821350 0.000000 0.006290 
#    y 0.000000 1.819090 0.000000 
#    z 0.006290 0.000000 1.831480 
# 
# From -- ./inp_files/259022.got.cif
#   From: 2010.06.25/outbox.cif.g09.slc.cpg/sg15_130_cif.got.tgz:259022.got - 2010.06.28 07:06:18.
