data_PCOD8152551
_publ_section_title
;
Structure prediction by ZEFSAII (Michael W. Deem and Ramdas Pophale) SiO2 
 PCOD8152551
Probable space group: C 2/C
;
_chemical_formula_sum "Si O2"
_cell_formula_units_Z 48
_cell_length_a 30.107954
_cell_length_b 7.871842
_cell_length_c 17.021120
_cell_angle_alpha 90.000000
_cell_angle_beta 147.559736
_cell_angle_gamma 90.000000
_cell_volume 2163.967390
_symmetry_space_group_name_H-M "C 2/C"
_symmetry_group_IT_number 15
_symmetry_cell_setting 'monoclinic'
loop_
_space_group_symop_operation_xyz
x,y,z
-x,y,1/2-z
-x,-y,-z
x,-y,1/2+z
1/2+x,1/2+y,z
1/2-x,1/2+y,1/2-z
1/2-x,1/2-y,-z
1/2+x,1/2-y,1/2+z
loop_
_atom_site_type_symbol
_atom_site_label
_atom_site_fract_x
_atom_site_fract_y
_atom_site_fract_z
Si Si1 0.080680 0.298287 0.321122
Si Si2 0.650619 0.852378 0.989197
Si Si3 0.005329 0.323338 0.468930
Si Si4 0.162377 0.883839 0.214635
Si Si5 0.888814 0.051399 0.685890
Si Si6 0.434833 0.649531 0.509591
O O1 0.133327 0.455313 0.434848
O O2 0.000000 0.260302 0.250000
O O3 0.050164 0.344355 0.189715
O O4 0.135697 0.123813 0.396683
O O5 0.639044 0.719207 0.901597
O O6 0.743446 0.831404 0.158910
O O7 0.589182 0.807400 0.969977
O O8 0.101369 0.271597 0.600686
O O9 0.000000 0.500000 0.500000
O O10 0.962716 0.191698 0.463464
O O11 0.152583 0.943320 0.290338
O O12 0.143727 0.028547 0.121696
O O13 0.988938 0.046268 0.838811
#
# Coordination Sequence:
#
# PCOD8152551 Si02
#       6
#     8   8   8   8   8   8
#     4  12  23  41  70 101 131 183 241 276 335 419
#     4  12  27  42  68 107 142 170 230 298 348 395
#     4  11  22  42  74  96 132 183 239 273 329 427
#     4  11  24  47  66 101 141 180 226 287 359 405
#     4  11  22  46  73  93 136 187 230 280 340 420
#     4  11  22  47  67  95 138 186 224 279 345 419
#
# _framework density 22.181481000000002
#
# number of rings (size 3 to 8) (size 9 to 14) (size 15 to 20)
#    0.000    0.667    3.333    7.000    0.000    3.333 
#    3.000    0.000    0.000    0.000    0.000    0.000 
#    0.000    0.000    0.000    0.000    0.000    0.000 
#
# Total GULP energy -297523.024439 kJ/mol
# GULP energy per Si atom -12396.792685 kJ/mol
# Density = 2.213100 g / cm^3
# Si number density = 22.181481 Si / 1000 Ang^3
#
#
#
# Elastic Constant Matrix: (Units=GPa)
#
#
# Indices 1 2 3 4 5 6 
#
# 1 55.9657 3.6441 14.9932 0.0000 1.1211 0.0000
# 2 3.6441 81.8856 4.5856 0.0000 1.0857 0.0000
# 3 14.9932 4.5856 86.3014 0.0000 4.2151 0.0000
# 4 0.0000 0.0000 0.0000 34.1200 0.0000 -7.1961
# 5 1.1211 1.0857 4.2151 0.0000 28.4444 0.0000
# 6 0.0000 0.0000 0.0000 -7.1961 0.0000 23.0896
#
#
#
# Elastic Compliance Matrix: (Units=1/GPa)
#
#
# Indices 1 2 3 4 5 6 
#
# 1 0.018777 -0.000652 -0.003216 0.000000 -0.000239 0.000000
# 2 -0.000652 0.012275 -0.000521 0.000000 -0.000366 0.000000
# 3 -0.003216 -0.000521 0.012255 0.000000 -0.001669 0.000000
# 4 0.000000 0.000000 0.000000 0.031370 0.000000 0.009777
# 5 -0.000239 -0.000366 -0.001669 0.000000 0.035427 0.000000
# 6 0.000000 0.000000 0.000000 0.009777 0.000000 0.046357
#
#
# Mechanical properties :
#
#
# Convention : Reuss Voigt Hill
#
# Bulk Modulus (GPa) = 28.96128 30.06650 29.51389
# Shear Modulus (GPa) = 28.28865 30.52612 29.40738
#
# Velocity S-wave (km/s) = 3.57505 3.71374 3.64505
# Velocity P-wave (km/s) = 5.48873 5.65450 5.57223
#
# Compressibility (1/GPa) = 0.03452886
#
# Stress axis : x y z
#
# Youngs Moduli (GPa) = 53.25704 81.46491 81.59792
#
# Poissons Ratio (x) = 0.05314 0.26240
# Poissons Ratio (y) = 0.03474 0.04252
# Poissons Ratio (z) = 0.17126 0.04245
#
# Static dielectric constant tensor:
#      x y z
#    x 4.365820 0.000000 -0.553430 
#    y 0.000000 4.003090 0.000000 
#    z -0.553430 0.000000 4.207700 
# 
# 
# High freq. dielectric constant tensor:
#      x y z
#    x 1.877190 0.000000 -0.017330 
#    y 0.000000 1.886490 0.000000 
#    z -0.017330 0.000000 1.862110 
# 
# From -- ./inp_files/224524.got.cif
#   From: 2010.06.25/outbox.cif.g09.slc.cpg/sg15_113_cif.got.tgz:224524.got - 2010.06.28 07:06:18.
