data_PCOD8152202
_publ_section_title
;
Structure prediction by ZEFSAII (Michael W. Deem and Ramdas Pophale) SiO2 
 PCOD8152202
Probable space group: C 2/C
;
_chemical_formula_sum "Si O2"
_cell_formula_units_Z 48
_cell_length_a 27.790449
_cell_length_b 9.305575
_cell_length_c 15.670660
_cell_angle_alpha 90.000000
_cell_angle_beta 143.678159
_cell_angle_gamma 90.000000
_cell_volume 2400.395045
_symmetry_space_group_name_H-M "C 2/C"
_symmetry_group_IT_number 15
_symmetry_cell_setting 'monoclinic'
loop_
_space_group_symop_operation_xyz
x,y,z
-x,y,1/2-z
-x,-y,-z
x,-y,1/2+z
1/2+x,1/2+y,z
1/2-x,1/2+y,1/2-z
1/2-x,1/2-y,-z
1/2+x,1/2-y,1/2+z
loop_
_atom_site_type_symbol
_atom_site_label
_atom_site_fract_x
_atom_site_fract_y
_atom_site_fract_z
Si Si1 0.084083 0.920860 0.121552
Si Si2 0.987472 0.633504 0.421706
Si Si3 0.338753 0.823447 0.395287
Si Si4 0.313700 0.551285 0.573936
Si Si5 0.193747 0.999004 0.122576
Si Si6 0.646821 0.881278 0.896021
O O1 0.069769 0.751720 0.115423
O O2 0.135168 0.998721 0.270315
O O3 0.129903 0.932370 0.097151
O O4 0.000000 0.000000 0.000000
O O5 0.940259 0.579176 0.269415
O O6 0.000000 0.500000 0.500000
O O7 0.074456 0.703351 0.524836
O O8 0.281130 0.923761 0.256104
O O9 0.295777 0.669773 0.347997
O O10 0.354776 0.910169 0.505487
O O11 0.337143 0.470103 0.519062
O O12 0.333535 0.716424 0.590497
O O13 0.218288 0.524064 0.455587
#
# Coordination Sequence:
#
# PCOD8152202 Si02
#       6
#     8   8   8   8   8   8
#     4  11  22  42  62  89 127 163 207 258 306 375
#     4  11  23  37  63  91 125 159 211 259 309 366
#     4  11  22  39  63  92 119 167 207 255 314 369
#     4   9  19  36  62  90 118 162 206 248 306 372
#     4  11  23  39  64  91 124 164 209 255 314 371
#     4   9  18  36  61  88 119 157 209 256 298 368
#
# _framework density 19.996708000000002
#
# number of rings (size 3 to 8) (size 9 to 14) (size 15 to 20)
#    0.000    1.667    3.333    1.500    4.667    0.667 
#    0.000    2.500    3.667    0.000    0.000    0.000 
#    0.000    0.000    0.000    0.000    0.000    0.000 
#
# Total GULP energy -297546.815701 kJ/mol
# GULP energy per Si atom -12397.783988 kJ/mol
# Density = 1.995119 g / cm^3
# Si number density = 19.996708 Si / 1000 Ang^3
#
#
#
# Elastic Constant Matrix: (Units=GPa)
#
#
# Indices 1 2 3 4 5 6 
#
# 1 128.8857 21.6826 54.2955 0.0000 -9.5217 0.0000
# 2 21.6826 56.8991 39.0321 0.0000 -7.2132 0.0000
# 3 54.2955 39.0321 127.7969 0.0000 4.7165 0.0000
# 4 0.0000 0.0000 0.0000 31.4344 0.0000 2.3729
# 5 -9.5217 -7.2132 4.7165 0.0000 39.3946 0.0000
# 6 0.0000 0.0000 0.0000 2.3729 0.0000 30.6137
#
#
#
# Elastic Compliance Matrix: (Units=1/GPa)
#
#
# Indices 1 2 3 4 5 6 
#
# 1 0.009777 -0.000580 -0.004078 0.000000 0.002745 0.000000
# 2 -0.000580 0.023253 -0.007039 0.000000 0.004960 0.000000
# 3 -0.004078 -0.007039 0.011843 0.000000 -0.003692 0.000000
# 4 0.000000 0.000000 0.000000 0.032000 0.000000 -0.002480
# 5 0.002745 0.004960 -0.003692 0.000000 0.027398 0.000000
# 6 0.000000 0.000000 0.000000 -0.002480 0.000000 0.032857
#
#
# Mechanical properties :
#
#
# Convention : Reuss Voigt Hill
#
# Bulk Modulus (GPa) = 46.55462 60.40025 53.47743
# Shear Modulus (GPa) = 29.81825 33.52666 31.67245
#
# Velocity S-wave (km/s) = 3.86574 4.09908 3.98412
# Velocity P-wave (km/s) = 6.57700 7.25768 6.92571
#
# Compressibility (1/GPa) = 0.02148014
#
# Stress axis : x y z
#
# Youngs Moduli (GPa) = 102.27915 43.00468 84.43469
#
# Poissons Ratio (x) = 0.02496 0.34432
# Poissons Ratio (y) = 0.05936 0.59430
# Poissons Ratio (z) = 0.41709 0.30269
#
# Static dielectric constant tensor:
#      x y z
#    x 3.923150 0.000000 -0.062330 
#    y 0.000000 3.286740 0.000000 
#    z -0.062330 0.000000 4.123630 
# 
# 
# High freq. dielectric constant tensor:
#      x y z
#    x 1.789160 0.000000 -0.002090 
#    y 0.000000 1.741510 0.000000 
#    z -0.002090 0.000000 1.793940 
# 
# From -- ./inp_files/176951.got.cif
#   From: 2010.06.25/outbox.cif.g09.slc.cpg/sg15_89_cif.got.tgz:176951.got - 2010.06.28 07:06:18.
