data_PCOD8152699
_publ_section_title
;
Structure prediction by ZEFSAII (Michael W. Deem and Ramdas Pophale) SiO2 
 PCOD8152699
Probable space group: C 2/C
;
_chemical_formula_sum "Si O2"
_cell_formula_units_Z 48
_cell_length_a 23.187484
_cell_length_b 10.686767
_cell_length_c 9.774708
_cell_angle_alpha 90.000000
_cell_angle_beta 118.271486
_cell_angle_gamma 90.000000
_cell_volume 2133.232819
_symmetry_space_group_name_H-M "C 2/C"
_symmetry_group_IT_number 15
_symmetry_cell_setting 'monoclinic'
loop_
_space_group_symop_operation_xyz
x,y,z
-x,y,1/2-z
-x,-y,-z
x,-y,1/2+z
1/2+x,1/2+y,z
1/2-x,1/2+y,1/2-z
1/2-x,1/2-y,-z
1/2+x,1/2-y,1/2+z
loop_
_atom_site_type_symbol
_atom_site_label
_atom_site_fract_x
_atom_site_fract_y
_atom_site_fract_z
Si Si1 0.209033 0.610480 0.297118
Si Si2 0.143614 0.509838 0.972924
Si Si3 0.646952 0.578871 0.993027
Si Si4 0.034524 0.713400 0.921306
Si Si5 0.633321 0.367250 0.179294
Si Si6 0.051313 0.710371 0.432329
O O1 0.176290 0.507198 0.361193
O O2 0.282962 0.647540 0.418998
O O3 0.173343 0.743045 0.257081
O O4 0.202648 0.545671 0.141329
O O5 0.086990 0.614599 0.922120
O O6 0.111878 0.377410 0.967510
O O7 0.662010 0.449769 0.088822
O O8 0.628136 0.553396 0.813272
O O9 0.586836 0.655113 0.993952
O O10 0.000000 0.772129 0.750000
O O11 0.062447 0.825584 0.044939
O O12 0.981361 0.654738 0.966108
O O13 0.000000 0.712949 0.250000
#
# Coordination Sequence:
#
# PCOD8152699 Si02
#       6
#     8   8   8   8   8   8
#     4  11  24  46  71 107 140 178 243 286 365 412
#     4  11  22  44  75 103 139 181 233 306 346 409
#     4  12  26  44  73  98 147 192 227 296 345 428
#     4  11  24  43  66 105 139 179 238 291 349 419
#     4  11  26  47  66 102 139 188 237 283 349 422
#     4  12  23  43  71 104 141 191 232 282 359 418
#
# _framework density 22.501059000000001
#
# number of rings (size 3 to 8) (size 9 to 14) (size 15 to 20)
#    0.000    0.667    3.333    4.500    4.667    1.333 
#    0.000    2.500    0.000    0.000    0.000    0.000 
#    0.000    0.000    0.000    0.000    0.000    0.000 
#
# Total GULP energy -297473.599259 kJ/mol
# GULP energy per Si atom -12394.733302 kJ/mol
# Density = 2.244985 g / cm^3
# Si number density = 22.501059 Si / 1000 Ang^3
#
#
#
# Elastic Constant Matrix: (Units=GPa)
#
#
# Indices 1 2 3 4 5 6 
#
# 1 72.3273 30.3784 41.8852 0.0000 3.3315 0.0000
# 2 30.3784 62.6875 63.2804 0.0000 -6.6227 0.0000
# 3 41.8852 63.2804 173.5104 0.0000 -4.3220 0.0000
# 4 0.0000 0.0000 0.0000 30.3122 0.0000 -10.0690
# 5 3.3315 -6.6227 -4.3220 0.0000 39.2815 0.0000
# 6 0.0000 0.0000 0.0000 -10.0690 0.0000 22.1586
#
#
#
# Elastic Compliance Matrix: (Units=1/GPa)
#
#
# Indices 1 2 3 4 5 6 
#
# 1 0.018041 -0.007255 -0.001783 0.000000 -0.002949 0.000000
# 2 -0.007255 0.028586 -0.008562 0.000000 0.004493 0.000000
# 3 -0.001783 -0.008562 0.009310 0.000000 -0.000268 0.000000
# 4 0.000000 0.000000 0.000000 0.038855 0.000000 0.017656
# 5 -0.002949 0.004493 -0.000268 0.000000 0.026435 0.000000
# 6 0.000000 0.000000 0.000000 0.017656 0.000000 0.053152
#
#
# Mechanical properties :
#
#
# Convention : Reuss Voigt Hill
#
# Bulk Modulus (GPa) = 48.22248 64.40146 56.31197
# Shear Modulus (GPa) = 23.09563 29.88254 26.48909
#
# Velocity S-wave (km/s) = 3.20726 3.64820 3.43481
# Velocity P-wave (km/s) = 5.93238 6.81392 6.38837
#
# Compressibility (1/GPa) = 0.02073722
#
# Stress axis : x y z
#
# Youngs Moduli (GPa) = 55.42803 34.98268 107.41503
#
# Poissons Ratio (x) = 0.25379 0.19149
# Poissons Ratio (y) = 0.40212 0.91970
# Poissons Ratio (z) = 0.09881 0.29953
#
# Static dielectric constant tensor:
#      x y z
#    x 4.175560 0.000000 0.010070 
#    y 0.000000 3.844040 0.000000 
#    z 0.010070 0.000000 4.503190 
# 
# 
# High freq. dielectric constant tensor:
#      x y z
#    x 1.888580 0.000000 0.006810 
#    y 0.000000 1.869600 0.000000 
#    z 0.006810 0.000000 1.909250 
# 
# From -- ./inp_files/60899.got.cif
#   From: 2010.06.25/outbox.cif.g09.slc.cpg/sg15_31_cif.got.tgz:60899.got - 2010.06.28 07:06:18.
