data_PCOD8152808
_publ_section_title
;
Structure prediction by ZEFSAII (Michael W. Deem and Ramdas Pophale) SiO2 
 PCOD8152808
Probable space group: C 2/C
;
_chemical_formula_sum "Si O2"
_cell_formula_units_Z 32
_cell_length_a 7.990953
_cell_length_b 11.587984
_cell_length_c 26.454881
_cell_angle_alpha 90.000000
_cell_angle_beta 138.653767
_cell_angle_gamma 90.000000
_cell_volume 1618.288254
_symmetry_space_group_name_H-M "C 2/C"
_symmetry_group_IT_number 15
_symmetry_cell_setting 'monoclinic'
loop_
_space_group_symop_operation_xyz
x,y,z
-x,y,1/2-z
-x,-y,-z
x,-y,1/2+z
1/2+x,1/2+y,z
1/2-x,1/2+y,1/2-z
1/2-x,1/2-y,-z
1/2+x,1/2-y,1/2+z
loop_
_atom_site_type_symbol
_atom_site_label
_atom_site_fract_x
_atom_site_fract_y
_atom_site_fract_z
Si Si1 0.736890 0.650000 0.934227
Si Si2 0.252076 0.281945 0.660906
Si Si3 0.814211 0.798023 0.459602
Si Si4 0.530037 0.000979 0.426627
O O1 0.439617 0.679076 0.866308
O O2 0.826437 0.592364 0.902017
O O3 0.800915 0.557265 0.991532
O O4 0.885061 0.771911 0.979591
O O5 0.500000 0.268554 0.750000
O O6 0.323698 0.271021 0.617544
O O7 0.124007 0.406553 0.641618
O O8 0.750000 0.750000 0.500000
O O9 0.731208 0.931618 0.437038
#
# Coordination Sequence:
#
# PCOD8152808 Si02
#       4
#     8   8   8   8
#     4   9  19  35  57  82 104 136 185 224 257 314
#     4  11  23  35  51  82 116 141 171 216 271 323
#     4   9  18  36  60  80 100 137 186 223 256 309
#     4   9  18  36  59  77 102 141 181 223 265 307
#
# _framework density 19.773980999999999
#
# number of rings (size 3 to 8) (size 9 to 14) (size 15 to 20)
#    0.000    2.500    0.000    4.500    0.000    6.000 
#    0.000    3.750    0.000    0.000    0.000    0.000 
#    0.000    0.000    0.000    0.000    0.000    0.000 
#
# Total GULP energy -198264.679631 kJ/mol
# GULP energy per Si atom -12391.542477 kJ/mol
# Density = 1.972897 g / cm^3
# Si number density = 19.773981 Si / 1000 Ang^3
#
#
#
# Elastic Constant Matrix: (Units=GPa)
#
#
# Indices 1 2 3 4 5 6 
#
# 1 72.8115 41.2132 47.7924 0.0000 1.3407 0.0000
# 2 41.2132 109.3758 47.2950 0.0000 18.9765 0.0000
# 3 47.7924 47.2950 150.9842 0.0000 12.5460 0.0000
# 4 0.0000 0.0000 0.0000 20.5282 0.0000 8.5196
# 5 1.3407 18.9765 12.5460 0.0000 22.8510 0.0000
# 6 0.0000 0.0000 0.0000 8.5196 0.0000 41.4050
#
#
#
# Elastic Compliance Matrix: (Units=1/GPa)
#
#
# Indices 1 2 3 4 5 6 
#
# 1 0.020827 -0.006942 -0.005025 0.000000 0.007302 0.000000
# 2 -0.006942 0.014193 -0.001365 0.000000 -0.010630 0.000000
# 3 -0.005025 -0.001365 0.008930 0.000000 -0.003474 0.000000
# 4 0.000000 0.000000 0.000000 0.053262 0.000000 -0.010959
# 5 0.007302 -0.010630 -0.003474 0.000000 0.054068 0.000000
# 6 0.000000 0.000000 0.000000 -0.010959 0.000000 0.026407
#
#
# Mechanical properties :
#
#
# Convention : Reuss Voigt Hill
#
# Bulk Modulus (GPa) = 57.84862 67.30810 62.57836
# Shear Modulus (GPa) = 23.79668 30.08154 26.93911
#
# Velocity S-wave (km/s) = 3.47282 3.90458 3.69501
# Velocity P-wave (km/s) = 6.73788 7.37836 7.06538
#
# Compressibility (1/GPa) = 0.01728650
#
# Stress axis : x y z
#
# Youngs Moduli (GPa) = 48.01432 70.45685 111.98029
#
# Poissons Ratio (x) = 0.48910 0.56268
# Poissons Ratio (y) = 0.33330 0.15289
# Poissons Ratio (z) = 0.24127 0.09619
#
# Static dielectric constant tensor:
#      x y z
#    x 3.842090 0.000000 0.111210 
#    y 0.000000 3.924700 0.000000 
#    z 0.111210 0.000000 3.182310 
# 
# 
# High freq. dielectric constant tensor:
#      x y z
#    x 1.772830 0.000000 0.009470 
#    y 0.000000 1.779790 0.000000 
#    z 0.009470 0.000000 1.727920 
# 
# From -- ./inp_files/131773.got.cif
#   From: 2010.06.25/outbox.cif.g09.slc.cpg/sg15_66_cif.got.tgz:131773.got - 2010.06.28 07:06:18.
