data_PCOD8152716
_publ_section_title
;
Structure prediction by ZEFSAII (Michael W. Deem and Ramdas Pophale) SiO2 
 PCOD8152716
Probable space group: C 2/C
;
_chemical_formula_sum "Si O2"
_cell_formula_units_Z 36
_cell_length_a 12.796912
_cell_length_b 11.556084
_cell_length_c 10.919589
_cell_angle_alpha 90.000000
_cell_angle_beta 75.103519
_cell_angle_gamma 90.000000
_cell_volume 1560.541899
_symmetry_space_group_name_H-M "C 2/C"
_symmetry_group_IT_number 15
_symmetry_cell_setting 'monoclinic'
loop_
_space_group_symop_operation_xyz
x,y,z
-x,y,1/2-z
-x,-y,-z
x,-y,1/2+z
1/2+x,1/2+y,z
1/2-x,1/2+y,1/2-z
1/2-x,1/2-y,-z
1/2+x,1/2-y,1/2+z
loop_
_atom_site_type_symbol
_atom_site_label
_atom_site_fract_x
_atom_site_fract_y
_atom_site_fract_z
Si Si1 0.177239 0.627366 0.754193
Si Si2 0.943381 0.729112 0.479338
Si Si3 0.379125 0.427203 0.334742
Si Si4 0.903768 0.821660 0.876594
Si Si5 0.000000 0.443473 0.750000
O O1 0.299985 0.590429 0.743166
O O2 0.181795 0.727204 0.648531
O O3 0.107188 0.520987 0.725293
O O4 0.128090 0.668437 0.897020
O O5 0.867489 0.825916 0.438594
O O6 0.988325 0.635127 0.372242
O O7 0.049955 0.787329 0.505419
O O8 0.500000 0.423591 0.250000
O O9 0.350481 0.551368 0.403986
O O10 0.000000 0.824077 0.750000
#
# Coordination Sequence:
#
# PCOD8152716 Si02
#       5
#     8   8   8   8   4
#     4  11  24  44  69  96 133 176 211 273 331 380
#     4  11  22  45  68  98 130 170 224 269 324 385
#     4  11  24  43  68  99 135 169 220 268 322 396
#     4   9  21  43  67  95 135 169 212 265 332 384
#     4  12  24  44  68  98 130 168 230 268 320 390
#
# _framework density 23.068908
#
# number of rings (size 3 to 8) (size 9 to 14) (size 15 to 20)
#    0.000    1.333    4.444    2.000    3.111    0.000 
#    8.000    2.222    0.000    0.000    0.000    0.000 
#    0.000    0.000    0.000    0.000    0.000    0.000 
#
# Total GULP energy -223257.704456 kJ/mol
# GULP energy per Si atom -12403.205803 kJ/mol
# Density = 2.301640 g / cm^3
# Si number density = 23.068908 Si / 1000 Ang^3
#
#
#
# Elastic Constant Matrix: (Units=GPa)
#
#
# Indices 1 2 3 4 5 6 
#
# 1 115.2570 36.5648 18.0947 0.0000 45.0961 0.0000
# 2 36.5648 162.8500 40.1137 0.0000 24.5358 0.0000
# 3 18.0947 40.1137 77.9650 0.0000 25.4029 0.0000
# 4 0.0000 0.0000 0.0000 -422.3149 0.0000 -165.2981
# 5 45.0961 24.5358 25.4029 0.0000 39.6945 0.0000
# 6 0.0000 0.0000 0.0000 -165.2981 0.0000 -51.8230
#
#
#
# Elastic Compliance Matrix: (Units=1/GPa)
#
#
# Indices 1 2 3 4 5 6 
#
# 1 0.016412 -0.001540 0.003472 0.000000 -0.019916 0.000000
# 2 -0.001540 0.007389 -0.003192 0.000000 -0.000776 0.000000
# 3 0.003472 -0.003192 0.018074 0.000000 -0.013538 0.000000
# 4 0.000000 0.000000 0.000000 0.009530 0.000000 -0.030398
# 5 -0.019916 -0.000776 -0.013538 0.000000 0.056961 0.000000
# 6 0.000000 0.000000 0.000000 -0.030398 0.000000 0.077662
#
#
# Mechanical properties :
#
#
# Convention : Reuss Voigt Hill
#
# Bulk Modulus (GPa) = 25.40888 60.62428 43.01658
# Shear Modulus (GPa) = 24.79345 -69.46876 -22.33766
#
# Velocity S-wave (km/s) = 3.28190 -5.49354 -3.11513
# Velocity P-wave (km/s) = 5.03979 3.72853 2.39766
#
# Compressibility (1/GPa) = 0.03935632
#
# Stress axis : x y z
#
# Youngs Moduli (GPa) = 60.93144 135.32871 55.32891
#
# Poissons Ratio (x) = 0.20836 -0.19211
# Poissons Ratio (y) = 0.09381 0.17660
# Poissons Ratio (z) = -0.21156 0.43195
#
# Static dielectric constant tensor:
#      x y z
#    x 4.114890 0.000000 0.419860 
#    y 0.000000 4.837310 0.000000 
#    z 0.419860 0.000000 4.135260 
# 
# 
# High freq. dielectric constant tensor:
#      x y z
#    x 1.899150 0.000000 0.022750 
#    y 0.000000 1.931130 0.000000 
#    z 0.022750 0.000000 1.914520 
# 
# From -- ./inp_files/84341.got.cif
#   From: 2010.06.25/outbox.cif.g09.slc.cpg/sg15_43_cif.got.tgz:84341.got - 2010.06.28 07:06:18.
