data_PCOD8152996
_publ_section_title
;
Structure prediction by ZEFSAII (Michael W. Deem and Ramdas Pophale) SiO2 
 PCOD8152996
Probable space group: C 2/C
;
_chemical_formula_sum "Si O2"
_cell_formula_units_Z 32
_cell_length_a 14.201362
_cell_length_b 13.227185
_cell_length_c 7.325728
_cell_angle_alpha 90.000000
_cell_angle_beta 62.929409
_cell_angle_gamma 90.000000
_cell_volume 1225.338423
_symmetry_space_group_name_H-M "C 2/C"
_symmetry_group_IT_number 15
_symmetry_cell_setting 'monoclinic'
loop_
_space_group_symop_operation_xyz
x,y,z
-x,y,1/2-z
-x,-y,-z
x,-y,1/2+z
1/2+x,1/2+y,z
1/2-x,1/2+y,1/2-z
1/2-x,1/2-y,-z
1/2+x,1/2-y,1/2+z
loop_
_atom_site_type_symbol
_atom_site_label
_atom_site_fract_x
_atom_site_fract_y
_atom_site_fract_z
Si Si1 0.045495 0.107769 0.515289
Si Si2 0.108899 0.245596 0.018436
Si Si3 0.707891 0.107550 0.142795
Si Si4 0.306273 0.121150 0.768992
O O1 0.171311 0.111323 0.398212
O O2 0.000000 0.138365 0.750000
O O3 0.004751 0.192443 0.409492
O O4 0.000000 0.000000 0.500000
O O5 0.105246 0.311025 0.208410
O O6 0.137283 0.318228 0.824307
O O7 0.193829 0.153864 0.954840
O O8 0.806505 0.357645 0.053039
O O9 0.667530 0.994057 0.206463
#
# Coordination Sequence:
#
# PCOD8152996 Si02
#       4
#     8   8   8   8
#     4  12  25  44  71 115 146 185 248 310 362 439
#     4  11  25  43  69 110 152 194 241 305 378 422
#     4  12  22  46  73 105 151 193 247 304 367 439
#     4  11  23  41  72 110 143 197 242 299 367 441
#
# _framework density 26.115233
#
# number of rings (size 3 to 8) (size 9 to 14) (size 15 to 20)
#    0.000    0.500    7.500    0.750    0.000    0.000 
#    0.000    0.000    0.000    6.000    0.000    0.000 
#    0.000    0.000    0.000    0.000    0.000    0.000 
#
# Total GULP energy -198492.511732 kJ/mol
# GULP energy per Si atom -12405.781983 kJ/mol
# Density = 2.605579 g / cm^3
# Si number density = 26.115233 Si / 1000 Ang^3
#
#
#
# Elastic Constant Matrix: (Units=GPa)
#
#
# Indices 1 2 3 4 5 6 
#
# 1 148.5253 83.7889 67.8928 0.0000 39.9328 0.0000
# 2 83.7889 163.6121 46.6309 0.0000 9.6336 0.0000
# 3 67.8928 46.6309 115.3360 0.0000 30.6421 0.0000
# 4 0.0000 0.0000 0.0000 44.6999 0.0000 10.8826
# 5 39.9328 9.6336 30.6421 0.0000 45.8172 0.0000
# 6 0.0000 0.0000 0.0000 10.8826 0.0000 57.9750
#
#
#
# Elastic Compliance Matrix: (Units=1/GPa)
#
#
# Indices 1 2 3 4 5 6 
#
# 1 0.013772 -0.005520 -0.003642 0.000000 -0.008407 0.000000
# 2 -0.005520 0.009130 -0.001472 0.000000 0.003876 0.000000
# 3 -0.003642 -0.001472 0.012749 0.000000 -0.005043 0.000000
# 4 0.000000 0.000000 0.000000 0.023443 0.000000 -0.004400
# 5 -0.008407 0.003876 -0.005043 0.000000 0.031711 0.000000
# 6 0.000000 0.000000 0.000000 -0.004400 0.000000 0.018075
#
#
# Mechanical properties :
#
#
# Convention : Reuss Voigt Hill
#
# Bulk Modulus (GPa) = 69.51978 91.56651 80.54315
# Shear Modulus (GPa) = 37.05347 44.97579 41.01463
#
# Velocity S-wave (km/s) = 3.77084 4.15445 3.96728
# Velocity P-wave (km/s) = 6.75553 7.62569 7.20376
#
# Compressibility (1/GPa) = 0.01438440
#
# Stress axis : x y z
#
# Youngs Moduli (GPa) = 72.61238 109.52758 78.43929
#
# Poissons Ratio (x) = 0.60458 0.28564
# Poissons Ratio (y) = 0.40081 0.11544
# Poissons Ratio (z) = 0.26442 0.16119
#
# Static dielectric constant tensor:
#      x y z
#    x 4.857630 0.000000 0.269300 
#    y 0.000000 5.039270 0.000000 
#    z 0.269300 0.000000 3.214760 
# 
# 
# High freq. dielectric constant tensor:
#      x y z
#    x 2.043070 0.000000 0.017550 
#    y 0.000000 2.072460 0.000000 
#    z 0.017550 0.000000 2.064660 
# 
# From -- ./inp_files/36710.got.cif
#   From: 2010.06.25/outbox.cif.g09.slc.cpg/sg15_19_cif.got.tgz:36710.got - 2010.06.28 07:06:18.
