data_PCOD8152843
_publ_section_title
;
Structure prediction by ZEFSAII (Michael W. Deem and Ramdas Pophale) SiO2 
 PCOD8152843
Probable space group: C 2/C
;
_chemical_formula_sum "Si O2"
_cell_formula_units_Z 52
_cell_length_a 20.448776
_cell_length_b 5.207310
_cell_length_c 21.205131
_cell_angle_alpha 90.000000
_cell_angle_beta 94.602566
_cell_angle_gamma 90.000000
_cell_volume 2250.707051
_symmetry_space_group_name_H-M "C 2/C"
_symmetry_group_IT_number 15
_symmetry_cell_setting 'monoclinic'
loop_
_space_group_symop_operation_xyz
x,y,z
-x,y,1/2-z
-x,-y,-z
x,-y,1/2+z
1/2+x,1/2+y,z
1/2-x,1/2+y,1/2-z
1/2-x,1/2-y,-z
1/2+x,1/2-y,1/2+z
loop_
_atom_site_type_symbol
_atom_site_label
_atom_site_fract_x
_atom_site_fract_y
_atom_site_fract_z
Si Si1 0.915355 0.472556 0.377623
Si Si2 0.644162 0.513471 0.575331
Si Si3 0.215502 0.416848 0.873326
Si Si4 0.500000 0.363224 0.250000
Si Si5 0.961659 0.206657 0.147397
Si Si6 0.158685 0.915133 0.932273
Si Si7 0.880463 0.506650 0.737594
O O1 0.899356 0.745198 0.406900
O O2 0.872140 0.428927 0.310694
O O3 0.994330 0.452812 0.370591
O O4 0.899326 0.243625 0.424983
O O5 0.707248 0.471571 0.624739
O O6 0.670176 0.553674 0.507053
O O7 0.182276 0.632847 0.914234
O O8 0.188360 0.422955 0.799329
O O9 0.199918 0.136911 0.900845
O O10 0.513363 0.518804 0.185865
O O11 0.566250 0.213089 0.265855
O O12 0.920013 0.074830 0.087964
O O13 0.908790 0.259005 0.198842
#
# Coordination Sequence:
#
# PCOD8152843 Si02
#       7
#     8   8   8   4   8   8   8
#     4  12  25  41  64  96 141 171 204 274 335 407
#     4  12  27  43  63  94 137 180 209 263 343 393
#     4  11  24  44  70  94 122 172 231 276 314 391
#     4  12  16  40  64  98 128 152 224 272 336 368
#     4  11  23  38  69  98 125 171 225 273 329 389
#     4  11  24  44  70  94 123 173 229 277 313 391
#     4  11  23  38  69  96 124 168 222 272 326 383
#
# _framework density 23.103853000000001
#
# number of rings (size 3 to 8) (size 9 to 14) (size 15 to 20)
#    0.000    0.615    4.615    3.692    0.000    2.462 
#    0.000    0.000    0.000    0.000    0.000    0.000 
#    0.000    0.000    0.000    0.000    0.000    0.000 
#
# Total GULP energy -322343.689594 kJ/mol
# GULP energy per Si atom -12397.834215 kJ/mol
# Density = 2.305127 g / cm^3
# Si number density = 23.103853 Si / 1000 Ang^3
#
#
#
# Elastic Constant Matrix: (Units=GPa)
#
#
# Indices 1 2 3 4 5 6 
#
# 1 70.3239 23.1931 -1.2752 0.0000 16.2389 0.0000
# 2 23.1931 108.6830 9.9774 0.0000 -0.3358 0.0000
# 3 -1.2752 9.9774 51.7277 0.0000 4.8402 0.0000
# 4 0.0000 0.0000 0.0000 33.1786 0.0000 -9.7137
# 5 16.2389 -0.3358 4.8402 0.0000 33.2620 0.0000
# 6 0.0000 0.0000 0.0000 -9.7137 0.0000 31.5298
#
#
#
# Elastic Compliance Matrix: (Units=1/GPa)
#
#
# Indices 1 2 3 4 5 6 
#
# 1 0.017635 -0.003978 0.002039 0.000000 -0.008946 0.000000
# 2 -0.003978 0.010269 -0.002301 0.000000 0.002381 0.000000
# 3 0.002039 -0.002301 0.020197 0.000000 -0.003958 0.000000
# 4 0.000000 0.000000 0.000000 0.033128 0.000000 0.010206
# 5 -0.008946 0.002381 -0.003958 0.000000 0.035032 0.000000
# 6 0.000000 0.000000 0.000000 0.010206 0.000000 0.034860
#
#
# Mechanical properties :
#
#
# Convention : Reuss Voigt Hill
#
# Bulk Modulus (GPa) = 25.24040 32.72505 28.98272
# Shear Modulus (GPa) = 28.93393 32.85003 30.89198
#
# Velocity S-wave (km/s) = 3.54268 3.77482 3.66059
# Velocity P-wave (km/s) = 5.26143 5.76143 5.51710
#
# Compressibility (1/GPa) = 0.03961903
#
# Stress axis : x y z
#
# Youngs Moduli (GPa) = 56.70619 97.38380 49.51345
#
# Poissons Ratio (x) = 0.38741 -0.10097
# Poissons Ratio (y) = 0.22558 0.11395
# Poissons Ratio (z) = -0.11563 0.22413
#
# Static dielectric constant tensor:
#      x y z
#    x 4.185450 0.000000 0.197150 
#    y 0.000000 4.213080 0.000000 
#    z 0.197150 0.000000 4.422550 
# 
# 
# High freq. dielectric constant tensor:
#      x y z
#    x 1.904720 0.000000 0.015290 
#    y 0.000000 1.923240 0.000000 
#    z 0.015290 0.000000 1.906920 
# 
# From -- ./inp_files/251091.got.cif
#   From: 2010.06.25/outbox.cif.g09.slc.cpg/sg15_126_cif.got.tgz:251091.got - 2010.06.28 07:06:18.
