data_PCOD8152681
_publ_section_title
;
Structure prediction by ZEFSAII (Michael W. Deem and Ramdas Pophale) SiO2 
 PCOD8152681
Probable space group: C 2/C
;
_chemical_formula_sum "Si O2"
_cell_formula_units_Z 48
_cell_length_a 12.678030
_cell_length_b 12.199183
_cell_length_c 17.077916
_cell_angle_alpha 90.000000
_cell_angle_beta 122.848361
_cell_angle_gamma 90.000000
_cell_volume 2218.978367
_symmetry_space_group_name_H-M "C 2/C"
_symmetry_group_IT_number 15
_symmetry_cell_setting 'monoclinic'
loop_
_space_group_symop_operation_xyz
x,y,z
-x,y,1/2-z
-x,-y,-z
x,-y,1/2+z
1/2+x,1/2+y,z
1/2-x,1/2+y,1/2-z
1/2-x,1/2-y,-z
1/2+x,1/2-y,1/2+z
loop_
_atom_site_type_symbol
_atom_site_label
_atom_site_fract_x
_atom_site_fract_y
_atom_site_fract_z
Si Si1 0.562556 0.836245 0.579720
Si Si2 0.475814 0.031284 0.652606
Si Si3 0.879894 0.282811 0.369173
Si Si4 0.104378 0.833934 0.229717
Si Si5 0.253399 0.123701 0.480157
Si Si6 0.520782 0.422362 0.670906
O O1 0.452075 0.792324 0.479974
O O2 0.604726 0.736626 0.651124
O O3 0.679088 0.884492 0.577152
O O4 0.513005 0.935796 0.609745
O O5 0.500000 0.990571 0.750000
O O6 0.558509 0.138992 0.670952
O O7 0.330026 0.059221 0.578144
O O8 0.736732 0.317040 0.326318
O O9 0.888705 0.158800 0.340495
O O10 0.000000 0.795681 0.250000
O O11 0.085981 0.959601 0.197547
O O12 0.250000 0.250000 0.500000
O O13 0.116058 0.070427 0.424363
O O14 0.500000 0.376956 0.750000
#
# Coordination Sequence:
#
# PCOD8152681 Si02
#       6
#     8   8   8   8   8   8
#     4  11  25  46  69 100 143 181 223 281 352 411
#     4  11  25  42  73 103 136 185 228 281 345 408
#     4  11  24  44  71  99 135 180 230 285 338 402
#     4  11  28  44  66 102 139 183 228 281 347 417
#     4  11  22  44  72 105 132 175 238 284 330 405
#     4  11  24  43  72 101 135 179 226 289 335 401
#
# _framework density 21.631577
#
# number of rings (size 3 to 8) (size 9 to 14) (size 15 to 20)
#    0.000    1.000    3.333    4.000   14.000    1.333 
#    3.000    0.000    0.000    0.000    0.000    0.000 
#    0.000    0.000    0.000    0.000    0.000    0.000 
#
# Total GULP energy -297730.475042 kJ/mol
# GULP energy per Si atom -12405.436460 kJ/mol
# Density = 2.158234 g / cm^3
# Si number density = 21.631577 Si / 1000 Ang^3
#
#
#
# Elastic Constant Matrix: (Units=GPa)
#
#
# Indices 1 2 3 4 5 6 
#
# 1 88.7077 25.3523 33.1247 0.0000 27.2641 0.0000
# 2 25.3523 100.9587 30.6886 0.0000 2.2387 0.0000
# 3 33.1247 30.6886 94.3397 0.0000 1.1301 0.0000
# 4 0.0000 0.0000 0.0000 20.3154 0.0000 0.5965
# 5 27.2641 2.2387 1.1301 0.0000 42.8901 0.0000
# 6 0.0000 0.0000 0.0000 0.5965 0.0000 37.2782
#
#
#
# Elastic Compliance Matrix: (Units=1/GPa)
#
#
# Indices 1 2 3 4 5 6 
#
# 1 0.017163 -0.002531 -0.005075 0.000000 -0.010644 0.000000
# 2 -0.002531 0.011375 -0.002825 0.000000 0.001090 0.000000
# 3 -0.005075 -0.002825 0.013265 0.000000 0.003024 0.000000
# 4 0.000000 0.000000 0.000000 0.049247 0.000000 -0.000788
# 5 -0.010644 0.001090 0.003024 0.000000 0.029945 0.000000
# 6 0.000000 0.000000 0.000000 -0.000788 0.000000 0.026838
#
#
# Mechanical properties :
#
#
# Convention : Reuss Voigt Hill
#
# Bulk Modulus (GPa) = 47.75429 51.37080 49.56254
# Shear Modulus (GPa) = 28.46157 33.08609 30.77383
#
# Velocity S-wave (km/s) = 3.63125 3.91516 3.77587
# Velocity P-wave (km/s) = 6.30122 6.65113 6.47854
#
# Compressibility (1/GPa) = 0.02094053
#
# Stress axis : x y z
#
# Youngs Moduli (GPa) = 58.26449 87.91143 75.38795
#
# Poissons Ratio (x) = 0.22251 0.38263
# Poissons Ratio (y) = 0.14747 0.21294
# Poissons Ratio (z) = 0.29572 0.24832
#
# Static dielectric constant tensor:
#      x y z
#    x 4.097140 0.000000 -0.500500 
#    y 0.000000 4.061210 0.000000 
#    z -0.500500 0.000000 3.438140 
# 
# 
# High freq. dielectric constant tensor:
#      x y z
#    x 1.845540 0.000000 0.009830 
#    y 0.000000 1.856530 0.000000 
#    z 0.009830 0.000000 1.861960 
# 
# From -- ./inp_files/144390.got.cif
#   From: 2010.06.25/outbox.cif.g09.slc.cpg/sg15_73_cif.got.tgz:144390.got - 2010.06.28 07:06:18.
