data_PCOD8152041
_publ_section_title
;
Structure prediction by ZEFSAII (Michael W. Deem and Ramdas Pophale) SiO2 
 PCOD8152041
Probable space group: C 2/C
;
_chemical_formula_sum "Si O2"
_cell_formula_units_Z 56
_cell_length_a 13.639680
_cell_length_b 18.588866
_cell_length_c 18.182925
_cell_angle_alpha 90.000000
_cell_angle_beta 145.285838
_cell_angle_gamma 90.000000
_cell_volume 2625.435631
_symmetry_space_group_name_H-M "C 2/C"
_symmetry_group_IT_number 15
_symmetry_cell_setting 'monoclinic'
loop_
_space_group_symop_operation_xyz
x,y,z
-x,y,1/2-z
-x,-y,-z
x,-y,1/2+z
1/2+x,1/2+y,z
1/2-x,1/2+y,1/2-z
1/2-x,1/2-y,-z
1/2+x,1/2-y,1/2+z
loop_
_atom_site_type_symbol
_atom_site_label
_atom_site_fract_x
_atom_site_fract_y
_atom_site_fract_z
Si Si1 0.499835 0.824153 0.541442
Si Si2 0.499568 0.661083 0.546056
Si Si3 0.155715 0.536677 0.943861
Si Si4 0.638568 0.872713 0.896061
Si Si5 0.654686 0.899761 0.182294
Si Si6 0.977226 0.944269 0.552742
Si Si7 0.232553 0.457248 0.657146
O O1 0.566930 0.742360 0.583483
O O2 0.384566 0.829647 0.542962
O O3 0.385243 0.833979 0.397387
O O4 0.653133 0.881926 0.636137
O O5 0.332284 0.646243 0.491962
O O6 0.654672 0.610303 0.670231
O O7 0.459935 0.633152 0.439175
O O8 0.103137 0.455837 0.891181
O O9 0.988320 0.589642 0.841472
O O10 0.279555 0.563084 0.955305
O O11 0.254259 0.541093 0.082957
O O12 0.500000 0.846354 0.750000
O O13 0.623422 0.973176 0.115784
O O14 0.083604 0.965983 0.690346
O O15 0.000000 0.000000 0.500000
#
# Coordination Sequence:
#
# PCOD8152041 Si02
#       7
#     8   8   8   8   8   8   8
#     4  11  25  45  68  96 138 182 221 278 352 404
#     4  12  28  42  64 106 137 176 218 286 347 398
#     4  11  23  42  70 103 127 179 232 277 337 397
#     4  12  24  41  70 101 139 173 223 281 338 410
#     4  11  23  44  71  94 134 181 229 276 328 412
#     4  12  24  40  69 104 135 172 225 285 334 396
#     4  11  21  46  70  96 133 178 231 277 331 408
#
# _framework density 21.329794
#
# number of rings (size 3 to 8) (size 9 to 14) (size 15 to 20)
#    0.000    0.571    5.714    2.571    6.000    0.571 
#    0.000    2.857    6.286    0.000    0.000    0.000 
#    0.000    0.000    0.000    0.000    0.000    0.000 
#
# Total GULP energy -347140.317527 kJ/mol
# GULP energy per Si atom -12397.868483 kJ/mol
# Density = 2.128125 g / cm^3
# Si number density = 21.329794 Si / 1000 Ang^3
#
#
#
# Elastic Constant Matrix: (Units=GPa)
#
#
# Indices 1 2 3 4 5 6 
#
# 1 138.5438 42.9424 31.8530 0.0000 20.6163 -0.0001
# 2 42.9424 117.3171 17.8220 0.0010 4.7331 0.0001
# 3 31.8530 17.8220 97.0423 0.0023 10.3766 0.0006
# 4 0.0000 0.0010 0.0023 24.8280 0.0012 -0.5055
# 5 20.6163 4.7331 10.3766 0.0012 26.3242 0.0002
# 6 -0.0001 0.0001 0.0006 -0.5055 0.0002 21.4788
#
#
#
# Elastic Compliance Matrix: (Units=1/GPa)
#
#
# Indices 1 2 3 4 5 6 
#
# 1 0.009481 -0.002932 -0.001917 0.000001 -0.006143 0.000000
# 2 -0.002932 0.009699 -0.000917 0.000000 0.000913 0.000000
# 3 -0.001917 -0.000917 0.011405 -0.000001 -0.002830 0.000000
# 4 0.000001 0.000000 -0.000001 0.040296 -0.000002 0.000948
# 5 -0.006143 0.000913 -0.002830 -0.000002 0.043750 0.000000
# 6 0.000000 0.000000 0.000000 0.000948 0.000000 0.046580
#
#
# Mechanical properties :
#
#
# Convention : Reuss Voigt Hill
#
# Bulk Modulus (GPa) = 52.47875 59.79311 56.13593
# Shear Modulus (GPa) = 27.91829 31.87858 29.89844
#
# Velocity S-wave (km/s) = 3.62178 3.87014 3.74802
# Velocity P-wave (km/s) = 6.49204 6.93284 6.71606
#
# Compressibility (1/GPa) = 0.01905533
#
# Stress axis : x y z
#
# Youngs Moduli (GPa) = 105.46970 103.09958 87.68150
#
# Poissons Ratio (x) = 0.30224 0.16808
# Poissons Ratio (y) = 0.30918 0.08038
# Poissons Ratio (z) = 0.20218 0.09451
#
# Static dielectric constant tensor:
#      x y z
#    x 4.031310 0.000000 -0.194470 
#    y 0.000000 3.816710 0.000000 
#    z -0.194470 0.000000 3.824310 
# 
# 
# High freq. dielectric constant tensor:
#      x y z
#    x 1.843020 0.000000 -0.005540 
#    y 0.000000 1.822570 0.000000 
#    z -0.005540 0.000000 1.844630 
# 
# From -- ./inp_files/245192.got.cif
#   From: 2010.06.25/outbox.cif.g09.slc.cpg/sg15_123_cif.got.tgz:245192.got - 2010.06.28 07:06:18.
