data_PCOD8152985
_publ_section_title
;
Structure prediction by ZEFSAII (Michael W. Deem and Ramdas Pophale) SiO2 
 PCOD8152985
Probable space group: C 2/C
;
_chemical_formula_sum "Si O2"
_cell_formula_units_Z 36
_cell_length_a 26.233030
_cell_length_b 14.028359
_cell_length_c 21.389901
_cell_angle_alpha 90.000000
_cell_angle_beta 167.447263
_cell_angle_gamma 90.000000
_cell_volume 1710.803164
_symmetry_space_group_name_H-M "C 2/C"
_symmetry_group_IT_number 15
_symmetry_cell_setting 'monoclinic'
loop_
_space_group_symop_operation_xyz
x,y,z
-x,y,1/2-z
-x,-y,-z
x,-y,1/2+z
1/2+x,1/2+y,z
1/2-x,1/2+y,1/2-z
1/2-x,1/2-y,-z
1/2+x,1/2-y,1/2+z
loop_
_atom_site_type_symbol
_atom_site_label
_atom_site_fract_x
_atom_site_fract_y
_atom_site_fract_z
Si Si1 0.116283 0.650957 0.825558
Si Si2 0.000000 0.000420 0.750000
Si Si3 0.798198 0.834510 0.770235
Si Si4 0.758834 0.619931 0.749313
Si Si5 0.757621 0.448062 0.668619
O O1 0.000000 0.616254 0.750000
O O2 0.926532 0.661150 0.543435
O O3 0.250000 0.750000 0.000000
O O4 0.282567 0.566324 0.004438
O O5 0.933390 0.072656 0.613659
O O6 0.850373 0.723715 0.841192
O O7 0.763266 0.882159 0.795546
O O8 0.028736 0.882510 0.016615
O O9 0.709312 0.559261 0.627344
O O10 0.980518 0.565801 0.047205
#
# Coordination Sequence:
#
# PCOD8152985 Si02
#       5
#     8   4   8   8   8
#     4  12  24  37  65 103 138 167 209 279 344 402
#     4  12  26  44  62  98 136 176 222 276 334 384
#     4  12  23  43  69 100 134 177 223 267 340 401
#     4  11  23  41  70  99 131 175 222 274 331 403
#     4  11  25  44  67  96 136 179 222 277 326 398
#
# _framework density 21.042746999999999
#
# number of rings (size 3 to 8) (size 9 to 14) (size 15 to 20)
#    0.000    0.444    3.333    7.333    0.000    1.778 
#    0.000    1.111    0.000    0.000    0.000    0.000 
#    0.000    0.000    0.000    0.000    0.000    0.000 
#
# Total GULP energy -223093.064969 kJ/mol
# GULP energy per Si atom -12394.059165 kJ/mol
# Density = 2.099485 g / cm^3
# Si number density = 21.042747 Si / 1000 Ang^3
#
#
#
# Elastic Constant Matrix: (Units=GPa)
#
#
# Indices 1 2 3 4 5 6 
#
# 1 126.9068 50.6376 90.7742 -0.0114 -21.2901 -0.0040
# 2 50.6376 89.1574 49.3516 -0.2893 -13.1269 -0.0750
# 3 90.7742 49.3516 154.0344 0.5229 -8.8493 0.2376
# 4 -0.0114 -0.2893 0.5229 26.6411 -0.1198 3.2462
# 5 -21.2901 -13.1269 -8.8493 -0.1198 51.7441 -0.0703
# 6 -0.0040 -0.0750 0.2376 3.2462 -0.0703 17.9643
#
#
#
# Elastic Compliance Matrix: (Units=1/GPa)
#
#
# Indices 1 2 3 4 5 6 
#
# 1 0.015710 -0.004038 -0.007728 0.000123 0.004118 0.000083
# 2 -0.004038 0.015069 -0.002348 0.000208 0.001760 0.000062
# 3 -0.007728 -0.002348 0.011698 -0.000251 -0.001776 -0.000128
# 4 0.000123 0.000208 -0.000251 0.038389 0.000140 -0.006932
# 5 0.004118 0.001760 -0.001776 0.000140 0.021164 0.000089
# 6 0.000083 0.000062 -0.000128 -0.006932 0.000089 0.056921
#
#
# Mechanical properties :
#
#
# Convention : Reuss Voigt Hill
#
# Bulk Modulus (GPa) = 70.18423 83.51393 76.84908
# Shear Modulus (GPa) = 26.05155 31.22559 28.63857
#
# Velocity S-wave (km/s) = 3.52238 3.85634 3.69314
# Velocity P-wave (km/s) = 7.06884 7.72026 7.40172
#
# Compressibility (1/GPa) = 0.01424822
#
# Stress axis : x y z
#
# Youngs Moduli (GPa) = 63.65537 66.36074 85.48693
#
# Poissons Ratio (x) = 0.26795 0.66065
# Poissons Ratio (y) = 0.25703 0.20074
# Poissons Ratio (z) = 0.49194 0.15583
#
# Static dielectric constant tensor:
#      x y z
#    x 3.946820 0.000040 0.047420 
#    y 0.000040 3.801630 -0.000260 
#    z 0.047420 -0.000260 4.059590 
# 
# 
# High freq. dielectric constant tensor:
#      x y z
#    x 1.828150 -0.000010 0.011640 
#    y -0.000010 1.819210 -0.000030 
#    z 0.011640 -0.000030 1.840110 
# 
# From -- ./inp_files/249060.got.cif
#   From: 2010.06.25/outbox.cif.g09.slc.cpg/sg15_125_cif.got.tgz:249060.got - 2010.06.28 07:06:18.
