data_PCOD8152544
_publ_section_title
;
Structure prediction by ZEFSAII (Michael W. Deem and Ramdas Pophale) SiO2 
 PCOD8152544
Probable space group: C 2/C
;
_chemical_formula_sum "Si O2"
_cell_formula_units_Z 64
_cell_length_a 8.358098
_cell_length_b 15.382579
_cell_length_c 28.656066
_cell_angle_alpha 90.000000
_cell_angle_beta 53.737461
_cell_angle_gamma 90.000000
_cell_volume 2970.694672
_symmetry_space_group_name_H-M "C 2/C"
_symmetry_group_IT_number 15
_symmetry_cell_setting 'monoclinic'
loop_
_space_group_symop_operation_xyz
x,y,z
-x,y,1/2-z
-x,-y,-z
x,-y,1/2+z
1/2+x,1/2+y,z
1/2-x,1/2+y,1/2-z
1/2-x,1/2-y,-z
1/2+x,1/2-y,1/2+z
loop_
_atom_site_type_symbol
_atom_site_label
_atom_site_fract_x
_atom_site_fract_y
_atom_site_fract_z
Si Si1 0.826312 0.485012 0.243073
Si Si2 0.904239 0.850822 0.684076
Si Si3 0.843254 0.305543 0.626451
Si Si4 0.550563 0.245813 0.004554
Si Si5 0.929973 0.474910 0.889503
Si Si6 0.221024 0.295152 0.231391
Si Si7 0.456216 0.390726 0.571494
Si Si8 0.594019 0.926555 0.014325
O O1 0.668220 0.558438 0.282356
O O2 0.714213 0.391742 0.264099
O O3 0.000000 0.491461 0.250000
O O4 0.916932 0.498216 0.176558
O O5 0.771458 0.771304 0.726378
O O6 0.890129 0.844054 0.630719
O O7 0.126351 0.846300 0.665014
O O8 0.869414 0.240007 0.665606
O O9 0.872475 0.252631 0.573184
O O10 0.007219 0.381559 0.600149
O O11 0.536764 0.327568 0.973689
O O12 0.522498 0.162157 0.976385
O O13 0.750000 0.250000 0.000000
O O14 0.703206 0.467068 0.910456
O O15 0.934213 0.551631 0.926520
O O16 0.000000 0.301526 0.250000
O O17 0.675570 0.427989 0.540135
O O18 0.500000 0.000000 0.000000
#
# Coordination Sequence:
#
# PCOD8152544 Si02
#       8
#     8   8   8   8   8   8   8   8
#     4  11  23  42  68 103 137 179 244 291 354 425
#     4  11  22  42  72  97 139 184 234 294 359 412
#     4  11  22  46  67  94 145 182 230 289 355 418
#     4  12  25  45  70 101 136 187 234 288 352 420
#     4  12  24  43  70 100 142 187 229 297 349 421
#     4   9  22  40  67  99 128 181 230 284 349 416
#     4  12  25  43  70 103 138 189 228 289 361 415
#     4  12  25  46  67 104 142 176 237 289 349 423
#
# _framework density 21.543782
#
# number of rings (size 3 to 8) (size 9 to 14) (size 15 to 20)
#    0.000    0.750    6.250    0.750    1.750    2.000 
#    6.750    0.000    5.500    0.000    0.000    0.000 
#    0.000    0.000    0.000    0.000    0.000    0.000 
#
# Total GULP energy -396861.012253 kJ/mol
# GULP energy per Si atom -12401.906633 kJ/mol
# Density = 2.149475 g / cm^3
# Si number density = 21.543782 Si / 1000 Ang^3
#
#
#
# Elastic Constant Matrix: (Units=GPa)
#
#
# Indices 1 2 3 4 5 6 
#
# 1 94.6326 45.7273 38.6556 0.0007 1.0630 0.0003
# 2 45.7273 130.6855 73.5254 0.0004 1.5345 0.0001
# 3 38.6556 73.5254 166.9560 0.0000 26.5664 0.0003
# 4 0.0007 0.0004 0.0000 53.9292 -0.0005 16.2418
# 5 1.0630 1.5345 26.5664 -0.0005 39.1552 -0.0003
# 6 0.0003 0.0001 0.0003 16.2418 -0.0003 36.7324
#
#
#
# Elastic Compliance Matrix: (Units=1/GPa)
#
#
# Indices 1 2 3 4 5 6 
#
# 1 0.012959 -0.003700 -0.001500 0.000000 0.000811 0.000000
# 2 -0.003700 0.011544 -0.004676 0.000000 0.002821 0.000000
# 3 -0.001500 -0.004676 0.009372 0.000000 -0.006135 0.000000
# 4 0.000000 0.000000 0.000000 0.021391 0.000000 -0.009459
# 5 0.000811 0.002821 -0.006135 0.000000 0.029569 0.000000
# 6 0.000000 0.000000 0.000000 -0.009459 0.000000 0.031406
#
#
# Mechanical properties :
#
#
# Convention : Reuss Voigt Hill
#
# Bulk Modulus (GPa) = 70.80494 78.67675 74.74084
# Shear Modulus (GPa) = 35.53602 41.58774 38.56188
#
# Velocity S-wave (km/s) = 4.06578 4.39838 4.23535
# Velocity P-wave (km/s) = 7.41470 7.89893 7.66064
#
# Compressibility (1/GPa) = 0.01412331
#
# Stress axis : x y z
#
# Youngs Moduli (GPa) = 77.16886 86.62273 106.69552
#
# Poissons Ratio (x) = 0.32049 0.16004
# Poissons Ratio (y) = 0.28551 0.49893
# Poissons Ratio (z) = 0.11575 0.40506
#
# Static dielectric constant tensor:
#      x y z
#    x 2.767460 -0.000010 1.042470 
#    y -0.000010 3.596150 0.000000 
#    z 1.042470 0.000000 3.049940 
# 
# 
# High freq. dielectric constant tensor:
#      x y z
#    x 1.842550 0.000000 0.011500 
#    y 0.000000 1.842340 0.000000 
#    z 0.011500 0.000000 1.863330 
# 
# From -- ./inp_files/308255.got.cif
#   From: 2010.06.25/outbox.cif.g09.slc.cpg/sg15_155_cif.got.tgz:308255.got - 2010.06.28 07:06:18.
