data_PCOD8152377
_publ_section_title
;
Structure prediction by ZEFSAII (Michael W. Deem and Ramdas Pophale) SiO2 
 PCOD8152377
Probable space group: C 2/C
;
_chemical_formula_sum "Si O2"
_cell_formula_units_Z 52
_cell_length_a 12.037498
_cell_length_b 16.691515
_cell_length_c 14.185006
_cell_angle_alpha 90.000000
_cell_angle_beta 61.635556
_cell_angle_gamma 90.000000
_cell_volume 2507.935290
_symmetry_space_group_name_H-M "C 2/C"
_symmetry_group_IT_number 15
_symmetry_cell_setting 'monoclinic'
loop_
_space_group_symop_operation_xyz
x,y,z
-x,y,1/2-z
-x,-y,-z
x,-y,1/2+z
1/2+x,1/2+y,z
1/2-x,1/2+y,1/2-z
1/2-x,1/2-y,-z
1/2+x,1/2-y,1/2+z
loop_
_atom_site_type_symbol
_atom_site_label
_atom_site_fract_x
_atom_site_fract_y
_atom_site_fract_z
Si Si1 0.000000 0.251369 0.750000
Si Si2 0.877048 0.051803 0.072000
Si Si3 0.794009 0.167199 0.940143
Si Si4 0.077773 0.651676 0.898525
Si Si5 0.623059 0.995372 0.255469
Si Si6 0.108218 0.185303 0.283136
Si Si7 0.879630 0.648255 0.130267
O O1 0.891188 0.189227 0.819356
O O2 0.962791 0.306299 0.675920
O O3 0.907320 0.103544 0.152287
O O4 0.751482 0.997540 0.140554
O O5 0.852677 0.109578 0.994075
O O6 0.000000 0.000000 0.000000
O O7 0.676684 0.122866 0.938263
O O8 0.750000 0.250000 0.000000
O O9 0.091822 0.593849 0.803462
O O10 0.103281 0.741905 0.857630
O O11 0.940258 0.650096 0.002104
O O12 0.500000 0.026063 0.250000
O O13 0.639750 0.055589 0.335600
O O14 0.242917 0.189175 0.176640
O O15 0.000000 0.192234 0.250000
#
# Coordination Sequence:
#
# PCOD8152377 Si02
#       7
#     4   8   8   8   8   8   8
#     4  12  20  38  74  94 126 164 228 284 328 394
#     4  11  26  44  68  99 138 177 225 291 354 409
#     4  12  22  42  70  99 128 174 233 284 336 404
#     4  12  24  39  68  98 125 179 230 270 340 412
#     4  11  24  42  63  93 137 172 222 281 339 405
#     4  11  25  44  63  94 138 174 216 279 346 417
#     4  11  22  41  66  95 127 172 222 284 333 392
#
# _framework density 20.734186000000001
#
# number of rings (size 3 to 8) (size 9 to 14) (size 15 to 20)
#    0.000    0.615    5.385    2.769    2.154    5.538 
#    0.000    0.000    0.000    0.000    0.000    0.000 
#    0.000    0.000    0.000    0.000    0.000    0.000 
#
# Total GULP energy -322431.218674 kJ/mol
# GULP energy per Si atom -12401.200718 kJ/mol
# Density = 2.068699 g / cm^3
# Si number density = 20.734186 Si / 1000 Ang^3
#
#
#
# Elastic Constant Matrix: (Units=GPa)
#
#
# Indices 1 2 3 4 5 6 
#
# 1 126.3680 34.7777 42.4105 0.0000 -15.0631 0.0000
# 2 34.7777 88.7964 54.5619 0.0000 -16.8456 0.0000
# 3 42.4105 54.5619 119.4000 0.0000 -35.2325 0.0000
# 4 0.0000 0.0000 0.0000 33.9348 0.0000 0.3968
# 5 -15.0631 -16.8456 -35.2325 0.0000 47.8468 0.0000
# 6 0.0000 0.0000 0.0000 0.3968 0.0000 33.7439
#
#
#
# Elastic Compliance Matrix: (Units=1/GPa)
#
#
# Indices 1 2 3 4 5 6 
#
# 1 0.009307 -0.002237 -0.002110 0.000000 0.000589 0.000000
# 2 -0.002237 0.016200 -0.006558 0.000000 0.000170 0.000000
# 3 -0.002110 -0.006558 0.014365 0.000000 0.007605 0.000000
# 4 0.000000 0.000000 0.000000 0.029472 0.000000 -0.000347
# 5 0.000589 0.000170 0.007605 0.000000 0.026745 0.000000
# 6 0.000000 0.000000 0.000000 -0.000347 0.000000 0.029639
#
#
# Mechanical properties :
#
#
# Convention : Reuss Voigt Hill
#
# Bulk Modulus (GPa) = 55.36249 66.45162 60.90705
# Shear Modulus (GPa) = 32.56051 36.62606 34.59328
#
# Velocity S-wave (km/s) = 3.96710 4.20748 4.08906
# Velocity P-wave (km/s) = 6.90962 7.46477 7.19255
#
# Compressibility (1/GPa) = 0.01806277
#
# Stress axis : x y z
#
# Youngs Moduli (GPa) = 107.44169 61.72924 69.61129
#
# Poissons Ratio (x) = 0.13810 0.14687
# Poissons Ratio (y) = 0.24036 0.45650
# Poissons Ratio (z) = 0.22669 0.40481
#
# Static dielectric constant tensor:
#      x y z
#    x 8.683810 0.000000 -0.130610 
#    y 0.000000 3.620630 0.000000 
#    z -0.130610 0.000000 3.800220 
# 
# 
# High freq. dielectric constant tensor:
#      x y z
#    x 1.817410 0.000000 -0.013760 
#    y 0.000000 1.807990 0.000000 
#    z -0.013760 0.000000 1.818100 
# 
# From -- ./inp_files/144188.got.cif
#   From: 2010.06.25/outbox.cif.g09.slc.cpg/sg15_73_cif.got.tgz:144188.got - 2010.06.28 07:06:18.
