data_PCOD8152659
_publ_section_title
;
Structure prediction by ZEFSAII (Michael W. Deem and Ramdas Pophale) SiO2 
 PCOD8152659
Probable space group: C 2/C
;
_chemical_formula_sum "Si O2"
_cell_formula_units_Z 48
_cell_length_a 12.259023
_cell_length_b 9.672033
_cell_length_c 16.042178
_cell_angle_alpha 90.000000
_cell_angle_beta 84.218502
_cell_angle_gamma 90.000000
_cell_volume 1892.440320
_symmetry_space_group_name_H-M "C 2/C"
_symmetry_group_IT_number 15
_symmetry_cell_setting 'monoclinic'
loop_
_space_group_symop_operation_xyz
x,y,z
-x,y,1/2-z
-x,-y,-z
x,-y,1/2+z
1/2+x,1/2+y,z
1/2-x,1/2+y,1/2-z
1/2-x,1/2-y,-z
1/2+x,1/2-y,1/2+z
loop_
_atom_site_type_symbol
_atom_site_label
_atom_site_fract_x
_atom_site_fract_y
_atom_site_fract_z
Si Si1 0.816966 0.613671 0.389083
Si Si2 0.896041 0.976049 0.144073
Si Si3 0.867247 0.918057 0.328646
Si Si4 0.377256 0.739181 0.501866
Si Si5 0.527904 0.857341 0.156997
Si Si6 0.843886 0.521871 0.568201
O O1 0.687476 0.602081 0.371691
O O2 0.868918 0.757921 0.356621
O O3 0.884228 0.483136 0.346068
O O4 0.824730 0.614673 0.488235
O O5 0.846084 0.905950 0.230956
O O6 0.905373 0.884675 0.060078
O O7 0.022913 0.004239 0.156669
O O8 0.774630 0.008330 0.382006
O O9 0.250000 0.750000 0.500000
O O10 0.432843 0.731904 0.406226
O O11 0.413307 0.884380 0.540995
O O12 0.500000 0.796034 0.250000
O O13 0.410414 0.901178 0.133146
#
# Coordination Sequence:
#
# PCOD8152659 Si02
#       6
#     8   8   8   8   8   8
#     4  11  23  45  69 100 137 188 233 291 359 429
#     4  11  24  45  69 102 140 190 234 289 361 426
#     4  11  26  42  69 102 143 187 233 294 356 427
#     4  11  22  44  69  95 137 179 230 295 354 416
#     4  11  23  40  68 103 130 176 245 294 345 429
#     4  11  23  42  67  98 135 181 237 288 358 425
#
# _framework density 25.364075
#
# number of rings (size 3 to 8) (size 9 to 14) (size 15 to 20)
#    0.000    1.000    3.333    5.500    7.000    0.667 
#    3.000    0.000    0.000    0.000    0.000    0.000 
#    0.000    0.000    0.000    0.000    0.000    0.000 
#
# Total GULP energy -297420.041194 kJ/mol
# GULP energy per Si atom -12392.501716 kJ/mol
# Density = 2.530634 g / cm^3
# Si number density = 25.364075 Si / 1000 Ang^3
#
#
#
# Elastic Constant Matrix: (Units=GPa)
#
#
# Indices 1 2 3 4 5 6 
#
# 1 123.3274 0.0385 46.9666 0.0000 5.7258 0.0000
# 2 0.0385 54.7685 14.2969 0.0000 1.2420 0.0000
# 3 46.9666 14.2969 201.8407 0.0000 -10.6783 0.0000
# 4 0.0000 0.0000 0.0000 10.6660 0.0000 -8.4810
# 5 5.7258 1.2420 -10.6783 0.0000 44.2306 0.0000
# 6 0.0000 0.0000 0.0000 -8.4810 0.0000 19.1051
#
#
#
# Elastic Compliance Matrix: (Units=1/GPa)
#
#
# Indices 1 2 3 4 5 6 
#
# 1 0.009041 0.000617 -0.002239 0.000000 -0.001728 0.000000
# 2 0.000617 0.018676 -0.001518 0.000000 -0.000971 0.000000
# 3 -0.002239 -0.001518 0.005673 0.000000 0.001702 0.000000
# 4 0.000000 0.000000 0.000000 0.144903 0.000000 0.064324
# 5 -0.001728 -0.000971 0.001702 0.000000 0.023271 0.000000
# 6 0.000000 0.000000 0.000000 0.064324 0.000000 0.080896
#
#
# Mechanical properties :
#
#
# Convention : Reuss Voigt Hill
#
# Bulk Modulus (GPa) = 36.88470 55.83785 46.36128
# Shear Modulus (GPa) = 16.79111 36.04265 26.41688
#
# Velocity S-wave (km/s) = 2.57573 3.77372 3.23074
# Velocity P-wave (km/s) = 4.83938 6.40705 5.67758
#
# Compressibility (1/GPa) = 0.02711151
#
# Stress axis : x y z
#
# Youngs Moduli (GPa) = 110.60467 53.54323 176.27503
#
# Poissons Ratio (x) = -0.03305 0.39467
# Poissons Ratio (y) = -0.06828 0.26757
# Poissons Ratio (z) = 0.24764 0.08127
#
# Static dielectric constant tensor:
#      x y z
#    x 4.755590 0.000000 -0.078370 
#    y 0.000000 4.119470 0.000000 
#    z -0.078370 0.000000 4.959900 
# 
# 
# High freq. dielectric constant tensor:
#      x y z
#    x 2.030450 0.000000 -0.002150 
#    y 0.000000 1.989950 0.000000 
#    z -0.002150 0.000000 2.031150 
# 
# From -- ./inp_files/195980.got.cif
#   From: 2010.06.25/outbox.cif.g09.slc.cpg/sg15_98_cif.got.tgz:195980.got - 2010.06.28 07:06:18.
