data_PCOD8152225
_publ_section_title
;
Structure prediction by ZEFSAII (Michael W. Deem and Ramdas Pophale) SiO2 
 PCOD8152225
Probable space group: C 2/C
;
_chemical_formula_sum "Si O2"
_cell_formula_units_Z 60
_cell_length_a 11.313647
_cell_length_b 24.459747
_cell_length_c 9.554610
_cell_angle_alpha 90.000000
_cell_angle_beta 90.165887
_cell_angle_gamma 90.000000
_cell_volume 2644.026047
_symmetry_space_group_name_H-M "C 2/C"
_symmetry_group_IT_number 15
_symmetry_cell_setting 'monoclinic'
loop_
_space_group_symop_operation_xyz
x,y,z
-x,y,1/2-z
-x,-y,-z
x,-y,1/2+z
1/2+x,1/2+y,z
1/2-x,1/2+y,1/2-z
1/2-x,1/2-y,-z
1/2+x,1/2-y,1/2+z
loop_
_atom_site_type_symbol
_atom_site_label
_atom_site_fract_x
_atom_site_fract_y
_atom_site_fract_z
Si Si1 0.000000 0.756292 0.750000
Si Si2 0.658931 0.655018 0.105713
Si Si3 0.581769 0.002308 0.131239
Si Si4 0.673919 0.530904 0.827243
Si Si5 0.314552 0.800564 0.067122
Si Si6 0.626166 0.127268 0.196494
Si Si7 0.868455 0.846863 0.212503
Si Si8 0.581602 0.465049 0.618104
O O1 0.097725 0.794481 0.679990
O O2 0.061616 0.717753 0.864562
O O3 0.782264 0.642857 0.180669
O O4 0.576699 0.600401 0.111220
O O5 0.673177 0.670609 0.943096
O O6 0.500000 0.976078 0.250000
O O7 0.624423 0.063104 0.168808
O O8 0.696100 0.963781 0.103245
O O9 0.500000 0.000000 0.000000
O O10 0.628814 0.588211 0.770144
O O11 0.697937 0.489502 0.695700
O O12 0.583725 0.510658 0.956562
O O13 0.227232 0.823698 0.182900
O O14 0.250000 0.750000 0.000000
O O15 0.338789 0.845292 0.949356
O O16 0.500000 0.149081 0.250000
O O17 0.000000 0.824329 0.250000
O O18 0.500000 0.488190 0.750000
#
# Coordination Sequence:
#
# PCOD8152225 Si02
#       8
#     4   8   8   8   8   8   8   8
#     4  12  26  48  76 108 140 190 248 308 376 430
#     4  11  24  48  75 101 147 189 244 304 366 438
#     4  11  25  43  69 103 147 194 242 295 357 438
#     4  11  24  40  67 104 141 190 240 282 364 426
#     4  12  28  49  77 108 144 194 246 308 381 429
#     4  11  27  48  75 104 146 196 248 300 364 448
#     4  11  28  47  72 109 152 187 245 308 367 444
#     4  11  22  39  66 101 139 187 229 286 353 432
#
# _framework density 22.692667
#
# number of rings (size 3 to 8) (size 9 to 14) (size 15 to 20)
#    0.000    0.800    3.333    2.400   11.200    3.200 
#    0.000    0.000    0.000    0.000    0.000    0.000 
#    0.000    0.000    0.000    0.000    0.000    0.000 
#
# Total GULP energy -371820.710750 kJ/mol
# GULP energy per Si atom -12394.023692 kJ/mol
# Density = 2.264102 g / cm^3
# Si number density = 22.692667 Si / 1000 Ang^3
#
#
#
# Elastic Constant Matrix: (Units=GPa)
#
#
# Indices 1 2 3 4 5 6 
#
# 1 104.2283 23.0343 71.7194 0.0000 3.2813 0.0000
# 2 23.0343 47.6011 39.6782 0.0000 -6.1768 0.0000
# 3 71.7194 39.6782 186.2397 0.0000 9.6090 0.0000
# 4 0.0000 0.0000 0.0000 31.9439 0.0000 0.8896
# 5 3.2813 -6.1768 9.6090 0.0000 47.4955 0.0000
# 6 0.0000 0.0000 0.0000 0.8896 0.0000 32.9588
#
#
#
# Elastic Compliance Matrix: (Units=1/GPa)
#
#
# Indices 1 2 3 4 5 6 
#
# 1 0.013326 -0.002715 -0.004535 0.000000 -0.000356 0.000000
# 2 -0.002715 0.027072 -0.004966 0.000000 0.004713 0.000000
# 3 -0.004535 -0.004966 0.008277 0.000000 -0.002007 0.000000
# 4 0.000000 0.000000 0.000000 0.031328 0.000000 -0.000846
# 5 -0.000356 0.004713 -0.002007 0.000000 0.022098 0.000000
# 6 0.000000 0.000000 0.000000 -0.000846 0.000000 0.030364
#
#
# Mechanical properties :
#
#
# Convention : Reuss Voigt Hill
#
# Bulk Modulus (GPa) = 41.24520 67.43701 54.34111
# Shear Modulus (GPa) = 30.30714 36.05543 33.18129
#
# Velocity S-wave (km/s) = 3.65848 3.99037 3.82802
# Velocity P-wave (km/s) = 6.00508 7.14233 6.59825
#
# Compressibility (1/GPa) = 0.02424524
#
# Stress axis : x y z
#
# Youngs Moduli (GPa) = 75.04131 36.93845 120.81257
#
# Poissons Ratio (x) = 0.10027 0.54789
# Poissons Ratio (y) = 0.20370 0.59990
# Poissons Ratio (z) = 0.34032 0.18342
#
# Static dielectric constant tensor:
#      x y z
#    x 3.445770 0.000000 1.137460 
#    y 0.000000 4.052110 0.000000 
#    z 1.137460 0.000000 3.226160 
# 
# 
# High freq. dielectric constant tensor:
#      x y z
#    x 1.912270 0.000000 0.007450 
#    y 0.000000 1.879980 0.000000 
#    z 0.007450 0.000000 1.928000 
# 
# From -- ./inp_files/34286.got.cif
#   From: 2010.06.25/outbox.cif.g09.slc.cpg/sg15_18_cif.got.tgz:34286.got - 2010.06.28 07:06:18.
