data_PCOD8152282
_publ_section_title
;
Structure prediction by ZEFSAII (Michael W. Deem and Ramdas Pophale) SiO2 
 PCOD8152282
Probable space group: C 2/C
;
_chemical_formula_sum "Si O2"
_cell_formula_units_Z 52
_cell_length_a 17.043986
_cell_length_b 18.042724
_cell_length_c 9.760909
_cell_angle_alpha 90.000000
_cell_angle_beta 56.126596
_cell_angle_gamma 90.000000
_cell_volume 2492.203242
_symmetry_space_group_name_H-M "C 2/C"
_symmetry_group_IT_number 15
_symmetry_cell_setting 'monoclinic'
loop_
_space_group_symop_operation_xyz
x,y,z
-x,y,1/2-z
-x,-y,-z
x,-y,1/2+z
1/2+x,1/2+y,z
1/2-x,1/2+y,1/2-z
1/2-x,1/2-y,-z
1/2+x,1/2-y,1/2+z
loop_
_atom_site_type_symbol
_atom_site_label
_atom_site_fract_x
_atom_site_fract_y
_atom_site_fract_z
Si Si1 0.500000 0.402433 0.250000
Si Si2 0.602009 0.341832 0.919717
Si Si3 0.012427 0.709841 0.581567
Si Si4 0.725073 0.188691 0.415398
Si Si5 0.630263 0.495103 0.299295
Si Si6 0.947831 0.448860 0.157473
Si Si7 0.753840 0.040146 0.552770
O O1 0.414322 0.355176 0.401440
O O2 0.538242 0.450356 0.340328
O O3 0.520073 0.283249 0.964784
O O4 0.704097 0.307745 0.783547
O O5 0.598074 0.419336 0.840611
O O6 0.122778 0.695083 0.445344
O O7 0.000000 0.730546 0.750000
O O8 0.950631 0.636758 0.601834
O O9 0.750000 0.250000 0.500000
O O10 0.733539 0.117302 0.501262
O O11 0.666086 0.460242 0.407218
O O12 0.711093 0.485610 0.102612
O O13 0.843474 0.483493 0.278680
O O14 0.000000 0.451542 0.250000
O O15 0.000000 0.500000 0.000000
#
# Coordination Sequence:
#
# PCOD8152282 Si02
#       7
#     4   8   8   8   8   8   8
#     4  12  26  44  60 100 142 184 232 280 354 410
#     4  11  25  42  68  96 139 178 227 290 342 412
#     4  11  22  42  67  99 130 173 232 279 336 409
#     4  11  22  40  70  97 126 174 229 279 336 404
#     4  11  25  40  67  98 138 180 229 282 346 412
#     4  11  22  41  67  97 133 172 225 287 342 409
#     4  11  22  40  64  98 134 174 230 282 338 407
#
# _framework density 20.865071
#
# number of rings (size 3 to 8) (size 9 to 14) (size 15 to 20)
#    0.000    0.923    6.154    1.385    5.385    0.000 
#    1.385    0.769    0.000    0.000    0.000    0.000 
#    0.000    0.000    0.000    0.000    0.000    0.000 
#
# Total GULP energy -322218.881615 kJ/mol
# GULP energy per Si atom -12393.033908 kJ/mol
# Density = 2.081758 g / cm^3
# Si number density = 20.865071 Si / 1000 Ang^3
#
#
#
# Elastic Constant Matrix: (Units=GPa)
#
#
# Indices 1 2 3 4 5 6 
#
# 1 100.4344 36.2463 30.7397 0.0000 -9.9614 0.0000
# 2 36.2463 80.1011 30.5818 0.0000 -3.6267 0.0000
# 3 30.7397 30.5818 142.8796 0.0000 -24.7459 0.0000
# 4 0.0000 0.0000 0.0000 15.6913 0.0000 -4.3738
# 5 -9.9614 -3.6267 -24.7459 0.0000 35.0924 0.0000
# 6 0.0000 0.0000 0.0000 -4.3738 0.0000 30.6747
#
#
#
# Elastic Compliance Matrix: (Units=1/GPa)
#
#
# Indices 1 2 3 4 5 6 
#
# 1 0.012355 -0.005032 -0.001212 0.000000 0.002133 0.000000
# 2 -0.005032 0.015661 -0.002548 0.000000 -0.001606 0.000000
# 3 -0.001212 -0.002548 0.008771 0.000000 0.005578 0.000000
# 4 0.000000 0.000000 0.000000 0.066367 0.000000 0.009463
# 5 0.002133 -0.001606 0.005578 0.000000 0.032869 0.000000
# 6 0.000000 0.000000 0.000000 0.009463 0.000000 0.033949
#
#
# Mechanical properties :
#
#
# Convention : Reuss Voigt Hill
#
# Bulk Modulus (GPa) = 52.07041 57.61675 54.84358
# Shear Modulus (GPa) = 25.77901 31.34817 28.56359
#
# Velocity S-wave (km/s) = 3.51880 3.88032 3.70397
# Velocity P-wave (km/s) = 6.44354 6.91012 6.68090
#
# Compressibility (1/GPa) = 0.01920477
#
# Stress axis : x y z
#
# Youngs Moduli (GPa) = 80.93886 63.85291 114.01271
#
# Poissons Ratio (x) = 0.32128 0.13816
# Poissons Ratio (y) = 0.40724 0.29048
# Poissons Ratio (z) = 0.09808 0.16268
#
# Static dielectric constant tensor:
#      x y z
#    x 4.423620 0.000000 -0.428480 
#    y 0.000000 3.859500 0.000000 
#    z -0.428480 0.000000 4.160060 
# 
# 
# High freq. dielectric constant tensor:
#      x y z
#    x 1.800240 0.000000 -0.025230 
#    y 0.000000 1.810350 0.000000 
#    z -0.025230 0.000000 1.837260 
# 
# From -- ./inp_files/48944.got.cif
#   From: 2010.06.25/outbox.cif.g09.slc.cpg/sg15_25_cif.got.tgz:48944.got - 2010.06.28 07:06:18.
