data_PCOD8152389
_publ_section_title
;
Structure prediction by ZEFSAII (Michael W. Deem and Ramdas Pophale) SiO2 
 PCOD8152389
Probable space group: C 2/C
;
_chemical_formula_sum "Si O2"
_cell_formula_units_Z 40
_cell_length_a 8.549719
_cell_length_b 13.570378
_cell_length_c 21.576886
_cell_angle_alpha 90.000000
_cell_angle_beta 135.988011
_cell_angle_gamma 90.000000
_cell_volume 1739.393771
_symmetry_space_group_name_H-M "C 2/C"
_symmetry_group_IT_number 15
_symmetry_cell_setting 'monoclinic'
loop_
_space_group_symop_operation_xyz
x,y,z
-x,y,1/2-z
-x,-y,-z
x,-y,1/2+z
1/2+x,1/2+y,z
1/2-x,1/2+y,1/2-z
1/2-x,1/2-y,-z
1/2+x,1/2-y,1/2+z
loop_
_atom_site_type_symbol
_atom_site_label
_atom_site_fract_x
_atom_site_fract_y
_atom_site_fract_z
Si Si1 0.419806 0.908578 0.820567
Si Si2 0.213980 0.115170 0.771373
Si Si3 0.421257 0.393545 0.957416
Si Si4 0.529931 0.293542 0.644478
Si Si5 0.367033 0.270783 0.381412
O O1 0.664406 0.897581 0.857551
O O2 0.198719 0.870960 0.723436
O O3 0.446241 0.840575 0.889216
O O4 0.385802 0.024182 0.821121
O O5 0.327896 0.202552 0.843161
O O6 0.167433 0.159484 0.689008
O O7 0.000000 0.080755 0.750000
O O8 0.576186 0.351338 0.944846
O O9 0.500000 0.500000 0.000000
O O10 0.444382 0.321505 0.022542
O O11 0.362987 0.244298 0.645991
#
# Coordination Sequence:
#
# PCOD8152389 Si02
#       5
#     8   8   8   8   8
#     4  11  23  41  65  94 130 175 222 270 329 402
#     4  11  22  41  67  95 127 175 228 275 327 395
#     4  12  25  42  65  97 135 175 216 273 337 397
#     4  11  23  43  68  95 130 176 223 273 329 399
#     4  11  24  43  66  97 132 169 222 285 335 391
#
# _framework density 22.996517999999998
#
# number of rings (size 3 to 8) (size 9 to 14) (size 15 to 20)
#    0.000    0.800    0.000   10.200    0.000    1.600 
#    0.000    3.000    0.000    0.000    0.000    0.000 
#    0.000    0.000    0.000    0.000    0.000    0.000 
#
# Total GULP energy -247768.174031 kJ/mol
# GULP energy per Si atom -12388.408702 kJ/mol
# Density = 2.294418 g / cm^3
# Si number density = 22.996518 Si / 1000 Ang^3
#
#
#
# Elastic Constant Matrix: (Units=GPa)
#
#
# Indices 1 2 3 4 5 6 
#
# 1 113.5901 24.6961 38.7822 0.0000 -13.8192 0.0000
# 2 24.6961 138.2062 40.8607 0.0000 -19.8904 0.0000
# 3 38.7822 40.8607 71.8404 0.0000 -13.3439 0.0000
# 4 0.0000 0.0000 0.0000 38.7264 0.0000 4.1255
# 5 -13.8192 -19.8904 -13.3439 0.0000 35.4659 0.0000
# 6 0.0000 0.0000 0.0000 4.1255 0.0000 28.7085
#
#
#
# Elastic Compliance Matrix: (Units=1/GPa)
#
#
# Indices 1 2 3 4 5 6 
#
# 1 0.010950 -0.000017 -0.005495 0.000000 0.002190 0.000000
# 2 -0.000017 0.009060 -0.004517 0.000000 0.003375 0.000000
# 3 -0.005495 -0.004517 0.019983 0.000000 0.002844 0.000000
# 4 0.000000 0.000000 0.000000 0.026224 0.000000 -0.003768
# 5 0.002190 0.003375 0.002844 0.000000 0.032012 0.000000
# 6 0.000000 0.000000 0.000000 -0.003768 0.000000 0.035374
#
#
# Mechanical properties :
#
#
# Convention : Reuss Voigt Hill
#
# Bulk Modulus (GPa) = 50.16121 59.14608 54.65364
# Shear Modulus (GPa) = 31.19047 35.20000 33.19523
#
# Velocity S-wave (km/s) = 3.68681 3.91662 3.80345
# Velocity P-wave (km/s) = 6.32324 6.79916 6.56551
#
# Compressibility (1/GPa) = 0.01993572
#
# Stress axis : x y z
#
# Youngs Moduli (GPa) = 91.32690 110.37871 50.04162
#
# Poissons Ratio (x) = 0.00187 0.27496
# Poissons Ratio (y) = 0.00155 0.22603
# Poissons Ratio (z) = 0.50181 0.49857
#
# Static dielectric constant tensor:
#      x y z
#    x 4.144750 0.000000 -0.000920 
#    y 0.000000 4.396020 0.000000 
#    z -0.000920 0.000000 4.140340 
# 
# 
# High freq. dielectric constant tensor:
#      x y z
#    x 1.910650 0.000000 0.001140 
#    y 0.000000 1.928070 0.000000 
#    z 0.001140 0.000000 1.899000 
# 
# From -- ./inp_files/231452.got.cif
#   From: 2010.06.25/outbox.cif.g09.slc.cpg/sg15_116_cif.got.tgz:231452.got - 2010.06.28 07:06:18.
