data_PCOD8152577
_publ_section_title
;
Structure prediction by ZEFSAII (Michael W. Deem and Ramdas Pophale) SiO2 
 PCOD8152577
Probable space group: C 2/C
;
_chemical_formula_sum "Si O2"
_cell_formula_units_Z 64
_cell_length_a 22.599676
_cell_length_b 9.390610
_cell_length_c 26.599152
_cell_angle_alpha 90.000000
_cell_angle_beta 30.369876
_cell_angle_gamma 90.000000
_cell_volume 2853.999416
_symmetry_space_group_name_H-M "C 2/C"
_symmetry_group_IT_number 15
_symmetry_cell_setting 'monoclinic'
loop_
_space_group_symop_operation_xyz
x,y,z
-x,y,1/2-z
-x,-y,-z
x,-y,1/2+z
1/2+x,1/2+y,z
1/2-x,1/2+y,1/2-z
1/2-x,1/2-y,-z
1/2+x,1/2-y,1/2+z
loop_
_atom_site_type_symbol
_atom_site_label
_atom_site_fract_x
_atom_site_fract_y
_atom_site_fract_z
Si Si1 0.613571 0.435268 0.800778
Si Si2 0.886261 0.950222 0.303596
Si Si3 0.904106 0.570780 0.781299
Si Si4 0.246578 0.808359 0.558695
Si Si5 0.994333 0.356478 0.108079
Si Si6 0.002891 0.872514 0.037548
Si Si7 0.268659 0.819518 0.839882
Si Si8 0.641454 0.108103 0.336594
O O1 0.585031 0.438290 0.762408
O O2 0.581425 0.283338 0.848833
O O3 0.535771 0.561215 0.881184
O O4 0.751670 0.458620 0.710073
O O5 0.823018 0.819011 0.324522
O O6 0.000000 0.897567 0.250000
O O7 0.803800 0.030776 0.404360
O O8 0.841725 0.713749 0.844451
O O9 0.804371 0.453516 0.847476
O O10 0.000000 0.514702 0.750000
O O11 0.975151 0.594218 0.678617
O O12 0.250000 0.750000 0.500000
O O13 0.370412 0.812990 0.496508
O O14 0.955227 0.483019 0.099211
O O15 0.914665 0.740329 0.091071
O O16 0.130152 0.804457 0.945816
O O17 0.000000 0.000000 0.000000
O O18 0.311413 0.838112 0.751644
#
# Coordination Sequence:
#
# PCOD8152577 Si02
#       8
#     8   8   8   8   8   8   8   8
#     4  12  24  45  74 100 144 189 237 299 362 430
#     4  12  26  47  69 103 147 192 239 296 364 430
#     4  11  22  43  67  98 137 181 231 292 355 420
#     4  12  23  43  70 103 138 183 244 293 355 432
#     4  11  24  41  69 102 138 181 235 297 358 426
#     4  12  25  46  75 108 141 188 244 290 363 441
#     4  11  25  45  70 102 145 187 236 291 363 433
#     4  11  25  45  70 104 144 186 236 295 367 427
#
# _framework density 22.424671
#
# number of rings (size 3 to 8) (size 9 to 14) (size 15 to 20)
#    0.000    0.500    5.000    3.750    1.750    1.000 
#    0.000    3.125    0.000    0.000    0.000    0.000 
#    0.000    0.000    0.000    0.000    0.000    0.000 
#
# Total GULP energy -396891.862777 kJ/mol
# GULP energy per Si atom -12402.870712 kJ/mol
# Density = 2.237363 g / cm^3
# Si number density = 22.424671 Si / 1000 Ang^3
#
#
#
# Elastic Constant Matrix: (Units=GPa)
#
#
# Indices 1 2 3 4 5 6 
#
# 1 102.5082 26.6934 38.9694 -0.0007 -21.8846 0.0015
# 2 26.6934 90.1598 21.4884 -0.0033 -4.2017 0.0220
# 3 38.9694 21.4884 90.8477 -0.0011 -24.8600 0.0017
# 4 -0.0007 -0.0033 -0.0011 45.6285 -0.0002 -0.4911
# 5 -21.8846 -4.2017 -24.8600 -0.0002 32.7369 -0.0002
# 6 0.0015 0.0220 0.0017 -0.4911 -0.0002 21.1333
#
#
#
# Elastic Compliance Matrix: (Units=1/GPa)
#
#
# Indices 1 2 3 4 5 6 
#
# 1 0.012981 -0.002781 -0.003324 0.000000 0.005796 0.000002
# 2 -0.002781 0.012365 -0.002280 0.000001 -0.002003 -0.000012
# 3 -0.003324 -0.002280 0.015507 0.000000 0.009261 0.000001
# 4 0.000000 0.000001 0.000000 0.021922 0.000000 0.000509
# 5 0.005796 -0.002003 0.009261 0.000000 0.041197 0.000001
# 6 0.000002 -0.000012 0.000001 0.000509 0.000001 0.047331
#
#
# Mechanical properties :
#
#
# Convention : Reuss Voigt Hill
#
# Bulk Modulus (GPa) = 41.52447 50.86869 46.19658
# Shear Modulus (GPa) = 28.39316 32.99071 30.69194
#
# Velocity S-wave (km/s) = 3.56217 3.83976 3.70357
# Velocity P-wave (km/s) = 5.95620 6.51090 6.23971
#
# Compressibility (1/GPa) = 0.02408218
#
# Stress axis : x y z
#
# Youngs Moduli (GPa) = 77.03797 80.87492 64.48756
#
# Poissons Ratio (x) = 0.22489 0.21437
# Poissons Ratio (y) = 0.21422 0.14704
# Poissons Ratio (z) = 0.25609 0.18440
#
# Static dielectric constant tensor:
#      x y z
#    x 4.225130 0.000000 -0.087170 
#    y 0.000000 4.281380 0.000000 
#    z -0.087170 0.000000 4.219690 
# 
# 
# High freq. dielectric constant tensor:
#      x y z
#    x 1.884170 0.000000 -0.004290 
#    y 0.000000 1.895790 0.000000 
#    z -0.004290 0.000000 1.889170 
# 
# From -- ./inp_files/318602.got.cif
#   From: 2010.06.25/outbox.cif.g09.slc.cpg/sg15_160_cif.got.tgz:318602.got - 2010.06.28 07:06:18.
