data_PCOD8152230
_publ_section_title
;
Structure prediction by ZEFSAII (Michael W. Deem and Ramdas Pophale) SiO2 
 PCOD8152230
Probable space group: C 2/C
;
_chemical_formula_sum "Si O2"
_cell_formula_units_Z 48
_cell_length_a 15.430432
_cell_length_b 9.783821
_cell_length_c 14.197247
_cell_angle_alpha 90.000000
_cell_angle_beta 90.076585
_cell_angle_gamma 90.000000
_cell_volume 2143.336371
_symmetry_space_group_name_H-M "C 2/C"
_symmetry_group_IT_number 15
_symmetry_cell_setting 'monoclinic'
loop_
_space_group_symop_operation_xyz
x,y,z
-x,y,1/2-z
-x,-y,-z
x,-y,1/2+z
1/2+x,1/2+y,z
1/2-x,1/2+y,1/2-z
1/2-x,1/2-y,-z
1/2+x,1/2-y,1/2+z
loop_
_atom_site_type_symbol
_atom_site_label
_atom_site_fract_x
_atom_site_fract_y
_atom_site_fract_z
Si Si1 0.847622 0.360339 0.431298
Si Si2 0.444961 0.493650 0.152463
Si Si3 0.323003 0.272328 0.425734
Si Si4 0.772709 0.064024 0.410437
Si Si5 0.743226 0.049799 0.201910
Si Si6 0.999836 0.215746 0.497033
O O1 0.825125 0.200241 0.429513
O O2 0.798583 0.451990 0.508526
O O3 0.822629 0.431021 0.333153
O O4 0.948107 0.349265 0.459142
O O5 0.500000 0.476134 0.250000
O O6 0.343163 0.517443 0.175911
O O7 0.481133 0.621042 0.093451
O O8 0.451391 0.361203 0.084273
O O9 0.250000 0.250000 0.500000
O O10 0.338349 0.435247 0.411701
O O11 0.290019 0.197370 0.332530
O O12 0.413703 0.214188 0.462047
O O13 0.724916 0.062223 0.311473
#
# Coordination Sequence:
#
# PCOD8152230 Si02
#       6
#     8   8   8   8   8   8
#     4  11  23  42  68  96 133 173 213 274 322 383
#     4  11  22  39  66  98 126 169 224 272 313 380
#     4  12  23  44  66  93 132 176 212 270 329 385
#     4  11  23  42  68  98 129 174 220 264 329 389
#     4  12  24  43  69  97 132 174 217 266 331 390
#     4  11  23  40  64  95 133 168 221 268 322 387
#
# _framework density 22.394991000000001
#
# number of rings (size 3 to 8) (size 9 to 14) (size 15 to 20)
#    0.000    0.667    3.333    7.000    0.000    2.000 
#    0.000    0.000    0.000    0.000    0.000    0.000 
#    0.000    0.000    0.000    0.000    0.000    0.000 
#
# Total GULP energy -297503.672988 kJ/mol
# GULP energy per Si atom -12395.986375 kJ/mol
# Density = 2.234402 g / cm^3
# Si number density = 22.394991 Si / 1000 Ang^3
#
#
#
# Elastic Constant Matrix: (Units=GPa)
#
#
# Indices 1 2 3 4 5 6 
#
# 1 119.5069 39.4262 29.7454 0.0000 37.0796 0.0000
# 2 39.4262 74.2080 10.3834 0.0000 15.8030 0.0000
# 3 29.7454 10.3834 120.2978 0.0000 31.3689 0.0000
# 4 0.0000 0.0000 0.0000 13.4038 0.0000 16.6074
# 5 37.0796 15.8030 31.3689 0.0000 28.4981 0.0000
# 6 0.0000 0.0000 0.0000 16.6074 0.0000 36.4389
#
#
#
# Elastic Compliance Matrix: (Units=1/GPa)
#
#
# Indices 1 2 3 4 5 6 
#
# 1 0.015418 -0.004268 0.001641 0.000000 -0.019499 0.000000
# 2 -0.004268 0.016597 0.000806 0.000000 -0.004537 0.000000
# 3 0.001641 0.000806 0.011937 0.000000 -0.015721 0.000000
# 4 0.000000 0.000000 0.000000 0.171386 0.000000 -0.078111
# 5 -0.019499 -0.004537 -0.015721 0.000000 0.080282 0.000000
# 6 0.000000 0.000000 0.000000 -0.078111 0.000000 0.063043
#
#
# Mechanical properties :
#
#
# Convention : Reuss Voigt Hill
#
# Bulk Modulus (GPa) = 24.80894 52.56920 38.68907
# Shear Modulus (GPa) = 13.30701 31.29865 22.30283
#
# Velocity S-wave (km/s) = 2.44026 3.74247 3.15919
# Velocity P-wave (km/s) = 4.36369 6.49610 5.53358
#
# Compressibility (1/GPa) = 0.04030806
#
# Stress axis : x y z
#
# Youngs Moduli (GPa) = 64.86099 60.25274 83.77398
#
# Poissons Ratio (x) = 0.25718 -0.13746
# Poissons Ratio (y) = 0.27685 -0.06751
# Poissons Ratio (z) = -0.10643 -0.04856
#
# Static dielectric constant tensor:
#      x y z
#    x 4.029000 0.000000 -0.011240 
#    y 0.000000 1.732170 0.000000 
#    z -0.011240 0.000000 4.016160 
# 
# 
# High freq. dielectric constant tensor:
#      x y z
#    x 1.883020 0.000000 0.018970 
#    y 0.000000 1.879700 0.000000 
#    z 0.018970 0.000000 1.892510 
# 
# From -- ./inp_files/159727.got.cif
#   From: 2010.06.25/outbox.cif.g09.slc.cpg/sg15_80_cif.got.tgz:159727.got - 2010.06.28 07:06:18.
