data_PCOD8152912
_publ_section_title
;
Structure prediction by ZEFSAII (Michael W. Deem and Ramdas Pophale) SiO2 
 PCOD8152912
Probable space group: C 2/C
;
_chemical_formula_sum "Si O2"
_cell_formula_units_Z 52
_cell_length_a 27.717833
_cell_length_b 8.811259
_cell_length_c 10.489667
_cell_angle_alpha 90.000000
_cell_angle_beta 59.399578
_cell_angle_gamma 90.000000
_cell_volume 2205.108987
_symmetry_space_group_name_H-M "C 2/C"
_symmetry_group_IT_number 15
_symmetry_cell_setting 'monoclinic'
loop_
_space_group_symop_operation_xyz
x,y,z
-x,y,1/2-z
-x,-y,-z
x,-y,1/2+z
1/2+x,1/2+y,z
1/2-x,1/2+y,1/2-z
1/2-x,1/2-y,-z
1/2+x,1/2-y,1/2+z
loop_
_atom_site_type_symbol
_atom_site_label
_atom_site_fract_x
_atom_site_fract_y
_atom_site_fract_z
Si Si1 0.500000 0.016201 0.750000
Si Si2 0.086567 0.761146 0.561093
Si Si3 0.622808 0.554613 0.613117
Si Si4 0.327357 0.617282 0.226544
Si Si5 0.799009 0.600020 0.079963
Si Si6 0.159377 0.443058 0.242453
Si Si7 0.434132 0.183636 0.174794
O O1 0.556031 0.116929 0.666428
O O2 0.509324 0.902169 0.856921
O O3 0.153587 0.729782 0.464882
O O4 0.057002 0.786812 0.462762
O O5 0.078231 0.917548 0.649956
O O6 0.659781 0.568029 0.435253
O O7 0.659225 0.518398 0.691474
O O8 0.590028 0.712191 0.678812
O O9 0.262793 0.670353 0.326771
O O10 0.361700 0.767734 0.223518
O O11 0.803045 0.471606 0.182954
O O12 0.805821 0.522208 0.932691
O O13 0.107302 0.553936 0.318207
#
# Coordination Sequence:
#
# PCOD8152912 Si02
#       7
#     4   8   8   8   8   8   8
#     4  12  24  50  78  98 132 184 228 294 358 408
#     4  11  25  47  70 103 141 179 234 293 343 410
#     4  12  25  47  69 109 144 182 230 286 350 414
#     4  12  25  41  72 100 150 192 223 282 347 408
#     4  11  23  40  70 102 142 186 239 276 337 414
#     4  11  23  43  67 100 142 186 234 284 332 415
#     4  11  25  47  73 105 135 178 242 284 346 418
#
# _framework density 23.581600000000002
#
# number of rings (size 3 to 8) (size 9 to 14) (size 15 to 20)
#    0.000    0.615    4.615    2.769    4.308    0.615 
#    2.769    5.385    0.000    0.000    0.000    0.000 
#    0.000    0.000    0.000    0.000    0.000    0.000 
#
# Total GULP energy -322322.397255 kJ/mol
# GULP energy per Si atom -12397.015279 kJ/mol
# Density = 2.352793 g / cm^3
# Si number density = 23.581600 Si / 1000 Ang^3
#
#
#
# Elastic Constant Matrix: (Units=GPa)
#
#
# Indices 1 2 3 4 5 6 
#
# 1 81.4715 46.5486 30.2100 0.0000 8.9631 0.0000
# 2 46.5486 99.2532 17.6259 0.0000 -0.9862 0.0000
# 3 30.2100 17.6259 100.5369 0.0000 36.9173 0.0000
# 4 0.0000 0.0000 0.0000 31.4257 0.0000 8.4734
# 5 8.9631 -0.9862 36.9173 0.0000 43.6309 0.0000
# 6 0.0000 0.0000 0.0000 8.4734 0.0000 30.3381
#
#
#
# Elastic Compliance Matrix: (Units=1/GPa)
#
#
# Indices 1 2 3 4 5 6 
#
# 1 0.018295 -0.007900 -0.003869 0.000000 -0.000663 0.000000
# 2 -0.007900 0.014014 -0.001154 0.000000 0.002916 0.000000
# 3 -0.003869 -0.001154 0.016001 0.000000 -0.012770 0.000000
# 4 0.000000 0.000000 0.000000 0.034413 0.000000 -0.009611
# 5 -0.000663 0.002916 -0.012770 0.000000 0.033927 0.000000
# 6 0.000000 0.000000 0.000000 -0.009611 0.000000 0.035646
#
#
# Mechanical properties :
#
#
# Convention : Reuss Voigt Hill
#
# Bulk Modulus (GPa) = 44.51429 52.22561 48.36995
# Shear Modulus (GPa) = 26.93544 33.53740 30.23642
#
# Velocity S-wave (km/s) = 3.38335 3.77528 3.58467
# Velocity P-wave (km/s) = 5.84640 6.41860 6.13917
#
# Compressibility (1/GPa) = 0.02246469
#
# Stress axis : x y z
#
# Youngs Moduli (GPa) = 54.65855 71.35695 62.49793
#
# Poissons Ratio (x) = 0.56371 0.24180
# Poissons Ratio (y) = 0.43179 0.07211
# Poissons Ratio (z) = 0.21147 0.08233
#
# Static dielectric constant tensor:
#      x y z
#    x 4.286290 0.000000 0.496620 
#    y 0.000000 4.297680 0.000000 
#    z 0.496620 0.000000 4.235380 
# 
# 
# High freq. dielectric constant tensor:
#      x y z
#    x 1.930110 0.000000 0.034460 
#    y 0.000000 1.934070 0.000000 
#    z 0.034460 0.000000 1.928600 
# 
# From -- ./inp_files/121834.got.cif
#   From: 2010.06.25/outbox.cif.g09.slc.cpg/sg15_61_cif.got.tgz:121834.got - 2010.06.28 07:06:18.
