data_PCOD8152102
_publ_section_title
;
Structure prediction by ZEFSAII (Michael W. Deem and Ramdas Pophale) SiO2 
 PCOD8152102
Probable space group: C 2/C
;
_chemical_formula_sum "Si O2"
_cell_formula_units_Z 40
_cell_length_a 12.459724
_cell_length_b 27.167853
_cell_length_c 8.742385
_cell_angle_alpha 90.000000
_cell_angle_beta 137.312441
_cell_angle_gamma 90.000000
_cell_volume 2006.427226
_symmetry_space_group_name_H-M "C 2/C"
_symmetry_group_IT_number 15
_symmetry_cell_setting 'monoclinic'
loop_
_space_group_symop_operation_xyz
x,y,z
-x,y,1/2-z
-x,-y,-z
x,-y,1/2+z
1/2+x,1/2+y,z
1/2-x,1/2+y,1/2-z
1/2-x,1/2-y,-z
1/2+x,1/2-y,1/2+z
loop_
_atom_site_type_symbol
_atom_site_label
_atom_site_fract_x
_atom_site_fract_y
_atom_site_fract_z
Si Si1 0.824938 0.446138 0.512265
Si Si2 0.426378 0.154047 0.023876
Si Si3 0.675880 0.480177 0.657361
Si Si4 0.353096 0.892952 0.990152
Si Si5 0.325314 0.800601 0.127716
O O1 0.806536 0.388111 0.458215
O O2 0.697116 0.463522 0.504590
O O3 0.792257 0.474705 0.319829
O O4 0.000000 0.459428 0.750000
O O5 0.500000 0.181706 0.250000
O O6 0.571228 0.127073 0.088039
O O7 0.330012 0.192686 0.817138
O O8 0.500000 0.500000 0.500000
O O9 0.725497 0.435302 0.822494
O O10 0.500000 0.911496 0.250000
O O11 0.252411 0.849261 0.970337
O O12 0.500000 0.798661 0.250000
O O13 0.250000 0.750000 0.000000
#
# Coordination Sequence:
#
# PCOD8152102 Si02
#       5
#     8   8   8   8   8
#     4  11  22  37  60  82 115 169 218 239 293 377
#     4   9  17  36  64  86 113 157 221 249 285 369
#     4  12  24  37  54  89 130 159 204 265 316 353
#     4   9  19  37  62  83 117 165 213 248 306 384
#     4   9  20  39  64  90 118 153 205 259 323 379
#
# _framework density 19.935935000000001
#
# number of rings (size 3 to 8) (size 9 to 14) (size 15 to 20)
#    0.000    2.400    4.000    1.800    5.600    0.000 
#    3.600    4.000    0.000    0.000    0.000    0.000 
#    0.000    0.000    0.000    0.000    0.000    0.000 
#
# Total GULP energy -247801.691214 kJ/mol
# GULP energy per Si atom -12390.084561 kJ/mol
# Density = 1.989056 g / cm^3
# Si number density = 19.935935 Si / 1000 Ang^3
#
#
#
# Elastic Constant Matrix: (Units=GPa)
#
#
# Indices 1 2 3 4 5 6 
#
# 1 86.2198 26.1701 39.1558 0.0000 -19.6860 0.0000
# 2 26.1701 119.2259 66.5655 0.0000 -12.6891 0.0000
# 3 39.1558 66.5655 102.1255 0.0000 -20.6008 0.0000
# 4 0.0000 0.0000 0.0000 53.6601 0.0000 -3.4301
# 5 -19.6860 -12.6891 -20.6008 0.0000 38.5623 0.0000
# 6 0.0000 0.0000 0.0000 -3.4301 0.0000 16.6257
#
#
#
# Elastic Compliance Matrix: (Units=1/GPa)
#
#
# Indices 1 2 3 4 5 6 
#
# 1 0.014890 -0.000177 -0.004564 0.000000 0.005105 0.000000
# 2 -0.000177 0.013191 -0.008599 0.000000 -0.000344 0.000000
# 3 -0.004564 -0.008599 0.018051 0.000000 0.004484 0.000000
# 4 0.000000 0.000000 0.000000 0.018885 0.000000 0.003896
# 5 0.005105 -0.000344 0.004484 0.000000 0.030820 0.000000
# 6 0.000000 0.000000 0.000000 0.003896 0.000000 0.060952
#
#
# Mechanical properties :
#
#
# Convention : Reuss Voigt Hill
#
# Bulk Modulus (GPa) = 51.40870 63.48376 57.44623
# Shear Modulus (GPa) = 26.32225 33.48161 29.90193
#
# Velocity S-wave (km/s) = 3.63759 4.10257 3.87706
# Velocity P-wave (km/s) = 6.59437 7.37255 6.99429
#
# Compressibility (1/GPa) = 0.01945196
#
# Stress axis : x y z
#
# Youngs Moduli (GPa) = 67.15811 75.81045 55.39797
#
# Poissons Ratio (x) = 0.01342 0.25283
# Poissons Ratio (y) = 0.01189 0.47638
# Poissons Ratio (z) = 0.30650 0.65191
#
# Static dielectric constant tensor:
#      x y z
#    x 3.588550 0.000000 -0.562530 
#    y 0.000000 3.048040 0.000000 
#    z -0.562530 0.000000 1.256390 
# 
# 
# High freq. dielectric constant tensor:
#      x y z
#    x 1.764490 0.000000 -0.034130 
#    y 0.000000 1.764780 0.000000 
#    z -0.034130 0.000000 1.770850 
# 
# From -- ./inp_files/34715.got.cif
#   From: 2010.06.25/outbox.cif.g09.slc.cpg/sg15_18_cif.got.tgz:34715.got - 2010.06.28 07:06:18.
