data_PCOD8152025
_publ_section_title
;
Structure prediction by ZEFSAII (Michael W. Deem and Ramdas Pophale) SiO2 
 PCOD8152025
Probable space group: C 2/C
;
_chemical_formula_sum "Si O2"
_cell_formula_units_Z 52
_cell_length_a 9.426422
_cell_length_b 24.873855
_cell_length_c 14.534402
_cell_angle_alpha 90.000000
_cell_angle_beta 46.513992
_cell_angle_gamma 90.000000
_cell_volume 2472.577835
_symmetry_space_group_name_H-M "C 2/C"
_symmetry_group_IT_number 15
_symmetry_cell_setting 'monoclinic'
loop_
_space_group_symop_operation_xyz
x,y,z
-x,y,1/2-z
-x,-y,-z
x,-y,1/2+z
1/2+x,1/2+y,z
1/2-x,1/2+y,1/2-z
1/2-x,1/2-y,-z
1/2+x,1/2-y,1/2+z
loop_
_atom_site_type_symbol
_atom_site_label
_atom_site_fract_x
_atom_site_fract_y
_atom_site_fract_z
Si Si1 0.903027 0.591042 0.034843
Si Si2 0.822266 0.542175 0.893164
Si Si3 0.594817 0.170745 0.810489
Si Si4 0.351001 0.921715 0.894428
Si Si5 0.044651 0.221675 0.076441
Si Si6 0.053135 0.868566 0.436304
Si Si7 0.000000 0.136013 0.250000
O O1 0.690677 0.599121 0.174218
O O2 0.050077 0.576700 0.050263
O O3 0.892238 0.541807 0.968028
O O4 0.959091 0.642873 0.947785
O O5 0.773225 0.480022 0.894222
O O6 0.640481 0.583186 0.961299
O O7 0.000000 0.562889 0.750000
O O8 0.500000 0.169638 0.750000
O O9 0.619837 0.232463 0.834349
O O10 0.803416 0.139449 0.715678
O O11 0.500000 0.899049 0.750000
O O12 0.166784 0.883171 0.991195
O O13 0.002327 0.172209 0.160188
O O14 0.250000 0.250000 0.000000
O O15 0.046707 0.192455 0.977613
#
# Coordination Sequence:
#
# PCOD8152025 Si02
#       7
#     8   8   8   8   8   8   4
#     4  12  23  42  66  99 132 173 221 273 328 394
#     4  11  21  45  72  98 129 174 225 272 323 397
#     4  12  21  39  69 102 126 168 223 276 325 379
#     4  11  28  44  64  96 142 176 215 274 338 392
#     4  12  20  36  68  99 125 169 224 275 318 383
#     4  12  22  44  68  95 138 174 217 272 340 387
#     4  12  20  34  66  90 132 162 218 270 320 380
#
# _framework density 21.030683
#
# number of rings (size 3 to 8) (size 9 to 14) (size 15 to 20)
#    0.000    0.308    8.462    1.846    0.000    0.615 
#    0.000    0.769    3.385    0.000    0.000    0.000 
#    0.000    0.000    0.000    0.000    0.000    0.000 
#
# Total GULP energy -322247.284185 kJ/mol
# GULP energy per Si atom -12394.126315 kJ/mol
# Density = 2.098282 g / cm^3
# Si number density = 21.030683 Si / 1000 Ang^3
#
#
#
# Elastic Constant Matrix: (Units=GPa)
#
#
# Indices 1 2 3 4 5 6 
#
# 1 88.1955 29.0920 49.3657 0.0000 -14.9441 0.0000
# 2 29.0920 95.9781 36.9560 0.0000 -20.7428 0.0000
# 3 49.3657 36.9560 121.6153 0.0000 -18.9130 0.0000
# 4 0.0000 0.0000 0.0000 36.3837 0.0000 -7.2779
# 5 -14.9441 -20.7428 -18.9130 0.0000 36.0795 0.0000
# 6 0.0000 0.0000 0.0000 -7.2779 0.0000 13.9104
#
#
#
# Elastic Compliance Matrix: (Units=1/GPa)
#
#
# Indices 1 2 3 4 5 6 
#
# 1 0.015369 -0.002130 -0.005217 0.000000 0.002407 0.000000
# 2 -0.002130 0.013122 -0.002272 0.000000 0.005471 0.000000
# 3 -0.005217 -0.002272 0.011423 0.000000 0.002521 0.000000
# 4 0.000000 0.000000 0.000000 0.030698 0.000000 0.016061
# 5 0.002407 0.005471 0.002521 0.000000 0.033180 0.000000
# 6 0.000000 0.000000 0.000000 0.016061 0.000000 0.080292
#
#
# Mechanical properties :
#
#
# Convention : Reuss Voigt Hill
#
# Bulk Modulus (GPa) = 48.36565 59.62403 53.99484
# Shear Modulus (GPa) = 23.78551 29.96642 26.87596
#
# Velocity S-wave (km/s) = 3.36667 3.77887 3.57871
# Velocity P-wave (km/s) = 6.17739 6.88856 6.54265
#
# Compressibility (1/GPa) = 0.02067583
#
# Stress axis : x y z
#
# Youngs Moduli (GPa) = 65.06677 76.20921 87.54412
#
# Poissons Ratio (x) = 0.16229 0.45673
# Poissons Ratio (y) = 0.13856 0.19892
# Poissons Ratio (z) = 0.33946 0.17316
#
# Static dielectric constant tensor:
#      x y z
#    x 3.365680 0.000000 0.006420 
#    y 0.000000 4.084870 0.000000 
#    z 0.006420 0.000000 4.543020 
# 
# 
# High freq. dielectric constant tensor:
#      x y z
#    x 1.778710 0.000000 -0.002760 
#    y 0.000000 1.831930 0.000000 
#    z -0.002760 0.000000 1.844500 
# 
# From -- ./inp_files/138471.got.cif
#   From: 2010.06.25/outbox.cif.g09.slc.cpg/sg15_70_cif.got.tgz:138471.got - 2010.06.28 07:06:18.
