data_PCOD8152751
_publ_section_title
;
Structure prediction by ZEFSAII (Michael W. Deem and Ramdas Pophale) SiO2 
 PCOD8152751
Probable space group: C 2/C
;
_chemical_formula_sum "Si O2"
_cell_formula_units_Z 64
_cell_length_a 14.529947
_cell_length_b 14.263290
_cell_length_c 17.394044
_cell_angle_alpha 90.000000
_cell_angle_beta 50.172452
_cell_angle_gamma 90.000000
_cell_volume 2768.418656
_symmetry_space_group_name_H-M "C 2/C"
_symmetry_group_IT_number 15
_symmetry_cell_setting 'monoclinic'
loop_
_space_group_symop_operation_xyz
x,y,z
-x,y,1/2-z
-x,-y,-z
x,-y,1/2+z
1/2+x,1/2+y,z
1/2-x,1/2+y,1/2-z
1/2-x,1/2-y,-z
1/2+x,1/2-y,1/2+z
loop_
_atom_site_type_symbol
_atom_site_label
_atom_site_fract_x
_atom_site_fract_y
_atom_site_fract_z
Si Si1 0.733893 0.347908 0.734104
Si Si2 0.876508 0.996361 0.113854
Si Si3 0.467884 0.099064 0.053734
Si Si4 0.236817 0.466276 0.043055
Si Si5 0.980324 0.652763 0.886287
Si Si6 0.248149 0.851343 0.221180
Si Si7 0.392980 0.660412 0.351097
Si Si8 0.710425 0.845205 0.478994
O O1 0.633930 0.402744 0.837608
O O2 0.846739 0.417994 0.666302
O O3 0.781702 0.257271 0.751797
O O4 0.698326 0.314534 0.667810
O O5 0.766453 0.973071 0.116584
O O6 0.860480 0.914666 0.186475
O O7 0.000000 0.000000 0.000000
O O8 0.444369 0.169678 0.994628
O O9 0.566342 0.145318 0.056634
O O10 0.500000 0.000000 0.000000
O O11 0.099263 0.432781 0.105825
O O12 0.328676 0.395487 0.952686
O O13 0.264830 0.568994 0.996693
O O14 0.953283 0.746261 0.853554
O O15 0.121671 0.626652 0.809724
O O16 0.245522 0.862207 0.131066
O O17 0.500000 0.603229 0.250000
O O18 0.750000 0.750000 0.500000
#
# Coordination Sequence:
#
# PCOD8152751 Si02
#       8
#     8   8   8   8   8   8   8   8
#     4  12  24  45  68 104 143 192 245 301 381 447
#     4  12  29  47  68 106 153 199 246 309 384 454
#     4  11  22  45  76 102 142 191 247 307 371 447
#     4  12  25  43  73 103 146 192 248 307 371 439
#     4  11  23  41  73 111 139 182 244 312 372 437
#     4  11  26  46  76 105 149 191 248 308 383 453
#     4  12  23  41  68 110 147 183 243 304 371 450
#     4  11  25  49  75 109 149 195 253 313 374 455
#
# _framework density 23.117889999999999
#
# number of rings (size 3 to 8) (size 9 to 14) (size 15 to 20)
#    0.000    0.500    3.750    4.875    1.750    2.000 
#    0.000    3.125    0.000    0.000    0.000    0.000 
#    0.000    0.000    0.000    0.000    0.000    0.000 
#
# Total GULP energy -396591.651282 kJ/mol
# GULP energy per Si atom -12393.489103 kJ/mol
# Density = 2.306527 g / cm^3
# Si number density = 23.117890 Si / 1000 Ang^3
#
#
#
# Elastic Constant Matrix: (Units=GPa)
#
#
# Indices 1 2 3 4 5 6 
#
# 1 97.2628 31.7129 33.4605 0.0000 5.9016 0.0000
# 2 31.7129 134.3439 47.6383 0.0000 2.5962 0.0000
# 3 33.4605 47.6383 129.9670 0.0000 -10.7672 0.0000
# 4 0.0000 0.0000 0.0000 36.0886 0.0000 4.1055
# 5 5.9016 2.5962 -10.7672 0.0000 43.7952 0.0000
# 6 0.0000 0.0000 0.0000 4.1055 0.0000 34.3515
#
#
#
# Elastic Compliance Matrix: (Units=1/GPa)
#
#
# Indices 1 2 3 4 5 6 
#
# 1 0.011896 -0.001861 -0.002556 0.000000 -0.002121 0.000000
# 2 -0.001861 0.008920 -0.002872 0.000000 -0.000984 0.000000
# 3 -0.002556 -0.002872 0.009644 0.000000 0.002886 0.000000
# 4 0.000000 0.000000 0.000000 0.028092 0.000000 -0.003357
# 5 -0.002121 -0.000984 0.002886 0.000000 0.023887 0.000000
# 6 0.000000 0.000000 0.000000 -0.003357 0.000000 0.029512
#
#
# Mechanical properties :
#
#
# Convention : Reuss Voigt Hill
#
# Bulk Modulus (GPa) = 62.96338 65.24412 64.10375
# Shear Modulus (GPa) = 37.92924 39.43119 38.68021
#
# Velocity S-wave (km/s) = 4.05493 4.13444 4.09488
# Velocity P-wave (km/s) = 7.01557 7.14668 7.08143
#
# Compressibility (1/GPa) = 0.01588225
#
# Stress axis : x y z
#
# Youngs Moduli (GPa) = 84.05966 112.10386 103.68838
#
# Poissons Ratio (x) = 0.20859 0.26508
# Poissons Ratio (y) = 0.15641 0.29781
# Poissons Ratio (z) = 0.21490 0.32198
#
# Static dielectric constant tensor:
#      x y z
#    x 4.393130 0.000000 0.108980 
#    y 0.000000 4.215810 0.000000 
#    z 0.108980 0.000000 4.607120 
# 
# 
# High freq. dielectric constant tensor:
#      x y z
#    x 1.916940 0.000000 0.005920 
#    y 0.000000 1.909330 0.000000 
#    z 0.005920 0.000000 1.923520 
# 
# From -- ./inp_files/205697.got.cif
#   From: 2010.06.25/outbox.cif.g09.slc.cpg/sg15_103_cif.got.tgz:205697.got - 2010.06.28 07:06:18.
