data_PCOD8152895
_publ_section_title
;
Structure prediction by ZEFSAII (Michael W. Deem and Ramdas Pophale) SiO2 
 PCOD8152895
Probable space group: C 2/C
;
_chemical_formula_sum "Si O2"
_cell_formula_units_Z 40
_cell_length_a 13.158131
_cell_length_b 12.080177
_cell_length_c 20.556881
_cell_angle_alpha 90.000000
_cell_angle_beta 31.751477
_cell_angle_gamma 90.000000
_cell_volume 1719.511766
_symmetry_space_group_name_H-M "C 2/C"
_symmetry_group_IT_number 15
_symmetry_cell_setting 'monoclinic'
loop_
_space_group_symop_operation_xyz
x,y,z
-x,y,1/2-z
-x,-y,-z
x,-y,1/2+z
1/2+x,1/2+y,z
1/2-x,1/2+y,1/2-z
1/2-x,1/2-y,-z
1/2+x,1/2-y,1/2+z
loop_
_atom_site_type_symbol
_atom_site_label
_atom_site_fract_x
_atom_site_fract_y
_atom_site_fract_z
Si Si1 0.422637 0.051431 0.976961
Si Si2 0.781542 0.254721 0.362837
Si Si3 0.556937 0.448156 0.146377
Si Si4 0.019600 0.087946 0.431128
Si Si5 0.260327 0.287510 0.261550
O O1 0.254186 0.138082 0.084366
O O2 0.293557 0.957091 0.008679
O O3 0.601486 0.111977 0.844055
O O4 0.500000 0.000000 0.000000
O O5 0.681410 0.348328 0.460615
O O6 0.700123 0.251671 0.333738
O O7 0.000000 0.287636 0.250000
O O8 0.500000 0.483173 0.250000
O O9 0.448849 0.528922 0.154710
O O10 0.464382 0.327198 0.181569
O O11 0.187483 0.182818 0.344970
O O12 0.000000 0.000000 0.500000
#
# Coordination Sequence:
#
# PCOD8152895 Si02
#       5
#     8   8   8   8   8
#     4  11  23  40  67 101 132 178 236 277 338 417
#     4  11  23  42  71 101 133 183 233 286 339 415
#     4  12  23  44  73  99 139 187 228 284 353 408
#     4  11  24  46  70 104 143 178 232 294 343 412
#     4  11  24  41  70 103 136 182 237 282 346 416
#
# _framework density 23.262416999999999
#
# number of rings (size 3 to 8) (size 9 to 14) (size 15 to 20)
#    0.000    0.800    4.000    4.200    0.000    3.200 
#    0.000    5.000    0.000    0.000    0.000    0.000 
#    0.000    0.000    0.000    0.000    0.000    0.000 
#
# Total GULP energy -247791.846524 kJ/mol
# GULP energy per Si atom -12389.592326 kJ/mol
# Density = 2.320947 g / cm^3
# Si number density = 23.262417 Si / 1000 Ang^3
#
#
#
# Elastic Constant Matrix: (Units=GPa)
#
#
# Indices 1 2 3 4 5 6 
#
# 1 112.4667 44.0359 29.4547 -0.0019 -1.0198 0.0025
# 2 44.0359 101.3348 34.7674 -0.0003 -13.0445 0.0005
# 3 29.4547 34.7674 58.0215 -0.0142 0.0005 0.0124
# 4 -0.0019 -0.0003 -0.0142 34.1735 0.0054 6.2684
# 5 -1.0198 -13.0445 0.0005 0.0054 46.9271 -0.0044
# 6 0.0025 0.0005 0.0124 6.2684 -0.0044 25.6486
#
#
#
# Elastic Compliance Matrix: (Units=1/GPa)
#
#
# Indices 1 2 3 4 5 6 
#
# 1 0.011283 -0.003831 -0.003432 -0.000001 -0.000820 0.000001
# 2 -0.003831 0.014309 -0.006629 -0.000004 0.003894 0.000005
# 3 -0.003432 -0.006629 0.022950 0.000012 -0.001918 -0.000014
# 4 -0.000001 -0.000004 0.000012 0.030636 -0.000005 -0.007487
# 5 -0.000820 0.003894 -0.001918 -0.000005 0.022374 0.000006
# 6 0.000001 0.000005 -0.000014 -0.007487 0.000006 0.040818
#
#
# Mechanical properties :
#
#
# Convention : Reuss Voigt Hill
#
# Bulk Modulus (GPa) = 48.17763 54.25990 51.21877
# Shear Modulus (GPa) = 28.23674 32.25417 30.24545
#
# Velocity S-wave (km/s) = 3.48779 3.72766 3.60972
# Velocity P-wave (km/s) = 6.08071 6.47326 6.28005
#
# Compressibility (1/GPa) = 0.02075652
#
# Stress axis : x y z
#
# Youngs Moduli (GPa) = 88.62882 69.88664 43.57344
#
# Poissons Ratio (x) = 0.26774 0.14955
# Poissons Ratio (y) = 0.33954 0.28886
# Poissons Ratio (z) = 0.30419 0.46330
#
# Static dielectric constant tensor:
#      x y z
#    x 4.319800 -0.000810 0.046360 
#    y -0.000810 3.781240 -0.001030 
#    z 0.046360 -0.001030 4.467120 
# 
# 
# High freq. dielectric constant tensor:
#      x y z
#    x 1.907930 0.000000 0.000210 
#    y 0.000000 1.921210 0.000000 
#    z 0.000210 0.000000 1.922260 
# 
# From -- ./inp_files/273752.got.cif
#   From: 2010.06.25/outbox.cif.g09.slc.cpg/sg15_137_cif.got.tgz:273752.got - 2010.06.28 07:06:18.
