data_PCOD8152363
_publ_section_title
;
Structure prediction by ZEFSAII (Michael W. Deem and Ramdas Pophale) SiO2 
 PCOD8152363
Probable space group: C 2/C
;
_chemical_formula_sum "Si O2"
_cell_formula_units_Z 56
_cell_length_a 8.713895
_cell_length_b 23.166215
_cell_length_c 14.467562
_cell_angle_alpha 90.000000
_cell_angle_beta 118.971315
_cell_angle_gamma 90.000000
_cell_volume 2555.068027
_symmetry_space_group_name_H-M "C 2/C"
_symmetry_group_IT_number 15
_symmetry_cell_setting 'monoclinic'
loop_
_space_group_symop_operation_xyz
x,y,z
-x,y,1/2-z
-x,-y,-z
x,-y,1/2+z
1/2+x,1/2+y,z
1/2-x,1/2+y,1/2-z
1/2-x,1/2-y,-z
1/2+x,1/2-y,1/2+z
loop_
_atom_site_type_symbol
_atom_site_label
_atom_site_fract_x
_atom_site_fract_y
_atom_site_fract_z
Si Si1 0.844742 0.378768 0.817040
Si Si2 0.225566 0.359751 0.908555
Si Si3 0.195331 0.417443 0.319364
Si Si4 0.799383 0.999838 0.188353
Si Si5 0.161890 0.213830 0.357159
Si Si6 0.416267 0.690614 0.955231
Si Si7 0.193685 0.986334 0.523629
O O1 0.801471 0.347751 0.707552
O O2 0.826574 0.448235 0.813377
O O3 0.708161 0.352427 0.848882
O O4 0.038924 0.357968 0.906132
O O5 0.372778 0.317451 0.997498
O O6 0.287575 0.424688 0.927027
O O7 0.270950 0.443893 0.245409
O O8 0.322840 0.367871 0.394567
O O9 0.177276 0.467295 0.391516
O O10 0.000000 0.391758 0.250000
O O11 0.760293 0.983887 0.071137
O O12 0.000000 0.020744 0.250000
O O13 0.326622 0.255494 0.376552
O O14 0.112682 0.209785 0.448665
O O15 0.000000 0.237014 0.250000
O O16 0.000000 0.000000 0.500000
#
# Coordination Sequence:
#
# PCOD8152363 Si02
#       7
#     8   8   8   8   8   8   8
#     4  11  23  38  67  95 129 174 220 275 323 401
#     4  11  22  41  62  96 133 167 219 272 336 390
#     4  12  25  42  63 100 144 175 220 289 340 397
#     4  12  23  39  68  99 134 184 226 270 342 405
#     4  11  23  43  71  99 124 174 233 275 333 409
#     4  11  24  43  69  95 133 174 219 284 339 400
#     4  12  22  40  66  95 135 180 221 274 336 406
#
# _framework density 21.917224000000001
#
# number of rings (size 3 to 8) (size 9 to 14) (size 15 to 20)
#    0.000    0.571    5.714    2.571    0.000    4.000 
#    0.000    0.000    9.429    0.000    0.000    0.000 
#    0.000    0.000    0.000    0.000    0.000    0.000 
#
# Total GULP energy -346981.776108 kJ/mol
# GULP energy per Si atom -12392.206290 kJ/mol
# Density = 2.186734 g / cm^3
# Si number density = 21.917224 Si / 1000 Ang^3
#
#
#
# Elastic Constant Matrix: (Units=GPa)
#
#
# Indices 1 2 3 4 5 6 
#
# 1 95.5466 24.1502 46.0187 0.0000 23.7243 0.0000
# 2 24.1502 81.2848 29.6785 0.0000 8.8185 0.0000
# 3 46.0187 29.6785 109.9856 0.0000 9.0795 0.0000
# 4 0.0000 0.0000 0.0000 22.4157 0.0000 1.8992
# 5 23.7243 8.8185 9.0795 0.0000 48.7425 0.0000
# 6 0.0000 0.0000 0.0000 1.8992 0.0000 27.7693
#
#
#
# Elastic Compliance Matrix: (Units=1/GPa)
#
#
# Indices 1 2 3 4 5 6 
#
# 1 0.014952 -0.001876 -0.005258 0.000000 -0.005959 0.000000
# 2 -0.001876 0.014042 -0.002914 0.000000 -0.001084 0.000000
# 3 -0.005258 -0.002914 0.012008 0.000000 0.000850 0.000000
# 4 0.000000 0.000000 0.000000 0.044872 0.000000 -0.003069
# 5 -0.005959 -0.001084 0.000850 0.000000 0.023454 0.000000
# 6 0.000000 0.000000 0.000000 -0.003069 0.000000 0.036221
#
#
# Mechanical properties :
#
#
# Convention : Reuss Voigt Hill
#
# Bulk Modulus (GPa) = 47.83526 54.05685 50.94606
# Shear Modulus (GPa) = 28.96628 32.25015 30.60821
#
# Velocity S-wave (km/s) = 3.63936 3.84011 3.74108
# Velocity P-wave (km/s) = 6.28750 6.66180 6.47736
#
# Compressibility (1/GPa) = 0.02090508
#
# Stress axis : x y z
#
# Youngs Moduli (GPa) = 66.87921 71.21687 83.27527
#
# Poissons Ratio (x) = 0.13362 0.43786
# Poissons Ratio (y) = 0.12548 0.24270
# Poissons Ratio (z) = 0.35165 0.20756
#
# Static dielectric constant tensor:
#      x y z
#    x 3.998840 0.000000 0.326660 
#    y 0.000000 3.907300 0.000000 
#    z 0.326660 0.000000 4.318850 
# 
# 
# High freq. dielectric constant tensor:
#      x y z
#    x 1.860600 0.000000 0.017680 
#    y 0.000000 1.850000 0.000000 
#    z 0.017680 0.000000 1.872210 
# 
# From -- ./inp_files/137934.got.cif
#   From: 2010.06.25/outbox.cif.g09.slc.cpg/sg15_69_cif.got.tgz:137934.got - 2010.06.28 07:06:18.
