data_PCOD8152208
_publ_section_title
;
Structure prediction by ZEFSAII (Michael W. Deem and Ramdas Pophale) SiO2 
 PCOD8152208
Probable space group: C 2/C
;
_chemical_formula_sum "Si O2"
_cell_formula_units_Z 36
_cell_length_a 6.639802
_cell_length_b 25.626675
_cell_length_c 10.964749
_cell_angle_alpha 90.000000
_cell_angle_beta 119.121642
_cell_angle_gamma 90.000000
_cell_volume 1629.870026
_symmetry_space_group_name_H-M "C 2/C"
_symmetry_group_IT_number 15
_symmetry_cell_setting 'monoclinic'
loop_
_space_group_symop_operation_xyz
x,y,z
-x,y,1/2-z
-x,-y,-z
x,-y,1/2+z
1/2+x,1/2+y,z
1/2-x,1/2+y,1/2-z
1/2-x,1/2-y,-z
1/2+x,1/2-y,1/2+z
loop_
_atom_site_type_symbol
_atom_site_label
_atom_site_fract_x
_atom_site_fract_y
_atom_site_fract_z
Si Si1 0.669177 0.380507 0.895321
Si Si2 0.020873 0.293297 0.615332
Si Si3 0.012964 0.816830 0.451338
Si Si4 0.500000 0.602278 0.750000
Si Si5 0.526671 0.043196 0.613364
O O1 0.500000 0.411437 0.750000
O O2 0.832561 0.344217 0.864450
O O3 0.504030 0.341436 0.920421
O O4 0.815487 0.417337 0.026996
O O5 0.000000 0.282293 0.750000
O O6 0.122905 0.238793 0.590491
O O7 0.772157 0.305331 0.484261
O O8 0.912236 0.860776 0.332745
O O9 0.277499 0.566639 0.657567
O O10 0.500000 0.024934 0.750000
O O11 0.500000 0.000000 0.500000
#
# Coordination Sequence:
#
# PCOD8152208 Si02
#       5
#     8   8   8   4   8
#     4  12  25  44  70 107 142 186 235 295 355 425
#     4  11  22  39  64 105 145 192 234 276 342 424
#     4  11  23  41  68 101 146 187 233 283 345 428
#     4  12  24  48  76 100 140 188 234 294 364 430
#     4  12  30  51  77 106 137 187 247 311 372 432
#
# _framework density 22.087651000000001
#
# number of rings (size 3 to 8) (size 9 to 14) (size 15 to 20)
#    0.000    0.444    7.778    0.667    1.556    3.556 
#    4.000    0.000    0.000    0.000    0.000    0.000 
#    0.000    0.000    0.000    0.000    0.000    0.000 
#
# Total GULP energy -223005.929286 kJ/mol
# GULP energy per Si atom -12389.218294 kJ/mol
# Density = 2.203738 g / cm^3
# Si number density = 22.087651 Si / 1000 Ang^3
#
#
#
# Elastic Constant Matrix: (Units=GPa)
#
#
# Indices 1 2 3 4 5 6 
#
# 1 65.4410 33.4233 29.9412 0.0000 4.1428 0.0000
# 2 33.4233 106.2227 53.8504 0.0000 4.5092 0.0000
# 3 29.9412 53.8504 138.0207 0.0000 -1.8563 0.0000
# 4 0.0000 0.0000 0.0000 19.4061 0.0000 -0.4298
# 5 4.1428 4.5092 -1.8563 0.0000 37.7274 0.0000
# 6 0.0000 0.0000 0.0000 -0.4298 0.0000 17.5292
#
#
#
# Elastic Compliance Matrix: (Units=1/GPa)
#
#
# Indices 1 2 3 4 5 6 
#
# 1 0.018824 -0.004704 -0.002270 0.000000 -0.001617 0.000000
# 2 -0.004704 0.013012 -0.004073 0.000000 -0.001239 0.000000
# 3 -0.002270 -0.004073 0.009343 0.000000 0.001196 0.000000
# 4 0.000000 0.000000 0.000000 0.051558 0.000000 0.001264
# 5 -0.001617 -0.001239 0.001196 0.000000 0.026890 0.000000
# 6 0.000000 0.000000 0.000000 0.001264 0.000000 0.057079
#
#
# Mechanical properties :
#
#
# Convention : Reuss Voigt Hill
#
# Bulk Modulus (GPa) = 52.39609 60.45713 56.42661
# Shear Modulus (GPa) = 24.37107 27.76384 26.06745
#
# Velocity S-wave (km/s) = 3.32532 3.54924 3.43910
# Velocity P-wave (km/s) = 6.20621 6.65034 6.43211
#
# Compressibility (1/GPa) = 0.01908540
#
# Stress axis : x y z
#
# Youngs Moduli (GPa) = 53.12290 76.85452 107.03253
#
# Poissons Ratio (x) = 0.36149 0.24298
# Poissons Ratio (y) = 0.24987 0.43594
# Poissons Ratio (z) = 0.12060 0.31302
#
# Static dielectric constant tensor:
#      x y z
#    x 3.996910 0.000000 0.082090 
#    y 0.000000 3.981170 0.000000 
#    z 0.082090 0.000000 4.220880 
# 
# 
# High freq. dielectric constant tensor:
#      x y z
#    x 1.862230 0.000000 -0.000280 
#    y 0.000000 1.864570 0.000000 
#    z -0.000280 0.000000 1.888700 
# 
# From -- ./inp_files/72445.got.cif
#   From: 2010.06.25/outbox.cif.g09.slc.cpg/sg15_37_cif.got.tgz:72445.got - 2010.06.28 07:06:18.
