data_PCOD8152595
_publ_section_title
;
Structure prediction by ZEFSAII (Michael W. Deem and Ramdas Pophale) SiO2 
 PCOD8152595
Probable space group: C 2/C
;
_chemical_formula_sum "Si O2"
_cell_formula_units_Z 64
_cell_length_a 11.544524
_cell_length_b 23.737633
_cell_length_c 11.288200
_cell_angle_alpha 90.000000
_cell_angle_beta 109.671617
_cell_angle_gamma 90.000000
_cell_volume 2912.874982
_symmetry_space_group_name_H-M "C 2/C"
_symmetry_group_IT_number 15
_symmetry_cell_setting 'monoclinic'
loop_
_space_group_symop_operation_xyz
x,y,z
-x,y,1/2-z
-x,-y,-z
x,-y,1/2+z
1/2+x,1/2+y,z
1/2-x,1/2+y,1/2-z
1/2-x,1/2-y,-z
1/2+x,1/2-y,1/2+z
loop_
_atom_site_type_symbol
_atom_site_label
_atom_site_fract_x
_atom_site_fract_y
_atom_site_fract_z
Si Si1 0.100403 0.214787 0.120543
Si Si2 0.644534 0.110252 0.008323
Si Si3 0.833083 0.205336 0.093499
Si Si4 0.873359 0.466183 0.776394
Si Si5 0.275185 0.392215 0.948544
Si Si6 0.733752 0.080549 0.794099
Si Si7 0.500414 0.540718 0.884610
Si Si8 0.113204 0.660702 0.581719
O O1 0.136122 0.228301 0.267058
O O2 0.179111 0.164563 0.095933
O O3 0.131108 0.272928 0.063002
O O4 0.957665 0.197006 0.061169
O O5 0.765068 0.145745 0.083088
O O6 0.605526 0.067437 0.096436
O O7 0.675327 0.073851 0.903861
O O8 0.530871 0.151645 0.944101
O O9 0.750000 0.250000 0.000000
O O10 0.765801 0.436911 0.663508
O O11 0.822533 0.527504 0.796864
O O12 0.000000 0.469989 0.750000
O O13 0.379723 0.419582 0.067643
O O14 0.157007 0.374957 0.984083
O O15 0.691989 0.139457 0.721835
O O16 0.880838 0.079915 0.852097
O O17 0.500000 0.512221 0.750000
O O18 0.500000 0.500000 0.000000
#
# Coordination Sequence:
#
# PCOD8152595 Si02
#       8
#     8   8   8   8   8   8   8   8
#     4  11  25  43  71 103 138 191 239 295 357 433
#     4  12  25  44  73 104 138 188 231 295 365 423
#     4  11  22  43  70 101 142 181 240 296 355 426
#     4  12  26  45  70 105 143 185 237 290 356 436
#     4  12  25  47  68 105 142 188 237 291 363 432
#     4  12  28  45  73 105 138 185 239 297 360 429
#     4  12  27  50  76 106 149 194 243 307 363 438
#     4  12  25  46  72 102 146 180 238 294 359 425
#
# _framework density 21.971420999999999
#
# number of rings (size 3 to 8) (size 9 to 14) (size 15 to 20)
#    0.000    0.250    6.250    3.000    5.250    1.000 
#    2.250    0.000    0.000    0.000    0.000    0.000 
#    0.000    0.000    0.000    0.000    0.000    0.000 
#
# Total GULP energy -396890.792871 kJ/mol
# GULP energy per Si atom -12402.837277 kJ/mol
# Density = 2.192141 g / cm^3
# Si number density = 21.971421 Si / 1000 Ang^3
#
#
#
# Elastic Constant Matrix: (Units=GPa)
#
#
# Indices 1 2 3 4 5 6 
#
# 1 113.5581 24.9170 23.0415 0.0000 11.6765 0.0000
# 2 24.9170 92.0127 9.4480 0.0000 9.8819 0.0000
# 3 23.0415 9.4480 84.8637 0.0000 1.8977 0.0000
# 4 0.0000 0.0000 0.0000 34.7226 0.0000 -0.5256
# 5 11.6765 9.8819 1.8977 0.0000 40.0221 0.0000
# 6 0.0000 0.0000 0.0000 -0.5256 0.0000 36.0055
#
#
#
# Elastic Compliance Matrix: (Units=1/GPa)
#
#
# Indices 1 2 3 4 5 6 
#
# 1 0.010017 -0.002221 -0.002422 0.000000 -0.002259 0.000000
# 2 -0.002221 0.011777 -0.000658 0.000000 -0.002228 0.000000
# 3 -0.002422 -0.000658 0.012508 0.000000 0.000276 0.000000
# 4 0.000000 0.000000 0.000000 0.028806 0.000000 0.000420
# 5 -0.002259 -0.002228 0.000276 0.000000 0.026182 0.000000
# 6 0.000000 0.000000 0.000000 0.000420 0.000000 0.027780
#
#
# Mechanical properties :
#
#
# Convention : Reuss Voigt Hill
#
# Bulk Modulus (GPa) = 42.19565 45.02749 43.61157
# Shear Modulus (GPa) = 36.88054 37.68523 37.28288
#
# Velocity S-wave (km/s) = 4.10148 4.14598 4.12379
# Velocity P-wave (km/s) = 6.45569 6.59220 6.52430
#
# Compressibility (1/GPa) = 0.02369913
#
# Stress axis : x y z
#
# Youngs Moduli (GPa) = 99.82823 84.91479 79.94695
#
# Poissons Ratio (x) = 0.18862 0.19363
# Poissons Ratio (y) = 0.22175 0.05262
# Poissons Ratio (z) = 0.24178 0.05589
#
# Static dielectric constant tensor:
#      x y z
#    x 4.211440 0.000000 0.068690 
#    y 0.000000 3.700720 0.000000 
#    z 0.068690 0.000000 4.048160 
# 
# 
# High freq. dielectric constant tensor:
#      x y z
#    x 1.882800 0.000000 0.004080 
#    y 0.000000 1.862270 0.000000 
#    z 0.004080 0.000000 1.867120 
# 
# From -- ./inp_files/91286.got.cif
#   From: 2010.06.25/outbox.cif.g09.slc.cpg/sg15_46_cif.got.tgz:91286.got - 2010.06.28 07:06:18.
