data_PCOD8152624
_publ_section_title
;
Structure prediction by ZEFSAII (Michael W. Deem and Ramdas Pophale) SiO2 
 PCOD8152624
Probable space group: C 2/C
;
_chemical_formula_sum "Si O2"
_cell_formula_units_Z 44
_cell_length_a 19.208840
_cell_length_b 11.791819
_cell_length_c 8.431175
_cell_angle_alpha 90.000000
_cell_angle_beta 73.007751
_cell_angle_gamma 90.000000
_cell_volume 1826.351311
_symmetry_space_group_name_H-M "C 2/C"
_symmetry_group_IT_number 15
_symmetry_cell_setting 'monoclinic'
loop_
_space_group_symop_operation_xyz
x,y,z
-x,y,1/2-z
-x,-y,-z
x,-y,1/2+z
1/2+x,1/2+y,z
1/2-x,1/2+y,1/2-z
1/2-x,1/2-y,-z
1/2+x,1/2-y,1/2+z
loop_
_atom_site_type_symbol
_atom_site_label
_atom_site_fract_x
_atom_site_fract_y
_atom_site_fract_z
Si Si1 0.714461 0.167395 0.848858
Si Si2 0.098005 0.136444 0.445326
Si Si3 0.713330 0.059868 0.509672
Si Si4 0.127625 0.907071 0.588853
Si Si5 0.000000 0.240438 0.750000
Si Si6 0.636548 0.779662 0.837744
O O1 0.650845 0.256411 0.915438
O O2 0.699722 0.094717 0.699928
O O3 0.793252 0.228704 0.800902
O O4 0.711934 0.076833 0.995689
O O5 0.077095 0.102132 0.278618
O O6 0.023235 0.163213 0.585441
O O7 0.133982 0.031163 0.510617
O O8 0.789794 0.117212 0.404411
O O9 0.652893 0.110852 0.432442
O O10 0.103853 0.817203 0.474054
O O11 0.928873 0.312162 0.740959
#
# Coordination Sequence:
#
# PCOD8152624 Si02
#       6
#     8   8   8   8   4   8
#     4  11  24  44  77 103 139 177 239 291 342 400
#     4  12  25  46  68 108 137 186 229 285 348 416
#     4  11  22  43  74 110 133 181 231 301 339 399
#     4  11  22  44  74 102 139 178 230 290 351 399
#     4  12  30  42  68 104 146 188 230 274 358 424
#     4  11  24  46  69 105 145 179 231 285 345 422
#
# _framework density 24.091752
#
# number of rings (size 3 to 8) (size 9 to 14) (size 15 to 20)
#    0.000    0.727    3.636    5.455    2.545    5.091 
#    0.000    0.909    0.000    0.000    0.000    0.000 
#    0.000    0.000    0.000    0.000    0.000    0.000 
#
# Total GULP energy -272802.351482 kJ/mol
# GULP energy per Si atom -12400.106886 kJ/mol
# Density = 2.403692 g / cm^3
# Si number density = 24.091752 Si / 1000 Ang^3
#
#
#
# Elastic Constant Matrix: (Units=GPa)
#
#
# Indices 1 2 3 4 5 6 
#
# 1 124.0584 32.3773 18.1444 0.0000 14.9707 0.0000
# 2 32.3773 97.6134 33.7144 0.0000 5.3371 0.0000
# 3 18.1444 33.7144 83.2616 0.0000 -24.1595 0.0000
# 4 0.0000 0.0000 0.0000 29.8134 0.0000 5.4753
# 5 14.9707 5.3371 -24.1595 0.0000 29.8743 0.0000
# 6 0.0000 0.0000 0.0000 5.4753 0.0000 18.3460
#
#
#
# Elastic Compliance Matrix: (Units=1/GPa)
#
#
# Indices 1 2 3 4 5 6 
#
# 1 0.009964 -0.001569 -0.003794 0.000000 -0.007781 0.000000
# 2 -0.001569 0.013767 -0.007471 0.000000 -0.007715 0.000000
# 3 -0.003794 -0.007471 0.021953 0.000000 0.020989 0.000000
# 4 0.000000 0.000000 0.000000 0.035487 0.000000 -0.010591
# 5 -0.007781 -0.007715 0.020989 0.000000 0.055725 0.000000
# 6 0.000000 0.000000 0.000000 -0.010591 0.000000 0.057669
#
#
# Mechanical properties :
#
#
# Convention : Reuss Voigt Hill
#
# Bulk Modulus (GPa) = 49.96154 52.60061 51.28108
# Shear Modulus (GPa) = 22.03560 30.31989 26.17774
#
# Velocity S-wave (km/s) = 3.02760 3.55141 3.29992
# Velocity P-wave (km/s) = 5.74499 6.22073 5.98759
#
# Compressibility (1/GPa) = 0.02001540
#
# Stress axis : x y z
#
# Youngs Moduli (GPa) = 100.36054 72.63536 45.55244
#
# Poissons Ratio (x) = 0.11398 0.17281
# Poissons Ratio (y) = 0.15749 0.34034
# Poissons Ratio (z) = 0.38073 0.54269
#
# Static dielectric constant tensor:
#      x y z
#    x 4.052970 0.000000 0.093220 
#    y 0.000000 4.227290 0.000000 
#    z 0.093220 0.000000 4.724210 
# 
# 
# High freq. dielectric constant tensor:
#      x y z
#    x 1.940040 0.000000 0.015120 
#    y 0.000000 1.946260 0.000000 
#    z 0.015120 0.000000 1.978280 
# 
# From -- ./inp_files/54377.got.cif
#   From: 2010.06.25/outbox.cif.g09.slc.cpg/sg15_28_cif.got.tgz:54377.got - 2010.06.28 07:06:18.
