data_PCOD8152111
_publ_section_title
;
Structure prediction by ZEFSAII (Michael W. Deem and Ramdas Pophale) SiO2 
 PCOD8152111
Probable space group: C 2/C
;
_chemical_formula_sum "Si O2"
_cell_formula_units_Z 40
_cell_length_a 28.966450
_cell_length_b 11.356604
_cell_length_c 12.448497
_cell_angle_alpha 90.000000
_cell_angle_beta 27.937885
_cell_angle_gamma 90.000000
_cell_volume 1918.595033
_symmetry_space_group_name_H-M "C 2/C"
_symmetry_group_IT_number 15
_symmetry_cell_setting 'monoclinic'
loop_
_space_group_symop_operation_xyz
x,y,z
-x,y,1/2-z
-x,-y,-z
x,-y,1/2+z
1/2+x,1/2+y,z
1/2-x,1/2+y,1/2-z
1/2-x,1/2-y,-z
1/2+x,1/2-y,1/2+z
loop_
_atom_site_type_symbol
_atom_site_label
_atom_site_fract_x
_atom_site_fract_y
_atom_site_fract_z
Si Si1 0.758892 0.571265 0.888208
Si Si2 0.752617 0.700455 0.375269
Si Si3 0.893418 0.663577 0.439543
Si Si4 0.403782 0.291305 0.889898
Si Si5 0.909948 0.554058 0.756529
O O1 0.768232 0.437251 0.833180
O O2 0.832259 0.655146 0.673752
O O3 0.804161 0.577135 0.915394
O O4 0.648268 0.621121 0.091372
O O5 0.750000 0.750000 0.500000
O O6 0.644413 0.730429 0.555546
O O7 0.830862 0.765987 0.138761
O O8 0.887411 0.537906 0.395205
O O9 0.000000 0.705486 0.250000
O O10 0.500000 0.348851 0.750000
O O11 0.441683 0.175635 0.747908
O O12 0.000000 0.500000 0.500000
#
# Coordination Sequence:
#
# PCOD8152111 Si02
#       5
#     8   8   8   8   8
#     4  11  23  41  63  93 129 169 211 270 324 383
#     4  11  23  41  65  91 128 172 215 259 327 386
#     4  11  22  37  62  95 122 161 216 268 311 384
#     4  11  25  42  63  95 133 169 217 269 323 385
#     4  12  21  38  69  93 124 164 223 269 321 374
#
# _framework density 20.848590000000002
#
# number of rings (size 3 to 8) (size 9 to 14) (size 15 to 20)
#    0.000    0.800    6.000    2.400    0.000    0.800 
#    0.000    1.000    0.000    0.000    0.000    0.000 
#    0.000    0.000    0.000    0.000    0.000    0.000 
#
# Total GULP energy -247816.162283 kJ/mol
# GULP energy per Si atom -12390.808114 kJ/mol
# Density = 2.080114 g / cm^3
# Si number density = 20.848590 Si / 1000 Ang^3
#
#
#
# Elastic Constant Matrix: (Units=GPa)
#
#
# Indices 1 2 3 4 5 6 
#
# 1 132.6741 13.6611 44.7202 0.0000 -39.6125 0.0000
# 2 13.6611 32.3342 9.3210 0.0000 -8.3652 0.0000
# 3 44.7202 9.3210 73.3506 0.0000 -16.1789 0.0000
# 4 0.0000 0.0000 0.0000 3.4973 0.0000 -13.0063
# 5 -39.6125 -8.3652 -16.1789 0.0000 47.3387 0.0000
# 6 0.0000 0.0000 0.0000 -13.0063 0.0000 37.5593
#
#
#
# Elastic Compliance Matrix: (Units=1/GPa)
#
#
# Indices 1 2 3 4 5 6 
#
# 1 0.011801 -0.001440 -0.005288 0.000000 0.007813 0.000000
# 2 -0.001440 0.033244 -0.002505 0.000000 0.003813 0.000000
# 3 -0.005288 -0.002505 0.017415 0.000000 0.001084 0.000000
# 4 0.000000 0.000000 0.000000 -0.993387 0.000000 -0.343997
# 5 0.007813 0.003813 0.001084 0.000000 0.028706 0.000000
# 6 0.000000 0.000000 0.000000 -0.343997 0.000000 -0.092497
#
#
# Mechanical properties :
#
#
# Convention : Reuss Voigt Hill
#
# Bulk Modulus (GPa) = 22.73138 41.52927 32.13032
# Shear Modulus (GPa) = -5.19974 29.05615 11.92820
#
# Velocity S-wave (km/s) = -1.58097 3.73724 2.39453
# Velocity P-wave (km/s) = 2.75574 6.21171 4.80518
#
# Compressibility (1/GPa) = 0.04399205
#
# Stress axis : x y z
#
# Youngs Moduli (GPa) = 84.74005 30.08044 57.42237
#
# Poissons Ratio (x) = 0.04332 0.30367
# Poissons Ratio (y) = 0.12203 0.14387
# Poissons Ratio (z) = 0.44814 0.07536
#
# Static dielectric constant tensor:
#      x y z
#    x 4.287160 0.000000 -0.224130 
#    y 0.000000 3.260090 0.000000 
#    z -0.224130 0.000000 3.754500 
# 
# 
# High freq. dielectric constant tensor:
#      x y z
#    x 1.844970 0.000000 -0.007640 
#    y 0.000000 1.801790 0.000000 
#    z -0.007640 0.000000 1.803350 
# 
# From -- ./inp_files/94485.got.cif
#   From: 2010.06.25/outbox.cif.g09.slc.cpg/sg15_48_cif.got.tgz:94485.got - 2010.06.28 07:06:18.
