data_PCOD8152857
_publ_section_title
;
Structure prediction by ZEFSAII (Michael W. Deem and Ramdas Pophale) SiO2 
 PCOD8152857
Probable space group: C 2/C
;
_chemical_formula_sum "Si O2"
_cell_formula_units_Z 56
_cell_length_a 13.075426
_cell_length_b 12.010163
_cell_length_c 18.753249
_cell_angle_alpha 90.000000
_cell_angle_beta 63.557871
_cell_angle_gamma 90.000000
_cell_volume 2636.883125
_symmetry_space_group_name_H-M "C 2/C"
_symmetry_group_IT_number 15
_symmetry_cell_setting 'monoclinic'
loop_
_space_group_symop_operation_xyz
x,y,z
-x,y,1/2-z
-x,-y,-z
x,-y,1/2+z
1/2+x,1/2+y,z
1/2-x,1/2+y,1/2-z
1/2-x,1/2-y,-z
1/2+x,1/2-y,1/2+z
loop_
_atom_site_type_symbol
_atom_site_label
_atom_site_fract_x
_atom_site_fract_y
_atom_site_fract_z
Si Si1 0.610856 0.575511 0.751251
Si Si2 0.142662 0.207982 0.492637
Si Si3 0.476337 0.503080 0.924411
Si Si4 0.437086 0.256210 0.888361
Si Si5 0.054209 0.621174 0.479028
Si Si6 0.286018 0.361353 0.828900
Si Si7 0.807817 0.247077 0.182537
O O1 0.500000 0.635718 0.750000
O O2 0.584593 0.539813 0.841334
O O3 0.629488 0.467300 0.695197
O O4 0.725156 0.647057 0.707366
O O5 0.250000 0.250000 0.500000
O O6 0.117925 0.099903 0.548603
O O7 0.175956 0.186829 0.399137
O O8 0.036826 0.293803 0.527072
O O9 0.428383 0.382762 0.919411
O O10 0.500000 0.500000 0.000000
O O11 0.348807 0.256814 0.849066
O O12 0.565888 0.221017 0.826978
O O13 0.399056 0.167325 0.959744
O O14 0.163780 0.608973 0.396815
O O15 0.000000 0.500000 0.500000
O O16 0.256463 0.337619 0.755526
#
# Coordination Sequence:
#
# PCOD8152857 Si02
#       7
#     8   8   8   8   8   8   8
#     4  12  23  41  68  96 130 180 222 279 343 397
#     4  11  24  44  67  98 133 178 223 278 337 407
#     4  12  21  41  69  98 133 174 237 275 326 412
#     4  11  23  43  67 100 131 182 230 273 338 411
#     4  11  25  43  64 100 139 177 219 278 344 397
#     4  12  22  43  66  96 133 175 226 274 331 410
#     4  11  23  39  64 100 133 163 225 286 331 389
#
# _framework density 21.237195
#
# number of rings (size 3 to 8) (size 9 to 14) (size 15 to 20)
#    0.000    0.571    5.714    4.286    2.000    0.000 
#    0.000    0.000    0.000    3.429    0.000    0.000 
#    0.000    0.000    0.000    0.000    0.000    0.000 
#
# Total GULP energy -346967.285122 kJ/mol
# GULP energy per Si atom -12391.688754 kJ/mol
# Density = 2.118886 g / cm^3
# Si number density = 21.237195 Si / 1000 Ang^3
#
#
#
# Elastic Constant Matrix: (Units=GPa)
#
#
# Indices 1 2 3 4 5 6 
#
# 1 120.1995 34.1989 49.0145 0.0000 -10.2128 0.0000
# 2 34.1989 110.8370 47.0091 0.0000 -7.2132 0.0000
# 3 49.0145 47.0091 158.9087 0.0000 -21.9243 0.0000
# 4 0.0000 0.0000 0.0000 31.5013 0.0000 -6.1377
# 5 -10.2128 -7.2132 -21.9243 0.0000 30.6116 0.0000
# 6 0.0000 0.0000 0.0000 -6.1377 0.0000 31.3090
#
#
#
# Elastic Compliance Matrix: (Units=1/GPa)
#
#
# Indices 1 2 3 4 5 6 
#
# 1 0.009932 -0.002010 -0.002305 0.000000 0.001189 0.000000
# 2 -0.002010 0.010725 -0.002549 0.000000 0.000031 0.000000
# 3 -0.002305 -0.002549 0.008399 0.000000 0.004646 0.000000
# 4 0.000000 0.000000 0.000000 0.033005 0.000000 0.006470
# 5 0.001189 0.000031 0.004646 0.000000 0.036399 0.000000
# 6 0.000000 0.000000 0.000000 0.006470 0.000000 0.033208
#
#
# Mechanical properties :
#
#
# Convention : Reuss Voigt Hill
#
# Bulk Modulus (GPa) = 65.23183 72.26559 68.74871
# Shear Modulus (GPa) = 33.22149 35.99923 34.61036
#
# Velocity S-wave (km/s) = 3.95942 4.12163 4.04134
# Velocity P-wave (km/s) = 7.18924 7.53340 7.36333
#
# Compressibility (1/GPa) = 0.01532994
#
# Stress axis : x y z
#
# Youngs Moduli (GPa) = 100.68233 93.23738 119.06493
#
# Poissons Ratio (x) = 0.18737 0.27444
# Poissons Ratio (y) = 0.20233 0.30345
# Poissons Ratio (z) = 0.23207 0.23763
#
# Static dielectric constant tensor:
#      x y z
#    x 3.825120 0.000000 -0.073200 
#    y 0.000000 3.513110 0.000000 
#    z -0.073200 0.000000 3.889230 
# 
# 
# High freq. dielectric constant tensor:
#      x y z
#    x 1.830230 0.000000 -0.002480 
#    y 0.000000 1.816950 0.000000 
#    z -0.002480 0.000000 1.857890 
# 
# From -- ./inp_files/204372.got.cif
#   From: 2010.06.25/outbox.cif.g09.slc.cpg/sg15_103_cif.got.tgz:204372.got - 2010.06.28 07:06:18.
