data_PCOD8152798
_publ_section_title
;
Structure prediction by ZEFSAII (Michael W. Deem and Ramdas Pophale) SiO2 
 PCOD8152798
Probable space group: C 2/C
;
_chemical_formula_sum "Si O2"
_cell_formula_units_Z 64
_cell_length_a 14.986741
_cell_length_b 17.179284
_cell_length_c 14.874551
_cell_angle_alpha 90.000000
_cell_angle_beta 44.685064
_cell_angle_gamma 90.000000
_cell_volume 2693.027480
_symmetry_space_group_name_H-M "C 2/C"
_symmetry_group_IT_number 15
_symmetry_cell_setting 'monoclinic'
loop_
_space_group_symop_operation_xyz
x,y,z
-x,y,1/2-z
-x,-y,-z
x,-y,1/2+z
1/2+x,1/2+y,z
1/2-x,1/2+y,1/2-z
1/2-x,1/2-y,-z
1/2+x,1/2-y,1/2+z
loop_
_atom_site_type_symbol
_atom_site_label
_atom_site_fract_x
_atom_site_fract_y
_atom_site_fract_z
Si Si1 0.532544 0.712408 0.124825
Si Si2 0.967203 0.266409 0.676614
Si Si3 0.181726 0.550367 0.403752
Si Si4 0.705942 0.669129 0.310033
Si Si5 0.023053 0.663095 0.948590
Si Si6 0.967551 0.898234 0.423655
Si Si7 0.826538 0.952394 0.981602
Si Si8 0.749316 0.581410 0.778590
O O1 0.500000 0.732026 0.250000
O O2 0.411055 0.717982 0.143706
O O3 0.586333 0.789251 0.035061
O O4 0.608341 0.632936 0.064154
O O5 0.816623 0.275301 0.768655
O O6 0.039363 0.305805 0.540063
O O7 0.014747 0.176850 0.652865
O O8 0.000000 0.306017 0.750000
O O9 0.255064 0.619929 0.303459
O O10 0.033825 0.575171 0.509095
O O11 0.234355 0.536927 0.464972
O O12 0.205584 0.471991 0.334364
O O13 0.653637 0.612586 0.425083
O O14 0.161243 0.656959 0.799384
O O15 0.098532 0.902585 0.384427
O O16 0.936052 0.980389 0.396714
O O17 0.735183 0.957396 0.134173
#
# Coordination Sequence:
#
# PCOD8152798 Si02
#       8
#     8   8   8   8   8   8   8   8
#     4  12  24  43  74 107 149 190 241 302 370 430
#     4  11  27  47  73 104 146 194 239 296 370 437
#     4  11  26  46  71 106 147 191 243 302 360 434
#     4  11  22  48  70 105 150 186 242 306 360 430
#     4  11  27  50  69 105 151 193 240 300 366 442
#     4  12  25  45  74 104 146 190 244 307 355 429
#     4  12  26  43  72 111 139 192 247 296 366 430
#     4  12  25  46  74 104 145 192 241 302 365 429
#
# _framework density 23.765073999999998
#
# number of rings (size 3 to 8) (size 9 to 14) (size 15 to 20)
#    0.000    0.500    5.000    2.250    3.500    3.000 
#    0.000    0.000    0.000    0.000    0.000    0.000 
#    0.000    0.000    0.000    0.000    0.000    0.000 
#
# Total GULP energy -396437.296581 kJ/mol
# GULP energy per Si atom -12388.665518 kJ/mol
# Density = 2.371098 g / cm^3
# Si number density = 23.765074 Si / 1000 Ang^3
#
#
#
# Elastic Constant Matrix: (Units=GPa)
#
#
# Indices 1 2 3 4 5 6 
#
# 1 107.7867 29.5035 59.9054 0.0000 32.3014 0.0000
# 2 29.5035 94.2892 33.1822 0.0000 5.8378 0.0000
# 3 59.9054 33.1822 123.9595 0.0000 13.0349 0.0000
# 4 0.0000 0.0000 0.0000 13.4638 0.0000 -4.8349
# 5 32.3014 5.8378 13.0349 0.0000 46.3939 0.0000
# 6 0.0000 0.0000 0.0000 -4.8349 0.0000 24.1630
#
#
#
# Elastic Compliance Matrix: (Units=1/GPa)
#
#
# Indices 1 2 3 4 5 6 
#
# 1 0.016103 -0.002287 -0.006205 0.000000 -0.009181 0.000000
# 2 -0.002287 0.012050 -0.002193 0.000000 0.000692 0.000000
# 3 -0.006205 -0.002193 0.011509 0.000000 0.001362 0.000000
# 4 0.000000 0.000000 0.000000 0.080024 0.000000 0.016012
# 5 -0.009181 0.000692 0.001362 0.000000 0.027477 0.000000
# 6 0.000000 0.000000 0.000000 0.016012 0.000000 0.044590
#
#
# Mechanical properties :
#
#
# Convention : Reuss Voigt Hill
#
# Bulk Modulus (GPa) = 54.66428 63.46860 59.06644
# Shear Modulus (GPa) = 22.80815 30.36709 26.58762
#
# Velocity S-wave (km/s) = 3.10132 3.57852 3.34843
# Velocity P-wave (km/s) = 5.98967 6.62110 6.31328
#
# Compressibility (1/GPa) = 0.01829348
#
# Stress axis : x y z
#
# Youngs Moduli (GPa) = 62.09971 82.98587 86.88483
#
# Poissons Ratio (x) = 0.18977 0.53908
# Poissons Ratio (y) = 0.14201 0.19057
# Poissons Ratio (z) = 0.38530 0.18201
#
# Static dielectric constant tensor:
#      x y z
#    x 4.147850 0.000000 -0.018510 
#    y 0.000000 4.582910 0.000000 
#    z -0.018510 0.000000 4.555160 
# 
# 
# High freq. dielectric constant tensor:
#      x y z
#    x 1.928590 0.000000 0.008950 
#    y 0.000000 1.959330 0.000000 
#    z 0.008950 0.000000 1.952090 
# 
# From -- ./inp_files/155491.got.cif
#   From: 2010.06.25/outbox.cif.g09.slc.cpg/sg15_78_cif.got.tgz:155491.got - 2010.06.28 07:06:18.
