data_PCOD8152402
_publ_section_title
;
Structure prediction by ZEFSAII (Michael W. Deem and Ramdas Pophale) SiO2 
 PCOD8152402
Probable space group: C 2/C
;
_chemical_formula_sum "Si O2"
_cell_formula_units_Z 48
_cell_length_a 10.707486
_cell_length_b 24.168823
_cell_length_c 13.548665
_cell_angle_alpha 90.000000
_cell_angle_beta 141.839066
_cell_angle_gamma 90.000000
_cell_volume 2166.398461
_symmetry_space_group_name_H-M "C 2/C"
_symmetry_group_IT_number 15
_symmetry_cell_setting 'monoclinic'
loop_
_space_group_symop_operation_xyz
x,y,z
-x,y,1/2-z
-x,-y,-z
x,-y,1/2+z
1/2+x,1/2+y,z
1/2-x,1/2+y,1/2-z
1/2-x,1/2-y,-z
1/2+x,1/2-y,1/2+z
loop_
_atom_site_type_symbol
_atom_site_label
_atom_site_fract_x
_atom_site_fract_y
_atom_site_fract_z
Si Si1 0.359797 0.418855 0.754647
Si Si2 0.202985 0.380256 0.930718
Si Si3 0.924529 0.605922 0.929891
Si Si4 0.866906 0.292824 0.261726
Si Si5 0.083734 0.812796 0.578912
Si Si6 0.546104 0.537297 0.663876
O O1 0.500000 0.404689 0.750000
O O2 0.359350 0.366641 0.824174
O O3 0.437073 0.473511 0.862553
O O4 0.130162 0.428459 0.573345
O O5 0.290178 0.321432 0.944402
O O6 0.000000 0.398445 0.750000
O O7 0.168276 0.371852 0.025080
O O8 0.363200 0.428547 0.002249
O O9 0.971013 0.657956 0.887799
O O10 0.759436 0.567101 0.774785
O O11 0.838876 0.240547 0.315289
O O12 0.000000 0.276367 0.250000
O O13 0.651622 0.311158 0.088237
O O14 0.500000 0.532661 0.750000
#
# Coordination Sequence:
#
# PCOD8152402 Si02
#       6
#     8   8   8   8   8   8
#     4  11  22  41  67  99 136 181 226 271 339 403
#     4  11  23  45  67  99 138 178 227 278 340 392
#     4  11  22  44  69  98 139 177 221 282 336 401
#     4  12  26  46  70 100 138 177 226 284 338 401
#     4  12  25  44  67  99 137 180 228 280 336 404
#     4   9  21  41  68  99 135 177 223 280 333 399
#
# _framework density 22.156587999999999
#
# number of rings (size 3 to 8) (size 9 to 14) (size 15 to 20)
#    0.000    1.000    3.333    3.500    0.000    1.333 
#    0.000    0.833    0.000    0.000    0.000    0.000 
#    0.000    0.000    0.000    0.000    0.000    0.000 
#
# Total GULP energy -297651.151340 kJ/mol
# GULP energy per Si atom -12402.131306 kJ/mol
# Density = 2.210616 g / cm^3
# Si number density = 22.156588 Si / 1000 Ang^3
#
#
#
# Elastic Constant Matrix: (Units=GPa)
#
#
# Indices 1 2 3 4 5 6 
#
# 1 82.5370 6.4095 -1.1357 0.0000 17.6440 0.0000
# 2 6.4095 108.4698 16.7843 0.0000 6.7365 0.0000
# 3 -1.1357 16.7843 114.5813 0.0000 37.6097 0.0000
# 4 0.0000 0.0000 0.0000 16.1147 0.0000 -0.5281
# 5 17.6440 6.7365 37.6097 0.0000 37.7077 0.0000
# 6 0.0000 0.0000 0.0000 -0.5281 0.0000 21.2811
#
#
#
# Elastic Compliance Matrix: (Units=1/GPa)
#
#
# Indices 1 2 3 4 5 6 
#
# 1 0.014405 -0.000776 0.003603 0.000000 -0.010195 0.000000
# 2 -0.000776 0.009480 -0.001427 0.000000 0.000092 0.000000
# 3 0.003603 -0.001427 0.014037 0.000000 -0.015432 0.000000
# 4 0.000000 0.000000 0.000000 0.062105 0.000000 0.001541
# 5 -0.010195 0.000092 -0.015432 0.000000 0.046666 0.000000
# 6 0.000000 0.000000 0.000000 0.001541 0.000000 0.047028
#
#
# Mechanical properties :
#
#
# Convention : Reuss Voigt Hill
#
# Bulk Modulus (GPa) = 24.55563 38.85602 31.70583
# Shear Modulus (GPa) = 24.45047 33.92272 29.18660
#
# Velocity S-wave (km/s) = 3.32555 3.91710 3.63338
# Velocity P-wave (km/s) = 5.08454 6.16712 5.65181
#
# Compressibility (1/GPa) = 0.04072386
#
# Stress axis : x y z
#
# Youngs Moduli (GPa) = 69.42021 105.48522 71.23825
#
# Poissons Ratio (x) = 0.08181 -0.25666
# Poissons Ratio (y) = 0.05384 0.10163
# Poissons Ratio (z) = -0.25011 0.15049
#
# Static dielectric constant tensor:
#      x y z
#    x 4.216350 0.000000 0.013810 
#    y 0.000000 4.154300 0.000000 
#    z 0.013810 0.000000 4.099100 
# 
# 
# High freq. dielectric constant tensor:
#      x y z
#    x 1.880770 0.000000 0.004530 
#    y 0.000000 1.869080 0.000000 
#    z 0.004530 0.000000 1.881890 
# 
# From -- ./inp_files/148849.got.cif
#   From: 2010.06.25/outbox.cif.g09.slc.cpg/sg15_75_cif.got.tgz:148849.got - 2010.06.28 07:06:18.
