data_PCOD8152941
_publ_section_title
;
Structure prediction by ZEFSAII (Michael W. Deem and Ramdas Pophale) SiO2 
 PCOD8152941
Probable space group: C 2/C
;
_chemical_formula_sum "Si O2"
_cell_formula_units_Z 48
_cell_length_a 21.161368
_cell_length_b 17.455701
_cell_length_c 17.515897
_cell_angle_alpha 90.000000
_cell_angle_beta 19.353614
_cell_angle_gamma 90.000000
_cell_volume 2144.186290
_symmetry_space_group_name_H-M "C 2/C"
_symmetry_group_IT_number 15
_symmetry_cell_setting 'monoclinic'
loop_
_space_group_symop_operation_xyz
x,y,z
-x,y,1/2-z
-x,-y,-z
x,-y,1/2+z
1/2+x,1/2+y,z
1/2-x,1/2+y,1/2-z
1/2-x,1/2-y,-z
1/2+x,1/2-y,1/2+z
loop_
_atom_site_type_symbol
_atom_site_label
_atom_site_fract_x
_atom_site_fract_y
_atom_site_fract_z
Si Si1 0.630574 0.924859 0.041488
Si Si2 0.577476 0.154010 0.314308
Si Si3 0.825114 0.826475 0.294516
Si Si4 0.079123 0.425092 0.373001
Si Si5 0.015082 0.083666 0.021336
Si Si6 0.307211 0.443204 0.440777
O O1 0.827166 0.891501 0.783781
O O2 0.681779 0.003187 0.028478
O O3 0.500000 0.874517 0.250000
O O4 0.473542 0.933338 0.154705
O O5 0.384991 0.147886 0.486615
O O6 0.675202 0.235846 0.193201
O O7 0.534018 0.142875 0.454069
O O8 0.701019 0.085067 0.138266
O O9 0.969148 0.853312 0.063404
O O10 0.876985 0.868416 0.314007
O O11 0.306363 0.415124 0.124534
O O12 0.000000 0.500000 0.500000
O O13 0.000000 0.000000 0.000000
O O14 0.500000 0.485970 0.250000
#
# Coordination Sequence:
#
# PCOD8152941 Si02
#       6
#     8   8   8   8   8   8
#     4  12  26  40  66  96 131 172 225 277 331 382
#     4  11  25  41  65  97 134 176 221 266 339 400
#     4  11  23  42  64  96 134 180 216 269 330 407
#     4  11  23  41  65  93 133 171 223 279 325 394
#     4  11  23  41  66  97 129 175 225 269 330 393
#     4  12  25  39  61  98 142 178 215 269 334 405
#
# _framework density 22.386113999999999
#
# number of rings (size 3 to 8) (size 9 to 14) (size 15 to 20)
#    0.000    0.667    3.333    5.000    9.333    0.000 
#    0.000    0.000    0.000    1.000    0.000    0.000 
#    0.000    0.000    0.000    0.000    0.000    0.000 
#
# Total GULP energy -297390.453192 kJ/mol
# GULP energy per Si atom -12391.268883 kJ/mol
# Density = 2.233516 g / cm^3
# Si number density = 22.386114 Si / 1000 Ang^3
#
#
#
# Elastic Constant Matrix: (Units=GPa)
#
#
# Indices 1 2 3 4 5 6 
#
# 1 140.9264 9.0008 53.2106 0.0072 -2.9901 -0.0118
# 2 9.0008 32.0013 -2.7464 0.0924 -1.8618 -0.0462
# 3 53.2106 -2.7464 162.9501 -0.0050 9.5484 -0.0146
# 4 0.0072 0.0924 -0.0050 16.6552 0.0006 -3.0885
# 5 -2.9901 -1.8618 9.5484 0.0006 36.8474 -0.0114
# 6 -0.0118 -0.0462 -0.0146 -3.0885 -0.0114 25.2286
#
#
#
# Elastic Compliance Matrix: (Units=1/GPa)
#
#
# Indices 1 2 3 4 5 6 
#
# 1 0.008359 -0.002521 -0.002848 0.000009 0.001289 -0.000001
# 2 -0.002521 0.032133 0.001301 -0.000170 0.001082 0.000038
# 3 -0.002848 0.001301 0.007208 -0.000003 -0.002033 0.000004
# 4 0.000009 -0.000170 -0.000003 0.061437 -0.000006 0.007521
# 5 0.001289 0.001082 -0.002033 -0.000006 0.027825 0.000013
# 6 -0.000001 0.000038 0.000004 0.007521 0.000013 0.040558
#
#
# Mechanical properties :
#
#
# Convention : Reuss Voigt Hill
#
# Bulk Modulus (GPa) = 25.27425 50.53418 37.90421
# Shear Modulus (GPa) = 25.14542 34.17376 29.65959
#
# Velocity S-wave (km/s) = 3.35514 3.91136 3.64388
# Velocity P-wave (km/s) = 5.13069 6.55906 5.88834
#
# Compressibility (1/GPa) = 0.03956597
#
# Stress axis : x y z
#
# Youngs Moduli (GPa) = 119.62446 31.12075 138.73776
#
# Poissons Ratio (x) = 0.07844 0.39509
# Poissons Ratio (y) = 0.30153 -0.18054
# Poissons Ratio (z) = 0.34066 -0.04050
#
# Static dielectric constant tensor:
#      x y z
#    x 3.931610 -0.000450 -0.047110 
#    y -0.000450 4.122270 -0.000040 
#    z -0.047110 -0.000040 4.343250 
# 
# 
# High freq. dielectric constant tensor:
#      x y z
#    x 1.897830 -0.000010 -0.001950 
#    y -0.000010 1.827620 0.000020 
#    z -0.001950 0.000020 1.908220 
# 
# From -- ./inp_files/216261.got.cif
#   From: 2010.06.25/outbox.cif.g09.slc.cpg/sg15_109_cif.got.tgz:216261.got - 2010.06.28 07:06:18.
