data_PCOD8152246
_publ_section_title
;
Structure prediction by ZEFSAII (Michael W. Deem and Ramdas Pophale) SiO2 
 PCOD8152246
Probable space group: C 2/C
;
_chemical_formula_sum "Si O2"
_cell_formula_units_Z 64
_cell_length_a 29.153186
_cell_length_b 17.526491
_cell_length_c 9.263798
_cell_angle_alpha 90.000000
_cell_angle_beta 37.918803
_cell_angle_gamma 90.000000
_cell_volume 2908.862178
_symmetry_space_group_name_H-M "C 2/C"
_symmetry_group_IT_number 15
_symmetry_cell_setting 'monoclinic'
loop_
_space_group_symop_operation_xyz
x,y,z
-x,y,1/2-z
-x,-y,-z
x,-y,1/2+z
1/2+x,1/2+y,z
1/2-x,1/2+y,1/2-z
1/2-x,1/2-y,-z
1/2+x,1/2-y,1/2+z
loop_
_atom_site_type_symbol
_atom_site_label
_atom_site_fract_x
_atom_site_fract_y
_atom_site_fract_z
Si Si1 0.267792 0.087397 0.784352
Si Si2 0.568212 0.078675 0.497256
Si Si3 0.834550 0.162622 0.863069
Si Si4 0.170221 0.706597 0.336749
Si Si5 0.700531 0.496493 0.195285
Si Si6 0.412319 0.627745 0.955355
Si Si7 0.069474 0.580195 0.157476
Si Si8 0.322411 0.279354 0.902218
O O1 0.251011 0.024345 0.706155
O O2 0.351275 0.123149 0.559544
O O3 0.207126 0.153959 0.917453
O O4 0.258253 0.047933 0.962607
O O5 0.640982 0.129610 0.336566
O O6 0.550533 0.067459 0.372170
O O7 0.581020 0.999206 0.545797
O O8 0.500000 0.120569 0.750000
O O9 0.861730 0.221069 0.672661
O O10 0.827410 0.077427 0.819928
O O11 0.895285 0.160814 0.839478
O O12 0.759051 0.197930 0.115016
O O13 0.145288 0.715881 0.567123
O O14 0.629128 0.546978 0.417833
O O15 0.500000 0.613144 0.750000
O O16 0.386591 0.690495 0.137030
O O17 0.000000 0.623629 0.250000
O O18 0.250000 0.250000 0.000000
#
# Coordination Sequence:
#
# PCOD8152246 Si02
#       8
#     8   8   8   8   8   8   8   8
#     4  11  22  39  68  99 122 173 226 270 331 392
#     4  11  25  41  62  96 133 173 218 269 340 396
#     4  11  22  43  67  96 134 174 217 273 334 393
#     4  11  24  42  70  95 131 173 226 274 326 408
#     4  11  22  41  68  98 129 170 225 278 327 399
#     4  11  26  45  68 102 135 176 229 284 340 397
#     4  11  23  41  64  96 133 170 217 280 331 394
#     4  11  24  43  67  96 133 174 225 273 333 404
#
# _framework density 22.001729999999998
#
# number of rings (size 3 to 8) (size 9 to 14) (size 15 to 20)
#    0.000    1.000    3.750    3.750    1.750    3.500 
#    0.000    1.875    0.000    0.750    0.000    0.000 
#    0.000    0.000    0.000    0.000    0.000    0.000 
#
# Total GULP energy -396761.679036 kJ/mol
# GULP energy per Si atom -12398.802470 kJ/mol
# Density = 2.195165 g / cm^3
# Si number density = 22.001730 Si / 1000 Ang^3
#
#
#
# Elastic Constant Matrix: (Units=GPa)
#
#
# Indices 1 2 3 4 5 6 
#
# 1 141.1271 17.1072 57.2209 0.0000 8.3318 0.0000
# 2 17.1072 37.1511 2.2831 0.0000 6.4401 0.0000
# 3 57.2209 2.2831 104.2184 0.0000 -1.0901 0.0000
# 4 0.0000 0.0000 0.0000 21.2783 0.0000 2.1734
# 5 8.3318 6.4401 -1.0901 0.0000 44.3301 0.0000
# 6 0.0000 0.0000 0.0000 2.1734 0.0000 26.4048
#
#
#
# Elastic Compliance Matrix: (Units=1/GPa)
#
#
# Indices 1 2 3 4 5 6 
#
# 1 0.009799 -0.003943 -0.005308 0.000000 -0.001399 0.000000
# 2 -0.003943 0.029243 0.001488 0.000000 -0.003471 0.000000
# 3 -0.005308 0.001488 0.012488 0.000000 0.001089 0.000000
# 4 0.000000 0.000000 0.000000 0.047395 0.000000 -0.003901
# 5 -0.001399 -0.003471 0.001089 0.000000 0.023352 0.000000
# 6 0.000000 0.000000 0.000000 -0.003901 0.000000 0.038193
#
#
# Mechanical properties :
#
#
# Convention : Reuss Voigt Hill
#
# Bulk Modulus (GPa) = 27.77506 48.41324 38.09415
# Shear Modulus (GPa) = 26.59606 32.12834 29.36220
#
# Velocity S-wave (km/s) = 3.48058 3.82549 3.65710
# Velocity P-wave (km/s) = 5.36693 6.44705 5.93163
#
# Compressibility (1/GPa) = 0.03600352
#
# Stress axis : x y z
#
# Youngs Moduli (GPa) = 102.05477 34.19615 80.07387
#
# Poissons Ratio (x) = 0.13485 0.42505
# Poissons Ratio (y) = 0.40243 -0.11916
# Poissons Ratio (z) = 0.54173 -0.05089
#
# Static dielectric constant tensor:
#      x y z
#    x 4.084040 0.000000 0.055880 
#    y 0.000000 4.095520 0.000000 
#    z 0.055880 0.000000 4.198620 
# 
# 
# High freq. dielectric constant tensor:
#      x y z
#    x 1.873060 0.000000 0.020170 
#    y 0.000000 1.860910 0.000000 
#    z 0.020170 0.000000 1.863080 
# 
# From -- ./inp_files/70568.got.cif
#   From: 2010.06.25/outbox.cif.g09.slc.cpg/sg15_36_cif.got.tgz:70568.got - 2010.06.28 07:06:18.
