data_PCOD8152641
_publ_section_title
;
Structure prediction by ZEFSAII (Michael W. Deem and Ramdas Pophale) SiO2 
 PCOD8152641
Probable space group: C 2/C
;
_chemical_formula_sum "Si O2"
_cell_formula_units_Z 48
_cell_length_a 28.770240
_cell_length_b 8.679515
_cell_length_c 16.976524
_cell_angle_alpha 90.000000
_cell_angle_beta 29.589400
_cell_angle_gamma 90.000000
_cell_volume 2093.254758
_symmetry_space_group_name_H-M "C 2/C"
_symmetry_group_IT_number 15
_symmetry_cell_setting 'monoclinic'
loop_
_space_group_symop_operation_xyz
x,y,z
-x,y,1/2-z
-x,-y,-z
x,-y,1/2+z
1/2+x,1/2+y,z
1/2-x,1/2+y,1/2-z
1/2-x,1/2-y,-z
1/2+x,1/2-y,1/2+z
loop_
_atom_site_type_symbol
_atom_site_label
_atom_site_fract_x
_atom_site_fract_y
_atom_site_fract_z
Si Si1 0.069919 0.061589 0.719634
Si Si2 0.565810 0.959061 0.078762
Si Si3 0.558944 0.842286 0.842728
Si Si4 0.256550 0.860994 0.205138
Si Si5 0.745793 0.035971 0.140943
Si Si6 0.448762 0.664973 0.494953
O O1 0.000000 0.075309 0.750000
O O2 0.027892 0.952570 0.849645
O O3 0.086502 0.229360 0.731041
O O4 0.169654 0.996632 0.543219
O O5 0.500000 0.974803 0.250000
O O6 0.521029 0.041375 0.068385
O O7 0.577893 0.781502 0.036934
O O8 0.665928 0.034609 0.953900
O O9 0.652365 0.934485 0.728731
O O10 0.513281 0.750369 0.983354
O O11 0.271649 0.682880 0.158480
O O12 0.151077 0.916311 0.336053
O O13 0.270078 0.889037 0.279027
#
# Coordination Sequence:
#
# PCOD8152641 Si02
#       6
#     8   8   8   8   8   8
#     4  12  23  43  69 103 133 177 230 277 332 401
#     4  12  25  44  70 100 136 180 227 278 336 399
#     4  11  24  44  65 101 137 183 218 281 336 400
#     4  11  22  44  66  99 133 182 220 281 334 403
#     4  11  24  42  70  98 138 175 230 277 337 405
#     4  11  25  44  70  98 137 177 231 275 337 398
#
# _framework density 22.930796999999998
#
# number of rings (size 3 to 8) (size 9 to 14) (size 15 to 20)
#    0.000    0.667    5.000    4.500    0.000    1.333 
#    0.000    2.500    0.000    0.000    0.000    0.000 
#    0.000    0.000    0.000    0.000    0.000    0.000 
#
# Total GULP energy -297638.528257 kJ/mol
# GULP energy per Si atom -12401.605344 kJ/mol
# Density = 2.287860 g / cm^3
# Si number density = 22.930797 Si / 1000 Ang^3
#
#
#
# Elastic Constant Matrix: (Units=GPa)
#
#
# Indices 1 2 3 4 5 6 
#
# 1 69.3241 22.3342 16.9673 -0.0008 -3.7822 -0.0006
# 2 22.3342 60.1195 27.6115 0.0000 -14.5863 -0.0033
# 3 16.9673 27.6115 160.1567 0.0006 -1.1034 -0.0038
# 4 -0.0008 0.0000 0.0006 34.2250 -0.0002 6.2748
# 5 -3.7822 -14.5863 -1.1034 -0.0002 29.0642 0.0005
# 6 -0.0006 -0.0033 -0.0038 6.2748 0.0005 29.4794
#
#
#
# Elastic Compliance Matrix: (Units=1/GPa)
#
#
# Indices 1 2 3 4 5 6 
#
# 1 0.016489 -0.006015 -0.000716 0.000000 -0.000900 0.000000
# 2 -0.006015 0.022930 -0.003243 0.000000 0.010602 0.000002
# 3 -0.000716 -0.003243 0.006869 0.000000 -0.001460 0.000001
# 4 0.000000 0.000000 0.000000 0.030405 0.000000 -0.006472
# 5 -0.000900 0.010602 -0.001460 0.000000 0.039555 0.000000
# 6 0.000000 0.000002 0.000001 -0.006472 0.000000 0.035300
#
#
# Mechanical properties :
#
#
# Convention : Reuss Voigt Hill
#
# Bulk Modulus (GPa) = 37.96594 47.04737 42.50665
# Shear Modulus (GPa) = 27.73544 33.39954 30.56749
#
# Velocity S-wave (km/s) = 3.48160 3.82060 3.65503
# Velocity P-wave (km/s) = 5.72318 6.32648 6.03237
#
# Compressibility (1/GPa) = 0.02633940
#
# Stress axis : x y z
#
# Youngs Moduli (GPa) = 60.64632 43.61142 145.58659
#
# Poissons Ratio (x) = 0.26233 0.10425
# Poissons Ratio (y) = 0.36480 0.47212
# Poissons Ratio (z) = 0.04343 0.14143
#
# Static dielectric constant tensor:
#      x y z
#    x 4.050290 0.000000 0.079450 
#    y 0.000000 4.113670 0.000000 
#    z 0.079450 0.000000 4.431120 
# 
# 
# High freq. dielectric constant tensor:
#      x y z
#    x 1.897700 0.000000 0.003270 
#    y 0.000000 1.894580 0.000000 
#    z 0.003270 0.000000 1.925180 
# 
# From -- ./inp_files/224544.got.cif
#   From: 2010.06.25/outbox.cif.g09.slc.cpg/sg15_113_cif.got.tgz:224544.got - 2010.06.28 07:06:18.
