data_PCOD8152950
_publ_section_title
;
Structure prediction by ZEFSAII (Michael W. Deem and Ramdas Pophale) SiO2 
 PCOD8152950
Probable space group: C 2/C
;
_chemical_formula_sum "Si O2"
_cell_formula_units_Z 52
_cell_length_a 15.303049
_cell_length_b 15.199640
_cell_length_c 15.126927
_cell_angle_alpha 90.000000
_cell_angle_beta 45.817111
_cell_angle_gamma 90.000000
_cell_volume 2523.208142
_symmetry_space_group_name_H-M "C 2/C"
_symmetry_group_IT_number 15
_symmetry_cell_setting 'monoclinic'
loop_
_space_group_symop_operation_xyz
x,y,z
-x,y,1/2-z
-x,-y,-z
x,-y,1/2+z
1/2+x,1/2+y,z
1/2-x,1/2+y,1/2-z
1/2-x,1/2-y,-z
1/2+x,1/2-y,1/2+z
loop_
_atom_site_type_symbol
_atom_site_label
_atom_site_fract_x
_atom_site_fract_y
_atom_site_fract_z
Si Si1 0.130801 0.385254 0.845789
Si Si2 0.984791 0.295849 0.093716
Si Si3 0.709592 0.714688 0.395308
Si Si4 0.213253 0.040950 0.122852
Si Si5 0.473448 0.022783 0.867624
Si Si6 0.000000 0.823072 0.750000
Si Si7 0.129566 0.854004 0.127927
O O1 0.179365 0.340542 0.723034
O O2 0.235343 0.448567 0.813402
O O3 0.012018 0.442653 0.904459
O O4 0.091693 0.311531 0.945644
O O5 0.872790 0.247508 0.126660
O O6 0.948921 0.390899 0.159682
O O7 0.026619 0.234977 0.144735
O O8 0.758915 0.799486 0.411163
O O9 0.637064 0.652294 0.515715
O O10 0.122115 0.120528 0.170039
O O11 0.139156 0.951963 0.159294
O O12 0.329688 0.042972 0.975693
O O13 0.500000 0.993905 0.750000
O O14 0.000000 0.815044 0.250000
#
# Coordination Sequence:
#
# PCOD8152950 Si02
#       7
#     8   8   8   8   8   4   8
#     4  11  23  41  68  96 132 176 220 282 328 393
#     4  11  23  42  64  96 131 172 222 275 331 392
#     4  11  23  41  66  98 132 169 227 271 330 401
#     4  11  23  43  64  93 137 172 220 275 331 393
#     4  11  23  41  69 100 132 176 224 274 336 395
#     4  12  24  44  68  96 136 178 222 276 336 402
#     4  11  23  41  66  94 132 177 213 273 334 395
#
# _framework density 20.608684
#
# number of rings (size 3 to 8) (size 9 to 14) (size 15 to 20)
#    0.000    0.923    3.077    5.538    0.000    6.769 
#    0.000    6.154    0.000    0.000    0.000    0.000 
#    0.000    0.000    0.000    0.000    0.000    0.000 
#
# Total GULP energy -322405.053908 kJ/mol
# GULP energy per Si atom -12400.194381 kJ/mol
# Density = 2.056178 g / cm^3
# Si number density = 20.608684 Si / 1000 Ang^3
#
#
#
# Elastic Constant Matrix: (Units=GPa)
#
#
# Indices 1 2 3 4 5 6 
#
# 1 101.0608 38.8056 46.5220 0.0000 4.1741 0.0000
# 2 38.8056 96.8127 44.7537 0.0000 5.2772 0.0000
# 3 46.5220 44.7537 131.8323 0.0000 10.2360 0.0000
# 4 0.0000 0.0000 0.0000 29.8582 0.0000 -3.5483
# 5 4.1741 5.2772 10.2360 0.0000 35.1772 0.0000
# 6 0.0000 0.0000 0.0000 -3.5483 0.0000 32.9965
#
#
#
# Elastic Compliance Matrix: (Units=1/GPa)
#
#
# Indices 1 2 3 4 5 6 
#
# 1 0.012795 -0.003607 -0.003289 0.000000 -0.000020 0.000000
# 2 -0.003607 0.013283 -0.003187 0.000000 -0.000637 0.000000
# 3 -0.003289 -0.003187 0.009986 0.000000 -0.002037 0.000000
# 4 0.000000 0.000000 0.000000 0.033925 0.000000 0.003648
# 5 -0.000020 -0.000637 -0.002037 0.000000 0.029118 0.000000
# 6 0.000000 0.000000 0.000000 0.003648 0.000000 0.030699
#
#
# Mechanical properties :
#
#
# Convention : Reuss Voigt Hill
#
# Bulk Modulus (GPa) = 62.90100 65.54093 64.22097
# Shear Modulus (GPa) = 32.20162 32.91470 32.55816
#
# Velocity S-wave (km/s) = 3.95717 4.00074 3.97902
# Velocity P-wave (km/s) = 7.17403 7.29472 7.23463
#
# Compressibility (1/GPa) = 0.01589800
#
# Stress axis : x y z
#
# Youngs Moduli (GPa) = 78.15534 75.28424 100.13884
#
# Poissons Ratio (x) = 0.27156 0.32937
# Poissons Ratio (y) = 0.28191 0.31913
# Poissons Ratio (z) = 0.25706 0.23992
#
# Static dielectric constant tensor:
#      x y z
#    x 3.826540 0.000000 0.108180 
#    y 0.000000 3.796490 0.000000 
#    z 0.108180 0.000000 3.657830 
# 
# 
# High freq. dielectric constant tensor:
#      x y z
#    x 1.814550 0.000000 0.007420 
#    y 0.000000 1.808520 0.000000 
#    z 0.007420 0.000000 1.804520 
# 
# From -- ./inp_files/155426.got.cif
#   From: 2010.06.25/outbox.cif.g09.slc.cpg/sg15_78_cif.got.tgz:155426.got - 2010.06.28 07:06:18.
