data_PCOD8152883
_publ_section_title
;
Structure prediction by ZEFSAII (Michael W. Deem and Ramdas Pophale) SiO2 
 PCOD8152883
Probable space group: C 2/C
;
_chemical_formula_sum "Si O2"
_cell_formula_units_Z 48
_cell_length_a 19.582217
_cell_length_b 18.927795
_cell_length_c 8.328194
_cell_angle_alpha 90.000000
_cell_angle_beta 49.917848
_cell_angle_gamma 90.000000
_cell_volume 2361.801600
_symmetry_space_group_name_H-M "C 2/C"
_symmetry_group_IT_number 15
_symmetry_cell_setting 'monoclinic'
loop_
_space_group_symop_operation_xyz
x,y,z
-x,y,1/2-z
-x,-y,-z
x,-y,1/2+z
1/2+x,1/2+y,z
1/2-x,1/2+y,1/2-z
1/2-x,1/2-y,-z
1/2+x,1/2-y,1/2+z
loop_
_atom_site_type_symbol
_atom_site_label
_atom_site_fract_x
_atom_site_fract_y
_atom_site_fract_z
Si Si1 0.100677 0.677913 0.631552
Si Si2 0.124502 0.818568 0.779807
Si Si3 0.273851 0.434368 0.384751
Si Si4 0.238541 0.310033 0.650306
Si Si5 0.477492 0.423360 0.098481
Si Si6 0.262431 0.084360 0.917569
O O1 0.100645 0.740467 0.760463
O O2 0.152665 0.703216 0.392563
O O3 0.144920 0.608327 0.642763
O O4 0.000000 0.655699 0.750000
O O5 0.170911 0.814056 0.883362
O O6 0.191431 0.853105 0.550113
O O7 0.034364 0.863984 0.921319
O O8 0.222205 0.385378 0.589554
O O9 0.374826 0.406438 0.217394
O O10 0.274392 0.514860 0.440404
O O11 0.223870 0.428969 0.290900
O O12 0.250000 0.250000 0.500000
O O13 0.500000 0.420754 0.250000
O O14 0.500000 0.500000 0.000000
#
# Coordination Sequence:
#
# PCOD8152883 Si02
#       6
#     8   8   8   8   8   8
#     4  11  26  44  66  95 129 176 232 278 319 383
#     4  11  23  40  63  95 136 171 217 267 328 401
#     4  12  23  41  69  96 134 175 212 271 330 404
#     4  11  23  44  65  95 132 177 218 268 341 394
#     4  12  24  38  61 103 138 167 212 264 328 403
#     4  11  23  43  65  96 130 176 220 261 339 396
#
# _framework density 20.323468999999999
#
# number of rings (size 3 to 8) (size 9 to 14) (size 15 to 20)
#    0.000    0.667    3.333    7.000    4.667    0.000 
#    0.000    5.833    0.000    0.000    0.000    0.000 
#    0.000    0.000    0.000    0.000    0.000    0.000 
#
# Total GULP energy -297751.127107 kJ/mol
# GULP energy per Si atom -12406.296963 kJ/mol
# Density = 2.027721 g / cm^3
# Si number density = 20.323469 Si / 1000 Ang^3
#
#
#
# Elastic Constant Matrix: (Units=GPa)
#
#
# Indices 1 2 3 4 5 6 
#
# 1 119.1063 39.9280 57.7049 0.0000 -4.3686 0.0000
# 2 39.9280 74.8834 25.8871 0.0000 -7.8380 0.0000
# 3 57.7049 25.8871 87.9880 0.0000 1.0754 0.0000
# 4 0.0000 0.0000 0.0000 36.4065 0.0000 4.0885
# 5 -4.3686 -7.8380 1.0754 0.0000 41.4498 0.0000
# 6 0.0000 0.0000 0.0000 4.0885 0.0000 36.1756
#
#
#
# Elastic Compliance Matrix: (Units=1/GPa)
#
#
# Indices 1 2 3 4 5 6 
#
# 1 0.013642 -0.004561 -0.007615 0.000000 0.000773 0.000000
# 2 -0.004561 0.016754 -0.001972 0.000000 0.002739 0.000000
# 3 -0.007615 -0.001972 0.016959 0.000000 -0.001615 0.000000
# 4 0.000000 0.000000 0.000000 0.027821 0.000000 -0.003144
# 5 0.000773 0.002739 -0.001615 0.000000 0.024767 0.000000
# 6 0.000000 0.000000 0.000000 -0.003144 0.000000 0.027998
#
#
# Mechanical properties :
#
#
# Convention : Reuss Voigt Hill
#
# Bulk Modulus (GPa) = 52.46249 58.77975 55.62112
# Shear Modulus (GPa) = 30.75241 33.37024 32.06132
#
# Velocity S-wave (km/s) = 3.89414 4.05650 3.97615
# Velocity P-wave (km/s) = 6.78888 7.13619 6.96470
#
# Compressibility (1/GPa) = 0.01906124
#
# Stress axis : x y z
#
# Youngs Moduli (GPa) = 73.30163 59.68657 58.96638
#
# Poissons Ratio (x) = 0.27222 0.44900
# Poissons Ratio (y) = 0.33432 0.11626
# Poissons Ratio (z) = 0.55816 0.11768
#
# Static dielectric constant tensor:
#      x y z
#    x 3.782170 0.000000 0.034570 
#    y 0.000000 3.748250 0.000000 
#    z 0.034570 0.000000 3.728800 
# 
# 
# High freq. dielectric constant tensor:
#      x y z
#    x 1.794860 0.000000 0.015940 
#    y 0.000000 1.802310 0.000000 
#    z 0.015940 0.000000 1.792540 
# 
# From -- ./inp_files/56427.got.cif
#   From: 2010.06.25/outbox.cif.g09.slc.cpg/sg15_29_cif.got.tgz:56427.got - 2010.06.28 07:06:18.
