data_PCOD8152607
_publ_section_title
;
Structure prediction by ZEFSAII (Michael W. Deem and Ramdas Pophale) SiO2 
 PCOD8152607
Probable space group: C 2/C
;
_chemical_formula_sum "Si O2"
_cell_formula_units_Z 48
_cell_length_a 28.448138
_cell_length_b 9.582736
_cell_length_c 13.311365
_cell_angle_alpha 90.000000
_cell_angle_beta 143.649743
_cell_angle_gamma 90.000000
_cell_volume 2150.876374
_symmetry_space_group_name_H-M "C 2/C"
_symmetry_group_IT_number 15
_symmetry_cell_setting 'monoclinic'
loop_
_space_group_symop_operation_xyz
x,y,z
-x,y,1/2-z
-x,-y,-z
x,-y,1/2+z
1/2+x,1/2+y,z
1/2-x,1/2+y,1/2-z
1/2-x,1/2-y,-z
1/2+x,1/2-y,1/2+z
loop_
_atom_site_type_symbol
_atom_site_label
_atom_site_fract_x
_atom_site_fract_y
_atom_site_fract_z
Si Si1 0.343843 0.169245 0.708111
Si Si2 0.304863 0.475795 0.610158
Si Si3 0.408287 0.138796 0.603653
Si Si4 0.817518 0.134809 0.827572
Si Si5 0.909417 0.931056 0.111474
Si Si6 0.859125 0.350496 0.447887
O O1 0.309564 0.324176 0.671129
O O2 0.393941 0.187824 0.692825
O O3 0.396485 0.137778 0.899059
O O4 0.279489 0.041565 0.592626
O O5 0.305898 0.607123 0.688643
O O6 0.378524 0.508599 0.663694
O O7 0.500000 0.111233 0.750000
O O8 0.379844 0.246911 0.469215
O O9 0.362644 0.994492 0.512906
O O10 0.733914 0.182668 0.729611
O O11 0.851663 0.989098 0.926368
O O12 0.000000 0.980052 0.250000
O O13 0.903286 0.763754 0.092490
#
# Coordination Sequence:
#
# PCOD8152607 Si02
#       6
#     8   8   8   8   8   8
#     4  11  22  43  71 101 135 183 222 290 344 391
#     4  11  23  42  73 102 136 175 238 280 337 403
#     4  12  27  45  68 103 145 175 223 289 349 400
#     4  12  23  43  73 101 124 188 234 270 328 415
#     4  12  26  43  69 106 139 173 227 291 337 396
#     4  12  25  45  72  99 138 184 230 274 341 416
#
# _framework density 22.316483999999999
#
# number of rings (size 3 to 8) (size 9 to 14) (size 15 to 20)
#    0.000    0.333    6.667    3.000    0.000    4.667 
#    0.000    0.000    0.000    0.000    0.000    0.000 
#    0.000    0.000    0.000    0.000    0.000    0.000 
#
# Total GULP energy -297475.664722 kJ/mol
# GULP energy per Si atom -12394.819363 kJ/mol
# Density = 2.226569 g / cm^3
# Si number density = 22.316484 Si / 1000 Ang^3
#
#
#
# Elastic Constant Matrix: (Units=GPa)
#
#
# Indices 1 2 3 4 5 6 
#
# 1 116.7363 27.6566 38.0335 0.0000 0.6935 0.0000
# 2 27.6566 92.6953 11.7862 0.0000 -17.3938 0.0000
# 3 38.0335 11.7862 65.4205 0.0000 2.4974 0.0000
# 4 0.0000 0.0000 0.0000 28.7080 0.0000 -6.1515
# 5 0.6935 -17.3938 2.4974 0.0000 32.4362 0.0000
# 6 0.0000 0.0000 0.0000 -6.1515 0.0000 28.1900
#
#
#
# Elastic Compliance Matrix: (Units=1/GPa)
#
#
# Indices 1 2 3 4 5 6 
#
# 1 0.011178 -0.002823 -0.005941 0.000000 -0.001295 0.000000
# 2 -0.002823 0.013100 -0.000992 0.000000 0.007162 0.000000
# 3 -0.005941 -0.000992 0.018990 0.000000 -0.001867 0.000000
# 4 0.000000 0.000000 0.000000 0.036542 0.000000 0.007974
# 5 -0.001295 0.007162 -0.001867 0.000000 0.034842 0.000000
# 6 0.000000 0.000000 0.000000 0.007974 0.000000 0.037214
#
#
# Mechanical properties :
#
#
# Convention : Reuss Voigt Hill
#
# Bulk Modulus (GPa) = 42.09431 47.75607 44.92519
# Shear Modulus (GPa) = 27.88677 31.02522 29.45599
#
# Velocity S-wave (km/s) = 3.53881 3.73263 3.63701
# Velocity P-wave (km/s) = 5.96665 6.32635 6.14913
#
# Compressibility (1/GPa) = 0.02375618
#
# Stress axis : x y z
#
# Youngs Moduli (GPa) = 89.45885 76.33405 52.66049
#
# Poissons Ratio (x) = 0.21548 0.31284
# Poissons Ratio (y) = 0.25253 0.05226
# Poissons Ratio (z) = 0.53145 0.07576
#
# Static dielectric constant tensor:
#      x y z
#    x 3.897190 0.000000 -0.107760 
#    y 0.000000 3.886500 0.000000 
#    z -0.107760 0.000000 3.840420 
# 
# 
# High freq. dielectric constant tensor:
#      x y z
#    x 1.879560 0.000000 -0.010670 
#    y 0.000000 1.882960 0.000000 
#    z -0.010670 0.000000 1.865040 
# 
# From -- ./inp_files/176967.got.cif
#   From: 2010.06.25/outbox.cif.g09.slc.cpg/sg15_89_cif.got.tgz:176967.got - 2010.06.28 07:06:18.
