data_PCOD8152147
_publ_section_title
;
Structure prediction by ZEFSAII (Michael W. Deem and Ramdas Pophale) SiO2 
 PCOD8152147
Probable space group: C 2/C
;
_chemical_formula_sum "Si O2"
_cell_formula_units_Z 56
_cell_length_a 9.504080
_cell_length_b 27.263986
_cell_length_c 17.348654
_cell_angle_alpha 90.000000
_cell_angle_beta 142.574605
_cell_angle_gamma 90.000000
_cell_volume 2731.960296
_symmetry_space_group_name_H-M "C 2/C"
_symmetry_group_IT_number 15
_symmetry_cell_setting 'monoclinic'
loop_
_space_group_symop_operation_xyz
x,y,z
-x,y,1/2-z
-x,-y,-z
x,-y,1/2+z
1/2+x,1/2+y,z
1/2-x,1/2+y,1/2-z
1/2-x,1/2-y,-z
1/2+x,1/2-y,1/2+z
loop_
_atom_site_type_symbol
_atom_site_label
_atom_site_fract_x
_atom_site_fract_y
_atom_site_fract_z
Si Si1 0.609059 0.777116 0.676809
Si Si2 0.417585 0.457864 0.869516
Si Si3 0.309045 0.061599 0.729347
Si Si4 0.633847 0.277265 0.560676
Si Si5 0.080728 0.885303 0.494873
Si Si6 0.074719 0.611957 0.133116
Si Si7 0.600662 0.952367 0.503458
O O1 0.576163 0.749448 0.578966
O O2 0.369220 0.770394 0.616427
O O3 0.814045 0.759324 0.827021
O O4 0.668738 0.833123 0.682927
O O5 0.318691 0.510820 0.845823
O O6 0.219734 0.425900 0.745068
O O7 0.476683 0.430549 0.973869
O O8 0.640069 0.463079 0.911728
O O9 0.500000 0.073607 0.750000
O O10 0.424938 0.060453 0.861335
O O11 0.130554 0.107751 0.656768
O O12 0.569943 0.334564 0.536514
O O13 0.315280 0.891616 0.550662
O O14 0.095947 0.595876 0.054282
O O15 0.500000 0.000000 0.500000
#
# Coordination Sequence:
#
# PCOD8152147 Si02
#       7
#     8   8   8   8   8   8   8
#     4   9  18  34  59  90 125 156 203 259 317 376
#     4  12  23  40  63  87 123 167 206 249 301 375
#     4  12  25  40  61  87 124 165 209 254 301 366
#     4   9  18  34  59  92 121 159 204 259 314 375
#     4  11  22  39  64  90 121 162 210 251 306 375
#     4  11  22  38  63  92 122 161 204 256 311 367
#     4  12  26  41  58  91 126 161 207 256 308 360
#
# _framework density 20.498101999999999
#
# number of rings (size 3 to 8) (size 9 to 14) (size 15 to 20)
#    0.000    1.143    4.286    3.000    0.000    2.857 
#    0.000    2.857    0.000    2.571    0.000    0.000 
#    0.000    0.000    0.000    0.000    0.000    0.000 
#
# Total GULP energy -346965.102367 kJ/mol
# GULP energy per Si atom -12391.610799 kJ/mol
# Density = 2.045145 g / cm^3
# Si number density = 20.498102 Si / 1000 Ang^3
#
#
#
# Elastic Constant Matrix: (Units=GPa)
#
#
# Indices 1 2 3 4 5 6 
#
# 1 131.1754 69.5828 51.9541 -0.0117 -11.1829 0.0058
# 2 69.5828 102.6050 63.9555 -0.0072 -12.6200 0.0035
# 3 51.9541 63.9555 151.7774 -0.0174 -23.4986 0.0085
# 4 -0.0117 -0.0072 -0.0174 56.0305 -0.0022 -17.6494
# 5 -11.1829 -12.6200 -23.4986 -0.0022 43.5625 0.0011
# 6 0.0058 0.0035 0.0085 -17.6494 0.0011 31.3753
#
#
#
# Elastic Compliance Matrix: (Units=1/GPa)
#
#
# Indices 1 2 3 4 5 6 
#
# 1 0.012008 -0.007554 -0.000861 0.000001 0.000430 -0.000001
# 2 -0.007554 0.018002 -0.004902 -0.000001 0.000632 0.000000
# 3 -0.000861 -0.004902 0.009487 0.000002 0.003476 -0.000001
# 4 0.000001 -0.000001 0.000002 0.021691 0.000002 0.012202
# 5 0.000430 0.000632 0.003476 0.000002 0.025124 -0.000001
# 6 -0.000001 0.000000 -0.000001 0.012202 -0.000001 0.038736
#
#
# Mechanical properties :
#
#
# Convention : Reuss Voigt Hill
#
# Bulk Modulus (GPa) = 77.73894 84.06027 80.89960
# Shear Modulus (GPa) = 32.05743 39.53135 35.79439
#
# Velocity S-wave (km/s) = 3.95894 4.39628 4.18332
# Velocity P-wave (km/s) = 7.67495 8.17725 7.93008
#
# Compressibility (1/GPa) = 0.01286357
#
# Stress axis : x y z
#
# Youngs Moduli (GPa) = 83.27790 55.54871 105.40585
#
# Poissons Ratio (x) = 0.41961 0.09073
# Poissons Ratio (y) = 0.62908 0.51672
# Poissons Ratio (z) = 0.07168 0.27231
#
# Static dielectric constant tensor:
#      x y z
#    x 3.554590 0.000000 -0.247740 
#    y 0.000000 3.723200 0.000000 
#    z -0.247740 0.000000 4.178010 
# 
# 
# High freq. dielectric constant tensor:
#      x y z
#    x 1.779360 0.000000 -0.015780 
#    y 0.000000 1.792800 0.000000 
#    z -0.015780 0.000000 1.826690 
# 
# From -- ./inp_files/81240.got.cif
#   From: 2010.06.25/outbox.cif.g09.slc.cpg/sg15_41_cif.got.tgz:81240.got - 2010.06.28 07:06:18.
