data_PCOD8152117
_publ_section_title
;
Structure prediction by ZEFSAII (Michael W. Deem and Ramdas Pophale) SiO2 
 PCOD8152117
Probable space group: C 2/C
;
_chemical_formula_sum "Si O2"
_cell_formula_units_Z 64
_cell_length_a 18.007744
_cell_length_b 12.132560
_cell_length_c 29.249440
_cell_angle_alpha 90.000000
_cell_angle_beta 28.471729
_cell_angle_gamma 90.000000
_cell_volume 3046.472812
_symmetry_space_group_name_H-M "C 2/C"
_symmetry_group_IT_number 15
_symmetry_cell_setting 'monoclinic'
loop_
_space_group_symop_operation_xyz
x,y,z
-x,y,1/2-z
-x,-y,-z
x,-y,1/2+z
1/2+x,1/2+y,z
1/2-x,1/2+y,1/2-z
1/2-x,1/2-y,-z
1/2+x,1/2-y,1/2+z
loop_
_atom_site_type_symbol
_atom_site_label
_atom_site_fract_x
_atom_site_fract_y
_atom_site_fract_z
Si Si1 0.549115 0.077329 0.014861
Si Si2 0.397620 0.920088 0.163298
Si Si3 0.189017 0.784609 0.582860
Si Si4 0.919988 0.364283 0.248813
Si Si5 0.377530 0.527238 0.857448
Si Si6 0.040343 0.037099 0.862455
Si Si7 0.006838 0.810559 0.563787
Si Si8 0.442759 0.681020 0.560465
O O1 0.455442 0.190432 0.064367
O O2 0.502283 0.013727 0.085444
O O3 0.734870 0.102362 0.916289
O O4 0.500000 0.000000 0.000000
O O5 0.452018 0.934401 0.186187
O O6 0.218731 0.948314 0.253230
O O7 0.421126 0.796994 0.130303
O O8 0.250000 0.750000 0.500000
O O9 0.314022 0.719853 0.546146
O O10 0.013220 0.750760 0.690653
O O11 0.203057 0.912136 0.586129
O O12 0.737033 0.346885 0.350816
O O13 0.000000 0.422341 0.250000
O O14 0.500000 0.518089 0.750000
O O15 0.449427 0.574056 0.865805
O O16 0.989994 0.111196 0.933156
O O17 0.008745 0.908403 0.891051
O O18 0.951346 0.846096 0.542418
#
# Coordination Sequence:
#
# PCOD8152117 Si02
#       8
#     8   8   8   8   8   8   8   8
#     4  12  24  43  68  98 131 169 220 273 329 401
#     4  11  24  40  64 100 131 172 212 274 333 391
#     4  12  20  35  64 102 130 159 214 291 338 380
#     4  11  22  37  63  97 134 165 214 276 337 384
#     4  12  25  40  67  98 131 174 222 277 332 392
#     4  11  27  43  67  96 134 176 220 271 333 401
#     4  12  22  43  68  96 135 167 222 277 339 387
#     4  11  26  43  66  97 135 179 217 267 330 403
#
# _framework density 21.007901
#
# number of rings (size 3 to 8) (size 9 to 14) (size 15 to 20)
#    0.000    0.500    6.250    1.500    7.000    0.500 
#    0.000    0.000    0.000    0.750    0.000    0.000 
#    0.000    0.000    0.000    0.000    0.000    0.000 
#
# Total GULP energy -396522.545729 kJ/mol
# GULP energy per Si atom -12391.329554 kJ/mol
# Density = 2.096009 g / cm^3
# Si number density = 21.007901 Si / 1000 Ang^3
#
#
#
# Elastic Constant Matrix: (Units=GPa)
#
#
# Indices 1 2 3 4 5 6 
#
# 1 165.2832 26.5418 54.6385 0.0000 12.7011 -0.0002
# 2 26.5418 64.5330 13.6541 -0.0002 4.3127 -0.0001
# 3 54.6385 13.6541 68.4334 -0.0039 14.4911 -0.0005
# 4 0.0000 -0.0002 -0.0039 28.7793 0.0001 2.0069
# 5 12.7011 4.3127 14.4911 0.0001 43.1749 0.0004
# 6 -0.0002 -0.0001 -0.0005 2.0069 0.0004 28.7113
#
#
#
# Elastic Compliance Matrix: (Units=1/GPa)
#
#
# Indices 1 2 3 4 5 6 
#
# 1 0.008497 -0.002146 -0.006321 -0.000001 -0.000164 0.000000
# 2 -0.002146 0.016734 -0.001512 0.000000 -0.000533 0.000000
# 3 -0.006321 -0.001512 0.021031 0.000003 -0.005048 0.000000
# 4 -0.000001 0.000000 0.000003 0.034917 -0.000001 -0.002441
# 5 -0.000164 -0.000533 -0.005048 -0.000001 0.024957 0.000000
# 6 0.000000 0.000000 0.000000 -0.002441 0.000000 0.035000
#
#
# Mechanical properties :
#
#
# Convention : Reuss Voigt Hill
#
# Bulk Modulus (GPa) = 38.02042 54.21315 46.11678
# Shear Modulus (GPa) = 29.43528 33.69413 31.56470
#
# Velocity S-wave (km/s) = 3.74726 4.00919 3.88044
# Velocity P-wave (km/s) = 6.07125 6.87703 6.48666
#
# Compressibility (1/GPa) = 0.02630165
#
# Stress axis : x y z
#
# Youngs Moduli (GPa) = 117.68642 59.75739 47.54991
#
# Poissons Ratio (x) = 0.12826 0.30058
# Poissons Ratio (y) = 0.25260 0.07192
# Poissons Ratio (z) = 0.74394 0.09038
#
# Static dielectric constant tensor:
#      x y z
#    x 4.992870 0.000000 0.267050 
#    y 0.000000 3.613040 0.000000 
#    z 0.267050 0.000000 4.534590 
# 
# 
# High freq. dielectric constant tensor:
#      x y z
#    x 1.848910 0.000000 0.016580 
#    y 0.000000 1.790400 0.000000 
#    z 0.016580 0.000000 1.834120 
# 
# From -- ./inp_files/316193.got.cif
#   From: 2010.06.25/outbox.cif.g09.slc.cpg/sg15_159_cif.got.tgz:316193.got - 2010.06.28 07:06:18.
