data_PCOD8152560
_publ_section_title
;
Structure prediction by ZEFSAII (Michael W. Deem and Ramdas Pophale) SiO2 
 PCOD8152560
Probable space group: C 2/C
;
_chemical_formula_sum "Si O2"
_cell_formula_units_Z 48
_cell_length_a 19.179276
_cell_length_b 12.318260
_cell_length_c 18.204653
_cell_angle_alpha 90.000000
_cell_angle_beta 149.120026
_cell_angle_gamma 90.000000
_cell_volume 2207.423113
_symmetry_space_group_name_H-M "C 2/C"
_symmetry_group_IT_number 15
_symmetry_cell_setting 'monoclinic'
loop_
_space_group_symop_operation_xyz
x,y,z
-x,y,1/2-z
-x,-y,-z
x,-y,1/2+z
1/2+x,1/2+y,z
1/2-x,1/2+y,1/2-z
1/2-x,1/2-y,-z
1/2+x,1/2-y,1/2+z
loop_
_atom_site_type_symbol
_atom_site_label
_atom_site_fract_x
_atom_site_fract_y
_atom_site_fract_z
Si Si1 0.841040 0.352879 0.602115
Si Si2 0.427950 0.203269 0.852137
Si Si3 0.220123 0.503607 0.315392
Si Si4 0.788039 0.040769 0.099043
Si Si5 0.811322 0.648746 0.348866
Si Si6 0.557683 0.405023 0.899809
O O1 0.750000 0.250000 0.500000
O O2 0.802234 0.400689 0.646433
O O3 0.806009 0.438360 0.505945
O O4 0.000000 0.322450 0.750000
O O5 0.290198 0.252908 0.762087
O O6 0.494002 0.286210 0.853624
O O7 0.394510 0.089903 0.781240
O O8 0.531860 0.186263 0.014402
O O9 0.217215 0.549138 0.230520
O O10 0.368808 0.450327 0.461120
O O11 0.704392 0.114646 0.079822
O O12 0.827639 0.104651 0.059949
O O13 0.934707 0.011523 0.268753
#
# Coordination Sequence:
#
# PCOD8152560 Si02
#       6
#     8   8   8   8   8   8
#     4  11  26  45  68  98 130 182 225 271 330 399
#     4  11  22  43  63 101 129 171 225 270 347 392
#     4  11  24  43  68  96 140 171 228 276 337 401
#     4   9  21  42  66  96 132 167 223 278 337 387
#     4  11  24  41  66  97 135 172 219 277 340 399
#     4   9  20  42  66  98 127 175 216 283 333 401
#
# _framework density 21.744812
#
# number of rings (size 3 to 8) (size 9 to 14) (size 15 to 20)
#    0.000    1.667    1.667    1.500    4.667    6.000 
#   21.000    0.000    0.000    0.000    0.000    0.000 
#    0.000    0.000    0.000    0.000    0.000    0.000 
#
# Total GULP energy -297471.306067 kJ/mol
# GULP energy per Si atom -12394.637753 kJ/mol
# Density = 2.169532 g / cm^3
# Si number density = 21.744812 Si / 1000 Ang^3
#
#
#
# Elastic Constant Matrix: (Units=GPa)
#
#
# Indices 1 2 3 4 5 6 
#
# 1 48.9353 40.5811 40.8509 0.0001 -4.0928 0.0000
# 2 40.5811 121.8689 74.4148 0.0001 0.3330 0.0000
# 3 40.8509 74.4148 196.2432 0.0001 0.7526 0.0001
# 4 0.0001 0.0001 0.0001 53.2021 0.0001 0.1547
# 5 -4.0928 0.3330 0.7526 0.0001 26.6744 0.0000
# 6 0.0000 0.0000 0.0001 0.1547 0.0000 26.1510
#
#
#
# Elastic Compliance Matrix: (Units=1/GPa)
#
#
# Indices 1 2 3 4 5 6 
#
# 1 0.030277 -0.008114 -0.003244 0.000000 0.004838 0.000000
# 2 -0.008114 0.012853 -0.003180 0.000000 -0.001316 0.000000
# 3 -0.003244 -0.003180 0.006979 0.000000 -0.000655 0.000000
# 4 0.000000 0.000000 0.000000 0.018797 0.000000 -0.000111
# 5 0.004838 -0.001316 -0.000655 0.000000 0.038266 0.000000
# 6 0.000000 0.000000 0.000000 -0.000111 0.000000 0.038240
#
#
# Mechanical properties :
#
#
# Convention : Reuss Voigt Hill
#
# Bulk Modulus (GPa) = 47.54463 75.41566 61.48014
# Shear Modulus (GPa) = 27.54839 35.28554 31.41697
#
# Velocity S-wave (km/s) = 3.56321 4.03266 3.80518
# Velocity P-wave (km/s) = 6.23225 7.51269 6.90223
#
# Compressibility (1/GPa) = 0.02103287
#
# Stress axis : x y z
#
# Youngs Moduli (GPa) = 33.02833 77.80584 143.28217
#
# Poissons Ratio (x) = 0.63133 0.46485
# Poissons Ratio (y) = 0.26800 0.45557
# Poissons Ratio (z) = 0.10715 0.24738
#
# Static dielectric constant tensor:
#      x y z
#    x 3.576430 0.000000 0.038660 
#    y 0.000000 3.804590 0.000000 
#    z 0.038660 0.000000 4.502980 
# 
# 
# High freq. dielectric constant tensor:
#      x y z
#    x 1.823010 0.000000 0.002210 
#    y 0.000000 1.839790 0.000000 
#    z 0.002210 0.000000 1.890020 
# 
# From -- ./inp_files/252617.got.cif
#   From: 2010.06.25/outbox.cif.g09.slc.cpg/sg15_127_cif.got.tgz:252617.got - 2010.06.28 07:06:18.
