data_PCOD8152680
_publ_section_title
;
Structure prediction by ZEFSAII (Michael W. Deem and Ramdas Pophale) SiO2 
 PCOD8152680
Probable space group: C 2/C
;
_chemical_formula_sum "Si O2"
_cell_formula_units_Z 64
_cell_length_a 14.263710
_cell_length_b 18.375260
_cell_length_c 10.584481
_cell_angle_alpha 90.000000
_cell_angle_beta 95.026053
_cell_angle_gamma 90.000000
_cell_volume 2763.519062
_symmetry_space_group_name_H-M "C 2/C"
_symmetry_group_IT_number 15
_symmetry_cell_setting 'monoclinic'
loop_
_space_group_symop_operation_xyz
x,y,z
-x,y,1/2-z
-x,-y,-z
x,-y,1/2+z
1/2+x,1/2+y,z
1/2-x,1/2+y,1/2-z
1/2-x,1/2-y,-z
1/2+x,1/2-y,1/2+z
loop_
_atom_site_type_symbol
_atom_site_label
_atom_site_fract_x
_atom_site_fract_y
_atom_site_fract_z
Si Si1 0.061396 0.990245 0.378316
Si Si2 0.337712 0.359985 0.609323
Si Si3 0.718363 0.622732 0.849259
Si Si4 0.195527 0.603319 0.876567
Si Si5 0.935914 0.277985 0.044738
Si Si6 0.943849 0.514698 0.117460
Si Si7 0.819263 0.731468 0.281716
Si Si8 0.881278 0.667866 0.042720
O O1 0.118234 0.062934 0.345773
O O2 0.000000 0.970134 0.250000
O O3 0.130421 0.920208 0.399961
O O4 0.000000 0.000000 0.500000
O O5 0.281899 0.372195 0.473827
O O6 0.423732 0.304182 0.593440
O O7 0.270114 0.322654 0.707192
O O8 0.778563 0.572478 0.761741
O O9 0.703981 0.683168 0.733089
O O10 0.780097 0.654205 0.969005
O O11 0.117380 0.667650 0.866378
O O12 0.150294 0.529889 0.923710
O O13 0.893275 0.285264 0.899673
O O14 0.045842 0.299358 0.051149
O O15 0.920102 0.598931 0.122324
O O16 0.000000 0.490090 0.250000
O O17 0.000000 0.500000 0.000000
O O18 0.865982 0.725446 0.150246
#
# Coordination Sequence:
#
# PCOD8152680 Si02
#       8
#     8   8   8   8   8   8   8   8
#     4  12  31  51  78 109 147 200 254 307 373 445
#     4  11  24  47  75 104 144 191 249 306 371 444
#     4  12  26  48  71 106 143 193 243 303 366 442
#     4  11  22  44  72 102 146 193 243 292 371 443
#     4  11  22  45  71 106 141 194 242 299 379 445
#     4  12  25  42  64 104 147 191 243 297 368 437
#     4  11  24  44  72 103 144 191 244 309 368 437
#     4  12  27  40  71 105 147 186 241 310 367 436
#
# _framework density 23.158877
#
# number of rings (size 3 to 8) (size 9 to 14) (size 15 to 20)
#    0.000    0.500    3.750    4.500    7.000    1.000 
#    0.000    0.000    0.000    0.000    0.000    0.000 
#    0.000    0.000    0.000    0.000    0.000    0.000 
#
# Total GULP energy -396557.050804 kJ/mol
# GULP energy per Si atom -12392.407838 kJ/mol
# Density = 2.310617 g / cm^3
# Si number density = 23.158877 Si / 1000 Ang^3
#
#
#
# Elastic Constant Matrix: (Units=GPa)
#
#
# Indices 1 2 3 4 5 6 
#
# 1 107.0654 43.4036 38.5098 0.0000 -11.4381 0.0000
# 2 43.4036 92.6943 6.4216 0.0000 -1.5398 0.0000
# 3 38.5098 6.4216 108.0427 0.0000 -12.5020 0.0000
# 4 0.0000 0.0000 0.0000 34.0902 0.0000 -8.2414
# 5 -11.4381 -1.5398 -12.5020 0.0000 35.6118 0.0000
# 6 0.0000 0.0000 0.0000 -8.2414 0.0000 44.6098
#
#
#
# Elastic Compliance Matrix: (Units=1/GPa)
#
#
# Indices 1 2 3 4 5 6 
#
# 1 0.013561 -0.006017 -0.004171 0.000000 0.002631 0.000000
# 2 -0.006017 0.013505 0.001236 0.000000 -0.000915 0.000000
# 3 -0.004171 0.001236 0.010966 0.000000 0.002563 0.000000
# 4 0.000000 0.000000 0.000000 0.030705 0.000000 0.005673
# 5 0.002631 -0.000915 0.002563 0.000000 0.029786 0.000000
# 6 0.000000 0.000000 0.000000 0.005673 0.000000 0.023465
#
#
# Mechanical properties :
#
#
# Convention : Reuss Voigt Hill
#
# Bulk Modulus (GPa) = 49.68585 53.83028 51.75806
# Shear Modulus (GPa) = 34.10627 37.49353 35.79990
#
# Velocity S-wave (km/s) = 3.84175 4.02801 3.93598
# Velocity P-wave (km/s) = 6.41714 6.70280 6.56152
#
# Compressibility (1/GPa) = 0.02012645
#
# Stress axis : x y z
#
# Youngs Moduli (GPa) = 73.74165 74.04776 91.19461
#
# Poissons Ratio (x) = 0.44555 0.38041
# Poissons Ratio (y) = 0.44371 -0.11273
# Poissons Ratio (z) = 0.30761 -0.09154
#
# Static dielectric constant tensor:
#      x y z
#    x 4.249930 0.000000 -0.208100 
#    y 0.000000 4.428440 0.000000 
#    z -0.208100 0.000000 3.988870 
# 
# 
# High freq. dielectric constant tensor:
#      x y z
#    x 1.914500 0.000000 -0.013550 
#    y 0.000000 1.924310 0.000000 
#    z -0.013550 0.000000 1.920460 
# 
# From -- ./inp_files/98775.got.cif
#   From: 2010.06.25/outbox.cif.g09.slc.cpg/sg15_50_cif.got.tgz:98775.got - 2010.06.28 07:06:18.
