data_PCOD8152353
_publ_section_title
;
Structure prediction by ZEFSAII (Michael W. Deem and Ramdas Pophale) SiO2 
 PCOD8152353
Probable space group: C 2/C
;
_chemical_formula_sum "Si O2"
_cell_formula_units_Z 60
_cell_length_a 12.072261
_cell_length_b 17.159700
_cell_length_c 26.362455
_cell_angle_alpha 90.000000
_cell_angle_beta 150.661896
_cell_angle_gamma 90.000000
_cell_volume 2675.757968
_symmetry_space_group_name_H-M "C 2/C"
_symmetry_group_IT_number 15
_symmetry_cell_setting 'monoclinic'
loop_
_space_group_symop_operation_xyz
x,y,z
-x,y,1/2-z
-x,-y,-z
x,-y,1/2+z
1/2+x,1/2+y,z
1/2-x,1/2+y,1/2-z
1/2-x,1/2-y,-z
1/2+x,1/2-y,1/2+z
loop_
_atom_site_type_symbol
_atom_site_label
_atom_site_fract_x
_atom_site_fract_y
_atom_site_fract_z
Si Si1 0.730209 0.210643 0.567927
Si Si2 0.045260 0.274348 0.169014
Si Si3 0.173021 0.458881 0.906638
Si Si4 0.801336 0.441838 0.283208
Si Si5 0.456394 0.692473 0.030224
Si Si6 0.951733 0.687769 0.364685
Si Si7 0.379719 0.478350 0.886596
Si Si8 0.500000 0.398798 0.250000
O O1 0.628330 0.287954 0.553472
O O2 0.532826 0.170550 0.454722
O O3 0.822622 0.151834 0.646966
O O4 0.930788 0.234364 0.610349
O O5 0.197667 0.352125 0.232890
O O6 0.181624 0.206154 0.253748
O O7 0.014718 0.251948 0.098361
O O8 0.796568 0.291128 0.092346
O O9 0.181306 0.478512 0.849679
O O10 0.058177 0.528702 0.893994
O O11 0.025101 0.382006 0.857181
O O12 0.435109 0.453669 0.028428
O O13 0.720612 0.501943 0.207765
O O14 0.645801 0.453604 0.270764
O O15 0.491947 0.604550 0.062612
#
# Coordination Sequence:
#
# PCOD8152353 Si02
#       8
#     8   8   8   8   8   8   8   4
#     4  11  22  40  73  98 134 175 240 280 349 412
#     4  11  24  41  67  98 141 177 235 287 349 410
#     4  11  24  43  63 102 142 172 224 290 359 410
#     4  12  24  42  66  99 136 183 236 281 348 420
#     4  11  22  45  70  99 135 185 224 292 352 419
#     4  11  23  41  67 105 135 175 230 297 337 429
#     4  11  24  41  70 102 136 178 226 291 357 418
#     4  12  24  46  66  98 134 196 234 290 340 426
#
# _framework density 22.423552999999998
#
# number of rings (size 3 to 8) (size 9 to 14) (size 15 to 20)
#    0.000    0.800    5.333    2.000    1.867    0.533 
#    2.400    6.667    0.000    0.000    0.000    0.000 
#    0.000    0.000    0.000    0.000    0.000    0.000 
#
# Total GULP energy -371878.545124 kJ/mol
# GULP energy per Si atom -12395.951504 kJ/mol
# Density = 2.237252 g / cm^3
# Si number density = 22.423553 Si / 1000 Ang^3
#
#
#
# Elastic Constant Matrix: (Units=GPa)
#
#
# Indices 1 2 3 4 5 6 
#
# 1 116.8202 40.0431 50.7857 0.0006 -1.7336 -0.0002
# 2 40.0431 89.3827 42.2924 0.0000 8.6508 -0.0004
# 3 50.7857 42.2924 126.0059 -0.0014 -4.3138 -0.0011
# 4 0.0006 0.0000 -0.0014 40.0298 -0.0001 7.5253
# 5 -1.7336 8.6508 -4.3138 -0.0001 31.0869 0.0000
# 6 -0.0002 -0.0004 -0.0011 7.5253 0.0000 36.6934
#
#
#
# Elastic Compliance Matrix: (Units=1/GPa)
#
#
# Indices 1 2 3 4 5 6 
#
# 1 0.011236 -0.003594 -0.003282 0.000000 0.001171 0.000000
# 2 -0.003594 0.015060 -0.003774 0.000000 -0.004915 0.000000
# 3 -0.003282 -0.003774 0.010606 0.000000 0.002339 0.000000
# 4 0.000000 0.000000 0.000000 0.025983 0.000000 -0.005329
# 5 0.001171 -0.004915 0.002339 0.000000 0.033926 0.000000
# 6 0.000000 0.000000 0.000000 -0.005329 0.000000 0.028346
#
#
# Mechanical properties :
#
#
# Convention : Reuss Voigt Hill
#
# Bulk Modulus (GPa) = 64.10071 66.49458 65.29765
# Shear Modulus (GPa) = 32.96894 34.83452 33.90173
#
# Velocity S-wave (km/s) = 3.83859 3.94570 3.89251
# Velocity P-wave (km/s) = 6.94944 7.10467 7.02748
#
# Compressibility (1/GPa) = 0.01560045
#
# Stress axis : x y z
#
# Youngs Moduli (GPa) = 88.99574 66.40317 94.28723
#
# Poissons Ratio (x) = 0.23867 0.30948
# Poissons Ratio (y) = 0.31987 0.35586
# Poissons Ratio (z) = 0.29211 0.25062
#
# Static dielectric constant tensor:
#      x y z
#    x 4.007420 0.000000 0.154170 
#    y 0.000000 3.782670 0.000000 
#    z 0.154170 0.000000 4.200580 
# 
# 
# High freq. dielectric constant tensor:
#      x y z
#    x 1.872110 0.000000 0.012450 
#    y 0.000000 1.870380 0.000000 
#    z 0.012450 0.000000 1.895460 
# 
# From -- ./inp_files/293557.got.cif
#   From: 2010.06.25/outbox.cif.g09.slc.cpg/sg15_147_cif.got.tgz:293557.got - 2010.06.28 07:06:18.
