data_PCOD8152269
_publ_section_title
;
Structure prediction by ZEFSAII (Michael W. Deem and Ramdas Pophale) SiO2 
 PCOD8152269
Probable space group: C 2/C
;
_chemical_formula_sum "Si O2"
_cell_formula_units_Z 64
_cell_length_a 14.816060
_cell_length_b 16.508206
_cell_length_c 11.237660
_cell_angle_alpha 90.000000
_cell_angle_beta 95.366697
_cell_angle_gamma 90.000000
_cell_volume 2736.532308
_symmetry_space_group_name_H-M "C 2/C"
_symmetry_group_IT_number 15
_symmetry_cell_setting 'monoclinic'
loop_
_space_group_symop_operation_xyz
x,y,z
-x,y,1/2-z
-x,-y,-z
x,-y,1/2+z
1/2+x,1/2+y,z
1/2-x,1/2+y,1/2-z
1/2-x,1/2-y,-z
1/2+x,1/2-y,1/2+z
loop_
_atom_site_type_symbol
_atom_site_label
_atom_site_fract_x
_atom_site_fract_y
_atom_site_fract_z
Si Si1 0.638760 0.424497 0.538126
Si Si2 0.897784 0.795450 0.779128
Si Si3 0.465769 0.162830 0.371461
Si Si4 0.511209 0.658287 0.621071
Si Si5 0.238923 0.362729 0.628925
Si Si6 0.228685 0.544944 0.651540
Si Si7 0.951705 0.622513 0.870076
Si Si8 0.194333 0.901031 0.106305
O O1 0.652451 0.360144 0.643748
O O2 0.541915 0.401704 0.471394
O O3 0.718984 0.416120 0.452787
O O4 0.638782 0.515072 0.586617
O O5 0.823064 0.799861 0.663132
O O6 0.903608 0.709854 0.846404
O O7 0.000000 0.820863 0.750000
O O8 0.500000 0.120770 0.250000
O O9 0.520313 0.248175 0.386055
O O10 0.357397 0.173006 0.343578
O O11 0.487230 0.119075 0.501383
O O12 0.500000 0.620091 0.750000
O O13 0.615870 0.665442 0.596753
O O14 0.254754 0.452491 0.686807
O O15 0.234785 0.380112 0.487479
O O16 0.121604 0.552524 0.614074
O O17 0.249498 0.601304 0.766302
O O18 0.000000 0.602112 0.750000
#
# Coordination Sequence:
#
# PCOD8152269 Si02
#       8
#     8   8   8   8   8   8   8   8
#     4  11  22  41  64  94 133 172 217 271 334 400
#     4  11  24  44  69  98 134 174 219 274 337 400
#     4  11  27  45  68 101 133 180 226 276 333 394
#     4  11  22  40  62  97 137 170 222 269 334 398
#     4  11  26  44  68  99 135 175 223 274 333 399
#     4  11  25  43  67  99 130 176 222 276 330 395
#     4  11  26  46  70  98 133 177 231 274 334 392
#     4  11  23  40  64  97 133 174 218 270 334 397
#
# _framework density 23.387263000000001
#
# number of rings (size 3 to 8) (size 9 to 14) (size 15 to 20)
#    0.000    1.000    3.750    1.875    5.250    3.500 
#    0.000    0.000    0.000    0.000    0.000    0.000 
#    0.000    0.000    0.000    0.000    0.000    0.000 
#
# Total GULP energy -396539.376270 kJ/mol
# GULP energy per Si atom -12391.855508 kJ/mol
# Density = 2.333403 g / cm^3
# Si number density = 23.387263 Si / 1000 Ang^3
#
#
#
# Elastic Constant Matrix: (Units=GPa)
#
#
# Indices 1 2 3 4 5 6 
#
# 1 134.9700 5.5711 34.3796 0.0000 -2.4614 0.0000
# 2 5.5711 35.8477 7.6355 0.0000 -8.6773 0.0000
# 3 34.3796 7.6355 115.3825 0.0000 -5.0718 0.0000
# 4 0.0000 0.0000 0.0000 1.9209 0.0000 5.5432
# 5 -2.4614 -8.6773 -5.0718 0.0000 36.6952 0.0000
# 6 0.0000 0.0000 0.0000 5.5432 0.0000 33.9726
#
#
#
# Elastic Compliance Matrix: (Units=1/GPa)
#
#
# Indices 1 2 3 4 5 6 
#
# 1 0.008037 -0.000740 -0.002344 0.000000 0.000040 0.000000
# 2 -0.000740 0.029977 -0.001463 0.000000 0.006837 0.000000
# 3 -0.002344 -0.001463 0.009498 0.000000 0.000810 0.000000
# 4 0.000000 0.000000 0.000000 0.983794 0.000000 -0.160523
# 5 0.000040 0.006837 0.000810 0.000000 0.028983 0.000000
# 6 0.000000 0.000000 0.000000 -0.160523 0.000000 0.055628
#
#
# Mechanical properties :
#
#
# Convention : Reuss Voigt Hill
#
# Bulk Modulus (GPa) = 26.02907 42.37472 34.20190
# Shear Modulus (GPa) = 4.39438 30.42535 17.40986
#
# Velocity S-wave (km/s) = 1.37224 3.61076 2.73136
# Velocity P-wave (km/s) = 3.69655 5.96167 4.96014
#
# Compressibility (1/GPa) = 0.03841858
#
# Stress axis : x y z
#
# Youngs Moduli (GPa) = 124.41798 33.35855 105.28904
#
# Poissons Ratio (x) = 0.02469 0.24681
# Poissons Ratio (y) = 0.09208 0.15401
# Poissons Ratio (z) = 0.29165 0.04879
#
# Static dielectric constant tensor:
#      x y z
#    x 3.987370 0.000000 0.023130 
#    y 0.000000 4.041400 0.000000 
#    z 0.023130 0.000000 4.478740 
# 
# 
# High freq. dielectric constant tensor:
#      x y z
#    x 1.920060 0.000000 -0.001480 
#    y 0.000000 1.912310 0.000000 
#    z -0.001480 0.000000 1.940810 
# 
# From -- ./inp_files/98784.got.cif
#   From: 2010.06.25/outbox.cif.g09.slc.cpg/sg15_50_cif.got.tgz:98784.got - 2010.06.28 07:06:18.
