data_PCOD8152283
_publ_section_title
;
Structure prediction by ZEFSAII (Michael W. Deem and Ramdas Pophale) SiO2 
 PCOD8152283
Probable space group: C 2/C
;
_chemical_formula_sum "Si O2"
_cell_formula_units_Z 48
_cell_length_a 7.671004
_cell_length_b 12.631409
_cell_length_c 17.868848
_cell_angle_alpha 90.000000
_cell_angle_beta 96.103093
_cell_angle_gamma 90.000000
_cell_volume 1721.599262
_symmetry_space_group_name_H-M "C 2/C"
_symmetry_group_IT_number 15
_symmetry_cell_setting 'monoclinic'
loop_
_space_group_symop_operation_xyz
x,y,z
-x,y,1/2-z
-x,-y,-z
x,-y,1/2+z
1/2+x,1/2+y,z
1/2-x,1/2+y,1/2-z
1/2-x,1/2-y,-z
1/2+x,1/2-y,1/2+z
loop_
_atom_site_type_symbol
_atom_site_label
_atom_site_fract_x
_atom_site_fract_y
_atom_site_fract_z
Si Si1 0.688726 0.984739 0.257707
Si Si2 0.159891 0.185250 0.886024
Si Si3 0.421024 0.491914 0.893929
Si Si4 0.306013 0.753430 0.233027
Si Si5 0.869462 0.602979 0.022722
Si Si6 0.773983 0.581711 0.386007
O O1 0.500000 0.043105 0.250000
O O2 0.669176 0.871920 0.298266
O O3 0.825929 0.051716 0.313408
O O4 0.750244 0.980832 0.173446
O O5 0.200348 0.228304 0.805075
O O6 0.126287 0.287123 0.934522
O O7 0.323049 0.121012 0.933038
O O8 0.983334 0.113324 0.884247
O O9 0.281206 0.477435 0.953965
O O10 0.586247 0.413473 0.919167
O O11 0.500000 0.703242 0.250000
O O12 0.195736 0.682340 0.168372
O O13 0.069850 0.559159 0.046663
#
# Coordination Sequence:
#
# PCOD8152283 Si02
#       6
#     8   8   8   8   8   8
#     4  11  22  40  65 100 138 178 237 303 364 427
#     4  11  25  47  72 104 151 200 246 307 383 454
#     4  12  24  45  72 105 142 193 251 307 375 451
#     4  11  24  43  70 105 143 187 249 314 371 451
#     4  11  26  47  71 105 150 199 248 306 378 457
#     4  12  24  43  73 104 141 191 243 315 370 445
#
# _framework density 27.881053000000001
#
# number of rings (size 3 to 8) (size 9 to 14) (size 15 to 20)
#    0.000    0.667    3.333    5.000    0.000    2.000 
#    0.000    9.167    0.000    0.000    0.000    0.000 
#    0.000    0.000    0.000    0.000    0.000    0.000 
#
# Total GULP energy -297452.672336 kJ/mol
# GULP energy per Si atom -12393.861347 kJ/mol
# Density = 2.781759 g / cm^3
# Si number density = 27.881053 Si / 1000 Ang^3
#
#
#
# Elastic Constant Matrix: (Units=GPa)
#
#
# Indices 1 2 3 4 5 6 
#
# 1 179.6511 53.6017 50.5501 0.0000 24.6931 0.0000
# 2 53.6017 110.3281 22.6352 0.0000 6.5270 0.0000
# 3 50.5501 22.6352 130.9158 0.0000 35.7230 0.0000
# 4 0.0000 0.0000 0.0000 38.4967 0.0000 7.0907
# 5 24.6931 6.5270 35.7230 0.0000 52.0960 0.0000
# 6 0.0000 0.0000 0.0000 7.0907 0.0000 35.2858
#
#
#
# Elastic Compliance Matrix: (Units=1/GPa)
#
#
# Indices 1 2 3 4 5 6 
#
# 1 0.007221 -0.003038 -0.001763 0.000000 -0.001833 0.000000
# 2 -0.003038 0.010676 -0.000862 0.000000 0.000694 0.000000
# 3 -0.001763 -0.000862 0.010101 0.000000 -0.005983 0.000000
# 4 0.000000 0.000000 0.000000 0.026975 0.000000 -0.005421
# 5 -0.001833 0.000694 -0.005983 0.000000 0.024080 0.000000
# 6 0.000000 0.000000 0.000000 -0.005421 0.000000 0.029429
#
#
# Mechanical properties :
#
#
# Convention : Reuss Voigt Hill
#
# Bulk Modulus (GPa) = 59.98154 74.94099 67.46127
# Shear Modulus (GPa) = 39.88407 44.78290 42.33349
#
# Velocity S-wave (km/s) = 3.78631 4.01211 3.90084
# Velocity P-wave (km/s) = 6.37769 6.95700 6.67363
#
# Compressibility (1/GPa) = 0.01667180
#
# Stress axis : x y z
#
# Youngs Moduli (GPa) = 138.49005 93.67080 99.00385
#
# Poissons Ratio (x) = 0.28458 0.17450
# Poissons Ratio (y) = 0.42074 0.08534
# Poissons Ratio (z) = 0.24410 0.08074
#
# Static dielectric constant tensor:
#      x y z
#    x 5.155520 0.000000 0.395740 
#    y 0.000000 5.542650 0.000000 
#    z 0.395740 0.000000 5.307200 
# 
# 
# High freq. dielectric constant tensor:
#      x y z
#    x 2.127690 0.000000 0.018160 
#    y 0.000000 2.148990 0.000000 
#    z 0.018160 0.000000 2.138750 
# 
# From -- ./inp_files/231355.got.cif
#   From: 2010.06.25/outbox.cif.g09.slc.cpg/sg15_116_cif.got.tgz:231355.got - 2010.06.28 07:06:18.
