data_PCOD8152851
_publ_section_title
;
Structure prediction by ZEFSAII (Michael W. Deem and Ramdas Pophale) SiO2 
 PCOD8152851
Probable space group: C 2/C
;
_chemical_formula_sum "Si O2"
_cell_formula_units_Z 48
_cell_length_a 8.651489
_cell_length_b 28.157543
_cell_length_c 9.111319
_cell_angle_alpha 90.000000
_cell_angle_beta 89.838597
_cell_angle_gamma 90.000000
_cell_volume 2219.551084
_symmetry_space_group_name_H-M "C 2/C"
_symmetry_group_IT_number 15
_symmetry_cell_setting 'monoclinic'
loop_
_space_group_symop_operation_xyz
x,y,z
-x,y,1/2-z
-x,-y,-z
x,-y,1/2+z
1/2+x,1/2+y,z
1/2-x,1/2+y,1/2-z
1/2-x,1/2-y,-z
1/2+x,1/2-y,1/2+z
loop_
_atom_site_type_symbol
_atom_site_label
_atom_site_fract_x
_atom_site_fract_y
_atom_site_fract_z
Si Si1 0.326950 0.456322 0.203326
Si Si2 0.843719 0.636960 0.824661
Si Si3 0.353161 0.125405 0.159618
Si Si4 0.155706 0.803667 0.830161
Si Si5 0.656104 0.710817 0.663798
Si Si6 0.840952 0.517489 0.071421
O O1 0.500000 0.467349 0.250000
O O2 0.295080 0.400401 0.195214
O O3 0.203324 0.477541 0.314656
O O4 0.296013 0.480054 0.046595
O O5 0.797834 0.684466 0.741481
O O6 0.000000 0.616977 0.750000
O O7 0.867211 0.647426 0.996907
O O8 0.500000 0.142493 0.250000
O O9 0.206499 0.147567 0.247360
O O10 0.350447 0.068254 0.152685
O O11 0.295038 0.765682 0.827148
O O12 0.000000 0.785453 0.750000
O O13 0.123969 0.811157 0.002866
O O14 0.500000 0.702710 0.750000
O O15 0.000000 0.500000 0.000000
#
# Coordination Sequence:
#
# PCOD8152851 Si02
#       6
#     8   8   8   8   8   8
#     4  11  23  39  61  92 126 164 213 268 327 390
#     4  11  23  40  64  91 124 169 216 265 326 393
#     4  11  23  40  63  93 126 165 215 268 322 387
#     4  11  25  42  64  95 129 169 216 268 329 392
#     4  11  24  43  66  93 129 171 217 270 327 393
#     4  11  23  42  65  92 128 172 217 267 330 399
#
# _framework density 21.625993999999999
#
# number of rings (size 3 to 8) (size 9 to 14) (size 15 to 20)
#    0.000    1.000    0.000    7.500    0.000    8.667 
#    0.000    0.000    0.000    0.000    0.000    0.000 
#    0.000    0.000    0.000    0.000    0.000    0.000 
#
# Total GULP energy -297632.828731 kJ/mol
# GULP energy per Si atom -12401.367864 kJ/mol
# Density = 2.157677 g / cm^3
# Si number density = 21.625994 Si / 1000 Ang^3
#
#
#
# Elastic Constant Matrix: (Units=GPa)
#
#
# Indices 1 2 3 4 5 6 
#
# 1 98.7136 23.0504 58.6418 0.0000 6.8609 0.0000
# 2 23.0504 87.0040 51.5717 0.0000 -4.4606 0.0000
# 3 58.6418 51.5717 173.7729 0.0000 2.6126 0.0000
# 4 0.0000 0.0000 0.0000 28.8774 0.0000 -6.9793
# 5 6.8609 -4.4606 2.6126 0.0000 46.0703 0.0000
# 6 0.0000 0.0000 0.0000 -6.9793 0.0000 17.0693
#
#
#
# Elastic Compliance Matrix: (Units=1/GPa)
#
#
# Indices 1 2 3 4 5 6 
#
# 1 0.012889 -0.001147 -0.003982 0.000000 -0.001805 0.000000
# 2 -0.001147 0.014166 -0.003844 0.000000 0.001760 0.000000
# 3 -0.003982 -0.003844 0.008243 0.000000 -0.000247 0.000000
# 4 0.000000 0.000000 0.000000 0.038427 0.000000 0.015712
# 5 -0.001805 0.001760 -0.000247 0.000000 0.022159 0.000000
# 6 0.000000 0.000000 0.000000 0.015712 0.000000 0.065009
#
#
# Mechanical properties :
#
#
# Convention : Reuss Voigt Hill
#
# Bulk Modulus (GPa) = 57.62726 69.55760 63.59243
# Shear Modulus (GPa) = 27.08230 33.48516 30.28373
#
# Velocity S-wave (km/s) = 3.54263 3.93921 3.74617
# Velocity P-wave (km/s) = 6.59080 7.27486 6.94126
#
# Compressibility (1/GPa) = 0.01735290
#
# Stress axis : x y z
#
# Youngs Moduli (GPa) = 77.58447 70.59094 121.31737
#
# Poissons Ratio (x) = 0.08096 0.48310
# Poissons Ratio (y) = 0.08898 0.46629
# Poissons Ratio (z) = 0.30895 0.27132
#
# Static dielectric constant tensor:
#      x y z
#    x 3.798170 0.000000 0.129070 
#    y 0.000000 3.731980 0.000000 
#    z 0.129070 0.000000 4.171540 
# 
# 
# High freq. dielectric constant tensor:
#      x y z
#    x 1.853180 0.000000 0.008490 
#    y 0.000000 1.845990 0.000000 
#    z 0.008490 0.000000 1.869240 
# 
# From -- ./inp_files/26101.got.cif
#   From: 2010.06.25/outbox.cif.g09.slc.cpg/sg15_14_cif.got.tgz:26101.got - 2010.06.28 07:06:18.
