data_PCOD8152004
_publ_section_title
;
Structure prediction by ZEFSAII (Michael W. Deem and Ramdas Pophale) SiO2 
 PCOD8152004
Probable space group: C 2/C
;
_chemical_formula_sum "Si O2"
_cell_formula_units_Z 48
_cell_length_a 12.413847
_cell_length_b 9.634958
_cell_length_c 17.023753
_cell_angle_alpha 90.000000
_cell_angle_beta 66.552496
_cell_angle_gamma 90.000000
_cell_volume 1868.022533
_symmetry_space_group_name_H-M "C 2/C"
_symmetry_group_IT_number 15
_symmetry_cell_setting 'monoclinic'
loop_
_space_group_symop_operation_xyz
x,y,z
-x,y,1/2-z
-x,-y,-z
x,-y,1/2+z
1/2+x,1/2+y,z
1/2-x,1/2+y,1/2-z
1/2-x,1/2-y,-z
1/2+x,1/2-y,1/2+z
loop_
_atom_site_type_symbol
_atom_site_label
_atom_site_fract_x
_atom_site_fract_y
_atom_site_fract_z
Si Si1 0.605739 0.463811 0.602025
Si Si2 0.258994 0.630906 0.581359
Si Si3 0.864836 0.868388 0.640132
Si Si4 0.518109 0.989941 0.655207
Si Si5 0.779736 0.600005 0.173743
Si Si6 0.115435 0.754296 0.023572
O O1 0.691413 0.368210 0.522263
O O2 0.483689 0.388382 0.655398
O O3 0.677049 0.490293 0.661920
O O4 0.563251 0.604534 0.573423
O O5 0.317220 0.499309 0.605738
O O6 0.114337 0.615680 0.624535
O O7 0.308331 0.767402 0.610677
O O8 0.764982 0.830248 0.731948
O O9 0.898662 0.748495 0.567061
O O10 0.500000 0.939922 0.750000
O O11 0.385602 0.010465 0.659303
O O12 0.560176 0.872466 0.584265
O O13 0.250000 0.750000 0.000000
#
# Coordination Sequence:
#
# PCOD8152004 Si02
#       6
#     8   8   8   8   8   8
#     4  11  24  44  70 103 137 188 243 290 365 435
#     4  11  24  48  69 102 149 184 238 307 356 433
#     4  11  23  45  68 101 141 185 244 298 353 437
#     4  12  24  47  70 104 147 185 241 305 359 433
#     4  12  26  44  71 107 144 192 235 296 377 430
#     4  11  21  44  73  99 133 187 240 290 358 435
#
# _framework density 25.695620999999999
#
# number of rings (size 3 to 8) (size 9 to 14) (size 15 to 20)
#    0.000    0.667    5.000    5.000    0.000    6.000 
#    3.000    0.000    0.000    0.000    0.000    0.000 
#    0.000    0.000    0.000    0.000    0.000    0.000 
#
# Total GULP energy -297339.210483 kJ/mol
# GULP energy per Si atom -12389.133770 kJ/mol
# Density = 2.563714 g / cm^3
# Si number density = 25.695621 Si / 1000 Ang^3
#
#
#
# Elastic Constant Matrix: (Units=GPa)
#
#
# Indices 1 2 3 4 5 6 
#
# 1 182.0472 -7.6398 23.6842 0.0000 -0.3423 0.0000
# 2 -7.6398 13.6108 -11.1792 0.0000 0.9279 0.0000
# 3 23.6842 -11.1792 109.5921 0.0000 -0.5116 0.0000
# 4 0.0000 0.0000 0.0000 24.9106 0.0000 -9.0699
# 5 -0.3423 0.9279 -0.5116 0.0000 41.5244 0.0000
# 6 0.0000 0.0000 0.0000 -9.0699 0.0000 29.5371
#
#
#
# Elastic Compliance Matrix: (Units=1/GPa)
#
#
# Indices 1 2 3 4 5 6 
#
# 1 0.005723 0.002399 -0.000992 0.000000 -0.000019 0.000000
# 2 0.002399 0.081314 0.007768 0.000000 -0.001702 0.000000
# 3 -0.000992 0.007768 0.010131 0.000000 -0.000057 0.000000
# 4 0.000000 0.000000 0.000000 0.045197 0.000000 0.013878
# 5 -0.000019 -0.001702 -0.000057 0.000000 0.024119 0.000000
# 6 0.000000 0.000000 0.000000 0.013878 0.000000 0.038117
#
#
# Mechanical properties :
#
#
# Convention : Reuss Voigt Hill
#
# Bulk Modulus (GPa) = 8.65669 34.99784 21.82727
# Shear Modulus (GPa) = 22.24617 39.22009 30.73313
#
# Velocity S-wave (km/s) = 2.94557 3.91107 3.46214
# Velocity P-wave (km/s) = 3.86584 5.83481 4.94923
#
# Compressibility (1/GPa) = 0.11551755
#
# Stress axis : x y z
#
# Youngs Moduli (GPa) = 174.74002 12.29800 98.70377
#
# Poissons Ratio (x) = -0.02950 0.09793
# Poissons Ratio (y) = -0.41913 -0.76676
# Poissons Ratio (z) = 0.17337 -0.09553
#
# Static dielectric constant tensor:
#      x y z
#    x 4.955460 0.000000 0.108760 
#    y 0.000000 4.414280 0.000000 
#    z 0.108760 0.000000 4.797160 
# 
# 
# High freq. dielectric constant tensor:
#      x y z
#    x 2.049190 0.000000 0.001810 
#    y 0.000000 2.000270 0.000000 
#    z 0.001810 0.000000 2.039520 
# 
# From -- ./inp_files/196466.got.cif
#   From: 2010.06.25/outbox.cif.g09.slc.cpg/sg15_99_cif.got.tgz:196466.got - 2010.06.28 07:06:18.
