data_PCOD8152424
_publ_section_title
;
Structure prediction by ZEFSAII (Michael W. Deem and Ramdas Pophale) SiO2 
 PCOD8152424
Probable space group: C 2/C
;
_chemical_formula_sum "Si O2"
_cell_formula_units_Z 40
_cell_length_a 13.734461
_cell_length_b 12.063755
_cell_length_c 13.290674
_cell_angle_alpha 90.000000
_cell_angle_beta 128.426746
_cell_angle_gamma 90.000000
_cell_volume 1725.148941
_symmetry_space_group_name_H-M "C 2/C"
_symmetry_group_IT_number 15
_symmetry_cell_setting 'monoclinic'
loop_
_space_group_symop_operation_xyz
x,y,z
-x,y,1/2-z
-x,-y,-z
x,-y,1/2+z
1/2+x,1/2+y,z
1/2-x,1/2+y,1/2-z
1/2-x,1/2-y,-z
1/2+x,1/2-y,1/2+z
loop_
_atom_site_type_symbol
_atom_site_label
_atom_site_fract_x
_atom_site_fract_y
_atom_site_fract_z
Si Si1 0.287561 0.323573 0.620526
Si Si2 0.652599 0.112072 0.741374
Si Si3 0.527906 0.849151 0.547880
Si Si4 0.940965 0.898377 0.406561
Si Si5 0.000000 0.996603 0.750000
Si Si6 0.000000 0.447011 0.750000
O O1 0.250000 0.250000 0.500000
O O2 0.365907 0.240807 0.742286
O O3 0.170339 0.375216 0.606807
O O4 0.378629 0.422554 0.648666
O O5 0.565470 0.085207 0.587727
O O6 0.794094 0.089815 0.810140
O O7 0.617104 0.030373 0.811345
O O8 0.510171 0.717700 0.518585
O O9 0.494475 0.875270 0.643387
O O10 0.984443 0.911008 0.322615
O O11 0.000000 0.000000 0.500000
#
# Coordination Sequence:
#
# PCOD8152424 Si02
#       6
#     8   8   8   8   4   4
#     4  11  22  41  68  98 133 178 230 280 334 413
#     4  11  24  43  67  95 132 179 223 275 342 414
#     4  11  25  45  66  99 136 175 230 284 343 413
#     4  11  25  44  66  95 132 174 219 274 338 407
#     4  12  22  40  66  96 128 174 224 278 340 396
#     4  12  24  42  68 100 136 178 222 288 348 400
#
# _framework density 23.186402999999999
#
# number of rings (size 3 to 8) (size 9 to 14) (size 15 to 20)
#    0.000    0.800    0.000    9.000    0.000    4.800 
#    0.000    6.000    0.000    0.000    0.000    0.000 
#    0.000    0.000    0.000    0.000    0.000    0.000 
#
# Total GULP energy -247873.550119 kJ/mol
# GULP energy per Si atom -12393.677506 kJ/mol
# Density = 2.313363 g / cm^3
# Si number density = 23.186403 Si / 1000 Ang^3
#
#
#
# Elastic Constant Matrix: (Units=GPa)
#
#
# Indices 1 2 3 4 5 6 
#
# 1 150.2292 48.9935 50.3709 0.0000 -16.0388 0.0000
# 2 48.9935 67.4000 8.9459 0.0000 19.2614 0.0000
# 3 50.3709 8.9459 93.6388 0.0000 -1.1150 0.0000
# 4 0.0000 0.0000 0.0000 45.0700 0.0000 -4.0707
# 5 -16.0388 19.2614 -1.1150 0.0000 29.7080 0.0000
# 6 0.0000 0.0000 0.0000 -4.0707 0.0000 34.6106
#
#
#
# Elastic Compliance Matrix: (Units=1/GPa)
#
#
# Indices 1 2 3 4 5 6 
#
# 1 0.016525 -0.016629 -0.007069 0.000000 0.019438 0.000000
# 2 -0.016629 0.035281 0.005197 0.000000 -0.031657 0.000000
# 3 -0.007069 0.005197 0.013906 0.000000 -0.006664 0.000000
# 4 0.000000 0.000000 0.000000 0.022426 0.000000 0.002638
# 5 0.019438 -0.031657 -0.006664 0.000000 0.064430 0.000000
# 6 0.000000 0.000000 0.000000 0.002638 0.000000 0.029203
#
#
# Mechanical properties :
#
#
# Convention : Reuss Voigt Hill
#
# Bulk Modulus (GPa) = 34.82898 58.65429 46.74164
# Shear Modulus (GPa) = 21.89690 35.40825 28.65257
#
# Velocity S-wave (km/s) = 3.07642 3.91207 3.51914
# Velocity P-wave (km/s) = 5.26052 6.76443 6.05931
#
# Compressibility (1/GPa) = 0.02871172
#
# Stress axis : x y z
#
# Youngs Moduli (GPa) = 60.51454 28.34353 71.91080
#
# Poissons Ratio (x) = 0.47131 0.50835
# Poissons Ratio (y) = 1.00627 -0.37375
# Poissons Ratio (z) = 0.42779 -0.14731
#
# Static dielectric constant tensor:
#      x y z
#    x 4.249630 0.000000 0.324750 
#    y 0.000000 4.477810 0.000000 
#    z 0.324750 0.000000 2.979680 
# 
# 
# High freq. dielectric constant tensor:
#      x y z
#    x 1.934830 0.000000 -0.009120 
#    y 0.000000 1.933040 0.000000 
#    z -0.009120 0.000000 1.910310 
# 
# From -- ./inp_files/95178.got.cif
#   From: 2010.06.25/outbox.cif.g09.slc.cpg/sg15_48_cif.got.tgz:95178.got - 2010.06.28 07:06:18.
