data_PCOD8152461
_publ_section_title
;
Structure prediction by ZEFSAII (Michael W. Deem and Ramdas Pophale) SiO2 
 PCOD8152461
Probable space group: C 2/C
;
_chemical_formula_sum "Si O2"
_cell_formula_units_Z 52
_cell_length_a 18.845613
_cell_length_b 13.993269
_cell_length_c 16.397403
_cell_angle_alpha 90.000000
_cell_angle_beta 34.023771
_cell_angle_gamma 90.000000
_cell_volume 2419.542099
_symmetry_space_group_name_H-M "C 2/C"
_symmetry_group_IT_number 15
_symmetry_cell_setting 'monoclinic'
loop_
_space_group_symop_operation_xyz
x,y,z
-x,y,1/2-z
-x,-y,-z
x,-y,1/2+z
1/2+x,1/2+y,z
1/2-x,1/2+y,1/2-z
1/2-x,1/2-y,-z
1/2+x,1/2-y,1/2+z
loop_
_atom_site_type_symbol
_atom_site_label
_atom_site_fract_x
_atom_site_fract_y
_atom_site_fract_z
Si Si1 0.500000 0.202291 0.250000
Si Si2 0.391788 0.562981 0.646113
Si Si3 0.036541 0.380542 0.302436
Si Si4 0.319008 0.919469 0.624121
Si Si5 0.207452 0.718418 0.760905
Si Si6 0.102397 0.182618 0.517322
Si Si7 0.844769 0.566091 0.283182
O O1 0.396992 0.266428 0.395653
O O2 0.430184 0.143776 0.246508
O O3 0.500000 0.500000 0.500000
O O4 0.300561 0.488920 0.780401
O O5 0.301065 0.626491 0.673587
O O6 0.461376 0.639901 0.637539
O O7 0.092850 0.299671 0.307154
O O8 0.138926 0.464273 0.188621
O O9 0.000000 0.334602 0.250000
O O10 0.918859 0.435148 0.456959
O O11 0.280800 0.808944 0.656594
O O12 0.382560 0.941382 0.651552
O O13 0.144910 0.741063 0.908133
O O14 0.197444 0.093392 0.428126
#
# Coordination Sequence:
#
# PCOD8152461 Si02
#       7
#     4   8   8   8   8   8   8
#     4  12  24  38  66 100 144 164 218 270 342 398
#     4  12  22  43  70  99 131 171 230 272 327 396
#     4  12  25  42  65  95 131 170 219 271 330 392
#     4  11  25  42  72  97 126 179 224 276 328 395
#     4  11  23  43  71  94 131 171 233 272 331 396
#     4  11  24  42  66 102 130 180 213 278 329 396
#     4  11  22  42  64  93 133 168 214 262 332 396
#
# _framework density 21.491669999999999
#
# number of rings (size 3 to 8) (size 9 to 14) (size 15 to 20)
#    0.000    0.615    5.385    4.615    2.154    1.846 
#    0.000    0.000    1.692    0.000    0.000    0.000 
#    0.000    0.000    0.000    0.000    0.000    0.000 
#
# Total GULP energy -322402.558284 kJ/mol
# GULP energy per Si atom -12400.098396 kJ/mol
# Density = 2.144275 g / cm^3
# Si number density = 21.491670 Si / 1000 Ang^3
#
#
#
# Elastic Constant Matrix: (Units=GPa)
#
#
# Indices 1 2 3 4 5 6 
#
# 1 102.5726 25.7686 56.7271 0.0000 -1.7948 0.0000
# 2 25.7686 95.4442 22.4608 0.0000 -4.3244 0.0000
# 3 56.7271 22.4608 74.4544 0.0001 4.0819 -0.0001
# 4 0.0000 0.0000 0.0001 19.9396 -0.0001 -6.8115
# 5 -1.7948 -4.3244 4.0819 -0.0001 31.5855 0.0000
# 6 0.0000 0.0000 -0.0001 -6.8115 0.0000 24.1532
#
#
#
# Elastic Compliance Matrix: (Units=1/GPa)
#
#
# Indices 1 2 3 4 5 6 
#
# 1 0.017273 -0.001534 -0.012831 0.000000 0.002430 0.000000
# 2 -0.001534 0.011541 -0.002412 0.000000 0.001805 0.000000
# 3 -0.012831 -0.002412 0.024164 0.000000 -0.004182 0.000000
# 4 0.000000 0.000000 0.000000 0.055498 0.000000 0.015651
# 5 0.002430 0.001805 -0.004182 0.000000 0.032586 0.000000
# 6 0.000000 0.000000 0.000000 0.015651 0.000000 0.045816
#
#
# Mechanical properties :
#
#
# Convention : Reuss Voigt Hill
#
# Bulk Modulus (GPa) = 51.48139 53.59825 52.53982
# Shear Modulus (GPa) = 22.03561 26.30332 24.16946
#
# Velocity S-wave (km/s) = 3.20552 3.50220 3.35714
# Velocity P-wave (km/s) = 6.14057 6.43017 6.28704
#
# Compressibility (1/GPa) = 0.01942450
#
# Stress axis : x y z
#
# Youngs Moduli (GPa) = 57.89340 86.64929 41.38422
#
# Poissons Ratio (x) = 0.13291 0.53100
# Poissons Ratio (y) = 0.08880 0.09981
# Poissons Ratio (z) = 0.74283 0.20898
#
# Static dielectric constant tensor:
#      x y z
#    x 4.010610 0.000000 -0.228560 
#    y 0.000000 3.956560 0.000000 
#    z -0.228560 0.000000 3.764630 
# 
# 
# High freq. dielectric constant tensor:
#      x y z
#    x 1.842130 0.000000 -0.018010 
#    y 0.000000 1.853680 0.000000 
#    z -0.018010 0.000000 1.831860 
# 
# From -- ./inp_files/162467.got.cif
#   From: 2010.06.25/outbox.cif.g09.slc.cpg/sg15_82_cif.got.tgz:162467.got - 2010.06.28 07:06:18.
