data_PCOD8152859
_publ_section_title
;
Structure prediction by ZEFSAII (Michael W. Deem and Ramdas Pophale) SiO2 
 PCOD8152859
Probable space group: C 2/C
;
_chemical_formula_sum "Si O2"
_cell_formula_units_Z 36
_cell_length_a 25.535824
_cell_length_b 7.909441
_cell_length_c 13.397877
_cell_angle_alpha 90.000000
_cell_angle_beta 139.180371
_cell_angle_gamma 90.000000
_cell_volume 1768.873550
_symmetry_space_group_name_H-M "C 2/C"
_symmetry_group_IT_number 15
_symmetry_cell_setting 'monoclinic'
loop_
_space_group_symop_operation_xyz
x,y,z
-x,y,1/2-z
-x,-y,-z
x,-y,1/2+z
1/2+x,1/2+y,z
1/2-x,1/2+y,1/2-z
1/2-x,1/2-y,-z
1/2+x,1/2-y,1/2+z
loop_
_atom_site_type_symbol
_atom_site_label
_atom_site_fract_x
_atom_site_fract_y
_atom_site_fract_z
Si Si1 0.582848 0.859092 0.056415
Si Si2 0.549278 0.226232 0.997969
Si Si3 0.179959 0.600582 0.311131
Si Si4 0.642403 0.300702 0.443426
Si Si5 0.500000 0.463494 0.750000
O O1 0.537915 0.027933 0.948870
O O2 0.648735 0.914665 0.234733
O O3 0.518965 0.734642 0.017226
O O4 0.626105 0.760057 0.031373
O O5 0.637821 0.241354 0.176856
O O6 0.541490 0.349700 0.893987
O O7 0.275057 0.596202 0.437680
O O8 0.152095 0.641054 0.383826
O O9 0.569621 0.420478 0.302683
#
# Coordination Sequence:
#
# PCOD8152859 Si02
#       5
#     8   8   8   8   4
#     4   9  21  41  67  80 122 170 204 242 306 379
#     4   9  22  40  62  89 118 164 210 244 309 366
#     4   9  22  41  62  90 120 166 208 250 302 375
#     4  11  23  39  64  92 128 159 205 262 309 354
#     4  12  26  36  64 100 126 154 206 270 302 358
#
# _framework density 20.351935999999998
#
# number of rings (size 3 to 8) (size 9 to 14) (size 15 to 20)
#    1.333    0.889    0.000    1.333    6.222    3.556 
#    4.000    1.111    0.000    0.000    0.000    0.000 
#    0.000    0.000    0.000    0.000    0.000    0.000 
#
# Total GULP energy -223041.999933 kJ/mol
# GULP energy per Si atom -12391.222219 kJ/mol
# Density = 2.030561 g / cm^3
# Si number density = 20.351936 Si / 1000 Ang^3
#
#
#
# Elastic Constant Matrix: (Units=GPa)
#
#
# Indices 1 2 3 4 5 6 
#
# 1 89.5579 12.7800 17.5219 0.0000 14.9295 0.0000
# 2 12.7800 31.8996 4.6323 0.0000 3.0933 0.0000
# 3 17.5219 4.6323 100.0335 0.0000 19.5831 0.0000
# 4 0.0000 0.0000 0.0000 27.1314 0.0000 -10.6853
# 5 14.9295 3.0933 19.5831 0.0000 32.7696 0.0000
# 6 0.0000 0.0000 0.0000 -10.6853 0.0000 19.5557
#
#
#
# Elastic Compliance Matrix: (Units=1/GPa)
#
#
# Indices 1 2 3 4 5 6 
#
# 1 0.012819 -0.004514 -0.001106 0.000000 -0.004753 0.000000
# 2 -0.004514 0.033316 -0.000610 0.000000 -0.000723 0.000000
# 3 -0.001106 -0.000610 0.011448 0.000000 -0.006280 0.000000
# 4 0.000000 0.000000 0.000000 0.046964 0.000000 0.025661
# 5 -0.004753 -0.000723 -0.006280 0.000000 0.036503 0.000000
# 6 0.000000 0.000000 0.000000 0.025661 0.000000 0.065158
#
#
# Mechanical properties :
#
#
# Convention : Reuss Voigt Hill
#
# Bulk Modulus (GPa) = 22.16228 32.37329 27.26778
# Shear Modulus (GPa) = 21.39418 28.32846 24.86132
#
# Velocity S-wave (km/s) = 3.24576 3.73490 3.49889
# Velocity P-wave (km/s) = 4.99597 5.87713 5.45437
#
# Compressibility (1/GPa) = 0.04512172
#
# Stress axis : x y z
#
# Youngs Moduli (GPa) = 78.01010 30.01590 87.35157
#
# Poissons Ratio (x) = 0.13550 0.09659
# Poissons Ratio (y) = 0.35215 0.05332
# Poissons Ratio (z) = 0.08626 0.01832
#
# Static dielectric constant tensor:
#      x y z
#    x 3.598880 0.000000 0.091820 
#    y 0.000000 3.358280 0.000000 
#    z 0.091820 0.000000 3.682960 
# 
# 
# High freq. dielectric constant tensor:
#      x y z
#    x 1.798170 0.000000 0.006680 
#    y 0.000000 1.759960 0.000000 
#    z 0.006680 0.000000 1.796850 
# 
# From -- ./inp_files/116145.got.cif
#   From: 2010.06.25/outbox.cif.g09.slc.cpg/sg15_59_cif.got.tgz:116145.got - 2010.06.28 07:06:18.
