data_PCOD8152875
_publ_section_title
;
Structure prediction by ZEFSAII (Michael W. Deem and Ramdas Pophale) SiO2 
 PCOD8152875
Probable space group: C 2/C
;
_chemical_formula_sum "Si O2"
_cell_formula_units_Z 32
_cell_length_a 32.416049
_cell_length_b 4.759509
_cell_length_c 17.611235
_cell_angle_alpha 90.000000
_cell_angle_beta 30.133846
_cell_angle_gamma 90.000000
_cell_volume 1364.063375
_symmetry_space_group_name_H-M "C 2/C"
_symmetry_group_IT_number 15
_symmetry_cell_setting 'monoclinic'
loop_
_space_group_symop_operation_xyz
x,y,z
-x,y,1/2-z
-x,-y,-z
x,-y,1/2+z
1/2+x,1/2+y,z
1/2-x,1/2+y,1/2-z
1/2-x,1/2-y,-z
1/2+x,1/2-y,1/2+z
loop_
_atom_site_type_symbol
_atom_site_label
_atom_site_fract_x
_atom_site_fract_y
_atom_site_fract_z
Si Si1 0.413099 0.567820 0.242082
Si Si2 0.939677 0.278392 0.554781
Si Si3 0.268305 0.757583 0.768016
Si Si4 0.316017 0.900326 0.948711
O O1 0.411194 0.475432 0.155841
O O2 0.396896 0.297607 0.320220
O O3 0.342428 0.798990 0.372311
O O4 0.506959 0.672057 0.103215
O O5 0.854300 0.398377 0.658546
O O6 0.000000 0.500000 0.500000
O O7 0.284657 0.520617 0.677959
O O8 0.218799 0.586229 0.911401
O O9 0.250000 0.750000 0.000000
#
# Coordination Sequence:
#
# PCOD8152875 Si02
#       4
#     8   8   8   8
#     4  11  23  39  74 102 129 182 251 293 331 424
#     4  11  24  45  74 106 143 189 249 292 363 441
#     4  12  29  46  69 106 153 187 230 314 387 417
#     4  12  23  43  71 104 139 187 251 290 347 441
#
# _framework density 23.459320000000002
#
# number of rings (size 3 to 8) (size 9 to 14) (size 15 to 20)
#    0.000    0.500    5.000    2.250   10.500    0.000 
#    0.000    7.500    0.000    0.000    0.000    0.000 
#    0.000    0.000    0.000    0.000    0.000    0.000 
#
# Total GULP energy -198209.609803 kJ/mol
# GULP energy per Si atom -12388.100613 kJ/mol
# Density = 2.340593 g / cm^3
# Si number density = 23.459320 Si / 1000 Ang^3
#
#
#
# Elastic Constant Matrix: (Units=GPa)
#
#
# Indices 1 2 3 4 5 6 
#
# 1 78.5903 37.7657 48.9972 0.0007 -4.0918 0.0260
# 2 37.7657 128.8457 34.9460 -0.2302 -3.9862 0.1412
# 3 48.9972 34.9460 137.6677 0.1223 -4.1999 -0.0040
# 4 0.0007 -0.2302 0.1223 55.0602 0.0504 10.6333
# 5 -4.0918 -3.9862 -4.1999 0.0504 22.4895 0.0180
# 6 0.0260 0.1412 -0.0040 10.6333 0.0180 30.2972
#
#
#
# Elastic Compliance Matrix: (Units=1/GPa)
#
#
# Indices 1 2 3 4 5 6 
#
# 1 0.017976 -0.003756 -0.005396 -0.000006 0.001597 0.000002
# 2 -0.003756 0.009147 -0.000962 0.000051 0.000758 -0.000058
# 3 -0.005396 -0.000962 0.009447 -0.000029 0.000612 0.000020
# 4 -0.000006 0.000051 -0.000029 0.019483 -0.000036 -0.006838
# 5 0.001597 0.000758 0.000612 -0.000036 0.045005 -0.000019
# 6 0.000002 -0.000058 0.000020 -0.006838 -0.000019 0.035406
#
#
# Mechanical properties :
#
#
# Convention : Reuss Voigt Hill
#
# Bulk Modulus (GPa) = 61.18984 65.39127 63.29055
# Shear Modulus (GPa) = 30.83771 36.46237 33.65004
#
# Velocity S-wave (km/s) = 3.62956 3.94671 3.79146
# Velocity P-wave (km/s) = 6.61097 6.97879 6.79737
#
# Compressibility (1/GPa) = 0.01634258
#
# Stress axis : x y z
#
# Youngs Moduli (GPa) = 55.62865 109.32929 105.85224
#
# Poissons Ratio (x) = 0.41066 0.57115
# Poissons Ratio (y) = 0.20895 0.10182
# Poissons Ratio (z) = 0.30016 0.10516
#
# Static dielectric constant tensor:
#      x y z
#    x 3.775700 0.000080 0.053890 
#    y 0.000080 4.463440 0.000260 
#    z 0.053890 0.000260 5.179970 
# 
# 
# High freq. dielectric constant tensor:
#      x y z
#    x 1.872050 0.000000 0.007340 
#    y 0.000000 1.944090 0.000020 
#    z 0.007340 0.000020 1.956820 
# 
# From -- ./inp_files/223792.got.cif
#   From: 2010.06.25/outbox.cif.g09.slc.cpg/sg15_112_cif.got.tgz:223792.got - 2010.06.28 07:06:18.
