data_PCOD8152527
_publ_section_title
;
Structure prediction by ZEFSAII (Michael W. Deem and Ramdas Pophale) SiO2 
 PCOD8152527
Probable space group: C 2/C
;
_chemical_formula_sum "Si O2"
_cell_formula_units_Z 52
_cell_length_a 11.182761
_cell_length_b 24.066351
_cell_length_c 13.197231
_cell_angle_alpha 90.000000
_cell_angle_beta 131.552887
_cell_angle_gamma 90.000000
_cell_volume 2657.928261
_symmetry_space_group_name_H-M "C 2/C"
_symmetry_group_IT_number 15
_symmetry_cell_setting 'monoclinic'
loop_
_space_group_symop_operation_xyz
x,y,z
-x,y,1/2-z
-x,-y,-z
x,-y,1/2+z
1/2+x,1/2+y,z
1/2-x,1/2+y,1/2-z
1/2-x,1/2-y,-z
1/2+x,1/2-y,1/2+z
loop_
_atom_site_type_symbol
_atom_site_label
_atom_site_fract_x
_atom_site_fract_y
_atom_site_fract_z
Si Si1 0.211926 0.469149 0.549578
Si Si2 0.401425 0.640776 0.410298
Si Si3 0.500000 0.611964 0.250000
Si Si4 0.634537 0.950065 0.178813
Si Si5 0.182783 0.739150 0.350667
Si Si6 0.623497 0.644787 0.729657
Si Si7 0.675141 0.479003 0.574117
O O1 0.343732 0.423625 0.643818
O O2 0.163526 0.496265 0.626770
O O3 0.287524 0.519193 0.524443
O O4 0.054124 0.438067 0.416539
O O5 0.476004 0.647278 0.339656
O O6 0.279583 0.691024 0.350827
O O7 0.537171 0.644039 0.572432
O O8 0.303979 0.582792 0.369247
O O9 0.727262 0.896620 0.188915
O O10 0.703565 0.972691 0.322711
O O11 0.250000 0.750000 0.500000
O O12 0.197124 0.794790 0.292055
O O13 0.000000 0.719439 0.250000
O O14 0.500000 0.628353 0.750000
O O15 0.500000 0.500000 0.500000
#
# Coordination Sequence:
#
# PCOD8152527 Si02
#       7
#     8   8   4   8   8   8   8
#     4  11  23  38  58  97 137 173 220 268 331 406
#     4  12  24  42  70 100 130 185 221 279 342 411
#     4  12  24  44  64  94 146 182 218 272 340 428
#     4  11  23  37  62  98 132 170 222 273 329 403
#     4  11  24  45  71 101 130 169 234 296 336 396
#     4  11  22  42  71  96 131 178 225 278 351 402
#     4  12  21  38  67  93 133 180 219 261 337 408
#
# _framework density 19.564109999999999
#
# number of rings (size 3 to 8) (size 9 to 14) (size 15 to 20)
#    0.000    0.615    7.692    1.385    1.077    2.462 
#    0.000    0.769    3.385    0.000    0.000    0.000 
#    0.000    0.000    0.000    0.000    0.000    0.000 
#
# Total GULP energy -322302.593333 kJ/mol
# GULP energy per Si atom -12396.253590 kJ/mol
# Density = 1.951958 g / cm^3
# Si number density = 19.564110 Si / 1000 Ang^3
#
#
#
# Elastic Constant Matrix: (Units=GPa)
#
#
# Indices 1 2 3 4 5 6 
#
# 1 118.9838 56.8110 66.3768 0.0000 7.3828 0.0000
# 2 56.8110 123.2939 41.9092 0.0000 11.1753 0.0000
# 3 66.3768 41.9092 122.3579 0.0000 8.1100 0.0000
# 4 0.0000 0.0000 0.0000 32.8398 0.0000 4.7796
# 5 7.3828 11.1753 8.1100 0.0000 49.7312 0.0000
# 6 0.0000 0.0000 0.0000 4.7796 0.0000 39.1467
#
#
#
# Elastic Compliance Matrix: (Units=1/GPa)
#
#
# Indices 1 2 3 4 5 6 
#
# 1 0.013829 -0.004318 -0.006016 0.000000 -0.000102 0.000000
# 2 -0.004318 0.010650 -0.001202 0.000000 -0.001556 0.000000
# 3 -0.006016 -0.001202 0.011900 0.000000 -0.000777 0.000000
# 4 0.000000 0.000000 0.000000 0.031002 0.000000 -0.003785
# 5 -0.000102 -0.001556 -0.000777 0.000000 0.020600 0.000000
# 6 0.000000 0.000000 0.000000 -0.003785 0.000000 0.026007
#
#
# Mechanical properties :
#
#
# Convention : Reuss Voigt Hill
#
# Bulk Modulus (GPa) = 75.15474 77.20328 76.17901
# Shear Modulus (GPa) = 35.33712 37.64611 36.49161
#
# Velocity S-wave (km/s) = 4.25458 4.39138 4.32352
# Velocity P-wave (km/s) = 7.91412 8.07834 7.99665
#
# Compressibility (1/GPa) = 0.01330588
#
# Stress axis : x y z
#
# Youngs Moduli (GPa) = 72.31413 93.89731 84.03574
#
# Poissons Ratio (x) = 0.40542 0.50557
# Poissons Ratio (y) = 0.31223 0.10104
# Poissons Ratio (z) = 0.43505 0.11290
#
# Static dielectric constant tensor:
#      x y z
#    x 3.671100 0.000000 -0.067630 
#    y 0.000000 3.583830 0.000000 
#    z -0.067630 0.000000 3.878940 
# 
# 
# High freq. dielectric constant tensor:
#      x y z
#    x 1.766260 0.000000 -0.002510 
#    y 0.000000 1.744480 0.000000 
#    z -0.002510 0.000000 1.782010 
# 
# From -- ./inp_files/91329.got.cif
#   From: 2010.06.25/outbox.cif.g09.slc.cpg/sg15_46_cif.got.tgz:91329.got - 2010.06.28 07:06:18.
