data_PCOD8152400
_publ_section_title
;
Structure prediction by ZEFSAII (Michael W. Deem and Ramdas Pophale) SiO2 
 PCOD8152400
Probable space group: C 2/C
;
_chemical_formula_sum "Si O2"
_cell_formula_units_Z 48
_cell_length_a 13.682163
_cell_length_b 17.053811
_cell_length_c 17.590621
_cell_angle_alpha 90.000000
_cell_angle_beta 149.332318
_cell_angle_gamma 90.000000
_cell_volume 2093.518476
_symmetry_space_group_name_H-M "C 2/C"
_symmetry_group_IT_number 15
_symmetry_cell_setting 'monoclinic'
loop_
_space_group_symop_operation_xyz
x,y,z
-x,y,1/2-z
-x,-y,-z
x,-y,1/2+z
1/2+x,1/2+y,z
1/2-x,1/2+y,1/2-z
1/2-x,1/2-y,-z
1/2+x,1/2-y,1/2+z
loop_
_atom_site_type_symbol
_atom_site_label
_atom_site_fract_x
_atom_site_fract_y
_atom_site_fract_z
Si Si1 0.406664 0.283944 0.045445
Si Si2 0.712177 0.915308 0.368532
Si Si3 0.701645 0.406522 0.246352
Si Si4 0.166213 0.591686 0.311241
Si Si5 0.951378 0.068887 0.302783
Si Si6 0.565753 0.870891 0.583027
O O1 0.571065 0.336873 0.196800
O O2 0.510376 0.216310 0.068712
O O3 0.250000 0.250000 0.000000
O O4 0.330080 0.342932 0.928619
O O5 0.500000 0.885141 0.250000
O O6 0.761214 0.885995 0.317091
O O7 0.873704 0.886647 0.536914
O O8 0.726134 0.009162 0.386002
O O9 0.599556 0.490132 0.185092
O O10 0.903022 0.411722 0.424428
O O11 0.095300 0.577108 0.178447
O O12 0.000000 0.630284 0.250000
O O13 0.769962 0.128093 0.176720
O O14 0.000000 0.044554 0.250000
#
# Coordination Sequence:
#
# PCOD8152400 Si02
#       6
#     8   8   8   8   8   8
#     4  12  26  45  68 105 147 190 225 286 362 422
#     4  11  24  46  73 102 136 184 237 289 351 405
#     4  12  26  44  72 105 142 188 235 285 351 422
#     4  11  22  41  67  98 142 181 224 287 344 411
#     4  12  26  44  71 101 140 186 238 292 338 410
#     4  12  26  42  66 103 144 181 236 285 347 416
#
# _framework density 22.927909
#
# number of rings (size 3 to 8) (size 9 to 14) (size 15 to 20)
#    0.000    0.333    5.000    4.000    7.000    0.000 
#    0.000    0.833    0.000    5.000    0.000    0.000 
#    0.000    0.000    0.000    0.000    0.000    0.000 
#
# Total GULP energy -297565.812875 kJ/mol
# GULP energy per Si atom -12398.575536 kJ/mol
# Density = 2.287572 g / cm^3
# Si number density = 22.927909 Si / 1000 Ang^3
#
#
#
# Elastic Constant Matrix: (Units=GPa)
#
#
# Indices 1 2 3 4 5 6 
#
# 1 140.5667 17.9346 54.4327 0.0038 11.4256 -0.0076
# 2 17.9346 50.6118 0.0750 0.0057 25.1946 -0.0098
# 3 54.4327 0.0750 177.7529 0.0161 14.3918 -0.0158
# 4 0.0038 0.0057 0.0161 22.0424 0.0022 1.6472
# 5 11.4256 25.1946 14.3918 0.0022 46.8099 -0.0043
# 6 -0.0076 -0.0098 -0.0158 1.6472 -0.0043 25.7708
#
#
#
# Elastic Compliance Matrix: (Units=1/GPa)
#
#
# Indices 1 2 3 4 5 6 
#
# 1 0.008514 -0.003256 -0.002645 0.000001 0.000488 0.000000
# 2 -0.003256 0.028484 0.002217 -0.000008 -0.015218 0.000009
# 3 -0.002645 0.002217 0.006645 -0.000005 -0.002591 0.000004
# 4 0.000001 -0.000008 -0.000005 0.045585 0.000003 -0.002914
# 5 0.000488 -0.015218 -0.002591 0.000003 0.030231 -0.000002
# 6 0.000000 0.000009 0.000004 -0.002914 -0.000002 0.038990
#
#
# Mechanical properties :
#
#
# Convention : Reuss Voigt Hill
#
# Bulk Modulus (GPa) = 27.56720 57.09068 42.32894
# Shear Modulus (GPa) = 28.10423 38.69053 33.39738
#
# Velocity S-wave (km/s) = 3.50489 4.11236 3.82072
# Velocity P-wave (km/s) = 5.33184 6.89223 6.16163
#
# Compressibility (1/GPa) = 0.03627499
#
# Stress axis : x y z
#
# Youngs Moduli (GPa) = 117.45037 35.10712 150.49619
#
# Poissons Ratio (x) = 0.11430 0.39812
# Poissons Ratio (y) = 0.38240 -0.33367
# Poissons Ratio (z) = 0.31070 -0.07784
#
# Static dielectric constant tensor:
#      x y z
#    x 4.350620 0.000050 0.362630 
#    y 0.000050 3.836520 -0.000040 
#    z 0.362630 -0.000040 4.531070 
# 
# 
# High freq. dielectric constant tensor:
#      x y z
#    x 1.904650 0.000000 0.013540 
#    y 0.000000 1.879250 0.000000 
#    z 0.013540 0.000000 1.928150 
# 
# From -- ./inp_files/206506.got.cif
#   From: 2010.06.25/outbox.cif.g09.slc.cpg/sg15_104_cif.got.tgz:206506.got - 2010.06.28 07:06:18.
