data_PCOD8152455
_publ_section_title
;
Structure prediction by ZEFSAII (Michael W. Deem and Ramdas Pophale) SiO2 
 PCOD8152455
Probable space group: C 2/C
;
_chemical_formula_sum "Si O2"
_cell_formula_units_Z 64
_cell_length_a 27.466944
_cell_length_b 11.630638
_cell_length_c 14.928063
_cell_angle_alpha 90.000000
_cell_angle_beta 39.358169
_cell_angle_gamma 90.000000
_cell_volume 3024.268998
_symmetry_space_group_name_H-M "C 2/C"
_symmetry_group_IT_number 15
_symmetry_cell_setting 'monoclinic'
loop_
_space_group_symop_operation_xyz
x,y,z
-x,y,1/2-z
-x,-y,-z
x,-y,1/2+z
1/2+x,1/2+y,z
1/2-x,1/2+y,1/2-z
1/2-x,1/2-y,-z
1/2+x,1/2-y,1/2+z
loop_
_atom_site_type_symbol
_atom_site_label
_atom_site_fract_x
_atom_site_fract_y
_atom_site_fract_z
Si Si1 0.660508 0.243285 0.602673
Si Si2 0.081385 0.273235 0.677270
Si Si3 0.598495 0.011592 0.440105
Si Si4 0.073318 0.488361 0.271603
Si Si5 0.898638 0.889239 0.658389
Si Si6 0.172046 0.729713 0.880668
Si Si7 0.927129 0.854797 0.127904
Si Si8 0.339217 0.239269 0.102071
O O1 0.750000 0.250000 0.500000
O O2 0.627058 0.116982 0.667695
O O3 0.611776 0.334023 0.729162
O O4 0.648987 0.279608 0.516341
O O5 0.089350 0.410174 0.678443
O O6 0.147098 0.231422 0.515183
O O7 0.097451 0.210548 0.747604
O O8 0.000000 0.239180 0.750000
O O9 0.594082 0.032823 0.340626
O O10 0.621885 0.880345 0.423852
O O11 0.517150 0.041141 0.602666
O O12 0.660752 0.099878 0.392493
O O13 0.839042 0.832119 0.674674
O O14 0.982050 0.868567 0.499045
O O15 0.882477 0.024346 0.689393
O O16 0.262219 0.704541 0.751822
O O17 0.908433 0.784174 0.064949
#
# Coordination Sequence:
#
# PCOD8152455 Si02
#       8
#     8   8   8   8   8   8   8   8
#     4  12  25  45  69 102 143 180 220 278 353 411
#     4  12  23  44  72 101 132 176 236 286 341 400
#     4  11  22  43  71 103 139 175 226 290 346 403
#     4  11  22  41  76 103 134 176 230 285 342 408
#     4  11  24  47  69  95 139 186 226 277 341 418
#     4  12  25  44  69  98 141 184 219 289 354 401
#     4  11  26  46  69  99 135 180 237 280 331 414
#     4  12  27  43  67 103 138 176 225 289 343 408
#
# _framework density 21.162139
#
# number of rings (size 3 to 8) (size 9 to 14) (size 15 to 20)
#    0.000    0.500    6.250    1.500    1.750    4.000 
#    2.250    0.000    0.000    0.000    0.000    0.000 
#    0.000    0.000    0.000    0.000    0.000    0.000 
#
# Total GULP energy -396984.126349 kJ/mol
# GULP energy per Si atom -12405.753948 kJ/mol
# Density = 2.111397 g / cm^3
# Si number density = 21.162139 Si / 1000 Ang^3
#
#
#
# Elastic Constant Matrix: (Units=GPa)
#
#
# Indices 1 2 3 4 5 6 
#
# 1 90.4280 33.3483 28.7028 0.0000 20.1307 0.0000
# 2 33.3483 111.6757 35.3657 -0.0001 8.0089 0.0001
# 3 28.7028 35.3657 116.6259 0.0000 20.5817 0.0000
# 4 0.0000 -0.0001 0.0000 27.9426 0.0000 -4.7897
# 5 20.1307 8.0089 20.5817 0.0000 42.5127 0.0000
# 6 0.0000 0.0001 0.0000 -4.7897 0.0000 24.6594
#
#
#
# Elastic Compliance Matrix: (Units=1/GPa)
#
#
# Indices 1 2 3 4 5 6 
#
# 1 0.013921 -0.003307 -0.001498 0.000000 -0.005244 0.000000
# 2 -0.003307 0.010699 -0.002571 0.000000 0.000795 0.000000
# 3 -0.001498 -0.002571 0.010401 0.000000 -0.003842 0.000000
# 4 0.000000 0.000000 0.000000 0.037020 0.000000 0.007191
# 5 -0.005244 0.000795 -0.003842 0.000000 0.027715 0.000000
# 6 0.000000 0.000000 0.000000 0.007191 0.000000 0.041949
#
#
# Mechanical properties :
#
#
# Convention : Reuss Voigt Hill
#
# Bulk Modulus (GPa) = 49.33489 57.06256 53.19873
# Shear Modulus (GPa) = 30.63489 33.77712 32.20601
#
# Velocity S-wave (km/s) = 3.80890 3.99947 3.90535
# Velocity P-wave (km/s) = 6.53506 6.95346 6.74751
#
# Compressibility (1/GPa) = 0.02026963
#
# Stress axis : x y z
#
# Youngs Moduli (GPa) = 71.83540 93.46630 96.14792
#
# Poissons Ratio (x) = 0.30905 0.14403
# Poissons Ratio (y) = 0.23753 0.24718
# Poissons Ratio (z) = 0.10761 0.24029
#
# Static dielectric constant tensor:
#      x y z
#    x 3.818890 0.000000 0.162120 
#    y 0.000000 3.811980 0.000000 
#    z 0.162120 0.000000 3.902720 
# 
# 
# High freq. dielectric constant tensor:
#      x y z
#    x 1.834630 0.000000 0.012890 
#    y 0.000000 1.827380 0.000000 
#    z 0.012890 0.000000 1.836800 
# 
# From -- ./inp_files/177825.got.cif
#   From: 2010.06.25/outbox.cif.g09.slc.cpg/sg15_89_cif.got.tgz:177825.got - 2010.06.28 07:06:18.
