data_PCOD8152756
_publ_section_title
;
Structure prediction by ZEFSAII (Michael W. Deem and Ramdas Pophale) SiO2 
 PCOD8152756
Probable space group: C 2/C
;
_chemical_formula_sum "Si O2"
_cell_formula_units_Z 48
_cell_length_a 14.268633
_cell_length_b 9.628186
_cell_length_c 26.380712
_cell_angle_alpha 90.000000
_cell_angle_beta 138.766587
_cell_angle_gamma 90.000000
_cell_volume 2388.818752
_symmetry_space_group_name_H-M "C 2/C"
_symmetry_group_IT_number 15
_symmetry_cell_setting 'monoclinic'
loop_
_space_group_symop_operation_xyz
x,y,z
-x,y,1/2-z
-x,-y,-z
x,-y,1/2+z
1/2+x,1/2+y,z
1/2-x,1/2+y,1/2-z
1/2-x,1/2-y,-z
1/2+x,1/2-y,1/2+z
loop_
_atom_site_type_symbol
_atom_site_label
_atom_site_fract_x
_atom_site_fract_y
_atom_site_fract_z
Si Si1 0.644558 0.804797 0.607711
Si Si2 0.312774 0.170468 0.979036
Si Si3 0.638566 0.077511 0.776945
Si Si4 0.835873 0.268189 0.683645
Si Si5 0.362267 0.912465 0.340139
Si Si6 0.835560 0.351444 0.998285
O O1 0.476364 0.786101 0.541983
O O2 0.727675 0.679931 0.668183
O O3 0.695106 0.800911 0.570598
O O4 0.687347 0.947906 0.651952
O O5 0.236255 0.210365 0.896155
O O6 0.250000 0.250000 0.000000
O O7 0.286437 0.010288 0.982042
O O8 0.500000 0.138050 0.750000
O O9 0.600145 0.053840 0.702562
O O10 0.683694 0.933570 0.821417
O O11 0.765030 0.197856 0.704378
O O12 0.000000 0.226448 0.750000
O O13 0.497976 0.843066 0.421938
O O14 0.750000 0.250000 0.000000
#
# Coordination Sequence:
#
# PCOD8152756 Si02
#       6
#     8   8   8   8   8   8
#     4  11  23  45  67  94 129 174 216 269 323 388
#     4  11  25  43  67  95 129 172 216 267 328 385
#     4  11  26  40  66  97 133 169 219 271 326 388
#     4  11  25  44  64  95 135 170 214 271 328 388
#     4  11  22  46  64  93 131 174 215 265 329 388
#     4  11  23  43  69  95 131 167 217 272 322 388
#
# _framework density 20.093615
#
# number of rings (size 3 to 8) (size 9 to 14) (size 15 to 20)
#    0.000    1.000    3.333    3.000   14.000    2.667 
#    3.000    0.000    0.000    0.000    0.000    0.000 
#    0.000    0.000    0.000    0.000    0.000    0.000 
#
# Total GULP energy -297674.771936 kJ/mol
# GULP energy per Si atom -12403.115497 kJ/mol
# Density = 2.004788 g / cm^3
# Si number density = 20.093615 Si / 1000 Ang^3
#
#
#
# Elastic Constant Matrix: (Units=GPa)
#
#
# Indices 1 2 3 4 5 6 
#
# 1 125.9653 57.3287 34.4544 0.0000 -13.1576 0.0000
# 2 57.3287 106.5663 50.8132 0.0000 18.4173 0.0000
# 3 34.4544 50.8132 92.8757 0.0000 1.7949 0.0000
# 4 0.0000 0.0000 0.0000 29.3039 0.0000 5.8874
# 5 -13.1576 18.4173 1.7949 0.0000 39.6681 0.0000
# 6 0.0000 0.0000 0.0000 5.8874 0.0000 41.3410
#
#
#
# Elastic Compliance Matrix: (Units=1/GPa)
#
#
# Indices 1 2 3 4 5 6 
#
# 1 0.012432 -0.007792 -0.000499 0.000000 0.007764 0.000000
# 2 -0.007792 0.018949 -0.007263 0.000000 -0.011054 0.000000
# 3 -0.000499 -0.007263 0.014877 0.000000 0.002533 0.000000
# 4 0.000000 0.000000 0.000000 0.035130 0.000000 -0.005003
# 5 0.007764 -0.011054 0.002533 0.000000 0.032802 0.000000
# 6 0.000000 0.000000 0.000000 -0.005003 0.000000 0.024902
#
#
# Mechanical properties :
#
#
# Convention : Reuss Voigt Hill
#
# Bulk Modulus (GPa) = 66.00522 67.84445 66.92483
# Shear Modulus (GPa) = 28.53056 34.25000 31.39028
#
# Velocity S-wave (km/s) = 3.77222 4.13306 3.95676
# Velocity P-wave (km/s) = 7.20368 7.52421 7.36569
#
# Compressibility (1/GPa) = 0.01515032
#
# Stress axis : x y z
#
# Youngs Moduli (GPa) = 80.43459 52.77266 67.21820
#
# Poissons Ratio (x) = 0.41121 0.03355
# Poissons Ratio (y) = 0.62675 0.48821
# Poissons Ratio (z) = 0.04014 0.38329
#
# Static dielectric constant tensor:
#      x y z
#    x 3.986220 0.000000 -0.042870 
#    y 0.000000 3.716270 0.000000 
#    z -0.042870 0.000000 3.673090 
# 
# 
# High freq. dielectric constant tensor:
#      x y z
#    x 1.800800 0.000000 -0.007820 
#    y 0.000000 1.788200 0.000000 
#    z -0.007820 0.000000 1.791260 
# 
# From -- ./inp_files/295435.got.cif
#   From: 2010.06.25/outbox.cif.g09.slc.cpg/sg15_148_cif.got.tgz:295435.got - 2010.06.28 07:06:18.
