data_PCOD8152436
_publ_section_title
;
Structure prediction by ZEFSAII (Michael W. Deem and Ramdas Pophale) SiO2 
 PCOD8152436
Probable space group: C 2/C
;
_chemical_formula_sum "Si O2"
_cell_formula_units_Z 48
_cell_length_a 25.097337
_cell_length_b 11.993098
_cell_length_c 13.975252
_cell_angle_alpha 90.000000
_cell_angle_beta 30.873872
_cell_angle_gamma 90.000000
_cell_volume 2158.554035
_symmetry_space_group_name_H-M "C 2/C"
_symmetry_group_IT_number 15
_symmetry_cell_setting 'monoclinic'
loop_
_space_group_symop_operation_xyz
x,y,z
-x,y,1/2-z
-x,-y,-z
x,-y,1/2+z
1/2+x,1/2+y,z
1/2-x,1/2+y,1/2-z
1/2-x,1/2-y,-z
1/2+x,1/2-y,1/2+z
loop_
_atom_site_type_symbol
_atom_site_label
_atom_site_fract_x
_atom_site_fract_y
_atom_site_fract_z
Si Si1 0.212301 0.579445 0.061464
Si Si2 0.433234 0.785535 0.592396
Si Si3 0.196243 0.896472 0.289294
Si Si4 0.885420 0.074739 0.948100
Si Si5 0.603707 0.198550 0.968710
Si Si6 0.491202 0.968668 0.160436
O O1 0.157002 0.692068 0.188895
O O2 0.126928 0.479851 0.195443
O O3 0.244902 0.590341 0.901598
O O4 0.312547 0.548637 0.969807
O O5 0.402759 0.683622 0.571126
O O6 0.543636 0.751824 0.469067
O O7 0.443061 0.899415 0.517448
O O8 0.159363 0.013913 0.388601
O O9 0.278036 0.838418 0.236296
O O10 0.891783 0.206965 0.956437
O O11 0.000000 0.027366 0.750000
O O12 0.539793 0.090847 0.101135
O O13 0.500000 0.907827 0.250000
#
# Coordination Sequence:
#
# PCOD8152436 Si02
#       6
#     8   8   8   8   8   8
#     4  11  23  43  69  95 129 176 226 266 314 391
#     4  11  24  41  68 102 133 170 220 276 326 384
#     4  12  25  43  68 100 135 172 218 270 332 392
#     4  12  27  44  66  99 137 173 215 274 335 389
#     4  11  23  42  69  96 131 174 224 266 319 392
#     4  11  22  41  70 101 130 171 225 274 320 384
#
# _framework density 22.237110000000001
#
# number of rings (size 3 to 8) (size 9 to 14) (size 15 to 20)
#    0.000    0.667    3.333    6.000    2.333    3.333 
#    0.000    0.000    0.000   11.000    0.000    0.000 
#    0.000    0.000    0.000    0.000    0.000    0.000 
#
# Total GULP energy -297574.080164 kJ/mol
# GULP energy per Si atom -12398.920007 kJ/mol
# Density = 2.218650 g / cm^3
# Si number density = 22.237110 Si / 1000 Ang^3
#
#
#
# Elastic Constant Matrix: (Units=GPa)
#
#
# Indices 1 2 3 4 5 6 
#
# 1 139.7772 31.6762 52.7598 0.0000 -26.8150 0.0000
# 2 31.6762 74.5805 45.7460 0.0000 -1.5120 0.0000
# 3 52.7598 45.7460 91.5915 0.0000 -8.2896 0.0000
# 4 0.0000 0.0000 0.0000 23.6771 0.0000 -6.0085
# 5 -26.8150 -1.5120 -8.2896 0.0000 28.0586 0.0000
# 6 0.0000 0.0000 0.0000 -6.0085 0.0000 20.7892
#
#
#
# Elastic Compliance Matrix: (Units=1/GPa)
#
#
# Indices 1 2 3 4 5 6 
#
# 1 0.011047 -0.001598 -0.004745 0.000000 0.009070 0.000000
# 2 -0.001598 0.019656 -0.009185 0.000000 -0.003181 0.000000
# 3 -0.004745 -0.009185 0.018272 0.000000 0.000369 0.000000
# 4 0.000000 0.000000 0.000000 0.045578 0.000000 0.013173
# 5 0.009070 -0.003181 0.000369 0.000000 0.044245 0.000000
# 6 0.000000 0.000000 0.000000 0.013173 0.000000 0.051909
#
#
# Mechanical properties :
#
#
# Convention : Reuss Voigt Hill
#
# Bulk Modulus (GPa) = 55.80190 62.92369 59.36280
# Shear Modulus (GPa) = 21.95524 26.22278 24.08901
#
# Velocity S-wave (km/s) = 3.14558 3.43772 3.29489
# Velocity P-wave (km/s) = 6.19205 6.64194 6.42094
#
# Compressibility (1/GPa) = 0.01792054
#
# Stress axis : x y z
#
# Youngs Moduli (GPa) = 90.52078 50.87411 54.72857
#
# Poissons Ratio (x) = 0.08129 0.25967
# Poissons Ratio (y) = 0.14464 0.50268
# Poissons Ratio (z) = 0.42949 0.46728
#
# Static dielectric constant tensor:
#      x y z
#    x 4.533010 0.000000 -0.413500 
#    y 0.000000 3.705230 0.000000 
#    z -0.413500 0.000000 3.944110 
# 
# 
# High freq. dielectric constant tensor:
#      x y z
#    x 1.898140 0.000000 -0.020020 
#    y 0.000000 1.847580 0.000000 
#    z -0.020020 0.000000 1.864490 
# 
# From -- ./inp_files/177730.got.cif
#   From: 2010.06.25/outbox.cif.g09.slc.cpg/sg15_89_cif.got.tgz:177730.got - 2010.06.28 07:06:18.
