data_PCOD8152746
_publ_section_title
;
Structure prediction by ZEFSAII (Michael W. Deem and Ramdas Pophale) SiO2 
 PCOD8152746
Probable space group: C 2/C
;
_chemical_formula_sum "Si O2"
_cell_formula_units_Z 44
_cell_length_a 13.460990
_cell_length_b 13.485519
_cell_length_c 13.110359
_cell_angle_alpha 90.000000
_cell_angle_beta 52.129545
_cell_angle_gamma 90.000000
_cell_volume 1878.697167
_symmetry_space_group_name_H-M "C 2/C"
_symmetry_group_IT_number 15
_symmetry_cell_setting 'monoclinic'
loop_
_space_group_symop_operation_xyz
x,y,z
-x,y,1/2-z
-x,-y,-z
x,-y,1/2+z
1/2+x,1/2+y,z
1/2-x,1/2+y,1/2-z
1/2-x,1/2-y,-z
1/2+x,1/2-y,1/2+z
loop_
_atom_site_type_symbol
_atom_site_label
_atom_site_fract_x
_atom_site_fract_y
_atom_site_fract_z
Si Si1 0.641183 0.551812 0.197780
Si Si2 0.099234 0.269238 0.272601
Si Si3 0.261562 0.559485 0.036783
Si Si4 0.324086 0.417331 0.149937
Si Si5 0.500000 0.129161 0.250000
Si Si6 0.953838 0.778522 0.463061
O O1 0.500000 0.527023 0.250000
O O2 0.664411 0.670540 0.182878
O O3 0.675240 0.521099 0.290381
O O4 0.740358 0.477029 0.078645
O O5 0.198368 0.354111 0.230969
O O6 0.037535 0.250932 0.422992
O O7 0.000000 0.306855 0.250000
O O8 0.342793 0.464093 0.026375
O O9 0.124308 0.560832 0.177124
O O10 0.323445 0.667631 0.014960
O O11 0.435702 0.354882 0.126158
O O12 0.478795 0.189646 0.368512
#
# Coordination Sequence:
#
# PCOD8152746 Si02
#       6
#     8   8   8   8   4   8
#     4  11  22  45  75 104 140 192 244 292 352 430
#     4  11  26  44  69 108 146 192 236 294 368 426
#     4  12  25  45  71 106 145 185 243 299 358 435
#     4  12  24  44  71 105 139 186 241 293 357 421
#     4  12  28  46  74 108 144 192 238 304 378 404
#     4  12  23  47  74 101 141 190 253 295 343 443
#
# _framework density 23.420486
#
# number of rings (size 3 to 8) (size 9 to 14) (size 15 to 20)
#    0.000    0.364    3.636    6.545    1.273    2.909 
#    0.000    1.818    0.000    0.000    0.000    0.000 
#    0.000    0.000    0.000    0.000    0.000    0.000 
#
# Total GULP energy -272548.436053 kJ/mol
# GULP energy per Si atom -12388.565275 kJ/mol
# Density = 2.336718 g / cm^3
# Si number density = 23.420486 Si / 1000 Ang^3
#
#
#
# Elastic Constant Matrix: (Units=GPa)
#
#
# Indices 1 2 3 4 5 6 
#
# 1 92.7893 38.6988 17.1106 0.0000 -5.0335 0.0000
# 2 38.6988 80.8144 15.3411 0.0000 -3.3362 0.0000
# 3 17.1106 15.3411 87.2444 0.0000 3.4815 0.0000
# 4 0.0000 0.0000 0.0000 24.6173 0.0000 15.4705
# 5 -5.0335 -3.3362 3.4815 0.0000 36.9540 0.0000
# 6 0.0000 0.0000 0.0000 15.4705 0.0000 25.3869
#
#
#
# Elastic Compliance Matrix: (Units=1/GPa)
#
#
# Indices 1 2 3 4 5 6 
#
# 1 0.013753 -0.006209 -0.001664 0.000000 0.001470 0.000000
# 2 -0.006209 0.015675 -0.001567 0.000000 0.000717 0.000000
# 3 -0.001664 -0.001567 0.012124 0.000000 -0.001510 0.000000
# 4 0.000000 0.000000 0.000000 0.065834 0.000000 -0.040118
# 5 0.001470 0.000717 -0.001510 0.000000 0.027468 0.000000
# 6 0.000000 0.000000 0.000000 -0.040118 0.000000 0.063838
#
#
# Mechanical properties :
#
#
# Convention : Reuss Voigt Hill
#
# Bulk Modulus (GPa) = 44.10906 44.79435 44.45171
# Shear Modulus (GPa) = 22.20939 30.03813 26.12376
#
# Velocity S-wave (km/s) = 3.08277 3.58517 3.34342
# Velocity P-wave (km/s) = 5.61656 6.02541 5.82457
#
# Compressibility (1/GPa) = 0.02267108
#
# Stress axis : x y z
#
# Youngs Moduli (GPa) = 72.70938 63.79782 82.47935
#
# Poissons Ratio (x) = 0.39614 0.13726
# Poissons Ratio (y) = 0.45148 0.12925
# Poissons Ratio (z) = 0.12100 0.09997
#
# Static dielectric constant tensor:
#      x y z
#    x 4.290430 0.000000 0.186060 
#    y 0.000000 4.233320 0.000000 
#    z 0.186060 0.000000 4.259410 
# 
# 
# High freq. dielectric constant tensor:
#      x y z
#    x 1.929220 0.000000 0.021280 
#    y 0.000000 1.932830 0.000000 
#    z 0.021280 0.000000 1.931530 
# 
# From -- ./inp_files/96097.got.cif
#   From: 2010.06.25/outbox.cif.g09.slc.cpg/sg15_49_cif.got.tgz:96097.got - 2010.06.28 07:06:18.
