data_PCOD8152871
_publ_section_title
;
Structure prediction by ZEFSAII (Michael W. Deem and Ramdas Pophale) SiO2 
 PCOD8152871
Probable space group: C 2/C
;
_chemical_formula_sum "Si O2"
_cell_formula_units_Z 52
_cell_length_a 5.234948
_cell_length_b 27.753383
_cell_length_c 18.677873
_cell_angle_alpha 90.000000
_cell_angle_beta 65.628057
_cell_angle_gamma 90.000000
_cell_volume 2471.836107
_symmetry_space_group_name_H-M "C 2/C"
_symmetry_group_IT_number 15
_symmetry_cell_setting 'monoclinic'
loop_
_space_group_symop_operation_xyz
x,y,z
-x,y,1/2-z
-x,-y,-z
x,-y,1/2+z
1/2+x,1/2+y,z
1/2-x,1/2+y,1/2-z
1/2-x,1/2-y,-z
1/2+x,1/2-y,1/2+z
loop_
_atom_site_type_symbol
_atom_site_label
_atom_site_fract_x
_atom_site_fract_y
_atom_site_fract_z
Si Si1 0.539002 0.457362 0.826133
Si Si2 0.500000 0.878774 0.750000
Si Si3 0.250722 0.314390 0.834039
Si Si4 0.989266 0.123005 0.951848
Si Si5 0.934704 0.765216 0.046785
Si Si6 0.329971 0.892430 0.548807
Si Si7 0.677057 0.439907 0.301816
O O1 0.500000 0.473139 0.750000
O O2 0.246712 0.440228 0.895854
O O3 0.652375 0.507756 0.845494
O O4 0.743915 0.411964 0.803279
O O5 0.520134 0.844905 0.817378
O O6 0.500000 0.309104 0.750000
O O7 0.165216 0.261175 0.868787
O O8 0.314318 0.345332 0.898225
O O9 0.077749 0.178478 0.937410
O O10 0.053770 0.100132 0.868362
O O11 0.662784 0.114596 0.007157
O O12 0.187159 0.098841 0.988649
O O13 0.750000 0.750000 0.000000
O O14 0.250000 0.750000 0.000000
O O15 0.500000 0.435639 0.250000
O O16 0.000000 0.428639 0.250000
#
# Coordination Sequence:
#
# PCOD8152871 Si02
#       7
#     8   4   8   8   8   8   8
#     4  11  23  39  69 101 139 185 229 284 355 406
#     4  12  20  40  66 102 136 170 230 292 344 394
#     4  12  25  39  69 105 131 178 233 288 341 412
#     4  12  26  46  70  99 140 187 227 285 355 418
#     4  12  26  46  69  97 138 185 224 282 354 409
#     4  12  23  42  71 101 142 177 224 289 351 416
#     4  11  26  47  72  99 138 188 239 287 341 423
#
# _framework density 21.036992000000001
#
# number of rings (size 3 to 8) (size 9 to 14) (size 15 to 20)
#    0.000    0.308    6.923    1.846    2.154    1.846 
#    1.385    0.000    0.000    0.000    0.000    0.000 
#    0.000    0.000    0.000    0.000    0.000    0.000 
#
# Total GULP energy -322284.127182 kJ/mol
# GULP energy per Si atom -12395.543353 kJ/mol
# Density = 2.098911 g / cm^3
# Si number density = 21.036992 Si / 1000 Ang^3
#
#
#
# Elastic Constant Matrix: (Units=GPa)
#
#
# Indices 1 2 3 4 5 6 
#
# 1 130.9102 41.3243 53.0212 0.0000 -2.0829 0.0000
# 2 41.3243 137.2697 73.2558 0.0000 -0.2116 0.0000
# 3 53.0212 73.2558 129.3328 0.0000 -8.2375 0.0000
# 4 0.0000 0.0000 0.0000 64.7637 0.0000 -37.5992
# 5 -2.0829 -0.2116 -8.2375 0.0000 39.7407 0.0000
# 6 0.0000 0.0000 0.0000 -37.5992 0.0000 58.3487
#
#
#
# Elastic Compliance Matrix: (Units=1/GPa)
#
#
# Indices 1 2 3 4 5 6 
#
# 1 0.009274 -0.001085 -0.003199 0.000000 -0.000183 0.000000
# 2 -0.001085 0.010623 -0.005647 0.000000 -0.001171 0.000000
# 3 -0.003199 -0.005647 0.012393 0.000000 0.002371 0.000000
# 4 0.000000 0.000000 0.000000 0.024670 0.000000 0.015897
# 5 -0.000183 -0.001171 0.002371 0.000000 0.025639 0.000000
# 6 0.000000 0.000000 0.000000 0.015897 0.000000 0.027382
#
#
# Mechanical properties :
#
#
# Convention : Reuss Voigt Hill
#
# Bulk Modulus (GPa) = 80.46099 81.41280 80.93690
# Shear Modulus (GPa) = 37.31728 47.89805 42.60767
#
# Velocity S-wave (km/s) = 4.21632 4.77681 4.50529
# Velocity P-wave (km/s) = 7.87614 8.31912 8.10066
#
# Compressibility (1/GPa) = 0.01242838
#
# Stress axis : x y z
#
# Youngs Moduli (GPa) = 107.82714 94.13245 80.69043
#
# Poissons Ratio (x) = 0.10213 0.25814
# Poissons Ratio (y) = 0.11699 0.45566
# Poissons Ratio (z) = 0.34495 0.53156
#
# Static dielectric constant tensor:
#      x y z
#    x 3.773150 0.000000 0.122470 
#    y 0.000000 3.548080 0.000000 
#    z 0.122470 0.000000 4.008700 
# 
# 
# High freq. dielectric constant tensor:
#      x y z
#    x 1.830620 0.000000 -0.001180 
#    y 0.000000 1.828960 0.000000 
#    z -0.001180 0.000000 1.826310 
# 
# From -- ./inp_files/186037.got.cif
#   From: 2010.06.25/outbox.cif.g09.slc.cpg/sg15_94_cif.got.tgz:186037.got - 2010.06.28 07:06:18.
