data_PCOD8152321
_publ_section_title
;
Structure prediction by ZEFSAII (Michael W. Deem and Ramdas Pophale) SiO2 
 PCOD8152321
Probable space group: C 2/C
;
_chemical_formula_sum "Si O2"
_cell_formula_units_Z 48
_cell_length_a 22.193934
_cell_length_b 11.376439
_cell_length_c 9.137672
_cell_angle_alpha 90.000000
_cell_angle_beta 113.123506
_cell_angle_gamma 90.000000
_cell_volume 2121.796422
_symmetry_space_group_name_H-M "C 2/C"
_symmetry_group_IT_number 15
_symmetry_cell_setting 'monoclinic'
loop_
_space_group_symop_operation_xyz
x,y,z
-x,y,1/2-z
-x,-y,-z
x,-y,1/2+z
1/2+x,1/2+y,z
1/2-x,1/2+y,1/2-z
1/2-x,1/2-y,-z
1/2+x,1/2-y,1/2+z
loop_
_atom_site_type_symbol
_atom_site_label
_atom_site_fract_x
_atom_site_fract_y
_atom_site_fract_z
Si Si1 0.825622 0.018842 0.097513
Si Si2 0.262753 0.052513 0.749830
Si Si3 0.428471 0.917682 0.134166
Si Si4 0.371659 0.108825 0.273042
Si Si5 0.577153 0.682294 0.854026
Si Si6 0.368090 0.748711 0.292555
O O1 0.838913 0.123468 0.223312
O O2 0.768863 0.940402 0.119061
O O3 0.892184 0.947475 0.128835
O O4 0.797177 0.068091 0.919656
O O5 0.311103 0.161515 0.780347
O O6 0.299377 0.925226 0.764654
O O7 0.500000 0.956263 0.250000
O O8 0.409410 0.794968 0.193359
O O9 0.382164 0.021273 0.147288
O O10 0.423217 0.909732 0.954503
O O11 0.381774 0.240237 0.223965
O O12 0.500000 0.677923 0.750000
O O13 0.584524 0.734746 0.023306
#
# Coordination Sequence:
#
# PCOD8152321 Si02
#       6
#     8   8   8   8   8   8
#     4  12  26  44  69  99 138 182 225 287 342 414
#     4  11  24  44  69 101 133 173 234 288 349 396
#     4  11  22  40  68 100 138 179 226 280 337 403
#     4  11  23  41  70 102 137 178 225 288 341 401
#     4  12  27  46  69 101 142 187 228 275 345 419
#     4  11  25  45  67 100 135 180 234 284 338 406
#
# _framework density 22.622340000000001
#
# number of rings (size 3 to 8) (size 9 to 14) (size 15 to 20)
#    0.000    0.667    1.667    7.500    4.667    2.667 
#    0.000    0.000    0.000    0.000    0.000    0.000 
#    0.000    0.000    0.000    0.000    0.000    0.000 
#
# Total GULP energy -297675.328729 kJ/mol
# GULP energy per Si atom -12403.138697 kJ/mol
# Density = 2.257085 g / cm^3
# Si number density = 22.622340 Si / 1000 Ang^3
#
#
#
# Elastic Constant Matrix: (Units=GPa)
#
#
# Indices 1 2 3 4 5 6 
#
# 1 81.5936 34.5706 5.9725 0.0000 14.2999 0.0000
# 2 34.5706 87.6068 21.3298 0.0000 10.4056 0.0000
# 3 5.9725 21.3298 101.9416 0.0000 17.5497 0.0000
# 4 0.0000 0.0000 0.0000 28.1382 0.0000 3.9980
# 5 14.2999 10.4056 17.5497 0.0000 40.2848 0.0000
# 6 0.0000 0.0000 0.0000 3.9980 0.0000 23.2230
#
#
#
# Elastic Compliance Matrix: (Units=1/GPa)
#
#
# Indices 1 2 3 4 5 6 
#
# 1 0.015421 -0.005821 0.001079 0.000000 -0.004441 0.000000
# 2 -0.005821 0.014403 -0.002581 0.000000 -0.000530 0.000000
# 3 0.001079 -0.002581 0.011068 0.000000 -0.004538 0.000000
# 4 0.000000 0.000000 0.000000 0.036430 0.000000 -0.006272
# 5 -0.004441 -0.000530 -0.004538 0.000000 0.028513 0.000000
# 6 0.000000 0.000000 0.000000 -0.006272 0.000000 0.044140
#
#
# Mechanical properties :
#
#
# Convention : Reuss Voigt Hill
#
# Bulk Modulus (GPa) = 38.10183 43.87643 40.98913
# Shear Modulus (GPa) = 28.84003 32.28049 30.56026
#
# Velocity S-wave (km/s) = 3.57437 3.78157 3.67943
# Velocity P-wave (km/s) = 5.82357 6.20518 6.01740
#
# Compressibility (1/GPa) = 0.02624546
#
# Stress axis : x y z
#
# Youngs Moduli (GPa) = 64.84540 69.43035 90.35354
#
# Poissons Ratio (x) = 0.40413 -0.09748
# Poissons Ratio (y) = 0.37744 0.23324
# Poissons Ratio (z) = -0.06996 0.17923
#
# Static dielectric constant tensor:
#      x y z
#    x 4.075520 0.000000 -0.159680 
#    y 0.000000 4.006880 0.000000 
#    z -0.159680 0.000000 4.230520 
# 
# 
# High freq. dielectric constant tensor:
#      x y z
#    x 1.886930 0.000000 -0.001860 
#    y 0.000000 1.882470 0.000000 
#    z -0.001860 0.000000 1.912600 
# 
# From -- ./inp_files/60904.got.cif
#   From: 2010.06.25/outbox.cif.g09.slc.cpg/sg15_31_cif.got.tgz:60904.got - 2010.06.28 07:06:18.
