data_PCOD8152825
_publ_section_title
;
Structure prediction by ZEFSAII (Michael W. Deem and Ramdas Pophale) SiO2 
 PCOD8152825
Probable space group: C 2/C
;
_chemical_formula_sum "Si O2"
_cell_formula_units_Z 64
_cell_length_a 9.454756
_cell_length_b 15.107003
_cell_length_c 30.887999
_cell_angle_alpha 90.000000
_cell_angle_beta 41.047173
_cell_angle_gamma 90.000000
_cell_volume 2897.158944
_symmetry_space_group_name_H-M "C 2/C"
_symmetry_group_IT_number 15
_symmetry_cell_setting 'monoclinic'
loop_
_space_group_symop_operation_xyz
x,y,z
-x,y,1/2-z
-x,-y,-z
x,-y,1/2+z
1/2+x,1/2+y,z
1/2-x,1/2+y,1/2-z
1/2-x,1/2-y,-z
1/2+x,1/2-y,1/2+z
loop_
_atom_site_type_symbol
_atom_site_label
_atom_site_fract_x
_atom_site_fract_y
_atom_site_fract_z
Si Si1 0.296691 0.373294 0.323678
Si Si2 0.688760 0.949324 0.508129
Si Si3 0.653938 0.803305 0.093447
Si Si4 0.084740 0.123940 0.465922
Si Si5 0.090928 0.891714 0.579922
Si Si6 0.799312 0.065578 0.355134
Si Si7 0.166227 0.198858 0.591564
Si Si8 0.796482 0.251143 0.321767
O O1 0.500000 0.333810 0.250000
O O2 0.338714 0.477462 0.319096
O O3 0.259365 0.330940 0.378738
O O4 0.076345 0.351811 0.349722
O O5 0.812445 0.949738 0.526244
O O6 0.439862 0.927862 0.570145
O O7 0.799883 0.877453 0.451401
O O8 0.711623 0.047081 0.482489
O O9 0.653510 0.711396 0.066949
O O10 0.730971 0.787588 0.124056
O O11 0.827087 0.867347 0.031320
O O12 0.199470 0.215212 0.453003
O O13 0.108073 0.098333 0.409001
O O14 0.035235 0.924794 0.641827
O O15 0.829892 0.145340 0.314712
O O16 0.916553 0.222909 0.654737
O O17 0.000000 0.293735 0.250000
#
# Coordination Sequence:
#
# PCOD8152825 Si02
#       8
#     8   8   8   8   8   8   8   8
#     4  12  26  45  67  93 128 174 219 262 309 384
#     4  12  23  40  64  98 132 166 202 272 331 380
#     4  11  24  41  65  96 127 165 214 263 324 376
#     4  12  23  40  64  98 132 163 206 265 333 385
#     4  11  23  37  62  95 131 162 198 264 323 380
#     4  11  24  41  66  96 126 166 215 265 323 376
#     4  12  23  43  66  97 131 166 216 266 323 382
#     4  11  23  44  66  89 127 176 220 258 311 386
#
# _framework density 22.090608
#
# number of rings (size 3 to 8) (size 9 to 14) (size 15 to 20)
#    0.000    0.500    5.000    4.875    3.500    0.000 
#    0.000    0.000    0.000    0.750    0.000    0.000 
#    0.000    0.000    0.000    0.000    0.000    0.000 
#
# Total GULP energy -396806.097473 kJ/mol
# GULP energy per Si atom -12400.190546 kJ/mol
# Density = 2.204033 g / cm^3
# Si number density = 22.090608 Si / 1000 Ang^3
#
#
#
# Elastic Constant Matrix: (Units=GPa)
#
#
# Indices 1 2 3 4 5 6 
#
# 1 70.1891 8.1398 10.7195 -0.0014 -12.8826 0.0014
# 2 8.1398 67.6880 14.1533 -0.0012 1.0279 0.0012
# 3 10.7195 14.1533 86.3486 0.0049 -20.1688 0.0000
# 4 -0.0014 -0.0012 0.0049 16.6814 -0.0005 -3.9817
# 5 -12.8826 1.0279 -20.1688 -0.0005 25.2618 -0.0021
# 6 0.0014 0.0012 0.0000 -3.9817 -0.0021 26.2453
#
#
#
# Elastic Compliance Matrix: (Units=1/GPa)
#
#
# Indices 1 2 3 4 5 6 
#
# 1 0.016006 -0.002129 0.000355 0.000001 0.008532 0.000000
# 2 -0.002129 0.015798 -0.003354 0.000002 -0.004406 -0.000001
# 3 0.000355 -0.003354 0.014949 -0.000004 0.012252 0.000000
# 4 0.000001 0.000002 -0.000004 0.062200 -0.000001 0.009436
# 5 0.008532 -0.004406 0.012252 -0.000001 0.053898 0.000004
# 6 0.000000 -0.000001 0.000000 0.009436 0.000004 0.039534
#
#
# Mechanical properties :
#
#
# Convention : Reuss Voigt Hill
#
# Bulk Modulus (GPa) = 27.40018 32.25009 29.82514
# Shear Modulus (GPa) = 22.24147 26.38524 24.31335
#
# Velocity S-wave (km/s) = 3.17650 3.45977 3.32116
# Velocity P-wave (km/s) = 5.08763 5.53089 5.31388
#
# Compressibility (1/GPa) = 0.03649611
#
# Stress axis : x y z
#
# Youngs Moduli (GPa) = 62.47690 63.29932 66.89611
#
# Poissons Ratio (x) = 0.13474 -0.02374
# Poissons Ratio (y) = 0.13298 0.22440
# Poissons Ratio (z) = -0.02217 0.21233
#
# Static dielectric constant tensor:
#      x y z
#    x 4.269860 0.000000 0.142580 
#    y 0.000000 4.049310 0.000000 
#    z 0.142580 0.000000 3.641930 
# 
# 
# High freq. dielectric constant tensor:
#      x y z
#    x 1.887430 0.000000 0.013220 
#    y 0.000000 1.873810 0.000000 
#    z 0.013220 0.000000 1.842370 
# 
# From -- ./inp_files/308767.got.cif
#   From: 2010.06.25/outbox.cif.g09.slc.cpg/sg15_155_cif.got.tgz:308767.got - 2010.06.28 07:06:18.
