data_PCOD8152988
_publ_section_title
;
Structure prediction by ZEFSAII (Michael W. Deem and Ramdas Pophale) SiO2 
 PCOD8152988
Probable space group: C 2/C
;
_chemical_formula_sum "Si O2"
_cell_formula_units_Z 60
_cell_length_a 22.585957
_cell_length_b 10.735517
_cell_length_c 14.109863
_cell_angle_alpha 90.000000
_cell_angle_beta 127.359955
_cell_angle_gamma 90.000000
_cell_volume 2719.339236
_symmetry_space_group_name_H-M "C 2/C"
_symmetry_group_IT_number 15
_symmetry_cell_setting 'monoclinic'
loop_
_space_group_symop_operation_xyz
x,y,z
-x,y,1/2-z
-x,-y,-z
x,-y,1/2+z
1/2+x,1/2+y,z
1/2-x,1/2+y,1/2-z
1/2-x,1/2-y,-z
1/2+x,1/2-y,1/2+z
loop_
_atom_site_type_symbol
_atom_site_label
_atom_site_fract_x
_atom_site_fract_y
_atom_site_fract_z
Si Si1 0.392531 0.210060 0.455485
Si Si2 0.500000 0.847585 0.750000
Si Si3 0.379708 0.957069 0.336684
Si Si4 0.026331 0.265180 0.969464
Si Si5 0.876489 0.461929 0.113252
Si Si6 0.269105 0.402794 0.091088
Si Si7 0.675833 0.338817 0.544141
Si Si8 0.216661 0.075448 0.695589
O O1 0.468333 0.281024 0.494401
O O2 0.398673 0.154422 0.567772
O O3 0.327608 0.312133 0.395689
O O4 0.375311 0.102628 0.361047
O O5 0.479640 0.771184 0.825011
O O6 0.570629 0.922351 0.859622
O O7 0.445248 0.898310 0.463430
O O8 0.393837 0.931977 0.239341
O O9 0.303510 0.885933 0.288358
O O10 0.096535 0.175442 0.019085
O O11 0.791563 0.501460 0.010928
O O12 0.230604 0.278232 0.094801
O O13 0.310745 0.458192 0.224034
O O14 0.333039 0.375882 0.075706
O O15 0.717040 0.451537 0.634571
#
# Coordination Sequence:
#
# PCOD8152988 Si02
#       8
#     8   4   8   8   8   8   8   8
#     4  12  26  43  65 104 137 178 223 279 355 403
#     4  12  20  38  68 102 118 168 214 290 322 378
#     4  12  23  43  69 103 130 175 227 288 334 404
#     4  12  25  42  71  99 135 174 228 282 343 394
#     4  12  23  40  70 100 134 166 232 282 340 397
#     4  11  23  41  71 102 125 179 231 291 314 409
#     4  11  24  44  66 100 134 176 234 270 335 413
#     4  12  25  42  68  96 144 177 215 284 349 401
#
# _framework density 22.064183
#
# number of rings (size 3 to 8) (size 9 to 14) (size 15 to 20)
#    0.000    0.267    8.000    2.000    3.733    1.067 
#    2.400    0.000    0.000    0.000    0.000    0.000 
#    0.000    0.000    0.000    0.000    0.000    0.000 
#
# Total GULP energy -371776.788665 kJ/mol
# GULP energy per Si atom -12392.559622 kJ/mol
# Density = 2.201396 g / cm^3
# Si number density = 22.064183 Si / 1000 Ang^3
#
#
#
# Elastic Constant Matrix: (Units=GPa)
#
#
# Indices 1 2 3 4 5 6 
#
# 1 107.6239 26.1715 15.8380 0.0000 -25.4033 0.0000
# 2 26.1715 34.3791 24.2431 0.0000 -8.2142 0.0000
# 3 15.8380 24.2431 95.7760 0.0000 -37.1204 0.0000
# 4 0.0000 0.0000 0.0000 21.9617 0.0000 -4.7966
# 5 -25.4033 -8.2142 -37.1204 0.0000 51.9506 0.0000
# 6 0.0000 0.0000 0.0000 -4.7966 0.0000 23.4848
#
#
#
# Elastic Compliance Matrix: (Units=1/GPa)
#
#
# Indices 1 2 3 4 5 6 
#
# 1 0.013030 -0.010519 0.003226 0.000000 0.007014 0.000000
# 2 -0.010519 0.043945 -0.012011 0.000000 -0.006777 0.000000
# 3 0.003226 -0.012011 0.017734 0.000000 0.012350 0.000000
# 4 0.000000 0.000000 0.000000 0.047660 0.000000 0.009734
# 5 0.007014 -0.006777 0.012350 0.000000 0.030432 0.000000
# 6 0.000000 0.000000 0.000000 0.009734 0.000000 0.044569
#
#
# Mechanical properties :
#
#
# Convention : Reuss Voigt Hill
#
# Bulk Modulus (GPa) = 27.69836 41.14268 34.42052
# Shear Modulus (GPa) = 20.16039 30.91451 25.53745
#
# Velocity S-wave (km/s) = 3.02605 3.74721 3.40577
# Velocity P-wave (km/s) = 4.97897 6.11632 5.57672
#
# Compressibility (1/GPa) = 0.03610322
#
# Stress axis : x y z
#
# Youngs Moduli (GPa) = 76.74475 22.75560 56.38754
#
# Poissons Ratio (x) = 0.23936 -0.18191
# Poissons Ratio (y) = 0.80724 0.67726
# Poissons Ratio (z) = -0.24758 0.27331
#
# Static dielectric constant tensor:
#      x y z
#    x 4.363300 0.000000 -0.285810 
#    y 0.000000 3.583120 0.000000 
#    z -0.285810 0.000000 4.018920 
# 
# 
# High freq. dielectric constant tensor:
#      x y z
#    x 1.884000 0.000000 -0.020140 
#    y 0.000000 1.822230 0.000000 
#    z -0.020140 0.000000 1.875400 
# 
# From -- ./inp_files/173163.got.cif
#   From: 2010.06.25/outbox.cif.g09.slc.cpg/sg15_87_cif.got.tgz:173163.got - 2010.06.28 07:06:18.
