data_PCOD8152278
_publ_section_title
;
Structure prediction by ZEFSAII (Michael W. Deem and Ramdas Pophale) SiO2 
 PCOD8152278
Probable space group: C 2/C
;
_chemical_formula_sum "Si O2"
_cell_formula_units_Z 40
_cell_length_a 9.215623
_cell_length_b 23.068281
_cell_length_c 14.218786
_cell_angle_alpha 90.000000
_cell_angle_beta 32.977274
_cell_angle_gamma 90.000000
_cell_volume 1645.302823
_symmetry_space_group_name_H-M "C 2/C"
_symmetry_group_IT_number 15
_symmetry_cell_setting 'monoclinic'
loop_
_space_group_symop_operation_xyz
x,y,z
-x,y,1/2-z
-x,-y,-z
x,-y,1/2+z
1/2+x,1/2+y,z
1/2-x,1/2+y,1/2-z
1/2-x,1/2-y,-z
1/2+x,1/2-y,1/2+z
loop_
_atom_site_type_symbol
_atom_site_label
_atom_site_fract_x
_atom_site_fract_y
_atom_site_fract_z
Si Si1 0.259337 0.935506 0.309837
Si Si2 0.246978 0.623004 0.176757
Si Si3 0.747315 0.163410 0.817292
Si Si4 0.571982 0.265787 0.008595
Si Si5 0.248567 0.466833 0.819607
O O1 0.500000 0.942820 0.250000
O O2 0.358794 0.898096 0.163284
O O3 0.170788 0.997995 0.318882
O O4 0.015350 0.904557 0.491272
O O5 0.190692 0.599195 0.314004
O O6 0.000000 0.600750 0.250000
O O7 0.272647 0.693026 0.152957
O O8 0.000000 0.153964 0.750000
O O9 0.818739 0.199732 0.683781
O O10 0.516646 0.202880 0.990737
O O11 0.750000 0.250000 0.000000
O O12 0.500000 0.465950 0.750000
O O13 0.000000 0.500000 0.000000
#
# Coordination Sequence:
#
# PCOD8152278 Si02
#       5
#     8   8   8   8   8
#     4  11  23  41  60  85 121 160 199 247 305 360
#     4  11  22  40  64  88 119 161 202 249 300 360
#     4   9  18  34  58  86 116 156 201 247 295 358
#     4   9  18  34  59  90 118 154 203 247 295 360
#     4  12  25  41  62  91 121 157 203 252 303 362
#
# _framework density 24.311636
#
# number of rings (size 3 to 8) (size 9 to 14) (size 15 to 20)
#    0.000    1.600    0.000    6.000    0.000    4.800 
#    0.000    5.000    0.000    0.000    0.000    0.000 
#    0.000    0.000    0.000    0.000    0.000    0.000 
#
# Total GULP energy -247773.804920 kJ/mol
# GULP energy per Si atom -12388.690246 kJ/mol
# Density = 2.425630 g / cm^3
# Si number density = 24.311636 Si / 1000 Ang^3
#
#
#
# Elastic Constant Matrix: (Units=GPa)
#
#
# Indices 1 2 3 4 5 6 
#
# 1 154.7748 55.2161 12.8907 -0.0004 -12.1915 0.0000
# 2 55.2161 127.1825 -5.1692 -0.0001 10.0954 0.0000
# 3 12.8907 -5.1692 14.3990 -0.0032 -2.3336 -0.0001
# 4 -0.0004 -0.0001 -0.0032 47.8532 0.0011 24.2646
# 5 -12.1915 10.0954 -2.3336 0.0011 39.0015 -0.0001
# 6 0.0000 0.0000 -0.0001 24.2646 -0.0001 46.3311
#
#
#
# Elastic Compliance Matrix: (Units=1/GPa)
#
#
# Indices 1 2 3 4 5 6 
#
# 1 0.009166 -0.004636 -0.009301 -0.000001 0.003509 0.000000
# 2 -0.004636 0.010468 0.007305 0.000001 -0.003722 0.000000
# 3 -0.009301 0.007305 0.080401 0.000007 0.000012 -0.000003
# 4 -0.000001 0.000001 0.000007 0.028453 -0.000001 -0.014902
# 5 0.003509 -0.003722 0.000012 -0.000001 0.027701 0.000001
# 6 0.000000 0.000000 -0.000003 -0.014902 0.000001 0.029388
#
#
# Mechanical properties :
#
#
# Convention : Reuss Voigt Hill
#
# Bulk Modulus (GPa) = 11.52471 46.91460 29.21966
# Shear Modulus (GPa) = 21.95244 42.19839 32.07542
#
# Velocity S-wave (km/s) = 3.00819 4.17073 3.63622
# Velocity P-wave (km/s) = 4.10077 6.52168 5.44742
#
# Compressibility (1/GPa) = 0.08677008
#
# Stress axis : x y z
#
# Youngs Moduli (GPa) = 109.09955 95.53178 12.43764
#
# Poissons Ratio (x) = 0.44288 0.11569
# Poissons Ratio (y) = 0.50578 -0.09086
# Poissons Ratio (z) = 1.01479 -0.69787
#
# Static dielectric constant tensor:
#      x y z
#    x 4.176190 0.000000 0.638770 
#    y 0.000000 5.417010 0.000000 
#    z 0.638770 0.000000 4.694870 
# 
# 
# High freq. dielectric constant tensor:
#      x y z
#    x 1.931510 0.000000 0.030550 
#    y 0.000000 1.995580 0.000000 
#    z 0.030550 0.000000 1.964910 
# 
# From -- ./inp_files/138150.got.cif
#   From: 2010.06.25/outbox.cif.g09.slc.cpg/sg15_70_cif.got.tgz:138150.got - 2010.06.28 07:06:18.
