data_PCOD8152380
_publ_section_title
;
Structure prediction by ZEFSAII (Michael W. Deem and Ramdas Pophale) SiO2 
 PCOD8152380
Probable space group: C 2/C
;
_chemical_formula_sum "Si O2"
_cell_formula_units_Z 40
_cell_length_a 19.681373
_cell_length_b 13.302953
_cell_length_c 11.595353
_cell_angle_alpha 90.000000
_cell_angle_beta 37.909039
_cell_angle_gamma 90.000000
_cell_volume 1865.286177
_symmetry_space_group_name_H-M "C 2/C"
_symmetry_group_IT_number 15
_symmetry_cell_setting 'monoclinic'
loop_
_space_group_symop_operation_xyz
x,y,z
-x,y,1/2-z
-x,-y,-z
x,-y,1/2+z
1/2+x,1/2+y,z
1/2-x,1/2+y,1/2-z
1/2-x,1/2-y,-z
1/2+x,1/2-y,1/2+z
loop_
_atom_site_type_symbol
_atom_site_label
_atom_site_fract_x
_atom_site_fract_y
_atom_site_fract_z
Si Si1 0.635354 0.574177 0.745012
Si Si2 0.500000 0.291133 0.250000
Si Si3 0.028234 0.122936 0.343510
Si Si4 0.138629 0.379090 0.454037
Si Si5 0.848759 0.687050 0.809937
Si Si6 0.000000 0.542904 0.750000
O O1 0.576492 0.639493 0.726474
O O2 0.628869 0.457047 0.717827
O O3 0.762267 0.605769 0.587699
O O4 0.578093 0.584191 0.946002
O O5 0.421461 0.224371 0.434748
O O6 0.061724 0.230505 0.350225
O O7 0.000000 0.140093 0.250000
O O8 0.185250 0.372731 0.260776
O O9 0.053841 0.472538 0.578773
O O10 0.902338 0.610004 0.828155
O O11 0.750000 0.750000 0.000000
#
# Coordination Sequence:
#
# PCOD8152380 Si02
#       6
#     8   4   8   8   8   4
#     4  11  23  42  65  99 133 178 226 287 343 410
#     4  11  22  45  66  94 140 179 228 285 340 420
#     4  11  22  41  66  95 134 170 231 287 336 406
#     4  11  25  43  67 101 135 185 230 281 351 411
#     4  12  24  43  71 100 134 185 233 287 347 411
#     4  11  26  47  66 100 148 177 230 287 348 416
#
# _framework density 21.444431000000002
#
# number of rings (size 3 to 8) (size 9 to 14) (size 15 to 20)
#    0.000    0.800    4.000    3.600    0.000    0.000 
#    0.000    0.000    0.000    0.000    0.000    0.000 
#    0.000    0.000    0.000    0.000    0.000    0.000 
#
# Total GULP energy -248041.212607 kJ/mol
# GULP energy per Si atom -12402.060630 kJ/mol
# Density = 2.139562 g / cm^3
# Si number density = 21.444431 Si / 1000 Ang^3
#
#
#
# Elastic Constant Matrix: (Units=GPa)
#
#
# Indices 1 2 3 4 5 6 
#
# 1 126.7724 41.9958 39.2132 0.0000 4.0872 0.0000
# 2 41.9958 124.0606 27.6375 0.0000 6.9857 0.0000
# 3 39.2132 27.6375 84.0623 0.0000 5.9506 0.0000
# 4 0.0000 0.0000 0.0000 21.1197 0.0000 0.5770
# 5 4.0872 6.9857 5.9506 0.0000 29.6486 0.0000
# 6 0.0000 0.0000 0.0000 0.5770 0.0000 24.7445
#
#
#
# Elastic Compliance Matrix: (Units=1/GPa)
#
#
# Indices 1 2 3 4 5 6 
#
# 1 0.009890 -0.002503 -0.003790 0.000000 -0.000013 0.000000
# 2 -0.002503 0.009397 -0.001815 0.000000 -0.001505 0.000000
# 3 -0.003790 -0.001815 0.014398 0.000000 -0.001940 0.000000
# 4 0.000000 0.000000 0.000000 0.047379 0.000000 -0.001105
# 5 -0.000013 -0.001505 -0.001940 0.000000 0.034474 0.000000
# 6 0.000000 0.000000 0.000000 -0.001105 0.000000 0.040439
#
#
# Mechanical properties :
#
#
# Convention : Reuss Voigt Hill
#
# Bulk Modulus (GPa) = 57.24452 61.39869 59.32161
# Shear Modulus (GPa) = 28.08740 30.17248 29.12994
#
# Velocity S-wave (km/s) = 3.62301 3.75508 3.68964
# Velocity P-wave (km/s) = 6.65236 6.89163 6.77305
#
# Compressibility (1/GPa) = 0.01746892
#
# Stress axis : x y z
#
# Youngs Moduli (GPa) = 101.11324 106.41716 69.45466
#
# Poissons Ratio (x) = 0.26635 0.26321
# Poissons Ratio (y) = 0.25307 0.12609
# Poissons Ratio (z) = 0.38318 0.19319
#
# Static dielectric constant tensor:
#      x y z
#    x 3.759380 0.000000 -0.045800 
#    y 0.000000 4.245900 0.000000 
#    z -0.045800 0.000000 3.781540 
# 
# 
# High freq. dielectric constant tensor:
#      x y z
#    x 1.845350 0.000000 0.002790 
#    y 0.000000 1.859600 0.000000 
#    z 0.002790 0.000000 1.837980 
# 
# From -- ./inp_files/95557.got.cif
#   From: 2010.06.25/outbox.cif.g09.slc.cpg/sg15_48_cif.got.tgz:95557.got - 2010.06.28 07:06:18.
