data_PCOD8152414
_publ_section_title
;
Structure prediction by ZEFSAII (Michael W. Deem and Ramdas Pophale) SiO2 
 PCOD8152414
Probable space group: C 2/C
;
_chemical_formula_sum "Si O2"
_cell_formula_units_Z 64
_cell_length_a 15.122973
_cell_length_b 15.834167
_cell_length_c 16.298044
_cell_angle_alpha 90.000000
_cell_angle_beta 50.204139
_cell_angle_gamma 90.000000
_cell_volume 2998.579313
_symmetry_space_group_name_H-M "C 2/C"
_symmetry_group_IT_number 15
_symmetry_cell_setting 'monoclinic'
loop_
_space_group_symop_operation_xyz
x,y,z
-x,y,1/2-z
-x,-y,-z
x,-y,1/2+z
1/2+x,1/2+y,z
1/2-x,1/2+y,1/2-z
1/2-x,1/2-y,-z
1/2+x,1/2-y,1/2+z
loop_
_atom_site_type_symbol
_atom_site_label
_atom_site_fract_x
_atom_site_fract_y
_atom_site_fract_z
Si Si1 0.995546 0.509035 0.845385
Si Si2 0.774434 0.786190 0.224108
Si Si3 0.066818 0.959353 0.885660
Si Si4 0.195300 0.400491 0.795455
Si Si5 0.255087 0.956542 0.554159
Si Si6 0.628299 0.334605 0.506518
Si Si7 0.981273 0.705660 0.668785
Si Si8 0.388615 0.590225 0.778062
O O1 0.000000 0.475034 0.750000
O O2 0.083028 0.455999 0.848245
O O3 0.030125 0.605999 0.830080
O O4 0.870029 0.497442 0.956552
O O5 0.837048 0.696852 0.202432
O O6 0.640039 0.762782 0.295885
O O7 0.800429 0.845102 0.287170
O O8 0.821846 0.834249 0.115025
O O9 0.200119 0.934415 0.824541
O O10 0.997397 0.874888 0.906268
O O11 0.059319 0.024428 0.816687
O O12 0.000000 0.000000 0.000000
O O13 0.233297 0.408110 0.867103
O O14 0.217055 0.886530 0.510038
O O15 0.171230 0.036712 0.613934
O O16 0.596657 0.238573 0.552819
O O17 0.000000 0.737726 0.750000
O O18 0.500000 0.638661 0.750000
#
# Coordination Sequence:
#
# PCOD8152414 Si02
#       8
#     8   8   8   8   8   8   8   8
#     4  11  25  44  67  93 135 182 220 266 326 406
#     4  12  25  42  64 100 132 175 223 271 334 393
#     4  11  22  41  68  96 125 173 222 270 330 390
#     4  11  25  43  66  96 138 177 221 273 331 397
#     4  11  24  41  68 100 129 175 217 273 348 398
#     4  12  23  39  70  98 133 165 214 280 339 396
#     4  11  23  40  64 101 136 165 215 273 336 398
#     4  11  24  41  66  93 132 172 227 282 322 392
#
# _framework density 21.343440000000001
#
# number of rings (size 3 to 8) (size 9 to 14) (size 15 to 20)
#    0.000    0.750    3.750    4.875    3.500    3.000 
#    0.000    0.000    0.000    3.000    0.000    0.000 
#    0.000    0.000    0.000    0.000    0.000    0.000 
#
# Total GULP energy -396760.885153 kJ/mol
# GULP energy per Si atom -12398.777661 kJ/mol
# Density = 2.129486 g / cm^3
# Si number density = 21.343440 Si / 1000 Ang^3
#
#
#
# Elastic Constant Matrix: (Units=GPa)
#
#
# Indices 1 2 3 4 5 6 
#
# 1 108.4497 43.1778 27.8832 0.0000 -21.4108 0.0000
# 2 43.1778 85.3671 21.1426 0.0000 -5.0123 0.0000
# 3 27.8832 21.1426 108.2427 0.0000 -17.6953 0.0000
# 4 0.0000 0.0000 0.0000 29.2441 0.0000 -6.0325
# 5 -21.4108 -5.0123 -17.6953 0.0000 31.4226 0.0000
# 6 0.0000 0.0000 0.0000 -6.0325 0.0000 25.3073
#
#
#
# Elastic Compliance Matrix: (Units=1/GPa)
#
#
# Indices 1 2 3 4 5 6 
#
# 1 0.013402 -0.006080 -0.001025 0.000000 0.007585 0.000000
# 2 -0.006080 0.015080 -0.001832 0.000000 -0.002769 0.000000
# 3 -0.001025 -0.001832 0.010682 0.000000 0.005025 0.000000
# 4 0.000000 0.000000 0.000000 0.035963 0.000000 0.008573
# 5 0.007585 -0.002769 0.005025 0.000000 0.039381 0.000000
# 6 0.000000 0.000000 0.000000 0.008573 0.000000 0.041558
#
#
# Mechanical properties :
#
#
# Convention : Reuss Voigt Hill
#
# Bulk Modulus (GPa) = 46.96763 54.05185 50.50974
# Shear Modulus (GPa) = 27.61873 31.18519 29.40196
#
# Velocity S-wave (km/s) = 3.60114 3.82660 3.71558
# Velocity P-wave (km/s) = 6.27251 6.70101 6.49030
#
# Compressibility (1/GPa) = 0.02129126
#
# Stress axis : x y z
#
# Youngs Moduli (GPa) = 74.61343 66.31165 93.61709
#
# Poissons Ratio (x) = 0.40315 0.09595
# Poissons Ratio (y) = 0.45362 0.17152
# Poissons Ratio (z) = 0.07647 0.12149
#
# Static dielectric constant tensor:
#      x y z
#    x 3.802450 0.000000 -0.047960 
#    y 0.000000 3.799270 0.000000 
#    z -0.047960 0.000000 3.865040 
# 
# 
# High freq. dielectric constant tensor:
#      x y z
#    x 1.832450 0.000000 -0.013910 
#    y 0.000000 1.836420 0.000000 
#    z -0.013910 0.000000 1.844900 
# 
# From -- ./inp_files/205689.got.cif
#   From: 2010.06.25/outbox.cif.g09.slc.cpg/sg15_103_cif.got.tgz:205689.got - 2010.06.28 07:06:18.
