data_PCOD8152165
_publ_section_title
;
Structure prediction by ZEFSAII (Michael W. Deem and Ramdas Pophale) SiO2 
 PCOD8152165
Probable space group: C 2/C
;
_chemical_formula_sum "Si O2"
_cell_formula_units_Z 44
_cell_length_a 18.111426
_cell_length_b 21.782483
_cell_length_c 5.149050
_cell_angle_alpha 90.000000
_cell_angle_beta 89.194153
_cell_angle_gamma 90.000000
_cell_volume 2031.160219
_symmetry_space_group_name_H-M "C 2/C"
_symmetry_group_IT_number 15
_symmetry_cell_setting 'monoclinic'
loop_
_space_group_symop_operation_xyz
x,y,z
-x,y,1/2-z
-x,-y,-z
x,-y,1/2+z
1/2+x,1/2+y,z
1/2-x,1/2+y,1/2-z
1/2-x,1/2-y,-z
1/2+x,1/2-y,1/2+z
loop_
_atom_site_type_symbol
_atom_site_label
_atom_site_fract_x
_atom_site_fract_y
_atom_site_fract_z
Si Si1 0.500000 0.457745 0.250000
Si Si2 0.265573 0.959584 0.501418
Si Si3 0.951218 0.239050 0.507869
Si Si4 0.638112 0.624323 0.858895
Si Si5 0.238412 0.317010 0.407655
Si Si6 0.156134 0.345428 0.911815
O O1 0.500000 0.500000 0.500000
O O2 0.428251 0.415498 0.250218
O O3 0.192673 0.916357 0.538986
O O4 0.340876 0.918061 0.512923
O O5 0.264288 0.011734 0.716151
O O6 0.889597 0.185293 0.484029
O O7 0.920216 0.308187 0.558635
O O8 0.000000 0.219975 0.750000
O O9 0.000000 0.240499 0.250000
O O10 0.684517 0.646001 0.603026
O O11 0.250000 0.250000 0.500000
O O12 0.181265 0.346952 0.610441
O O13 0.210238 0.312346 0.113214
#
# Coordination Sequence:
#
# PCOD8152165 Si02
#       6
#     4   8   8   8   8   8
#     4  12  28  44  60  88 138 192 226 254 302 384
#     4  11  24  43  68  97 129 172 225 277 324 388
#     4  12  27  43  68 101 136 175 218 271 339 404
#     4  11  25  43  68  95 136 178 225 269 322 392
#     4  11  22  38  67  98 128 166 220 282 344 380
#     4  11  24  43  68  97 133 167 222 285 341 386
#
# _framework density 21.662493999999999
#
# number of rings (size 3 to 8) (size 9 to 14) (size 15 to 20)
#    0.000    0.727    2.727    4.909    3.818    4.364 
#    0.000    0.000    0.000    3.273    0.000    0.000 
#    0.000    0.000    0.000    0.000    0.000    0.000 
#
# Total GULP energy -272632.926863 kJ/mol
# GULP energy per Si atom -12392.405767 kJ/mol
# Density = 2.161319 g / cm^3
# Si number density = 21.662494 Si / 1000 Ang^3
#
#
#
# Elastic Constant Matrix: (Units=GPa)
#
#
# Indices 1 2 3 4 5 6 
#
# 1 57.2363 50.1276 39.3593 0.0000 -17.5232 0.0000
# 2 50.1276 124.1110 32.8635 0.0000 -11.0240 0.0000
# 3 39.3593 32.8635 123.9390 0.0000 -23.3056 0.0000
# 4 0.0000 0.0000 0.0000 36.6140 0.0000 0.8591
# 5 -17.5232 -11.0240 -23.3056 0.0000 35.3477 0.0000
# 6 0.0000 0.0000 0.0000 0.8591 0.0000 65.5751
#
#
#
# Elastic Compliance Matrix: (Units=1/GPa)
#
#
# Indices 1 2 3 4 5 6 
#
# 1 0.034770 -0.011558 -0.006180 0.000000 0.009557 0.000000
# 2 -0.011558 0.012565 -0.000002 0.000000 -0.001812 0.000000
# 3 -0.006180 -0.000002 0.010794 0.000000 0.004052 0.000000
# 4 0.000000 0.000000 0.000000 0.027320 0.000000 -0.000358
# 5 0.009557 -0.001812 0.004052 0.000000 0.035135 0.000000
# 6 0.000000 0.000000 0.000000 -0.000358 0.000000 0.015254
#
#
# Mechanical properties :
#
#
# Convention : Reuss Voigt Hill
#
# Bulk Modulus (GPa) = 44.15319 61.10968 52.63144
# Shear Modulus (GPa) = 27.95372 39.70309 33.82840
#
# Velocity S-wave (km/s) = 3.59614 4.28577 3.95601
# Velocity P-wave (km/s) = 6.13755 7.26372 6.72425
#
# Compressibility (1/GPa) = 0.02264842
#
# Stress axis : x y z
#
# Youngs Moduli (GPa) = 28.76073 79.58593 92.64773
#
# Poissons Ratio (x) = 0.91985 0.57256
# Poissons Ratio (y) = 0.33241 0.00019
# Poissons Ratio (z) = 0.17774 0.00017
#
# Static dielectric constant tensor:
#      x y z
#    x 3.971150 0.000000 -0.095740 
#    y 0.000000 4.340860 0.000000 
#    z -0.095740 0.000000 4.169520 
# 
# 
# High freq. dielectric constant tensor:
#      x y z
#    x 1.823350 0.000000 0.002000 
#    y 0.000000 1.869040 0.000000 
#    z 0.002000 0.000000 1.861670 
# 
# From -- ./inp_files/10339.got.cif
#   From: 2010.06.25/outbox.cif.g09.slc.cpg/sg15_6_cif.got.tgz:10339.got - 2010.06.28 07:06:18.
