data_PCOD8152352
_publ_section_title
;
Structure prediction by ZEFSAII (Michael W. Deem and Ramdas Pophale) SiO2 
 PCOD8152352
Probable space group: C 2/C
;
_chemical_formula_sum "Si O2"
_cell_formula_units_Z 48
_cell_length_a 25.659970
_cell_length_b 12.419613
_cell_length_c 20.448613
_cell_angle_alpha 90.000000
_cell_angle_beta 162.396065
_cell_angle_gamma 90.000000
_cell_volume 1970.881991
_symmetry_space_group_name_H-M "C 2/C"
_symmetry_group_IT_number 15
_symmetry_cell_setting 'monoclinic'
loop_
_space_group_symop_operation_xyz
x,y,z
-x,y,1/2-z
-x,-y,-z
x,-y,1/2+z
1/2+x,1/2+y,z
1/2-x,1/2+y,1/2-z
1/2-x,1/2-y,-z
1/2+x,1/2-y,1/2+z
loop_
_atom_site_type_symbol
_atom_site_label
_atom_site_fract_x
_atom_site_fract_y
_atom_site_fract_z
Si Si1 0.218138 0.306573 0.325751
Si Si2 0.680529 0.227250 0.307425
Si Si3 0.000000 0.476258 0.750000
Si Si4 0.670088 0.875535 0.128667
Si Si5 0.000000 0.916716 0.750000
Si Si6 0.657915 0.386374 0.382836
Si Si7 0.888426 0.599546 0.494982
O O1 0.260886 0.359530 0.306991
O O2 0.354236 0.343312 0.543466
O O3 0.237088 0.177692 0.339737
O O4 0.023221 0.332532 0.112944
O O5 0.750072 0.294849 0.329386
O O6 0.573293 0.302204 0.231028
O O7 0.828388 0.159454 0.525414
O O8 0.536124 0.143142 0.110267
O O9 0.843582 0.394552 0.570542
O O10 0.997308 0.551842 0.684303
O O11 0.702075 0.000838 0.150724
O O12 0.075715 0.995172 0.784336
#
# Coordination Sequence:
#
# PCOD8152352 Si02
#       7
#     8   8   4   8   4   8   8
#     4  12  29  47  71  99 139 196 238 288 356 418
#     4  11  22  42  72 110 139 181 230 289 366 420
#     4  12  21  45  72 102 144 186 221 297 350 406
#     4  12  25  47  72 104 146 184 232 297 358 421
#     4  12  25  45  66  98 136 184 245 287 340 420
#     4  11  22  40  73 107 141 180 234 294 351 420
#     4  12  27  48  71 101 144 185 238 291 351 419
#
# _framework density 24.354576999999999
#
# number of rings (size 3 to 8) (size 9 to 14) (size 15 to 20)
#    0.000    0.333    5.000    3.000    2.333    6.667 
#    0.000    2.500    0.000    0.000    0.000    0.000 
#    0.000    0.000    0.000    0.000    0.000    0.000 
#
# Total GULP energy -297560.528566 kJ/mol
# GULP energy per Si atom -12398.355357 kJ/mol
# Density = 2.429914 g / cm^3
# Si number density = 24.354577 Si / 1000 Ang^3
#
#
#
# Elastic Constant Matrix: (Units=GPa)
#
#
# Indices 1 2 3 4 5 6 
#
# 1 92.3388 10.6895 2.7223 -0.0049 -7.4796 -0.0004
# 2 10.6895 127.9005 9.2798 -0.0051 -0.4456 -0.0010
# 3 2.7223 9.2798 30.8478 -0.0250 -15.9991 -0.0016
# 4 -0.0049 -0.0051 -0.0250 -3.4216 -0.0104 21.8292
# 5 -7.4796 -0.4456 -15.9991 -0.0104 40.1805 -0.0004
# 6 -0.0004 -0.0010 -0.0016 21.8292 -0.0004 42.9153
#
#
#
# Elastic Compliance Matrix: (Units=1/GPa)
#
#
# Indices 1 2 3 4 5 6 
#
# 1 0.011108 -0.000955 0.000471 -0.000006 0.002245 0.000003
# 2 -0.000955 0.008114 -0.003027 0.000004 -0.001293 -0.000002
# 3 0.000471 -0.003027 0.041985 -0.000081 0.016772 0.000043
# 4 -0.000006 0.000004 -0.000081 -0.068846 -0.000051 0.035019
# 5 0.002245 -0.001293 0.016772 -0.000051 0.031969 0.000027
# 6 0.000003 -0.000002 0.000043 0.035019 0.000027 0.005489
#
#
# Mechanical properties :
#
#
# Convention : Reuss Voigt Hill
#
# Bulk Modulus (GPa) = 18.45534 32.94116 25.69825
# Shear Modulus (GPa) = 91.07155 31.16123 61.11639
#
# Velocity S-wave (km/s) = 6.12170 3.58086 5.01487
# Velocity P-wave (km/s) = 7.58691 5.53641 6.64127
#
# Compressibility (1/GPa) = 0.05418487
#
# Stress axis : x y z
#
# Youngs Moduli (GPa) = 90.02403 123.25132 23.81823
#
# Poissons Ratio (x) = 0.11767 -0.01122
# Poissons Ratio (y) = 0.08595 0.07210
# Poissons Ratio (z) = -0.04242 0.37310
#
# Static dielectric constant tensor:
#      x y z
#    x 4.503880 0.000000 -0.056160 
#    y 0.000000 4.441170 0.000000 
#    z -0.056160 0.000000 4.187610 
# 
# 
# High freq. dielectric constant tensor:
#      x y z
#    x 1.980180 0.000000 0.002660 
#    y 0.000000 1.978370 0.000000 
#    z 0.002660 0.000000 1.951930 
# 
# From -- ./inp_files/257606.got.cif
#   From: 2010.06.25/outbox.cif.g09.slc.cpg/sg15_129_cif.got.tgz:257606.got - 2010.06.28 07:06:18.
