data_PCOD8152164
_publ_section_title
;
Structure prediction by ZEFSAII (Michael W. Deem and Ramdas Pophale) SiO2 
 PCOD8152164
Probable space group: C 2/C
;
_chemical_formula_sum "Si O2"
_cell_formula_units_Z 48
_cell_length_a 21.501344
_cell_length_b 8.537575
_cell_length_c 13.177754
_cell_angle_alpha 90.000000
_cell_angle_beta 110.712547
_cell_angle_gamma 90.000000
_cell_volume 2262.681336
_symmetry_space_group_name_H-M "C 2/C"
_symmetry_group_IT_number 15
_symmetry_cell_setting 'monoclinic'
loop_
_space_group_symop_operation_xyz
x,y,z
-x,y,1/2-z
-x,-y,-z
x,-y,1/2+z
1/2+x,1/2+y,z
1/2-x,1/2+y,1/2-z
1/2-x,1/2-y,-z
1/2+x,1/2-y,1/2+z
loop_
_atom_site_type_symbol
_atom_site_label
_atom_site_fract_x
_atom_site_fract_y
_atom_site_fract_z
Si Si1 0.350844 0.362950 0.071522
Si Si2 0.525771 0.849825 0.875070
Si Si3 0.247738 0.288541 0.848213
Si Si4 0.677038 0.897143 0.265695
Si Si5 0.328294 0.274047 0.542576
Si Si6 0.908442 0.414485 0.939759
O O1 0.426299 0.300454 0.109231
O O2 0.315578 0.319109 0.157790
O O3 0.352160 0.548051 0.059459
O O4 0.308174 0.272358 0.962073
O O5 0.500000 0.901246 0.750000
O O6 0.463937 0.810485 0.913813
O O7 0.563021 0.996901 0.945938
O O8 0.275194 0.232323 0.756544
O O9 0.225260 0.466937 0.832200
O O10 0.641471 0.816758 0.342004
O O11 0.621841 0.961361 0.156938
O O12 0.250000 0.250000 0.500000
O O13 0.353098 0.202900 0.450372
#
# Coordination Sequence:
#
# PCOD8152164 Si02
#       6
#     8   8   8   8   8   8
#     4  11  23  42  64  96 138 173 221 276 329 398
#     4  11  24  46  68  91 133 185 227 272 324 394
#     4  11  22  38  66  99 136 172 216 276 337 397
#     4  12  23  40  69 103 136 173 222 277 343 400
#     4  12  24  42  67 103 136 172 215 277 345 399
#     4  11  24  43  69  97 130 178 230 274 326 402
#
# _framework density 21.21377
#
# number of rings (size 3 to 8) (size 9 to 14) (size 15 to 20)
#    0.000    0.667    3.333    6.000    0.000    0.667 
#    3.000    4.167    0.000    0.000    0.000    0.000 
#    0.000    0.000    0.000    0.000    0.000    0.000 
#
# Total GULP energy -297662.435248 kJ/mol
# GULP energy per Si atom -12402.601469 kJ/mol
# Density = 2.116549 g / cm^3
# Si number density = 21.213770 Si / 1000 Ang^3
#
#
#
# Elastic Constant Matrix: (Units=GPa)
#
#
# Indices 1 2 3 4 5 6 
#
# 1 147.1896 53.3575 45.1640 0.0000 -9.6361 0.0000
# 2 53.3575 102.6671 32.9577 0.0000 -8.2054 0.0000
# 3 45.1640 32.9577 106.5651 0.0000 3.1039 0.0000
# 4 0.0000 0.0000 0.0000 32.9820 0.0000 -9.9216
# 5 -9.6361 -8.2054 3.1039 0.0000 33.7723 0.0000
# 6 0.0000 0.0000 0.0000 -9.9216 0.0000 33.5493
#
#
#
# Elastic Compliance Matrix: (Units=1/GPa)
#
#
# Indices 1 2 3 4 5 6 
#
# 1 0.009111 -0.003687 -0.002778 0.000000 0.001959 0.000000
# 2 -0.003687 0.012605 -0.002401 0.000000 0.002231 0.000000
# 3 -0.002778 -0.002401 0.011375 0.000000 -0.002421 0.000000
# 4 0.000000 0.000000 0.000000 0.033280 0.000000 0.009842
# 5 0.001959 0.002231 -0.002421 0.000000 0.030934 0.000000
# 6 0.000000 0.000000 0.000000 0.009842 0.000000 0.032717
#
#
# Mechanical properties :
#
#
# Convention : Reuss Voigt Hill
#
# Bulk Modulus (GPa) = 65.10854 68.82001 66.96427
# Shear Modulus (GPa) = 32.70662 35.05692 33.88177
#
# Velocity S-wave (km/s) = 3.93079 4.06957 4.00078
# Velocity P-wave (km/s) = 7.16657 7.38874 7.27851
#
# Compressibility (1/GPa) = 0.01535897
#
# Stress axis : x y z
#
# Youngs Moduli (GPa) = 109.75482 79.33137 87.91574
#
# Poissons Ratio (x) = 0.29247 0.24426
# Poissons Ratio (y) = 0.40464 0.21108
# Poissons Ratio (z) = 0.30494 0.19047
#
# Static dielectric constant tensor:
#      x y z
#    x 4.016770 0.000000 -0.161030 
#    y 0.000000 3.608580 0.000000 
#    z -0.161030 0.000000 4.082600 
# 
# 
# High freq. dielectric constant tensor:
#      x y z
#    x 1.836620 0.000000 -0.011150 
#    y 0.000000 1.820180 0.000000 
#    z -0.011150 0.000000 1.845560 
# 
# From -- ./inp_files/166391.got.cif
#   From: 2010.06.25/outbox.cif.g09.slc.cpg/sg15_84_cif.got.tgz:166391.got - 2010.06.28 07:06:18.
