data_PCOD8152983
_publ_section_title
;
Structure prediction by ZEFSAII (Michael W. Deem and Ramdas Pophale) SiO2 
 PCOD8152983
Probable space group: C 2/C
;
_chemical_formula_sum "Si O2"
_cell_formula_units_Z 56
_cell_length_a 26.866695
_cell_length_b 5.893030
_cell_length_c 17.278576
_cell_angle_alpha 90.000000
_cell_angle_beta 113.766791
_cell_angle_gamma 90.000000
_cell_volume 2503.650654
_symmetry_space_group_name_H-M "C 2/C"
_symmetry_group_IT_number 15
_symmetry_cell_setting 'monoclinic'
loop_
_space_group_symop_operation_xyz
x,y,z
-x,y,1/2-z
-x,-y,-z
x,-y,1/2+z
1/2+x,1/2+y,z
1/2-x,1/2+y,1/2-z
1/2-x,1/2-y,-z
1/2+x,1/2-y,1/2+z
loop_
_atom_site_type_symbol
_atom_site_label
_atom_site_fract_x
_atom_site_fract_y
_atom_site_fract_z
Si Si1 0.891747 0.017228 0.592665
Si Si2 0.162863 0.328105 0.059118
Si Si3 0.238683 0.813391 0.281762
Si Si4 0.077334 0.489789 0.117191
Si Si5 0.861741 0.674933 0.203156
Si Si6 0.690000 0.847359 0.444603
Si Si7 0.026022 0.192681 0.465804
O O1 0.860604 0.113817 0.499559
O O2 0.901334 0.204232 0.665336
O O3 0.850595 0.847162 0.608236
O O4 0.947281 0.905319 0.596311
O O5 0.224405 0.273999 0.120091
O O6 0.126419 0.344097 0.113146
O O7 0.163762 0.550204 0.006004
O O8 0.244842 0.567471 0.240107
O O9 0.175538 0.838816 0.266820
O O10 0.094801 0.555213 0.214366
O O11 0.020417 0.362492 0.091973
O O12 0.069693 0.689835 0.049598
O O13 0.815576 0.522439 0.130418
O O14 0.750000 0.750000 0.500000
O O15 0.000000 0.000000 0.500000
#
# Coordination Sequence:
#
# PCOD8152983 Si02
#       7
#     8   8   8   8   8   8   8
#     4  11  24  44  73 101 145 189 250 304 385 450
#     4  11  23  41  70 102 139 198 245 307 366 462
#     4  12  28  43  72 114 155 200 254 312 383 458
#     4  11  24  45  72 104 144 184 257 313 373 448
#     4  11  27  44  69 112 151 193 245 319 381 452
#     4  11  24  43  69 102 149 193 237 299 376 459
#     4  11  24  45  77 100 132 196 252 311 379 456
#
# _framework density 22.367336999999999
#
# number of rings (size 3 to 8) (size 9 to 14) (size 15 to 20)
#    0.000    0.857    4.286    1.714    8.000    3.429 
#    0.000    4.286    0.000    0.000    0.000    0.000 
#    0.000    0.000    0.000    0.000    0.000    0.000 
#
# Total GULP energy -346882.601691 kJ/mol
# GULP energy per Si atom -12388.664346 kJ/mol
# Density = 2.231643 g / cm^3
# Si number density = 22.367337 Si / 1000 Ang^3
#
#
#
# Elastic Constant Matrix: (Units=GPa)
#
#
# Indices 1 2 3 4 5 6 
#
# 1 99.5310 33.2685 39.3372 0.0000 -10.7858 0.0001
# 2 33.2685 95.3342 33.4726 0.0005 -10.1187 -0.0002
# 3 39.3372 33.4726 129.9484 0.0000 0.2496 0.0000
# 4 0.0000 0.0005 0.0000 17.1967 0.0000 -8.0280
# 5 -10.7858 -10.1187 0.2496 0.0000 32.0031 0.0000
# 6 0.0001 -0.0002 0.0000 -8.0280 0.0000 31.3407
#
#
#
# Elastic Compliance Matrix: (Units=1/GPa)
#
#
# Indices 1 2 3 4 5 6 
#
# 1 0.012611 -0.002973 -0.003058 0.000000 0.003334 0.000000
# 2 -0.002973 0.012681 -0.002372 0.000000 0.003026 0.000000
# 3 -0.003058 -0.002372 0.009236 0.000000 -0.001853 0.000000
# 4 0.000000 0.000000 0.000000 0.066049 0.000000 0.016919
# 5 0.003334 0.003026 -0.001853 0.000000 0.033342 0.000000
# 6 0.000000 0.000000 0.000000 0.016919 0.000000 0.036241
#
#
# Mechanical properties :
#
#
# Convention : Reuss Voigt Hill
#
# Bulk Modulus (GPa) = 56.43136 59.66337 58.04736
# Shear Modulus (GPa) = 25.92375 30.69044 28.30709
#
# Velocity S-wave (km/s) = 3.40810 3.70822 3.56132
# Velocity P-wave (km/s) = 6.38522 6.71318 6.55125
#
# Compressibility (1/GPa) = 0.01772064
#
# Stress axis : x y z
#
# Youngs Moduli (GPa) = 79.29703 78.85794 108.27585
#
# Poissons Ratio (x) = 0.23446 0.33111
# Poissons Ratio (y) = 0.23577 0.25685
# Poissons Ratio (z) = 0.24249 0.18707
#
# Static dielectric constant tensor:
#      x y z
#    x 4.238450 0.000000 -0.018530 
#    y 0.000000 4.242330 0.000000 
#    z -0.018530 0.000000 3.977550 
# 
# 
# High freq. dielectric constant tensor:
#      x y z
#    x 1.885320 0.000000 -0.003640 
#    y 0.000000 1.888050 0.000000 
#    z -0.003640 0.000000 1.879160 
# 
# From -- ./inp_files/221308.got.cif
#   From: 2010.06.25/outbox.cif.g09.slc.cpg/sg15_111_cif.got.tgz:221308.got - 2010.06.28 07:06:18.
