data_PCOD8152340
_publ_section_title
;
Structure prediction by ZEFSAII (Michael W. Deem and Ramdas Pophale) SiO2 
 PCOD8152340
Probable space group: C 2/C
;
_chemical_formula_sum "Si O2"
_cell_formula_units_Z 48
_cell_length_a 20.961078
_cell_length_b 17.602132
_cell_length_c 17.050324
_cell_angle_alpha 90.000000
_cell_angle_beta 19.524250
_cell_angle_gamma 90.000000
_cell_volume 2102.449146
_symmetry_space_group_name_H-M "C 2/C"
_symmetry_group_IT_number 15
_symmetry_cell_setting 'monoclinic'
loop_
_space_group_symop_operation_xyz
x,y,z
-x,y,1/2-z
-x,-y,-z
x,-y,1/2+z
1/2+x,1/2+y,z
1/2-x,1/2+y,1/2-z
1/2-x,1/2-y,-z
1/2+x,1/2-y,1/2+z
loop_
_atom_site_type_symbol
_atom_site_label
_atom_site_fract_x
_atom_site_fract_y
_atom_site_fract_z
Si Si1 0.147724 0.437646 0.513635
Si Si2 0.504449 0.815656 0.407240
Si Si3 0.489523 0.353062 0.395118
Si Si4 0.317667 0.415171 0.756230
Si Si5 0.900296 0.680439 0.204882
Si Si6 0.435870 0.657551 0.412049
O O1 0.332324 0.401881 0.343657
O O2 0.219952 0.501674 0.368891
O O3 0.047799 0.370692 0.580955
O O4 0.000000 0.469777 0.750000
O O5 0.356925 0.858035 0.520800
O O6 0.423299 0.829269 0.586447
O O7 0.508215 0.727860 0.380497
O O8 0.710990 0.853429 0.167999
O O9 0.425227 0.393474 0.551357
O O10 0.318845 0.348330 0.528555
O O11 0.567593 0.268036 0.314370
O O12 0.467025 0.413690 0.656304
O O13 0.500000 0.667988 0.250000
#
# Coordination Sequence:
#
# PCOD8152340 Si02
#       6
#     8   8   8   8   8   8
#     4  12  29  46  69 104 149 183 233 302 363 413
#     4  11  22  40  70 101 137 182 239 290 340 423
#     4  11  22  46  77 100 134 184 242 293 349 421
#     4  11  26  44  69 101 146 186 229 294 353 431
#     4  11  22  45  76 102 131 183 247 292 343 420
#     4  12  23  36  66 103 142 191 232 279 354 422
#
# _framework density 22.830517
#
# number of rings (size 3 to 8) (size 9 to 14) (size 15 to 20)
#    0.000    0.667    5.000    3.000    2.333    5.333 
#    0.000    0.000    0.000    0.000    0.000    0.000 
#    0.000    0.000    0.000    0.000    0.000    0.000 
#
# Total GULP energy -297484.787140 kJ/mol
# GULP energy per Si atom -12395.199464 kJ/mol
# Density = 2.277855 g / cm^3
# Si number density = 22.830517 Si / 1000 Ang^3
#
#
#
# Elastic Constant Matrix: (Units=GPa)
#
#
# Indices 1 2 3 4 5 6 
#
# 1 49.5276 1.8939 18.7515 0.2211 -9.7393 -0.4202
# 2 1.8939 91.5253 9.3578 0.2243 -4.0715 -0.4374
# 3 18.7515 9.3578 256.5777 1.5378 -12.9802 -3.1306
# 4 0.2211 0.2243 1.5378 70.9240 0.0601 -77.0610
# 5 -9.7393 -4.0715 -12.9802 0.0601 31.0784 -0.1379
# 6 -0.4202 -0.4374 -3.1306 -77.0610 -0.1379 161.3355
#
#
#
# Elastic Compliance Matrix: (Units=1/GPa)
#
#
# Indices 1 2 3 4 5 6 
#
# 1 0.021922 -0.000041 -0.001280 -0.000010 0.006330 0.000033
# 2 -0.000041 0.011018 -0.000333 -0.000004 0.001292 0.000022
# 3 -0.001280 -0.000333 0.004068 -0.000004 0.001254 0.000074
# 4 -0.000010 -0.000004 -0.000004 0.029312 0.000000 0.014000
# 5 0.006330 0.001292 0.001254 0.000000 0.034854 0.000074
# 6 0.000033 0.000022 0.000074 0.014000 0.000074 0.012887
#
#
# Mechanical properties :
#
#
# Convention : Reuss Voigt Hill
#
# Bulk Modulus (GPa) = 29.67385 50.84856 40.26120
# Shear Modulus (GPa) = 38.87964 77.17608 58.02786
#
# Velocity S-wave (km/s) = 4.13118 5.82042 5.04698
# Velocity P-wave (km/s) = 5.98174 8.21525 7.18580
#
# Compressibility (1/GPa) = 0.03369971
#
# Stress axis : x y z
#
# Youngs Moduli (GPa) = 45.61623 90.75704 245.84903
#
# Poissons Ratio (x) = 0.00372 0.31467
# Poissons Ratio (y) = 0.00187 0.08192
# Poissons Ratio (z) = 0.05839 0.03024
#
# Static dielectric constant tensor:
#      x y z
#    x 3.959470 -0.000060 -0.304130 
#    y -0.000060 4.110910 0.000070 
#    z -0.304130 0.000070 4.500000 
# 
# 
# High freq. dielectric constant tensor:
#      x y z
#    x 1.888520 0.000000 -0.020390 
#    y 0.000000 1.892660 0.000010 
#    z -0.020390 0.000010 1.927450 
# 
# From -- ./inp_files/216238.got.cif
#   From: 2010.06.25/outbox.cif.g09.slc.cpg/sg15_109_cif.got.tgz:216238.got - 2010.06.28 07:06:18.
