data_PCOD8152026
_publ_section_title
;
Structure prediction by ZEFSAII (Michael W. Deem and Ramdas Pophale) SiO2 
 PCOD8152026
Probable space group: C 2/C
;
_chemical_formula_sum "Si O2"
_cell_formula_units_Z 56
_cell_length_a 18.588328
_cell_length_b 8.800902
_cell_length_c 15.403896
_cell_angle_alpha 90.000000
_cell_angle_beta 94.129613
_cell_angle_gamma 90.000000
_cell_volume 2513.443132
_symmetry_space_group_name_H-M "C 2/C"
_symmetry_group_IT_number 15
_symmetry_cell_setting 'monoclinic'
loop_
_space_group_symop_operation_xyz
x,y,z
-x,y,1/2-z
-x,-y,-z
x,-y,1/2+z
1/2+x,1/2+y,z
1/2-x,1/2+y,1/2-z
1/2-x,1/2-y,-z
1/2+x,1/2-y,1/2+z
loop_
_atom_site_type_symbol
_atom_site_label
_atom_site_fract_x
_atom_site_fract_y
_atom_site_fract_z
Si Si1 0.360807 0.103677 0.788372
Si Si2 0.207060 0.103398 0.844936
Si Si3 0.223015 0.078217 0.509981
Si Si4 0.563692 0.618195 0.485304
Si Si5 0.423528 0.603516 0.211784
Si Si6 0.665774 0.066089 0.381597
Si Si7 0.923399 0.448990 0.964388
O O1 0.274958 0.139911 0.788463
O O2 0.403233 0.258497 0.773425
O O3 0.372501 0.990070 0.708742
O O4 0.398053 0.022624 0.872634
O O5 0.170189 0.252899 0.881739
O O6 0.245601 0.005491 0.923154
O O7 0.141981 0.016892 0.790129
O O8 0.250000 0.250000 0.500000
O O9 0.139040 0.040119 0.513613
O O10 0.254460 0.005055 0.600781
O O11 0.500000 0.500000 0.500000
O O12 0.564123 0.665694 0.384393
O O13 0.565912 0.767861 0.545292
O O14 0.500000 0.531435 0.250000
O O15 0.630201 0.999198 0.465026
O O16 0.000000 0.500000 0.000000
#
# Coordination Sequence:
#
# PCOD8152026 Si02
#       7
#     8   8   8   8   8   8   8
#     4  12  25  46  77 103 146 201 243 303 382 440
#     4  11  25  44  73 106 143 192 252 303 372 444
#     4  11  21  45  73 101 146 188 240 303 370 435
#     4  11  25  45  74 107 146 196 240 305 377 447
#     4  11  25  48  70 107 151 191 241 310 369 440
#     4  12  25  45  73 108 146 185 249 310 355 447
#     4  12  27  45  73 108 148 193 246 300 380 439
#
# _framework density 22.280193000000001
#
# number of rings (size 3 to 8) (size 9 to 14) (size 15 to 20)
#    0.000    0.571    4.286    3.000    4.000    4.571 
#    0.000    0.000    0.000    0.000    0.000    0.000 
#    0.000    0.000    0.000    0.000    0.000    0.000 
#
# Total GULP energy -347050.141689 kJ/mol
# GULP energy per Si atom -12394.647917 kJ/mol
# Density = 2.222948 g / cm^3
# Si number density = 22.280193 Si / 1000 Ang^3
#
#
#
# Elastic Constant Matrix: (Units=GPa)
#
#
# Indices 1 2 3 4 5 6 
#
# 1 142.0232 45.9804 57.4262 0.0000 19.4014 0.0000
# 2 45.9804 152.4432 54.6822 0.0000 2.0310 0.0000
# 3 57.4262 54.6822 131.4859 0.0000 19.3127 0.0000
# 4 0.0000 0.0000 0.0000 33.2403 0.0000 5.2162
# 5 19.4014 2.0310 19.3127 0.0000 38.5116 0.0000
# 6 0.0000 0.0000 0.0000 5.2162 0.0000 38.7552
#
#
#
# Elastic Compliance Matrix: (Units=1/GPa)
#
#
# Indices 1 2 3 4 5 6 
#
# 1 0.009164 -0.001705 -0.002838 0.000000 -0.003104 0.000000
# 2 -0.001705 0.008088 -0.002896 0.000000 0.001885 0.000000
# 3 -0.002838 -0.002896 0.010597 0.000000 -0.003732 0.000000
# 4 0.000000 0.000000 0.000000 0.030733 0.000000 -0.004136
# 5 -0.003104 0.001885 -0.003732 0.000000 0.029302 0.000000
# 6 0.000000 0.000000 0.000000 -0.004136 0.000000 0.026360
#
#
# Mechanical properties :
#
#
# Convention : Reuss Voigt Hill
#
# Bulk Modulus (GPa) = 77.08443 82.45888 79.77166
# Shear Modulus (GPa) = 37.46866 39.95897 38.71381
#
# Velocity S-wave (km/s) = 4.10531 4.23954 4.17296
# Velocity P-wave (km/s) = 7.55938 7.81378 7.68763
#
# Compressibility (1/GPa) = 0.01297279
#
# Stress axis : x y z
#
# Youngs Moduli (GPa) = 109.11674 123.64515 94.36572
#
# Poissons Ratio (x) = 0.21082 0.26777
# Poissons Ratio (y) = 0.18605 0.27325
# Poissons Ratio (z) = 0.30963 0.35803
#
# Static dielectric constant tensor:
#      x y z
#    x 4.173020 0.000000 0.055240 
#    y 0.000000 3.910920 0.000000 
#    z 0.055240 0.000000 4.049440 
# 
# 
# High freq. dielectric constant tensor:
#      x y z
#    x 1.898220 0.000000 0.011140 
#    y 0.000000 1.877530 0.000000 
#    z 0.011140 0.000000 1.877100 
# 
# From -- ./inp_files/166649.got.cif
#   From: 2010.06.25/outbox.cif.g09.slc.cpg/sg15_84_cif.got.tgz:166649.got - 2010.06.28 07:06:18.
