data_PCOD8152233
_publ_section_title
;
Structure prediction by ZEFSAII (Michael W. Deem and Ramdas Pophale) SiO2 
 PCOD8152233
Probable space group: C 2/C
;
_chemical_formula_sum "Si O2"
_cell_formula_units_Z 48
_cell_length_a 12.552664
_cell_length_b 13.892533
_cell_length_c 26.702822
_cell_angle_alpha 90.000000
_cell_angle_beta 151.547123
_cell_angle_gamma 90.000000
_cell_volume 2218.599459
_symmetry_space_group_name_H-M "C 2/C"
_symmetry_group_IT_number 15
_symmetry_cell_setting 'monoclinic'
loop_
_space_group_symop_operation_xyz
x,y,z
-x,y,1/2-z
-x,-y,-z
x,-y,1/2+z
1/2+x,1/2+y,z
1/2-x,1/2+y,1/2-z
1/2-x,1/2-y,-z
1/2+x,1/2-y,1/2+z
loop_
_atom_site_type_symbol
_atom_site_label
_atom_site_fract_x
_atom_site_fract_y
_atom_site_fract_z
Si Si1 0.710351 0.201389 0.060924
Si Si2 0.393788 0.065003 0.318237
Si Si3 0.430428 0.517061 0.169469
Si Si4 0.150096 0.650588 0.515862
Si Si5 0.932417 0.249982 0.779431
Si Si6 0.026773 0.354934 0.381569
O O1 0.845331 0.122990 0.148730
O O2 0.853000 0.299393 0.114918
O O3 0.478983 0.213694 0.995073
O O4 0.680727 0.155242 0.993841
O O5 0.493615 0.132913 0.403337
O O6 0.395379 0.135234 0.270690
O O7 0.141944 0.027758 0.220936
O O8 0.531260 0.966769 0.366944
O O9 0.500000 0.465150 0.250000
O O10 0.224777 0.456301 0.062904
O O11 0.376039 0.712898 0.602399
O O12 0.714423 0.189550 0.705165
O O13 0.000000 0.229198 0.750000
#
# Coordination Sequence:
#
# PCOD8152233 Si02
#       6
#     8   8   8   8   8   8
#     4  11  22  39  66  98 130 166 218 272 329 383
#     4  12  25  42  66 100 130 168 221 272 321 387
#     4  12  21  35  68 101 130 159 218 279 325 377
#     4  12  23  41  67  99 130 169 218 278 324 381
#     4  12  25  44  65  94 134 180 214 261 329 396
#     4  11  23  42  67  94 132 173 216 267 328 389
#
# _framework density 21.635269999999998
#
# number of rings (size 3 to 8) (size 9 to 14) (size 15 to 20)
#    0.000    0.333    8.333    2.500    0.000    0.000 
#    0.000    3.333    0.000    0.000    0.000    0.000 
#    0.000    0.000    0.000    0.000    0.000    0.000 
#
# Total GULP energy -297445.703509 kJ/mol
# GULP energy per Si atom -12393.570980 kJ/mol
# Density = 2.158603 g / cm^3
# Si number density = 21.635270 Si / 1000 Ang^3
#
#
#
# Elastic Constant Matrix: (Units=GPa)
#
#
# Indices 1 2 3 4 5 6 
#
# 1 71.5736 47.1731 29.3968 -0.0001 19.0977 0.0001
# 2 47.1731 145.1415 12.1296 -0.0001 15.9540 0.0000
# 3 29.3968 12.1296 68.6502 -0.0024 21.2942 0.0005
# 4 -0.0001 -0.0001 -0.0024 34.0342 -0.0001 5.2451
# 5 19.0977 15.9540 21.2942 -0.0001 25.5257 0.0001
# 6 0.0001 0.0000 0.0005 5.2451 0.0001 20.9114
#
#
#
# Elastic Compliance Matrix: (Units=1/GPa)
#
#
# Indices 1 2 3 4 5 6 
#
# 1 0.022537 -0.005928 -0.006101 0.000000 -0.008067 0.000000
# 2 -0.005928 0.008959 0.001776 0.000000 -0.002646 0.000000
# 3 -0.006101 0.001776 0.021307 0.000002 -0.014321 -0.000001
# 4 0.000000 0.000000 0.000002 0.030564 -0.000001 -0.007666
# 5 -0.008067 -0.002646 -0.014321 -0.000001 0.058812 0.000000
# 6 0.000000 0.000000 -0.000001 -0.007666 0.000000 0.049744
#
#
# Mechanical properties :
#
#
# Convention : Reuss Voigt Hill
#
# Bulk Modulus (GPa) = 30.96207 51.41827 41.19017
# Shear Modulus (GPa) = 22.40195 29.20531 25.80363
#
# Velocity S-wave (km/s) = 3.22131 3.67808 3.45724
# Velocity P-wave (km/s) = 5.30828 6.46956 5.91747
#
# Compressibility (1/GPa) = 0.03229758
#
# Stress axis : x y z
#
# Youngs Moduli (GPa) = 44.37110 111.61936 46.93219
#
# Poissons Ratio (x) = 0.66172 0.28634
# Poissons Ratio (y) = 0.26305 -0.08337
# Poissons Ratio (z) = 0.27071 -0.19828
#
# Static dielectric constant tensor:
#      x y z
#    x 3.647760 0.000000 0.193980 
#    y 0.000000 4.012230 0.000000 
#    z 0.193980 0.000000 4.057080 
# 
# 
# High freq. dielectric constant tensor:
#      x y z
#    x 1.818250 0.000000 0.015240 
#    y 0.000000 1.854990 0.000000 
#    z 0.015240 0.000000 1.864640 
# 
# From -- ./inp_files/123451.got.cif
#   From: 2010.06.25/outbox.cif.g09.slc.cpg/sg15_62_cif.got.tgz:123451.got - 2010.06.28 07:06:18.
