data_PCOD8152882
_publ_section_title
;
Structure prediction by ZEFSAII (Michael W. Deem and Ramdas Pophale) SiO2 
 PCOD8152882
Probable space group: C 2/C
;
_chemical_formula_sum "Si O2"
_cell_formula_units_Z 60
_cell_length_a 11.752662
_cell_length_b 30.431352
_cell_length_c 10.595066
_cell_angle_alpha 90.000000
_cell_angle_beta 51.792068
_cell_angle_gamma 90.000000
_cell_volume 2977.537967
_symmetry_space_group_name_H-M "C 2/C"
_symmetry_group_IT_number 15
_symmetry_cell_setting 'monoclinic'
loop_
_space_group_symop_operation_xyz
x,y,z
-x,y,1/2-z
-x,-y,-z
x,-y,1/2+z
1/2+x,1/2+y,z
1/2-x,1/2+y,1/2-z
1/2-x,1/2-y,-z
1/2+x,1/2-y,1/2+z
loop_
_atom_site_type_symbol
_atom_site_label
_atom_site_fract_x
_atom_site_fract_y
_atom_site_fract_z
Si Si1 0.095312 0.705561 0.997216
Si Si2 0.099524 0.457089 0.393824
Si Si3 0.851992 0.014357 0.540615
Si Si4 0.283393 0.785663 0.812716
Si Si5 0.488576 0.130981 0.898593
Si Si6 0.275936 0.626615 0.249524
Si Si7 0.841765 0.563139 0.383905
Si Si8 0.000000 0.924423 0.750000
O O1 0.178848 0.699318 0.071268
O O2 0.931094 0.721728 0.133410
O O3 0.185201 0.742783 0.862114
O O4 0.092773 0.660448 0.918027
O O5 0.245385 0.470400 0.223519
O O6 0.145976 0.424594 0.477642
O O7 0.000000 0.500000 0.500000
O O8 0.018148 0.421384 0.364914
O O9 0.877998 0.047952 0.407711
O O10 0.783248 0.972236 0.525146
O O11 0.000000 0.000000 0.500000
O O12 0.185255 0.825282 0.827221
O O13 0.500000 0.151018 0.750000
O O14 0.325447 0.133090 0.060277
O O15 0.192322 0.601192 0.193173
O O16 0.422491 0.603439 0.193539
O O17 0.000000 0.541783 0.250000
#
# Coordination Sequence:
#
# PCOD8152882 Si02
#       8
#     8   8   8   8   8   8   8   4
#     4   9  19  40  66  97 123 159 205 262 323 386
#     4  12  25  39  66  96 124 168 223 274 319 381
#     4  12  25  43  60  89 130 171 212 270 330 381
#     4   9  19  39  70  92 123 160 205 262 321 383
#     4  11  23  40  63  94 128 167 219 269 314 379
#     4  11  23  43  64  93 125 176 209 264 330 390
#     4  12  23  40  68  93 120 167 225 269 313 387
#     4  12  26  44  60  88 138 174 214 262 338 396
#
# _framework density 20.150876
#
# number of rings (size 3 to 8) (size 9 to 14) (size 15 to 20)
#    0.000    1.067    4.000    2.400    5.600    0.000 
#    6.000    1.333    2.933    0.000    0.000    0.000 
#    0.000    0.000    0.000    0.000    0.000    0.000 
#
# Total GULP energy -371678.075779 kJ/mol
# GULP energy per Si atom -12389.269193 kJ/mol
# Density = 2.010501 g / cm^3
# Si number density = 20.150876 Si / 1000 Ang^3
#
#
#
# Elastic Constant Matrix: (Units=GPa)
#
#
# Indices 1 2 3 4 5 6 
#
# 1 71.8391 37.7931 26.7276 0.0000 -3.2148 0.0000
# 2 37.7931 125.1864 47.7036 0.0000 -10.8456 0.0000
# 3 26.7276 47.7036 120.7950 0.0000 2.2432 0.0000
# 4 0.0000 0.0000 0.0000 23.9664 0.0000 3.5981
# 5 -3.2148 -10.8456 2.2432 0.0000 32.4994 0.0000
# 6 0.0000 0.0000 0.0000 3.5981 0.0000 28.6967
#
#
#
# Elastic Compliance Matrix: (Units=1/GPa)
#
#
# Indices 1 2 3 4 5 6 
#
# 1 0.016968 -0.004304 -0.002062 0.000000 0.000385 0.000000
# 2 -0.004304 0.010885 -0.003410 0.000000 0.003442 0.000000
# 3 -0.002062 -0.003410 0.010119 0.000000 -0.002041 0.000000
# 4 0.000000 0.000000 0.000000 0.042526 0.000000 -0.005332
# 5 0.000385 0.003442 -0.002041 0.000000 0.032097 0.000000
# 6 0.000000 0.000000 0.000000 -0.005332 0.000000 0.035516
#
#
# Mechanical properties :
#
#
# Convention : Reuss Voigt Hill
#
# Bulk Modulus (GPa) = 54.28621 60.25211 57.26916
# Shear Modulus (GPa) = 28.76800 30.73890 29.75345
#
# Velocity S-wave (km/s) = 3.78250 3.90992 3.84674
# Velocity P-wave (km/s) = 6.78784 7.09568 6.94347
#
# Compressibility (1/GPa) = 0.01842089
#
# Stress axis : x y z
#
# Youngs Moduli (GPa) = 58.93294 91.86875 98.81952
#
# Poissons Ratio (x) = 0.39536 0.20378
# Poissons Ratio (y) = 0.25362 0.33701
# Poissons Ratio (z) = 0.12153 0.31331
#
# Static dielectric constant tensor:
#      x y z
#    x 3.689040 0.000000 0.377460 
#    y 0.000000 3.704440 0.000000 
#    z 0.377460 0.000000 5.483530 
# 
# 
# High freq. dielectric constant tensor:
#      x y z
#    x 1.786970 0.000000 0.009300 
#    y 0.000000 1.780290 0.000000 
#    z 0.009300 0.000000 1.791350 
# 
# From -- ./inp_files/92605.got.cif
#   From: 2010.06.25/outbox.cif.g09.slc.cpg/sg15_47_cif.got.tgz:92605.got - 2010.06.28 07:06:18.
