data_PCOD8152549
_publ_section_title
;
Structure prediction by ZEFSAII (Michael W. Deem and Ramdas Pophale) SiO2 
 PCOD8152549
Probable space group: C 2/C
;
_chemical_formula_sum "Si O2"
_cell_formula_units_Z 48
_cell_length_a 26.414403
_cell_length_b 12.753716
_cell_length_c 14.576440
_cell_angle_alpha 90.000000
_cell_angle_beta 153.690668
_cell_angle_gamma 90.000000
_cell_volume 2176.434572
_symmetry_space_group_name_H-M "C 2/C"
_symmetry_group_IT_number 15
_symmetry_cell_setting 'monoclinic'
loop_
_space_group_symop_operation_xyz
x,y,z
-x,y,1/2-z
-x,-y,-z
x,-y,1/2+z
1/2+x,1/2+y,z
1/2-x,1/2+y,1/2-z
1/2-x,1/2-y,-z
1/2+x,1/2-y,1/2+z
loop_
_atom_site_type_symbol
_atom_site_label
_atom_site_fract_x
_atom_site_fract_y
_atom_site_fract_z
Si Si1 0.876230 0.702776 0.712158
Si Si2 0.812599 0.482187 0.651288
Si Si3 0.050868 0.267391 0.643831
Si Si4 0.875115 0.052318 0.793215
Si Si5 0.171257 0.991297 0.086434
Si Si6 0.000000 0.167336 0.750000
Si Si7 0.000000 0.815426 0.750000
O O1 0.750000 0.750000 0.500000
O O2 0.880235 0.576577 0.713284
O O3 0.957115 0.743211 0.762976
O O4 0.926970 0.731051 0.894532
O O5 0.882820 0.376406 0.755697
O O6 0.686729 0.481950 0.400601
O O7 0.789224 0.506085 0.720960
O O8 0.120928 0.178180 0.703355
O O9 0.041346 0.241562 0.735370
O O10 0.801358 0.013851 0.760613
O O11 0.000000 0.000000 0.000000
O O12 0.102495 0.096647 0.953350
O O13 0.102605 0.886452 0.951989
#
# Coordination Sequence:
#
# PCOD8152549 Si02
#       7
#     8   8   8   8   8   4   4
#     4  12  26  47  75 104 146 195 247 306 372 444
#     4  12  27  45  69 111 147 185 240 313 373 428
#     4  12  26  47  71 105 152 184 240 309 371 437
#     4  12  22  44  74 102 136 193 246 292 356 449
#     4  11  22  42  74 105 135 190 250 291 354 445
#     4  11  24  41  76 102 142 187 240 297 364 442
#     4  11  22  45  74 106 134 193 256 293 350 454
#
# _framework density 22.054418999999999
#
# number of rings (size 3 to 8) (size 9 to 14) (size 15 to 20)
#    0.000    0.333    6.667    3.000    0.000    3.333 
#    0.000    0.000    0.000    0.000    0.000    0.000 
#    0.000    0.000    0.000    0.000    0.000    0.000 
#
# Total GULP energy -297623.498556 kJ/mol
# GULP energy per Si atom -12400.979106 kJ/mol
# Density = 2.200422 g / cm^3
# Si number density = 22.054419 Si / 1000 Ang^3
#
#
#
# Elastic Constant Matrix: (Units=GPa)
#
#
# Indices 1 2 3 4 5 6 
#
# 1 168.4846 92.9756 48.5287 0.0000 -6.0376 0.0000
# 2 92.9756 159.9934 21.6368 0.0000 4.6564 0.0000
# 3 48.5287 21.6368 80.2827 0.0000 -13.4964 0.0000
# 4 0.0000 0.0000 0.0000 18.6086 0.0000 2.1163
# 5 -6.0376 4.6564 -13.4964 0.0000 28.5892 0.0000
# 6 0.0000 0.0000 0.0000 2.1163 0.0000 44.7236
#
#
#
# Elastic Compliance Matrix: (Units=1/GPa)
#
#
# Indices 1 2 3 4 5 6 
#
# 1 0.010250 -0.005359 -0.004607 0.000000 0.000863 0.000000
# 2 -0.005359 0.009400 0.000280 0.000000 -0.002530 0.000000
# 3 -0.004607 0.000280 0.016286 0.000000 0.006670 0.000000
# 4 0.000000 0.000000 0.000000 0.054029 0.000000 -0.002557
# 5 0.000863 -0.002530 0.006670 0.000000 0.038721 0.000000
# 6 0.000000 0.000000 0.000000 -0.002557 0.000000 0.022481
#
#
# Mechanical properties :
#
#
# Convention : Reuss Voigt Hill
#
# Bulk Modulus (GPa) = 60.36251 81.67145 71.01698
# Shear Modulus (GPa) = 28.39944 34.75893 31.57919
#
# Velocity S-wave (km/s) = 3.59234 3.97426 3.78812
# Velocity P-wave (km/s) = 6.68100 7.62705 7.16965
#
# Compressibility (1/GPa) = 0.01656658
#
# Stress axis : x y z
#
# Youngs Moduli (GPa) = 97.55937 106.38265 61.40125
#
# Poissons Ratio (x) = 0.57007 0.28286
# Poissons Ratio (y) = 0.52279 -0.01722
# Poissons Ratio (z) = 0.44943 -0.02983
#
# Static dielectric constant tensor:
#      x y z
#    x 4.325480 0.000000 -0.288910 
#    y 0.000000 4.177300 0.000000 
#    z -0.288910 0.000000 4.019380 
# 
# 
# High freq. dielectric constant tensor:
#      x y z
#    x 1.873750 0.000000 -0.015610 
#    y 0.000000 1.883020 0.000000 
#    z -0.015610 0.000000 1.853980 
# 
# From -- ./inp_files/152521.got.cif
#   From: 2010.06.25/outbox.cif.g09.slc.cpg/sg15_77_cif.got.tgz:152521.got - 2010.06.28 07:06:18.
