data_PCOD8152499
_publ_section_title
;
Structure prediction by ZEFSAII (Michael W. Deem and Ramdas Pophale) SiO2 
 PCOD8152499
Probable space group: C 2/C
;
_chemical_formula_sum "Si O2"
_cell_formula_units_Z 40
_cell_length_a 24.228800
_cell_length_b 10.499706
_cell_length_c 26.818675
_cell_angle_alpha 90.000000
_cell_angle_beta 164.574447
_cell_angle_gamma 90.000000
_cell_volume 1814.701679
_symmetry_space_group_name_H-M "C 2/C"
_symmetry_group_IT_number 15
_symmetry_cell_setting 'monoclinic'
loop_
_space_group_symop_operation_xyz
x,y,z
-x,y,1/2-z
-x,-y,-z
x,-y,1/2+z
1/2+x,1/2+y,z
1/2-x,1/2+y,1/2-z
1/2-x,1/2-y,-z
1/2+x,1/2-y,1/2+z
loop_
_atom_site_type_symbol
_atom_site_label
_atom_site_fract_x
_atom_site_fract_y
_atom_site_fract_z
Si Si1 0.945370 0.853655 0.401263
Si Si2 0.315732 0.167938 0.627127
Si Si3 0.579924 0.554232 0.269086
Si Si4 0.230395 0.433015 0.306142
Si Si5 0.125519 0.413618 0.042739
O O1 0.746987 0.913348 0.200523
O O2 0.142762 0.943240 0.566447
O O3 0.004053 0.718571 0.428617
O O4 0.879817 0.841846 0.402792
O O5 0.500000 0.124304 0.750000
O O6 0.286514 0.320721 0.598586
O O7 0.104166 0.100113 0.427275
O O8 0.359309 0.134683 0.722940
O O9 0.500000 0.489391 0.250000
O O10 0.709255 0.441032 0.356890
O O11 0.040724 0.472904 0.104940
#
# Coordination Sequence:
#
# PCOD8152499 Si02
#       5
#     8   8   8   8   8
#     4  11  25  42  65  96 134 176 222 269 325 394
#     4  11  22  42  69 102 134 168 221 278 332 394
#     4  11  23  41  67 101 133 175 220 273 334 390
#     4  11  24  43  67  97 133 175 218 273 333 386
#     4  12  23  46  68  95 137 174 221 273 326 394
#
# _framework density 22.042189
#
# number of rings (size 3 to 8) (size 9 to 14) (size 15 to 20)
#    0.000    0.800    4.000    5.400    0.000    4.800 
#    0.000    2.000    0.000    0.000    0.000    0.000 
#    0.000    0.000    0.000    0.000    0.000    0.000 
#
# Total GULP energy -247957.075687 kJ/mol
# GULP energy per Si atom -12397.853784 kJ/mol
# Density = 2.199202 g / cm^3
# Si number density = 22.042189 Si / 1000 Ang^3
#
#
#
# Elastic Constant Matrix: (Units=GPa)
#
#
# Indices 1 2 3 4 5 6 
#
# 1 163.8108 63.0483 27.6180 0.0588 22.8505 0.0067
# 2 63.0483 73.3532 20.1136 -0.1252 20.3396 0.1025
# 3 27.6180 20.1136 92.4650 -0.5092 -2.2695 0.2505
# 4 0.0588 -0.1252 -0.5092 29.0592 0.0858 9.2151
# 5 22.8505 20.3396 -2.2695 0.0858 29.8566 0.0088
# 6 0.0067 0.1025 0.2505 9.2151 0.0088 27.7105
#
#
#
# Elastic Compliance Matrix: (Units=1/GPa)
#
#
# Indices 1 2 3 4 5 6 
#
# 1 0.009372 -0.006992 -0.001341 -0.000086 -0.002512 0.000065
# 2 -0.006992 0.023594 -0.003312 0.000119 -0.010974 -0.000092
# 3 -0.001341 -0.003312 0.012041 0.000244 0.004197 -0.000179
# 4 -0.000086 0.000119 0.000244 0.038476 -0.000104 -0.012798
# 5 -0.002512 -0.010974 0.004197 -0.000104 0.043211 0.000024
# 6 0.000065 -0.000092 -0.000179 -0.012798 0.000024 0.040345
#
#
# Mechanical properties :
#
#
# Convention : Reuss Voigt Hill
#
# Bulk Modulus (GPa) = 46.04707 61.24320 53.64513
# Shear Modulus (GPa) = 25.30790 31.91521 28.61156
#
# Velocity S-wave (km/s) = 3.39212 3.80928 3.60674
# Velocity P-wave (km/s) = 6.02310 6.86966 6.46027
#
# Compressibility (1/GPa) = 0.02171691
#
# Stress axis : x y z
#
# Youngs Moduli (GPa) = 106.70135 42.38449 83.05144
#
# Poissons Ratio (x) = 0.29633 0.11135
# Poissons Ratio (y) = 0.74601 0.27510
# Poissons Ratio (z) = 0.14306 0.14039
#
# Static dielectric constant tensor:
#      x y z
#    x 4.055300 0.000050 0.025460 
#    y 0.000050 3.655180 -0.000560 
#    z 0.025460 -0.000560 4.126080 
# 
# 
# High freq. dielectric constant tensor:
#      x y z
#    x 1.876580 0.000000 0.001840 
#    y 0.000000 1.833350 -0.000050 
#    z 0.001840 -0.000050 1.889530 
# 
# From -- ./inp_files/280053.got.cif
#   From: 2010.06.25/outbox.cif.g09.slc.cpg/sg15_141_cif.got.tgz:280053.got - 2010.06.28 07:06:18.
