data_PCOD8152260
_publ_section_title
;
Structure prediction by ZEFSAII (Michael W. Deem and Ramdas Pophale) SiO2 
 PCOD8152260
Probable space group: C 2/C
;
_chemical_formula_sum "Si O2"
_cell_formula_units_Z 56
_cell_length_a 9.939280
_cell_length_b 16.027544
_cell_length_c 28.471341
_cell_angle_alpha 90.000000
_cell_angle_beta 144.497771
_cell_angle_gamma 90.000000
_cell_volume 2633.950132
_symmetry_space_group_name_H-M "C 2/C"
_symmetry_group_IT_number 15
_symmetry_cell_setting 'monoclinic'
loop_
_space_group_symop_operation_xyz
x,y,z
-x,y,1/2-z
-x,-y,-z
x,-y,1/2+z
1/2+x,1/2+y,z
1/2-x,1/2+y,1/2-z
1/2-x,1/2-y,-z
1/2+x,1/2-y,1/2+z
loop_
_atom_site_type_symbol
_atom_site_label
_atom_site_fract_x
_atom_site_fract_y
_atom_site_fract_z
Si Si1 0.430333 0.016939 0.909421
Si Si2 0.636987 0.313910 0.181653
Si Si3 0.038015 0.577106 0.838427
Si Si4 0.500000 0.446769 0.750000
Si Si5 0.000000 0.450362 0.750000
Si Si6 0.621215 0.868831 0.021867
Si Si7 0.241533 0.241764 0.610129
Si Si8 0.200979 0.839916 0.729804
O O1 0.512233 0.033674 0.880601
O O2 0.470662 0.096555 0.954384
O O3 0.152691 0.000718 0.829830
O O4 0.568583 0.936444 0.966895
O O5 0.798849 0.384629 0.250405
O O6 0.393532 0.353674 0.099882
O O7 0.757157 0.271474 0.170524
O O8 0.617231 0.236518 0.212358
O O9 0.119592 0.507396 0.824193
O O10 0.230135 0.648428 0.901995
O O11 0.687638 0.394982 0.773299
O O12 0.208556 0.394566 0.788088
O O13 0.499789 0.780910 0.975523
O O14 0.443573 0.302739 0.648376
#
# Coordination Sequence:
#
# PCOD8152260 Si02
#       8
#     8   8   8   4   4   8   8   8
#     4  11  24  40  67 104 134 178 233 288 339 405
#     4  11  22  42  71 101 135 183 232 286 340 417
#     4  11  23  43  69  98 138 179 234 282 349 406
#     4  12  18  39  71  92 128 178 226 284 328 407
#     4  12  24  39  69 110 130 166 238 302 338 391
#     4  11  25  42  68 101 139 181 236 282 343 415
#     4  11  22  44  67  96 137 187 222 279 353 418
#     4  11  22  39  71  99 129 178 235 282 337 407
#
# _framework density 21.260843000000001
#
# number of rings (size 3 to 8) (size 9 to 14) (size 15 to 20)
#    0.000    0.857    5.714    2.143    0.000    2.857 
#    0.000    2.143    0.000    0.000    0.000    0.000 
#    0.000    0.000    0.000    0.000    0.000    0.000 
#
# Total GULP energy -347140.200183 kJ/mol
# GULP energy per Si atom -12397.864292 kJ/mol
# Density = 2.121245 g / cm^3
# Si number density = 21.260843 Si / 1000 Ang^3
#
#
#
# Elastic Constant Matrix: (Units=GPa)
#
#
# Indices 1 2 3 4 5 6 
#
# 1 130.1674 66.8487 42.1858 0.0000 -16.5258 0.0000
# 2 66.8487 121.6536 55.4621 0.0000 -4.3971 0.0000
# 3 42.1858 55.4621 114.2336 -0.0002 -3.5426 -0.0001
# 4 0.0000 0.0000 -0.0002 27.1291 -0.0001 -1.5648
# 5 -16.5258 -4.3971 -3.5426 -0.0001 32.1327 -0.0001
# 6 0.0000 0.0000 -0.0001 -1.5648 -0.0001 31.4395
#
#
#
# Elastic Compliance Matrix: (Units=1/GPa)
#
#
# Indices 1 2 3 4 5 6 
#
# 1 0.011650 -0.005559 -0.001446 0.000000 0.005071 0.000000
# 2 -0.005559 0.013234 -0.004420 0.000000 -0.001535 0.000000
# 3 -0.001446 -0.004420 0.011431 0.000000 -0.000088 0.000000
# 4 0.000000 0.000000 0.000000 0.036967 0.000000 0.001840
# 5 0.005071 -0.001535 -0.000088 0.000000 0.033509 0.000000
# 6 0.000000 0.000000 0.000000 0.001840 0.000000 0.031899
#
#
# Mechanical properties :
#
#
# Convention : Reuss Voigt Hill
#
# Bulk Modulus (GPa) = 74.26574 77.22755 75.74665
# Shear Modulus (GPa) = 30.11520 31.57747 30.84634
#
# Velocity S-wave (km/s) = 3.76768 3.85806 3.81314
# Velocity P-wave (km/s) = 7.34396 7.49993 7.42235
#
# Compressibility (1/GPa) = 0.01346516
#
# Stress axis : x y z
#
# Youngs Moduli (GPa) = 85.83861 75.56036 87.47906
#
# Poissons Ratio (x) = 0.42004 0.12649
# Poissons Ratio (y) = 0.47718 0.38668
# Poissons Ratio (z) = 0.12412 0.33399
#
# Static dielectric constant tensor:
#      x y z
#    x 3.723180 0.000000 -0.034870 
#    y 0.000000 4.212320 0.000000 
#    z -0.034870 0.000000 3.751810 
# 
# 
# High freq. dielectric constant tensor:
#      x y z
#    x 1.822510 0.000000 -0.006380 
#    y 0.000000 1.853500 0.000000 
#    z -0.006380 0.000000 1.818190 
# 
# From -- ./inp_files/289792.got.cif
#   From: 2010.06.25/outbox.cif.g09.slc.cpg/sg15_145_cif.got.tgz:289792.got - 2010.06.28 07:06:18.
