data_PCOD8152982
_publ_section_title
;
Structure prediction by ZEFSAII (Michael W. Deem and Ramdas Pophale) SiO2 
 PCOD8152982
Probable space group: C 2/C
;
_chemical_formula_sum "Si O2"
_cell_formula_units_Z 64
_cell_length_a 8.598060
_cell_length_b 18.549496
_cell_length_c 29.568139
_cell_angle_alpha 90.000000
_cell_angle_beta 40.675616
_cell_angle_gamma 90.000000
_cell_volume 3073.652315
_symmetry_space_group_name_H-M "C 2/C"
_symmetry_group_IT_number 15
_symmetry_cell_setting 'monoclinic'
loop_
_space_group_symop_operation_xyz
x,y,z
-x,y,1/2-z
-x,-y,-z
x,-y,1/2+z
1/2+x,1/2+y,z
1/2-x,1/2+y,1/2-z
1/2-x,1/2-y,-z
1/2+x,1/2-y,1/2+z
loop_
_atom_site_type_symbol
_atom_site_label
_atom_site_fract_x
_atom_site_fract_y
_atom_site_fract_z
Si Si1 0.467203 0.138968 0.689433
Si Si2 0.732851 0.398960 0.815291
Si Si3 0.049327 0.800752 0.688438
Si Si4 0.400697 0.185914 0.445961
Si Si5 0.665032 0.566273 0.826469
Si Si6 0.940278 0.332727 0.429825
Si Si7 0.878448 0.576839 0.529557
Si Si8 0.087521 0.815665 0.930597
O O1 0.430171 0.224013 0.704741
O O2 0.237948 0.100080 0.761882
O O3 0.705099 0.109571 0.661707
O O4 0.477786 0.124180 0.633180
O O5 0.560706 0.364908 0.816228
O O6 0.745170 0.484235 0.808343
O O7 0.620691 0.381007 0.888673
O O8 0.000000 0.367618 0.750000
O O9 0.325931 0.791564 0.616096
O O10 0.000000 0.824803 0.750000
O O11 0.250000 0.250000 0.500000
O O12 0.373920 0.113479 0.481365
O O13 0.307938 0.174515 0.415824
O O14 0.385005 0.572040 0.892913
O O15 0.658252 0.317466 0.486954
O O16 0.966928 0.377816 0.469451
O O17 0.092924 0.259180 0.401169
O O18 0.000000 0.500000 0.500000
#
# Coordination Sequence:
#
# PCOD8152982 Si02
#       8
#     8   8   8   8   8   8   8   8
#     4  11  23  44  72  98 133 186 230 286 350 428
#     4  12  25  46  69 101 141 181 234 296 351 418
#     4  12  24  43  70 103 136 180 238 286 346 420
#     4  12  24  42  70 103 140 180 231 289 350 413
#     4  11  24  47  69  95 141 186 230 279 362 428
#     4  11  23  42  67 103 134 174 229 290 343 414
#     4  12  26  44  68 100 140 181 230 294 352 419
#     4  11  23  41  70 100 136 175 230 287 348 408
#
# _framework density 20.822134999999999
#
# number of rings (size 3 to 8) (size 9 to 14) (size 15 to 20)
#    0.000    0.500    5.000    5.250    0.000    2.500 
#    4.500    2.500    0.000    0.000    0.000    0.000 
#    0.000    0.000    0.000    0.000    0.000    0.000 
#
# Total GULP energy -396938.776729 kJ/mol
# GULP energy per Si atom -12404.336773 kJ/mol
# Density = 2.077474 g / cm^3
# Si number density = 20.822135 Si / 1000 Ang^3
#
#
#
# Elastic Constant Matrix: (Units=GPa)
#
#
# Indices 1 2 3 4 5 6 
#
# 1 93.6699 30.2607 39.8989 0.0036 14.0416 -0.0016
# 2 30.2607 117.7410 36.7435 -0.0107 10.8967 0.0058
# 3 39.8989 36.7435 129.9325 0.0191 4.5152 0.0058
# 4 0.0036 -0.0107 0.0191 35.2750 -0.0116 -1.0704
# 5 14.0416 10.8967 4.5152 -0.0116 43.2994 0.0023
# 6 -0.0016 0.0058 0.0058 -1.0704 0.0023 29.5376
#
#
#
# Elastic Compliance Matrix: (Units=1/GPa)
#
#
# Indices 1 2 3 4 5 6 
#
# 1 0.013293 -0.002041 -0.003385 -0.000001 -0.003444 0.000002
# 2 -0.002041 0.009819 -0.002094 0.000004 -0.001591 -0.000001
# 3 -0.003385 -0.002094 0.009305 -0.000005 0.000655 -0.000002
# 4 -0.000001 0.000004 -0.000005 0.028380 0.000008 0.001028
# 5 -0.003444 -0.001591 0.000655 0.000008 0.024544 -0.000002
# 6 0.000002 -0.000001 -0.000002 0.001028 -0.000002 0.033892
#
#
# Mechanical properties :
#
#
# Convention : Reuss Voigt Hill
#
# Bulk Modulus (GPa) = 57.55226 61.68329 59.61778
# Shear Modulus (GPa) = 35.69703 37.25176 36.47439
#
# Velocity S-wave (km/s) = 4.14500 4.23430 4.18989
# Velocity P-wave (km/s) = 7.11393 7.32079 7.21810
#
# Compressibility (1/GPa) = 0.01737551
#
# Stress axis : x y z
#
# Youngs Moduli (GPa) = 75.22482 101.84630 107.46522
#
# Poissons Ratio (x) = 0.20791 0.36378
# Poissons Ratio (y) = 0.15357 0.22508
# Poissons Ratio (z) = 0.25464 0.21332
#
# Static dielectric constant tensor:
#      x y z
#    x 2.636270 -0.000140 -0.707390 
#    y -0.000140 3.725840 -0.000020 
#    z -0.707390 -0.000020 3.591940 
# 
# 
# High freq. dielectric constant tensor:
#      x y z
#    x 1.820870 0.000000 -0.000020 
#    y 0.000000 1.814700 0.000000 
#    z -0.000020 0.000000 1.830000 
# 
# From -- ./inp_files/308763.got.cif
#   From: 2010.06.25/outbox.cif.g09.slc.cpg/sg15_155_cif.got.tgz:308763.got - 2010.06.28 07:06:18.
