data_PCOD8152860
_publ_section_title
;
Structure prediction by ZEFSAII (Michael W. Deem and Ramdas Pophale) SiO2 
 PCOD8152860
Probable space group: C 2/C
;
_chemical_formula_sum "Si O2"
_cell_formula_units_Z 32
_cell_length_a 6.473964
_cell_length_b 25.907550
_cell_length_c 9.795323
_cell_angle_alpha 90.000000
_cell_angle_beta 106.868635
_cell_angle_gamma 90.000000
_cell_volume 1572.225658
_symmetry_space_group_name_H-M "C 2/C"
_symmetry_group_IT_number 15
_symmetry_cell_setting 'monoclinic'
loop_
_space_group_symop_operation_xyz
x,y,z
-x,y,1/2-z
-x,-y,-z
x,-y,1/2+z
1/2+x,1/2+y,z
1/2-x,1/2+y,1/2-z
1/2-x,1/2-y,-z
1/2+x,1/2-y,1/2+z
loop_
_atom_site_type_symbol
_atom_site_label
_atom_site_fract_x
_atom_site_fract_y
_atom_site_fract_z
Si Si1 0.320359 0.013119 0.126068
Si Si2 0.488707 0.741122 0.594571
Si Si3 0.762690 0.441108 0.882913
Si Si4 0.674078 0.322802 0.894419
O O1 0.500000 0.980129 0.250000
O O2 0.472958 0.054869 0.074476
O O3 0.167424 0.041947 0.212192
O O4 0.185275 0.978264 0.993969
O O5 0.500000 0.720200 0.750000
O O6 0.250000 0.750000 0.500000
O O7 0.605938 0.697232 0.529435
O O8 0.601815 0.796883 0.605198
O O9 0.694198 0.383956 0.905431
O O10 0.500000 0.305146 0.750000
#
# Coordination Sequence:
#
# PCOD8152860 Si02
#       4
#     8   8   8   8
#     4   7  14  30  53  81 119 159 197 250 303 352
#     4  11  24  44  63  91 127 161 210 271 319 380
#     4   8  16  32  54  85 117 162 202 246 310 363
#     4  11  23  39  65  92 121 167 214 256 323 382
#
# _framework density 20.353314000000001
#
# number of rings (size 3 to 8) (size 9 to 14) (size 15 to 20)
#    1.500    1.000    2.500    0.000    3.500    0.000 
#    4.500    3.750    0.000    0.000    0.000    0.000 
#    0.000    0.000    0.000    0.000    0.000    0.000 
#
# Total GULP energy -198209.061267 kJ/mol
# GULP energy per Si atom -12388.066329 kJ/mol
# Density = 2.030699 g / cm^3
# Si number density = 20.353314 Si / 1000 Ang^3
#
#
#
# Elastic Constant Matrix: (Units=GPa)
#
#
# Indices 1 2 3 4 5 6 
#
# 1 73.1251 42.9059 46.5103 0.0000 -13.5349 0.0000
# 2 42.9059 127.6261 64.6168 0.0000 -14.6524 0.0000
# 3 46.5103 64.6168 142.8067 0.0000 -18.2588 0.0000
# 4 0.0000 0.0000 0.0000 27.2208 0.0000 4.3757
# 5 -13.5349 -14.6524 -18.2588 0.0000 44.3537 0.0000
# 6 0.0000 0.0000 0.0000 4.3757 0.0000 20.7886
#
#
#
# Elastic Compliance Matrix: (Units=1/GPa)
#
#
# Indices 1 2 3 4 5 6 
#
# 1 0.019155 -0.004072 -0.004033 0.000000 0.002840 0.000000
# 2 -0.004072 0.011131 -0.003588 0.000000 0.000958 0.000000
# 3 -0.004033 -0.003588 0.010166 0.000000 0.001769 0.000000
# 4 0.000000 0.000000 0.000000 0.038023 0.000000 -0.008003
# 5 0.002840 0.000958 0.001769 0.000000 0.024457 0.000000
# 6 0.000000 0.000000 0.000000 -0.008003 0.000000 0.049788
#
#
# Mechanical properties :
#
#
# Convention : Reuss Voigt Hill
#
# Bulk Modulus (GPa) = 58.59576 72.40266 65.49921
# Shear Modulus (GPa) = 27.50374 31.10760 29.30567
#
# Velocity S-wave (km/s) = 3.68001 3.91369 3.79865
# Velocity P-wave (km/s) = 6.84897 7.48818 7.17570
#
# Compressibility (1/GPa) = 0.01706608
#
# Stress axis : x y z
#
# Youngs Moduli (GPa) = 52.20545 89.84178 98.37095
#
# Poissons Ratio (x) = 0.36580 0.39674
# Poissons Ratio (y) = 0.21256 0.35294
# Poissons Ratio (z) = 0.21055 0.32234
#
# Static dielectric constant tensor:
#      x y z
#    x 3.768390 0.000000 -0.253360 
#    y 0.000000 3.203990 0.000000 
#    z -0.253360 0.000000 4.002250 
# 
# 
# High freq. dielectric constant tensor:
#      x y z
#    x 1.811010 0.000000 -0.009310 
#    y 0.000000 1.755540 0.000000 
#    z -0.009310 0.000000 1.807090 
# 
# From -- ./inp_files/20242.got.cif
#   From: 2010.06.25/outbox.cif.g09.slc.cpg/sg15_11_cif.got.tgz:20242.got - 2010.06.28 07:06:18.
