data_PCOD8152914
_publ_section_title
;
Structure prediction by ZEFSAII (Michael W. Deem and Ramdas Pophale) SiO2 
 PCOD8152914
Probable space group: C 2/C
;
_chemical_formula_sum "Si O2"
_cell_formula_units_Z 48
_cell_length_a 17.553927
_cell_length_b 19.728341
_cell_length_c 8.501240
_cell_angle_alpha 90.000000
_cell_angle_beta 51.103267
_cell_angle_gamma 90.000000
_cell_volume 2291.302439
_symmetry_space_group_name_H-M "C 2/C"
_symmetry_group_IT_number 15
_symmetry_cell_setting 'monoclinic'
loop_
_space_group_symop_operation_xyz
x,y,z
-x,y,1/2-z
-x,-y,-z
x,-y,1/2+z
1/2+x,1/2+y,z
1/2-x,1/2+y,1/2-z
1/2-x,1/2-y,-z
1/2+x,1/2-y,1/2+z
loop_
_atom_site_type_symbol
_atom_site_label
_atom_site_fract_x
_atom_site_fract_y
_atom_site_fract_z
Si Si1 0.543343 0.275337 0.910925
Si Si2 0.852863 0.178243 0.535284
Si Si3 0.285595 0.937110 0.208626
Si Si4 0.276870 0.718830 0.131835
Si Si5 0.483281 0.882216 0.094488
Si Si6 0.817253 0.579011 0.300025
O O1 0.607996 0.308001 0.689110
O O2 0.605317 0.281784 0.992240
O O3 0.513514 0.198458 0.915730
O O4 0.440202 0.315338 0.051733
O O5 0.809222 0.102891 0.605221
O O6 0.768120 0.233003 0.676541
O O7 0.379938 0.909425 0.174215
O O8 0.271648 0.015757 0.266219
O O9 0.295482 0.926117 0.011246
O O10 0.235303 0.643975 0.205859
O O11 0.250000 0.750000 0.000000
O O12 0.500000 0.907695 0.250000
O O13 0.566405 0.914781 0.876072
#
# Coordination Sequence:
#
# PCOD8152914 Si02
#       6
#     8   8   8   8   8   8
#     4  11  23  40  71 103 133 176 233 286 338 413
#     4  11  23  43  68 101 135 178 230 280 342 408
#     4  12  27  44  66  97 143 182 228 281 355 420
#     4  12  23  42  69  99 134 177 230 287 341 399
#     4  12  22  41  69 104 138 174 225 287 348 415
#     4  12  26  44  66 101 137 184 228 282 349 414
#
# _framework density 20.948782999999999
#
# number of rings (size 3 to 8) (size 9 to 14) (size 15 to 20)
#    0.000    0.333    6.667    2.500    4.667    0.667 
#    0.000    0.833    0.000    0.000    0.000    0.000 
#    0.000    0.000    0.000    0.000    0.000    0.000 
#
# Total GULP energy -297718.633245 kJ/mol
# GULP energy per Si atom -12404.943052 kJ/mol
# Density = 2.090110 g / cm^3
# Si number density = 20.948783 Si / 1000 Ang^3
#
#
#
# Elastic Constant Matrix: (Units=GPa)
#
#
# Indices 1 2 3 4 5 6 
#
# 1 121.0500 30.2370 1.5655 0.0000 -12.7458 0.0000
# 2 30.2370 135.5532 41.1692 0.0000 -18.0177 0.0000
# 3 1.5655 41.1692 53.7813 0.0000 -0.0771 0.0000
# 4 0.0000 0.0000 0.0000 41.1667 0.0000 -7.4539
# 5 -12.7458 -18.0177 -0.0771 0.0000 34.4396 0.0000
# 6 0.0000 0.0000 0.0000 -7.4539 0.0000 31.6791
#
#
#
# Elastic Compliance Matrix: (Units=1/GPa)
#
#
# Indices 1 2 3 4 5 6 
#
# 1 0.009010 -0.002131 0.001372 0.000000 0.002223 0.000000
# 2 -0.002131 0.011067 -0.008402 0.000000 0.004982 0.000000
# 3 0.001372 -0.008402 0.024980 0.000000 -0.003832 0.000000
# 4 0.000000 0.000000 0.000000 0.025372 0.000000 0.005970
# 5 0.002223 0.004982 -0.003832 0.000000 0.032457 0.000000
# 6 0.000000 0.000000 0.000000 0.005970 0.000000 0.032971
#
#
# Mechanical properties :
#
#
# Convention : Reuss Voigt Hill
#
# Bulk Modulus (GPa) = 37.40502 50.70310 44.05406
# Shear Modulus (GPa) = 30.65780 37.28462 33.97121
#
# Velocity S-wave (km/s) = 3.82968 4.22334 4.03132
# Velocity P-wave (km/s) = 6.11960 6.93095 6.53787
#
# Compressibility (1/GPa) = 0.02673438
#
# Stress axis : x y z
#
# Youngs Moduli (GPa) = 110.99223 90.36153 40.03158
#
# Poissons Ratio (x) = 0.19257 -0.05493
# Poissons Ratio (y) = 0.23653 0.33636
# Poissons Ratio (z) = -0.15231 0.75924
#
# Static dielectric constant tensor:
#      x y z
#    x 4.076790 0.000000 -0.143880 
#    y 0.000000 4.044240 0.000000 
#    z -0.143880 0.000000 3.873370 
# 
# 
# High freq. dielectric constant tensor:
#      x y z
#    x 1.830780 0.000000 0.000830 
#    y 0.000000 1.819250 0.000000 
#    z 0.000830 0.000000 1.819540 
# 
# From -- ./inp_files/50060.got.cif
#   From: 2010.06.25/outbox.cif.g09.slc.cpg/sg15_26_cif.got.tgz:50060.got - 2010.06.28 07:06:18.
