data_PCOD8152254
_publ_section_title
;
Structure prediction by ZEFSAII (Michael W. Deem and Ramdas Pophale) SiO2 
 PCOD8152254
Probable space group: C 2/C
;
_chemical_formula_sum "Si O2"
_cell_formula_units_Z 52
_cell_length_a 14.550334
_cell_length_b 14.870284
_cell_length_c 14.183416
_cell_angle_alpha 90.000000
_cell_angle_beta 120.859974
_cell_angle_gamma 90.000000
_cell_volume 2634.357061
_symmetry_space_group_name_H-M "C 2/C"
_symmetry_group_IT_number 15
_symmetry_cell_setting 'monoclinic'
loop_
_space_group_symop_operation_xyz
x,y,z
-x,y,1/2-z
-x,-y,-z
x,-y,1/2+z
1/2+x,1/2+y,z
1/2-x,1/2+y,1/2-z
1/2-x,1/2-y,-z
1/2+x,1/2-y,1/2+z
loop_
_atom_site_type_symbol
_atom_site_label
_atom_site_fract_x
_atom_site_fract_y
_atom_site_fract_z
Si Si1 0.403769 0.801684 0.411277
Si Si2 0.000000 0.874997 0.750000
Si Si3 0.143016 0.640218 0.992846
Si Si4 0.315110 0.757359 0.163777
Si Si5 0.757513 0.448314 0.411284
Si Si6 0.901336 0.007359 0.836218
Si Si7 0.599833 0.390220 0.492851
O O1 0.518068 0.842350 0.443232
O O2 0.335189 0.786448 0.280764
O O3 0.348546 0.874998 0.447090
O O4 0.401918 0.711317 0.471322
O O5 0.100413 0.815068 0.830338
O O6 0.020078 0.934925 0.669664
O O7 0.175942 0.658227 0.901572
O O8 0.200441 0.709160 0.095113
O O9 0.180583 0.538678 0.028669
O O10 0.695571 0.463553 0.280771
O O11 0.675178 0.407647 0.443251
O O12 0.855331 0.959166 0.904887
O O13 0.975636 0.091772 0.901563
#
# Coordination Sequence:
#
# PCOD8152254 Si02
#       7
#     8   4   8   8   8   8   8
#     4  12  25  41  63  95 138 172 218 264 328 405
#     4  12  16  44  64 104 120 160 216 288 292 384
#     4  11  23  42  66  96 127 179 218 272 328 379
#     4  11  22  39  70  95 128 161 228 276 321 374
#     4  12  25  41  63  95 138 172 218 264 328 405
#     4  11  22  39  70  95 128 161 228 276 321 374
#     4  11  23  42  66  96 127 179 218 272 328 379
#
# _framework density 19.739163000000001
#
# number of rings (size 3 to 8) (size 9 to 14) (size 15 to 20)
#    0.000    0.615    6.154    0.923    4.308    2.462 
#    0.000    0.000    0.000    0.000    0.000    0.000 
#    0.000    0.000    0.000    0.000    0.000    0.000 
#
# Total GULP energy -322396.050911 kJ/mol
# GULP energy per Si atom -12399.848112 kJ/mol
# Density = 1.969424 g / cm^3
# Si number density = 19.739163 Si / 1000 Ang^3
#
#
#
# Elastic Constant Matrix: (Units=GPa)
#
#
# Indices 1 2 3 4 5 6 
#
# 1 40.4927 45.9006 4.0103 0.0000 -0.0046 0.0000
# 2 45.9006 147.8196 56.1048 0.0000 -0.0072 0.0000
# 3 4.0103 56.1048 99.3866 0.0000 -0.0059 0.0000
# 4 0.0000 0.0000 0.0000 5.5418 0.0000 -0.0003
# 5 -0.0046 -0.0072 -0.0059 0.0000 7.2288 0.0000
# 6 0.0000 0.0000 0.0000 -0.0003 0.0000 44.0721
#
#
#
# Elastic Compliance Matrix: (Units=1/GPa)
#
#
# Indices 1 2 3 4 5 6 
#
# 1 0.041777 -0.015696 0.007175 0.000000 0.000017 0.000000
# 2 -0.015696 0.014507 -0.007556 0.000000 -0.000002 0.000000
# 3 0.007175 -0.007556 0.014038 0.000000 0.000009 0.000000
# 4 0.000000 0.000000 0.000000 0.180447 0.000000 0.000001
# 5 0.000017 -0.000002 0.000009 0.000000 0.138336 0.000000
# 6 0.000000 0.000000 0.000000 0.000001 0.000000 0.022690
#
#
# Mechanical properties :
#
#
# Convention : Reuss Voigt Hill
#
# Bulk Modulus (GPa) = 26.20022 55.52558 40.86290
# Shear Modulus (GPa) = 10.94881 23.48073 17.21477
#
# Velocity S-wave (km/s) = 2.35771 3.45273 2.95636
# Velocity P-wave (km/s) = 4.55124 6.63972 5.69208
#
# Compressibility (1/GPa) = 0.03816762
#
# Stress axis : x y z
#
# Youngs Moduli (GPa) = 23.93658 68.93424 71.23743
#
# Poissons Ratio (x) = 1.08197 -0.51110
# Poissons Ratio (y) = 0.37570 0.53826
# Poissons Ratio (z) = -0.17174 0.52085
#
# Static dielectric constant tensor:
#      x y z
#    x 3.635930 0.000000 -0.000010 
#    y 0.000000 3.724100 0.000000 
#    z -0.000010 0.000000 3.671640 
# 
# 
# High freq. dielectric constant tensor:
#      x y z
#    x 1.768720 0.000000 0.000000 
#    y 0.000000 1.777890 0.000000 
#    z 0.000000 0.000000 1.779750 
# 
# From -- ./inp_files/154073.got.cif
#   From: 2010.06.25/outbox.cif.g09.slc.cpg/sg15_78_cif.got.tgz:154073.got - 2010.06.28 07:06:18.
