data_PCOD8152789
_publ_section_title
;
Structure prediction by ZEFSAII (Michael W. Deem and Ramdas Pophale) SiO2 
 PCOD8152789
Probable space group: C 2/C
;
_chemical_formula_sum "Si O2"
_cell_formula_units_Z 56
_cell_length_a 17.579420
_cell_length_b 8.960194
_cell_length_c 26.342267
_cell_angle_alpha 90.000000
_cell_angle_beta 140.331395
_cell_angle_gamma 90.000000
_cell_volume 2648.691231
_symmetry_space_group_name_H-M "C 2/C"
_symmetry_group_IT_number 15
_symmetry_cell_setting 'monoclinic'
loop_
_space_group_symop_operation_xyz
x,y,z
-x,y,1/2-z
-x,-y,-z
x,-y,1/2+z
1/2+x,1/2+y,z
1/2-x,1/2+y,1/2-z
1/2-x,1/2-y,-z
1/2+x,1/2-y,1/2+z
loop_
_atom_site_type_symbol
_atom_site_label
_atom_site_fract_x
_atom_site_fract_y
_atom_site_fract_z
Si Si1 0.186288 0.368543 0.649820
Si Si2 0.596830 0.118561 0.213907
Si Si3 0.240827 0.314780 0.140586
Si Si4 0.220498 0.843882 0.034271
Si Si5 0.375670 0.819387 0.209468
Si Si6 0.987056 0.828285 0.506401
Si Si7 0.320006 0.828081 0.579599
O O1 0.144296 0.428775 0.683046
O O2 0.213213 0.510079 0.627944
O O3 0.313782 0.281131 0.721509
O O4 0.081322 0.264328 0.572835
O O5 0.669950 0.264262 0.268765
O O6 0.458491 0.156319 0.138265
O O7 0.614728 0.988229 0.265113
O O8 0.305684 0.271975 0.121923
O O9 0.117236 0.231158 0.082813
O O10 0.286083 0.786272 0.117749
O O11 0.080955 0.820457 0.974345
O O12 0.257624 0.013522 0.049654
O O13 0.250000 0.750000 0.000000
O O14 0.500000 0.763038 0.250000
O O15 0.000000 0.000000 0.500000
O O16 0.250000 0.750000 0.500000
#
# Coordination Sequence:
#
# PCOD8152789 Si02
#       7
#     8   8   8   8   8   8   8
#     4  11  27  41  69 108 136 185 238 293 357 423
#     4  12  24  47  72  99 140 191 236 290 361 419
#     4  12  24  45  68 102 141 181 233 300 354 421
#     4  11  25  43  70 104 134 187 237 287 351 426
#     4  11  22  47  70  96 140 185 235 289 351 420
#     4  11  23  46  70  97 144 184 232 290 357 424
#     4  12  26  44  71 102 143 186 234 290 359 421
#
# _framework density 21.142517999999999
#
# number of rings (size 3 to 8) (size 9 to 14) (size 15 to 20)
#    0.000    0.571    4.286    3.429    6.000    2.286 
#    0.000    0.000    0.000    0.000    0.000    0.000 
#    0.000    0.000    0.000    0.000    0.000    0.000 
#
# Total GULP energy -347098.602571 kJ/mol
# GULP energy per Si atom -12396.378663 kJ/mol
# Density = 2.109440 g / cm^3
# Si number density = 21.142518 Si / 1000 Ang^3
#
#
#
# Elastic Constant Matrix: (Units=GPa)
#
#
# Indices 1 2 3 4 5 6 
#
# 1 159.5061 29.7887 38.0383 0.0000 6.7009 0.0000
# 2 29.7887 107.3721 27.6238 0.0000 -2.5802 0.0000
# 3 38.0383 27.6238 85.1242 0.0000 9.1835 0.0000
# 4 0.0000 0.0000 0.0000 24.3834 0.0000 8.7887
# 5 6.7009 -2.5802 9.1835 0.0000 41.6755 0.0000
# 6 0.0000 0.0000 0.0000 8.7887 0.0000 14.1204
#
#
#
# Elastic Compliance Matrix: (Units=1/GPa)
#
#
# Indices 1 2 3 4 5 6 
#
# 1 0.007189 -0.001310 -0.002718 0.000000 -0.000638 0.000000
# 2 -0.001310 0.010480 -0.002979 0.000000 0.001516 0.000000
# 3 -0.002718 -0.002979 0.014240 0.000000 -0.002885 0.000000
# 4 0.000000 0.000000 0.000000 0.052873 0.000000 -0.032909
# 5 -0.000638 0.001516 -0.002885 0.000000 0.024827 0.000000
# 6 0.000000 0.000000 0.000000 -0.032909 0.000000 0.091302
#
#
# Mechanical properties :
#
#
# Convention : Reuss Voigt Hill
#
# Bulk Modulus (GPa) = 55.88522 60.32266 58.10394
# Shear Modulus (GPa) = 22.63560 33.13930 27.88745
#
# Velocity S-wave (km/s) = 3.27558 3.96337 3.63577
# Velocity P-wave (km/s) = 6.38717 7.03831 6.72063
#
# Compressibility (1/GPa) = 0.01789382
#
# Stress axis : x y z
#
# Youngs Moduli (GPa) = 139.09796 95.42211 70.22369
#
# Poissons Ratio (x) = 0.12505 0.19090
# Poissons Ratio (y) = 0.18229 0.20918
# Poissons Ratio (z) = 0.37813 0.28424
#
# Static dielectric constant tensor:
#      x y z
#    x 4.020360 0.000000 -0.482320 
#    y 0.000000 3.566060 0.000000 
#    z -0.482320 0.000000 0.079850 
# 
# 
# High freq. dielectric constant tensor:
#      x y z
#    x 1.855100 0.000000 0.011790 
#    y 0.000000 1.832200 0.000000 
#    z 0.011790 0.000000 1.826640 
# 
# From -- ./inp_files/298568.got.cif
#   From: 2010.06.25/outbox.cif.g09.slc.cpg/sg15_150_cif.got.tgz:298568.got - 2010.06.28 07:06:18.
