data_PCOD8152056
_publ_section_title
;
Structure prediction by ZEFSAII (Michael W. Deem and Ramdas Pophale) SiO2 
 PCOD8152056
Probable space group: C 2/C
;
_chemical_formula_sum "Si O2"
_cell_formula_units_Z 32
_cell_length_a 14.818859
_cell_length_b 19.848624
_cell_length_c 13.962793
_cell_angle_alpha 90.000000
_cell_angle_beta 159.453442
_cell_angle_gamma 90.000000
_cell_volume 1441.403199
_symmetry_space_group_name_H-M "C 2/C"
_symmetry_group_IT_number 15
_symmetry_cell_setting 'monoclinic'
loop_
_space_group_symop_operation_xyz
x,y,z
-x,y,1/2-z
-x,-y,-z
x,-y,1/2+z
1/2+x,1/2+y,z
1/2-x,1/2+y,1/2-z
1/2-x,1/2-y,-z
1/2+x,1/2-y,1/2+z
loop_
_atom_site_type_symbol
_atom_site_label
_atom_site_fract_x
_atom_site_fract_y
_atom_site_fract_z
Si Si1 0.755579 0.509839 0.629939
Si Si2 0.253999 0.438167 0.163862
Si Si3 0.728079 0.707598 0.749397
Si Si4 0.748272 0.343940 0.054575
O O1 0.508630 0.463556 0.362436
O O2 0.751191 0.533157 0.734893
O O3 0.751668 0.575062 0.558887
O O4 0.010426 0.466022 0.862734
O O5 0.247418 0.357386 0.158628
O O6 0.456011 0.741561 0.501584
O O7 0.744935 0.687164 0.655850
O O8 0.000000 0.317196 0.250000
O O9 0.500000 0.318533 0.750000
#
# Coordination Sequence:
#
# PCOD8152056 Si02
#       4
#     8   8   8   8
#     4   9  17  31  50  69  91 122 162 211 257 283
#     4   9  17  31  50  69  91 122 162 211 257 283
#     4  11  22  34  49  72 104 139 171 200 234 289
#     4  11  22  34  49  72 104 139 171 200 234 289
#
# _framework density 22.200589000000001
#
# number of rings (size 3 to 8) (size 9 to 14) (size 15 to 20)
#    0.000    2.000    0.000    4.500    0.000   11.000 
#    0.000    0.000    0.000    0.000    0.000    0.000 
#    0.000   70.000    0.000    0.000    0.000    0.000 
#
# Total GULP energy -198460.292056 kJ/mol
# GULP energy per Si atom -12403.768253 kJ/mol
# Density = 2.215006 g / cm^3
# Si number density = 22.200589 Si / 1000 Ang^3
#
#
#
# Elastic Constant Matrix: (Units=GPa)
#
#
# Indices 1 2 3 4 5 6 
#
# 1 10.0129 0.5143 6.9818 0.0006 1.4710 0.0003
# 2 0.5143 120.2315 35.4994 0.0008 0.5049 -0.0007
# 3 6.9818 35.4994 166.1287 0.0037 31.8229 -0.0021
# 4 0.0006 0.0008 0.0037 93.0371 0.0009 21.9563
# 5 1.4710 0.5049 31.8229 0.0009 17.2729 0.0001
# 6 0.0003 -0.0007 -0.0021 21.9563 0.0001 38.5326
#
#
#
# Elastic Compliance Matrix: (Units=1/GPa)
#
#
# Indices 1 2 3 4 5 6 
#
# 1 0.102983 0.000852 -0.004366 0.000000 -0.000751 -0.000001
# 2 0.000852 0.009173 -0.002984 0.000000 0.005156 0.000000
# 3 -0.004366 -0.002984 0.010435 0.000000 -0.018767 0.000001
# 4 0.000000 0.000000 0.000000 0.012418 0.000000 -0.007076
# 5 -0.000751 0.005156 -0.018767 0.000000 0.092383 -0.000001
# 6 -0.000001 0.000000 0.000001 -0.007076 -0.000001 0.029984
#
#
# Mechanical properties :
#
#
# Convention : Reuss Voigt Hill
#
# Bulk Modulus (GPa) = 9.12452 42.48490 25.80471
# Shear Modulus (GPa) = 16.29177 46.66034 31.47605
#
# Velocity S-wave (km/s) = 2.71189 4.58947 3.76946
# Velocity P-wave (km/s) = 3.73159 6.87479 5.53116
#
# Compressibility (1/GPa) = 0.10959481
#
# Stress axis : x y z
#
# Youngs Moduli (GPa) = 9.71039 109.01626 95.82811
#
# Poissons Ratio (x) = -0.09286 0.41840
# Poissons Ratio (y) = -0.00827 0.28592
# Poissons Ratio (z) = 0.04240 0.32527
#
# Static dielectric constant tensor:
#      x y z
#    x 3.549320 0.000000 0.166290 
#    y 0.000000 4.113030 0.000000 
#    z 0.166290 0.000000 4.223560 
# 
# 
# High freq. dielectric constant tensor:
#      x y z
#    x 1.840380 0.000000 0.013160 
#    y 0.000000 1.880880 0.000000 
#    z 0.013160 0.000000 1.888010 
# 
# From -- ./inp_files/6399.got.cif
#   From: 2010.06.25/outbox.cif.g09.slc.cpg/sg15_4_cif.got.tgz:6399.got - 2010.06.28 07:06:18.
