data_PCOD8152110
_publ_section_title
;
Structure prediction by ZEFSAII (Michael W. Deem and Ramdas Pophale) SiO2 
 PCOD8152110
Probable space group: C 2/C
;
_chemical_formula_sum "Si O2"
_cell_formula_units_Z 60
_cell_length_a 16.162309
_cell_length_b 14.956284
_cell_length_c 11.157795
_cell_angle_alpha 90.000000
_cell_angle_beta 104.683595
_cell_angle_gamma 90.000000
_cell_volume 2609.064400
_symmetry_space_group_name_H-M "C 2/C"
_symmetry_group_IT_number 15
_symmetry_cell_setting 'monoclinic'
loop_
_space_group_symop_operation_xyz
x,y,z
-x,y,1/2-z
-x,-y,-z
x,-y,1/2+z
1/2+x,1/2+y,z
1/2-x,1/2+y,1/2-z
1/2-x,1/2-y,-z
1/2+x,1/2-y,1/2+z
loop_
_atom_site_type_symbol
_atom_site_label
_atom_site_fract_x
_atom_site_fract_y
_atom_site_fract_z
Si Si1 0.800504 0.485068 0.247208
Si Si2 0.908443 0.740822 0.443289
Si Si3 0.184430 0.156570 0.167157
Si Si4 0.000000 0.987140 0.250000
Si Si5 0.204170 0.810469 0.296984
Si Si6 0.444674 0.343383 0.071686
Si Si7 0.856929 0.117748 0.106263
Si Si8 0.665927 0.935822 0.495110
O O1 0.741948 0.568880 0.194669
O O2 0.746080 0.396301 0.251159
O O3 0.853201 0.504008 0.391844
O O4 0.858739 0.474935 0.146587
O O5 0.835287 0.745013 0.317621
O O6 0.907622 0.830284 0.523609
O O7 0.892491 0.652420 0.514235
O O8 0.003172 0.748968 0.418426
O O9 0.226528 0.243078 0.116893
O O10 0.163973 0.187873 0.295348
O O11 0.096117 0.130233 0.069985
O O12 0.988662 0.920366 0.360747
O O13 0.085605 0.042211 0.308234
O O14 0.133518 0.839439 0.364923
O O15 0.768365 0.077785 0.023569
#
# Coordination Sequence:
#
# PCOD8152110 Si02
#       8
#     8   8   8   4   8   8   8   8
#     4  11  22  40  72 102 135 174 241 288 352 413
#     4  12  23  42  66  93 140 186 231 282 347 425
#     4  11  24  42  67  99 137 181 233 284 351 423
#     4  12  24  38  60 106 144 168 218 280 370 432
#     4  12  22  43  68  98 135 186 233 284 345 430
#     4  12  26  40  63 100 142 184 224 291 357 420
#     4  11  22  37  62  94 135 181 217 269 348 424
#     4  11  23  41  67  98 133 183 234 285 339 424
#
# _framework density 22.996751
#
# number of rings (size 3 to 8) (size 9 to 14) (size 15 to 20)
#    0.000    0.533    5.333    5.600    0.000    1.067 
#    0.000    0.000    0.000    4.800    0.000    0.000 
#    0.000    0.000    0.000    0.000    0.000    0.000 
#
# Total GULP energy -371679.992476 kJ/mol
# GULP energy per Si atom -12389.333083 kJ/mol
# Density = 2.294441 g / cm^3
# Si number density = 22.996751 Si / 1000 Ang^3
#
#
#
# Elastic Constant Matrix: (Units=GPa)
#
#
# Indices 1 2 3 4 5 6 
#
# 1 45.2243 25.6248 8.5656 0.0000 0.1119 0.0000
# 2 25.6248 87.8839 13.2253 0.0000 4.0887 0.0000
# 3 8.5656 13.2253 106.5559 0.0000 -15.4157 0.0000
# 4 0.0000 0.0000 0.0000 29.8377 0.0000 -2.7627
# 5 0.1119 4.0887 -15.4157 0.0000 21.6358 0.0000
# 6 0.0000 0.0000 0.0000 -2.7627 0.0000 30.1036
#
#
#
# Elastic Compliance Matrix: (Units=1/GPa)
#
#
# Indices 1 2 3 4 5 6 
#
# 1 0.026643 -0.007623 -0.001123 0.000000 0.000503 0.000000
# 2 -0.007623 0.014031 -0.001680 0.000000 -0.003809 0.000000
# 3 -0.001123 -0.001680 0.010849 0.000000 0.008053 0.000000
# 4 0.000000 0.000000 0.000000 0.033802 0.000000 0.003102
# 5 0.000503 -0.003809 0.008053 0.000000 0.052675 0.000000
# 6 0.000000 0.000000 0.000000 0.003102 0.000000 0.033503
#
#
# Mechanical properties :
#
#
# Convention : Reuss Voigt Hill
#
# Bulk Modulus (GPa) = 32.60349 37.16617 34.88483
# Shear Modulus (GPa) = 24.68196 29.13196 26.90696
#
# Velocity S-wave (km/s) = 3.27965 3.56306 3.42429
# Velocity P-wave (km/s) = 5.34319 5.75532 5.55308
#
# Compressibility (1/GPa) = 0.03067156
#
# Stress axis : x y z
#
# Youngs Moduli (GPa) = 37.53389 71.26941 92.17832
#
# Poissons Ratio (x) = 0.54327 0.10350
# Poissons Ratio (y) = 0.28611 0.15484
# Poissons Ratio (z) = 0.04214 0.11972
#
# Static dielectric constant tensor:
#      x y z
#    x 3.916260 0.000000 -0.162860 
#    y 0.000000 3.962590 0.000000 
#    z -0.162860 0.000000 4.754070 
# 
# 
# High freq. dielectric constant tensor:
#      x y z
#    x 1.880390 0.000000 -0.013080 
#    y 0.000000 1.896670 0.000000 
#    z -0.013080 0.000000 1.931040 
# 
# From -- ./inp_files/105392.got.cif
#   From: 2010.06.25/outbox.cif.g09.slc.cpg/sg15_53_cif.got.tgz:105392.got - 2010.06.28 07:06:18.
