data_PCOD8152336
_publ_section_title
;
Structure prediction by ZEFSAII (Michael W. Deem and Ramdas Pophale) SiO2 
 PCOD8152336
Probable space group: C 2/C
;
_chemical_formula_sum "Si O2"
_cell_formula_units_Z 64
_cell_length_a 12.561413
_cell_length_b 28.833308
_cell_length_c 18.204299
_cell_angle_alpha 90.000000
_cell_angle_beta 151.369721
_cell_angle_gamma 90.000000
_cell_volume 3159.247531
_symmetry_space_group_name_H-M "C 2/C"
_symmetry_group_IT_number 15
_symmetry_cell_setting 'monoclinic'
loop_
_space_group_symop_operation_xyz
x,y,z
-x,y,1/2-z
-x,-y,-z
x,-y,1/2+z
1/2+x,1/2+y,z
1/2-x,1/2+y,1/2-z
1/2-x,1/2-y,-z
1/2+x,1/2-y,1/2+z
loop_
_atom_site_type_symbol
_atom_site_label
_atom_site_fract_x
_atom_site_fract_y
_atom_site_fract_z
Si Si1 0.586334 0.968486 0.616665
Si Si2 0.004737 0.211231 0.980620
Si Si3 0.854302 0.072731 0.594305
Si Si4 0.619575 0.465356 0.124184
Si Si5 0.349733 0.319671 0.089666
Si Si6 0.913291 0.886593 0.779301
Si Si7 0.343493 0.798788 0.817658
Si Si8 0.243280 0.123474 0.608711
O O1 0.402374 0.937147 0.544955
O O2 0.780433 0.934498 0.707141
O O3 0.500000 0.000000 0.500000
O O4 0.664612 0.007211 0.720344
O O5 0.093557 0.206805 0.951049
O O6 0.852906 0.257610 0.884227
O O7 0.848412 0.169181 0.908053
O O8 0.204798 0.215807 0.160731
O O9 0.895478 0.126486 0.604040
O O10 0.000000 0.054779 0.750000
O O11 0.936682 0.044432 0.574879
O O12 0.704408 0.418403 0.140165
O O13 0.500000 0.500000 0.000000
O O14 0.500000 0.302045 0.250000
O O15 0.092584 0.311644 0.947636
O O16 0.760204 0.842988 0.705334
O O17 0.000000 0.881472 0.750000
O O18 0.124845 0.887536 0.960446
O O19 0.500000 0.131566 0.750000
#
# Coordination Sequence:
#
# PCOD8152336 Si02
#       8
#     8   8   8   8   8   8   8   8
#     4  12  26  42  70  98 135 180 222 274 324 389
#     4  11  24  45  69  99 134 171 219 270 331 400
#     4  11  24  43  66 100 136 176 222 270 325 389
#     4  12  26  44  66 100 136 172 228 270 328 387
#     4  11  22  40  69 101 136 174 218 268 330 389
#     4  11  27  47  68  98 134 173 224 272 331 396
#     4  11  24  45  69  99 133 173 218 271 333 394
#     4  11  27  47  68  98 134 174 219 278 330 390
#
# _framework density 20.257988000000001
#
# number of rings (size 3 to 8) (size 9 to 14) (size 15 to 20)
#    0.000    0.750    5.000    1.500    5.250    2.500 
#    2.250    2.500    0.000    0.000    0.000    0.000 
#    0.000    0.000    0.000    0.000    0.000    0.000 
#
# Total GULP energy -396821.014972 kJ/mol
# GULP energy per Si atom -12400.656718 kJ/mol
# Density = 2.021188 g / cm^3
# Si number density = 20.257988 Si / 1000 Ang^3
#
#
#
# Elastic Constant Matrix: (Units=GPa)
#
#
# Indices 1 2 3 4 5 6 
#
# 1 110.4791 39.9708 62.9219 -0.0010 -6.7088 -0.0045
# 2 39.9708 115.7781 61.5491 -0.0002 -10.9005 -0.0002
# 3 62.9219 61.5491 162.9736 0.0012 -5.0174 0.0001
# 4 -0.0010 -0.0002 0.0012 37.0115 -0.0007 -11.5155
# 5 -6.7088 -10.9005 -5.0174 -0.0007 36.3060 -0.0031
# 6 -0.0045 -0.0002 0.0001 -11.5155 -0.0031 21.7283
#
#
#
# Elastic Compliance Matrix: (Units=1/GPa)
#
#
# Indices 1 2 3 4 5 6 
#
# 1 0.012040 -0.002003 -0.003858 0.000002 0.001090 0.000003
# 2 -0.002003 0.011409 -0.003456 0.000000 0.002578 0.000000
# 3 -0.003858 -0.003456 0.008915 -0.000001 -0.000519 -0.000001
# 4 0.000002 0.000000 -0.000001 0.032354 0.000002 0.017147
# 5 0.001090 0.002578 -0.000519 0.000002 0.028447 0.000006
# 6 0.000003 0.000000 -0.000001 0.017147 0.000006 0.055110
#
#
# Mechanical properties :
#
#
# Convention : Reuss Voigt Hill
#
# Bulk Modulus (GPa) = 72.83930 79.79050 76.31490
# Shear Modulus (GPa) = 29.15703 33.99509 31.57606
#
# Velocity S-wave (km/s) = 3.79791 4.10092 3.95232
# Velocity P-wave (km/s) = 7.43411 7.86740 7.65382
#
# Compressibility (1/GPa) = 0.01372885
#
# Stress axis : x y z
#
# Youngs Moduli (GPa) = 83.05778 87.65346 112.17155
#
# Poissons Ratio (x) = 0.17554 0.43281
# Poissons Ratio (y) = 0.16634 0.38767
# Poissons Ratio (z) = 0.32048 0.30293
#
# Static dielectric constant tensor:
#      x y z
#    x 3.265870 0.000110 -0.270900 
#    y 0.000110 4.078710 0.000030 
#    z -0.270900 0.000030 3.957230 
# 
# 
# High freq. dielectric constant tensor:
#      x y z
#    x 1.791130 0.000000 -0.005280 
#    y 0.000000 1.816280 0.000000 
#    z -0.005280 0.000000 1.806520 
# 
# From -- ./inp_files/201485.got.cif
#   From: 2010.06.25/outbox.cif.g09.slc.cpg/sg15_101_cif.got.tgz:201485.got - 2010.06.28 07:06:18.
