data_PCOD8152104
_publ_section_title
;
Structure prediction by ZEFSAII (Michael W. Deem and Ramdas Pophale) SiO2 
 PCOD8152104
Probable space group: C 2/C
;
_chemical_formula_sum "Si O2"
_cell_formula_units_Z 64
_cell_length_a 17.246022
_cell_length_b 31.890112
_cell_length_c 9.039474
_cell_angle_alpha 90.000000
_cell_angle_beta 139.513923
_cell_angle_gamma 90.000000
_cell_volume 3227.817418
_symmetry_space_group_name_H-M "C 2/C"
_symmetry_group_IT_number 15
_symmetry_cell_setting 'monoclinic'
loop_
_space_group_symop_operation_xyz
x,y,z
-x,y,1/2-z
-x,-y,-z
x,-y,1/2+z
1/2+x,1/2+y,z
1/2-x,1/2+y,1/2-z
1/2-x,1/2-y,-z
1/2+x,1/2-y,1/2+z
loop_
_atom_site_type_symbol
_atom_site_label
_atom_site_fract_x
_atom_site_fract_y
_atom_site_fract_z
Si Si1 0.142418 0.471044 0.956744
Si Si2 0.811071 0.448160 0.150815
Si Si3 0.351409 0.253343 0.014780
Si Si4 0.026547 0.624746 0.624652
Si Si5 0.114989 0.155464 0.017293
Si Si6 0.305828 0.884125 0.606489
Si Si7 0.116169 0.122863 0.344413
Si Si8 0.780012 0.669876 0.773513
O O1 0.196611 0.513944 0.974368
O O2 0.186148 0.432763 0.920210
O O3 0.000000 0.472462 0.750000
O O4 0.199732 0.466087 0.200545
O O5 0.938203 0.424479 0.321018
O O6 0.709172 0.414906 0.963839
O O7 0.500000 0.247743 0.250000
O O8 0.250000 0.250000 0.000000
O O9 0.326959 0.298249 0.904984
O O10 0.307160 0.218475 0.835676
O O11 0.132686 0.653277 0.724617
O O12 0.000000 0.640836 0.750000
O O13 0.922225 0.632291 0.357806
O O14 0.199487 0.120628 0.067934
O O15 0.086591 0.142790 0.142916
O O16 0.000000 0.156551 0.750000
O O17 0.290637 0.855693 0.440608
O O18 0.153001 0.160300 0.512307
O O19 0.000000 0.102353 0.250000
#
# Coordination Sequence:
#
# PCOD8152104 Si02
#       8
#     8   8   8   8   8   8   8   8
#     4  12  23  39  63  99 132 172 211 277 346 408
#     4  11  25  40  62  95 133 169 217 275 343 399
#     4  11  24  44  72 108 144 183 234 288 344 410
#     4  11  22  37  60  97 135 173 220 275 332 404
#     4  11  26  43  70  99 127 181 229 279 339 406
#     4  12  20  39  66  91 131 176 223 264 341 407
#     4  11  25  47  68  93 135 179 229 280 336 411
#     4  11  22  42  68  97 133 178 223 281 341 400
#
# _framework density 19.827641
#
# number of rings (size 3 to 8) (size 9 to 14) (size 15 to 20)
#    0.000    0.750    5.000    4.125    5.250    0.500 
#    0.000    1.875    0.000    0.000    0.000    0.000 
#    0.000    0.000    0.000    0.000    0.000    0.000 
#
# Total GULP energy -396566.128157 kJ/mol
# GULP energy per Si atom -12392.691505 kJ/mol
# Density = 1.978251 g / cm^3
# Si number density = 19.827641 Si / 1000 Ang^3
#
#
#
# Elastic Constant Matrix: (Units=GPa)
#
#
# Indices 1 2 3 4 5 6 
#
# 1 121.6103 43.9375 35.5816 0.0000 -11.6030 0.0000
# 2 43.9375 118.8865 37.1872 0.0000 -5.2643 0.0000
# 3 35.5816 37.1872 106.1416 0.0000 -20.1722 0.0000
# 4 0.0000 0.0000 0.0000 29.8927 0.0000 -11.4251
# 5 -11.6030 -5.2643 -20.1722 0.0000 37.4540 0.0000
# 6 0.0000 0.0000 0.0000 -11.4251 0.0000 26.1696
#
#
#
# Elastic Compliance Matrix: (Units=1/GPa)
#
#
# Indices 1 2 3 4 5 6 
#
# 1 0.010054 -0.003016 -0.002008 0.000000 0.001609 0.000000
# 2 -0.003016 0.010360 -0.002807 0.000000 -0.000990 0.000000
# 3 -0.002008 -0.002807 0.012126 0.000000 0.005514 0.000000
# 4 0.000000 0.000000 0.000000 0.040153 0.000000 0.017530
# 5 0.001609 -0.000990 0.005514 0.000000 0.030029 0.000000
# 6 0.000000 0.000000 0.000000 0.017530 0.000000 0.045865
#
#
# Mechanical properties :
#
#
# Convention : Reuss Voigt Hill
#
# Bulk Modulus (GPa) = 59.24783 64.45011 61.84897
# Shear Modulus (GPa) = 29.43347 34.03207 31.73277
#
# Velocity S-wave (km/s) = 3.85706 4.14744 4.00488
# Velocity P-wave (km/s) = 7.05565 7.45055 7.25579
#
# Compressibility (1/GPa) = 0.01687826
#
# Stress axis : x y z
#
# Youngs Moduli (GPa) = 99.46539 96.52266 82.46915
#
# Poissons Ratio (x) = 0.29115 0.16557
# Poissons Ratio (y) = 0.30002 0.23147
# Poissons Ratio (z) = 0.19969 0.27091
#
# Static dielectric constant tensor:
#      x y z
#    x 3.951910 0.000000 0.088880 
#    y 0.000000 3.952770 0.000000 
#    z 0.088880 0.000000 3.784050 
# 
# 
# High freq. dielectric constant tensor:
#      x y z
#    x 1.786250 0.000000 -0.005980 
#    y 0.000000 1.773790 0.000000 
#    z -0.005980 0.000000 1.773150 
# 
# From -- ./inp_files/52842.got.cif
#   From: 2010.06.25/outbox.cif.g09.slc.cpg/sg15_27_cif.got.tgz:52842.got - 2010.06.28 07:06:18.
