data_PCOD8152850
_publ_section_title
;
Structure prediction by ZEFSAII (Michael W. Deem and Ramdas Pophale) SiO2 
 PCOD8152850
Probable space group: C 2/C
;
_chemical_formula_sum "Si O2"
_cell_formula_units_Z 40
_cell_length_a 11.597840
_cell_length_b 24.935774
_cell_length_c 9.021410
_cell_angle_alpha 90.000000
_cell_angle_beta 135.752394
_cell_angle_gamma 90.000000
_cell_volume 1820.458513
_symmetry_space_group_name_H-M "C 2/C"
_symmetry_group_IT_number 15
_symmetry_cell_setting 'monoclinic'
loop_
_space_group_symop_operation_xyz
x,y,z
-x,y,1/2-z
-x,-y,-z
x,-y,1/2+z
1/2+x,1/2+y,z
1/2-x,1/2+y,1/2-z
1/2-x,1/2-y,-z
1/2+x,1/2-y,1/2+z
loop_
_atom_site_type_symbol
_atom_site_label
_atom_site_fract_x
_atom_site_fract_y
_atom_site_fract_z
Si Si1 0.949487 0.553149 0.538402
Si Si2 0.569652 0.683919 0.664548
Si Si3 0.093113 0.719215 0.988290
Si Si4 0.591968 0.857855 0.984568
Si Si5 0.856125 0.128703 0.237042
O O1 0.759354 0.575371 0.350880
O O2 0.000000 0.541068 0.750000
O O3 0.000000 0.500000 0.500000
O O4 0.070847 0.598277 0.591354
O O5 0.500000 0.712609 0.750000
O O6 0.645088 0.724184 0.609946
O O7 0.714807 0.647276 0.864237
O O8 0.435677 0.643879 0.468170
O O9 0.000000 0.731269 0.750000
O O10 0.980087 0.696771 0.015524
O O11 0.246504 0.680632 0.089367
O O12 0.500000 0.875188 0.750000
O O13 0.000000 0.117471 0.250000
#
# Coordination Sequence:
#
# PCOD8152850 Si02
#       5
#     8   8   8   8   8
#     4  11  24  45  70  94 124 166 209 257 326 391
#     4  12  24  38  60  94 131 170 219 270 311 366
#     4  11  23  39  61  89 130 179 216 256 317 380
#     4  11  23  42  64  90 127 170 213 261 323 384
#     4  11  23  42  66  94 127 166 217 268 311 372
#
# _framework density 21.972487000000001
#
# number of rings (size 3 to 8) (size 9 to 14) (size 15 to 20)
#    0.000    0.800    0.000   10.200    0.000    4.800 
#    0.000    8.000    0.000    0.000    0.000    0.000 
#    0.000    0.000    0.000    0.000    0.000    0.000 
#
# Total GULP energy -247872.011197 kJ/mol
# GULP energy per Si atom -12393.600560 kJ/mol
# Density = 2.192248 g / cm^3
# Si number density = 21.972487 Si / 1000 Ang^3
#
#
#
# Elastic Constant Matrix: (Units=GPa)
#
#
# Indices 1 2 3 4 5 6 
#
# 1 137.7653 56.9324 57.0166 0.0000 -3.9339 0.0000
# 2 56.9324 95.4964 57.8836 0.0000 6.7613 0.0000
# 3 57.0166 57.8836 152.2170 0.0000 -5.4777 0.0000
# 4 0.0000 0.0000 0.0000 18.2272 0.0000 -6.1964
# 5 -3.9339 6.7613 -5.4777 0.0000 47.1812 0.0000
# 6 0.0000 0.0000 0.0000 -6.1964 0.0000 37.6396
#
#
#
# Elastic Compliance Matrix: (Units=1/GPa)
#
#
# Indices 1 2 3 4 5 6 
#
# 1 0.010134 -0.005024 -0.001837 0.000000 0.001352 0.000000
# 2 -0.005024 0.016414 -0.004479 0.000000 -0.003291 0.000000
# 3 -0.001837 -0.004479 0.009016 0.000000 0.001535 0.000000
# 4 0.000000 0.000000 0.000000 0.058115 0.000000 0.009567
# 5 0.001352 -0.003291 0.001535 0.000000 0.021957 0.000000
# 6 0.000000 0.000000 0.000000 0.009567 0.000000 0.028143
#
#
# Mechanical properties :
#
#
# Convention : Reuss Voigt Hill
#
# Bulk Modulus (GPa) = 77.60577 81.01600 79.31089
# Shear Modulus (GPa) = 29.28213 34.85266 32.06739
#
# Velocity S-wave (km/s) = 3.65454 3.98703 3.82440
# Velocity P-wave (km/s) = 7.29409 7.62540 7.46159
#
# Compressibility (1/GPa) = 0.01288564
#
# Stress axis : x y z
#
# Youngs Moduli (GPa) = 98.68178 60.92282 110.91549
#
# Poissons Ratio (x) = 0.30606 0.20373
# Poissons Ratio (y) = 0.49575 0.49674
# Poissons Ratio (z) = 0.18125 0.27284
#
# Static dielectric constant tensor:
#      x y z
#    x 4.055460 0.000000 0.016510 
#    y 0.000000 -0.100620 0.000000 
#    z 0.016510 0.000000 4.086990 
# 
# 
# High freq. dielectric constant tensor:
#      x y z
#    x 1.886910 0.000000 -0.007560 
#    y 0.000000 1.833500 0.000000 
#    z -0.007560 0.000000 1.877000 
# 
# From -- ./inp_files/35464.got.cif
#   From: 2010.06.25/outbox.cif.g09.slc.cpg/sg15_18_cif.got.tgz:35464.got - 2010.06.28 07:06:18.
