data_PCOD8152827
_publ_section_title
;
Structure prediction by ZEFSAII (Michael W. Deem and Ramdas Pophale) SiO2 
 PCOD8152827
Probable space group: C 2/C
;
_chemical_formula_sum "Si O2"
_cell_formula_units_Z 56
_cell_length_a 5.304143
_cell_length_b 18.273554
_cell_length_c 29.153606
_cell_angle_alpha 90.000000
_cell_angle_beta 87.152231
_cell_angle_gamma 90.000000
_cell_volume 2822.239510
_symmetry_space_group_name_H-M "C 2/C"
_symmetry_group_IT_number 15
_symmetry_cell_setting 'monoclinic'
loop_
_space_group_symop_operation_xyz
x,y,z
-x,y,1/2-z
-x,-y,-z
x,-y,1/2+z
1/2+x,1/2+y,z
1/2-x,1/2+y,1/2-z
1/2-x,1/2-y,-z
1/2+x,1/2-y,1/2+z
loop_
_atom_site_type_symbol
_atom_site_label
_atom_site_fract_x
_atom_site_fract_y
_atom_site_fract_z
Si Si1 0.161249 0.050122 0.464755
Si Si2 0.730162 0.721094 0.949269
Si Si3 0.778104 0.370384 0.049166
Si Si4 0.982728 0.107748 0.299382
Si Si5 0.981566 0.511900 0.298980
Si Si6 0.834442 0.862279 0.896380
Si Si7 0.044230 0.508539 0.895485
O O1 0.332101 0.100891 0.496798
O O2 0.310484 0.991621 0.432666
O O3 0.018754 0.107568 0.433887
O O4 0.000000 0.000000 0.500000
O O5 0.478886 0.674283 0.945557
O O6 0.706231 0.787804 0.914029
O O7 0.981783 0.675413 0.935670
O O8 0.750000 0.750000 0.000000
O O9 0.743807 0.439154 0.084358
O O10 0.227331 0.058080 0.302609
O O11 0.000000 0.151665 0.250000
O O12 0.730658 0.060601 0.298851
O O13 0.970027 0.156004 0.346115
O O14 0.975306 0.461551 0.344949
O O15 0.000000 0.467719 0.250000
O O16 0.625168 0.924184 0.890164
#
# Coordination Sequence:
#
# PCOD8152827 Si02
#       7
#     8   8   8   8   8   8   8
#     4  12  22  37  59  89 121 158 204 245 296 348
#     4  12  26  41  56  83 123 160 198 239 292 350
#     4  12  26  40  57  84 125 162 195 240 292 353
#     4   9  18  34  56  88 117 143 188 250 305 348
#     4   9  18  33  57  88 118 143 185 250 306 348
#     4  11  23  37  63  86 117 159 201 248 295 357
#     4  11  23  38  62  88 120 155 207 247 301 359
#
# _framework density 19.842400000000001
#
# number of rings (size 3 to 8) (size 9 to 14) (size 15 to 20)
#    0.000    1.143    4.286    2.571    2.000    0.000 
#    0.000    0.000    0.000    0.857    0.000    4.000 
#    0.000    0.000    0.000    0.000    0.000    0.000 
#
# Total GULP energy -346876.810245 kJ/mol
# GULP energy per Si atom -12388.457509 kJ/mol
# Density = 1.979724 g / cm^3
# Si number density = 19.842400 Si / 1000 Ang^3
#
#
#
# Elastic Constant Matrix: (Units=GPa)
#
#
# Indices 1 2 3 4 5 6 
#
# 1 120.4342 31.1675 39.2391 0.0000 -1.4892 0.0000
# 2 31.1675 73.3213 53.7847 0.0000 -6.4125 0.0000
# 3 39.2391 53.7847 220.0000 0.0000 -5.9606 0.0000
# 4 0.0000 0.0000 0.0000 11.0330 0.0000 4.6519
# 5 -1.4892 -6.4125 -5.9606 0.0000 28.6108 0.0000
# 6 0.0000 0.0000 0.0000 4.6519 0.0000 29.1981
#
#
#
# Elastic Compliance Matrix: (Units=1/GPa)
#
#
# Indices 1 2 3 4 5 6 
#
# 1 0.009467 -0.003432 -0.000862 0.000000 -0.000456 0.000000
# 2 -0.003432 0.018105 -0.003730 0.000000 0.003102 0.000000
# 3 -0.000862 -0.003730 0.005619 0.000000 0.000290 0.000000
# 4 0.000000 0.000000 0.000000 0.097164 0.000000 -0.015480
# 5 -0.000456 0.003102 0.000290 0.000000 0.035684 0.000000
# 6 0.000000 0.000000 0.000000 -0.015480 0.000000 0.036715
#
#
# Mechanical properties :
#
#
# Convention : Reuss Voigt Hill
#
# Bulk Modulus (GPa) = 58.33259 73.57088 65.95174
# Shear Modulus (GPa) = 22.27024 33.07267 27.67145
#
# Velocity S-wave (km/s) = 3.35379 4.08704 3.73843
# Velocity P-wave (km/s) = 6.66776 7.70908 7.20725
#
# Compressibility (1/GPa) = 0.01714307
#
# Stress axis : x y z
#
# Youngs Moduli (GPa) = 105.63500 55.23378 177.96982
#
# Poissons Ratio (x) = 0.18955 0.15338
# Poissons Ratio (y) = 0.36251 0.66384
# Poissons Ratio (z) = 0.09104 0.20603
#
# Static dielectric constant tensor:
#      x y z
#    x 3.752410 0.000000 0.015910 
#    y 0.000000 3.470350 0.000000 
#    z 0.015910 0.000000 4.733320 
# 
# 
# High freq. dielectric constant tensor:
#      x y z
#    x 1.787530 0.000000 0.002860 
#    y 0.000000 1.722110 0.000000 
#    z 0.002860 0.000000 1.799210 
# 
# From -- ./inp_files/305395.got.cif
#   From: 2010.06.25/outbox.cif.g09.slc.cpg/sg15_153_cif.got.tgz:305395.got - 2010.06.28 07:06:18.
