data_PCOD8152743
_publ_section_title
;
Structure prediction by ZEFSAII (Michael W. Deem and Ramdas Pophale) SiO2 
 PCOD8152743
Probable space group: C 2/C
;
_chemical_formula_sum "Si O2"
_cell_formula_units_Z 56
_cell_length_a 9.290293
_cell_length_b 16.283877
_cell_length_c 23.655453
_cell_angle_alpha 90.000000
_cell_angle_beta 130.849605
_cell_angle_gamma 90.000000
_cell_volume 2706.990292
_symmetry_space_group_name_H-M "C 2/C"
_symmetry_group_IT_number 15
_symmetry_cell_setting 'monoclinic'
loop_
_space_group_symop_operation_xyz
x,y,z
-x,y,1/2-z
-x,-y,-z
x,-y,1/2+z
1/2+x,1/2+y,z
1/2-x,1/2+y,1/2-z
1/2-x,1/2-y,-z
1/2+x,1/2-y,1/2+z
loop_
_atom_site_type_symbol
_atom_site_label
_atom_site_fract_x
_atom_site_fract_y
_atom_site_fract_z
Si Si1 0.254718 0.129235 0.402776
Si Si2 0.572496 0.701675 0.711755
Si Si3 0.674586 0.442712 0.382815
Si Si4 0.495247 0.217545 0.685001
Si Si5 0.885899 0.691522 0.069309
Si Si6 0.683593 0.538894 0.017375
Si Si7 0.925800 0.609531 0.563491
O O1 0.462884 0.144672 0.431023
O O2 0.277947 0.138033 0.476628
O O3 0.098163 0.192258 0.338787
O O4 0.181576 0.038217 0.366665
O O5 0.500000 0.742628 0.750000
O O6 0.507439 0.605787 0.689616
O O7 0.791111 0.714550 0.778803
O O8 0.503393 0.753773 0.641830
O O9 0.648799 0.436604 0.443386
O O10 0.861132 0.394794 0.407218
O O11 0.500000 0.180491 0.750000
O O12 0.389093 0.164834 0.609612
O O13 0.751108 0.623365 0.065259
O O14 0.750000 0.750000 0.000000
O O15 0.864195 0.479877 0.068278
O O16 0.500000 0.500000 0.000000
#
# Coordination Sequence:
#
# PCOD8152743 Si02
#       7
#     8   8   8   8   8   8   8
#     4  11  23  45  74  99 132 181 241 278 337 416
#     4  12  26  45  68  99 141 181 230 278 355 415
#     4  11  22  47  71  96 132 186 228 280 342 418
#     4  12  27  43  66 103 141 182 227 288 351 411
#     4  12  23  43  74  98 138 180 227 289 345 402
#     4  11  24  40  70 108 134 166 232 293 341 397
#     4  11  22  45  72  99 135 183 236 278 339 416
#
# _framework density 20.687182
#
# number of rings (size 3 to 8) (size 9 to 14) (size 15 to 20)
#    0.000    0.571    7.143    1.286    4.000    2.857 
#    2.571    0.714    0.000    0.000    0.000    0.000 
#    0.000    0.000    0.000    0.000    0.000    0.000 
#
# Total GULP energy -346978.084251 kJ/mol
# GULP energy per Si atom -12392.074438 kJ/mol
# Density = 2.064010 g / cm^3
# Si number density = 20.687182 Si / 1000 Ang^3
#
#
#
# Elastic Constant Matrix: (Units=GPa)
#
#
# Indices 1 2 3 4 5 6 
#
# 1 90.6879 27.2346 6.7464 0.0000 4.3409 0.0000
# 2 27.2346 117.1743 36.0903 0.0000 4.8898 0.0000
# 3 6.7464 36.0903 69.3956 0.0000 -1.1233 0.0000
# 4 0.0000 0.0000 0.0000 4.6259 0.0000 1.2962
# 5 4.3409 4.8898 -1.1233 0.0000 44.7451 0.0000
# 6 0.0000 0.0000 0.0000 1.2962 0.0000 34.3406
#
#
#
# Elastic Compliance Matrix: (Units=1/GPa)
#
#
# Indices 1 2 3 4 5 6 
#
# 1 0.011892 -0.002821 0.000297 0.000000 -0.000838 0.000000
# 2 -0.002821 0.010901 -0.005412 0.000000 -0.001053 0.000000
# 3 0.000297 -0.005412 0.017212 0.000000 0.000995 0.000000
# 4 0.000000 0.000000 0.000000 0.218487 0.000000 -0.008247
# 5 -0.000838 -0.001053 0.000995 0.000000 0.022570 0.000000
# 6 0.000000 0.000000 0.000000 -0.008247 0.000000 0.029431
#
#
# Mechanical properties :
#
#
# Convention : Reuss Voigt Hill
#
# Bulk Modulus (GPa) = 41.43541 46.37782 43.90661
# Shear Modulus (GPa) = 14.95178 30.55473 22.75326
#
# Velocity S-wave (km/s) = 2.69133 3.84733 3.32003
# Velocity P-wave (km/s) = 5.45258 6.49640 5.99724
#
# Compressibility (1/GPa) = 0.02413395
#
# Stress axis : x y z
#
# Youngs Moduli (GPa) = 84.09095 91.73678 58.09929
#
# Poissons Ratio (x) = 0.25875 -0.01727
# Poissons Ratio (y) = 0.23719 0.31443
# Poissons Ratio (z) = -0.02500 0.49648
#
# Static dielectric constant tensor:
#      x y z
#    x 3.894630 0.000000 -0.120200 
#    y 0.000000 3.874820 0.000000 
#    z -0.120200 0.000000 2.810660 
# 
# 
# High freq. dielectric constant tensor:
#      x y z
#    x 1.813510 0.000000 0.000210 
#    y 0.000000 1.814130 0.000000 
#    z 0.000210 0.000000 1.809160 
# 
# From -- ./inp_files/265601.got.cif
#   From: 2010.06.25/outbox.cif.g09.slc.cpg/sg15_133_cif.got.tgz:265601.got - 2010.06.28 07:06:18.
