data_PCOD8152749
_publ_section_title
;
Structure prediction by ZEFSAII (Michael W. Deem and Ramdas Pophale) SiO2 
 PCOD8152749
Probable space group: C 2/C
;
_chemical_formula_sum "Si O2"
_cell_formula_units_Z 56
_cell_length_a 14.370147
_cell_length_b 11.383963
_cell_length_c 14.780411
_cell_angle_alpha 90.000000
_cell_angle_beta 104.540809
_cell_angle_gamma 90.000000
_cell_volume 2340.467816
_symmetry_space_group_name_H-M "C 2/C"
_symmetry_group_IT_number 15
_symmetry_cell_setting 'monoclinic'
loop_
_space_group_symop_operation_xyz
x,y,z
-x,y,1/2-z
-x,-y,-z
x,-y,1/2+z
1/2+x,1/2+y,z
1/2-x,1/2+y,1/2-z
1/2-x,1/2-y,-z
1/2+x,1/2-y,1/2+z
loop_
_atom_site_type_symbol
_atom_site_label
_atom_site_fract_x
_atom_site_fract_y
_atom_site_fract_z
Si Si1 0.491978 0.879297 0.942802
Si Si2 0.205644 0.044811 0.837319
Si Si3 0.500000 0.663602 0.250000
Si Si4 0.339038 0.846559 0.239179
Si Si5 0.500000 0.976792 0.750000
Si Si6 0.929671 0.004421 0.365687
Si Si7 0.216474 0.703221 0.085606
Si Si8 0.589959 0.649366 0.971165
O O1 0.486127 0.897378 0.834045
O O2 0.396237 0.814009 0.949197
O O3 0.580828 0.790346 0.985550
O O4 0.500000 0.000000 0.000000
O O5 0.304470 0.109197 0.829291
O O6 0.161313 0.125927 0.904995
O O7 0.140978 0.032392 0.731895
O O8 0.229448 0.916773 0.878965
O O9 0.407067 0.733651 0.259764
O O10 0.518169 0.580790 0.342422
O O11 0.243693 0.808477 0.161350
O O12 0.403809 0.946954 0.207807
O O13 0.874630 0.081077 0.429658
O O14 0.981000 0.892436 0.422142
O O15 0.250000 0.750000 0.000000
#
# Coordination Sequence:
#
# PCOD8152749 Si02
#       8
#     8   8   4   8   4   8   8   8
#     4  12  29  50  73 108 151 199 248 303 378 450
#     4  12  25  47  70 115 145 189 249 313 370 435
#     4  11  22  45  76 100 140 197 235 290 378 450
#     4  11  25  44  75 101 147 188 243 301 369 441
#     4  11  26  49  74 104 146 199 241 300 382 438
#     4  11  23  45  75 107 143 193 242 300 367 440
#     4  12  27  46  76 107 147 198 255 307 371 448
#     4  11  27  43  75 109 148 190 250 301 366 444
#
# _framework density 23.926839999999999
#
# number of rings (size 3 to 8) (size 9 to 14) (size 15 to 20)
#    0.000    0.571    4.286    1.714   16.000    0.000 
#    0.000    1.429    0.000    0.000    0.000    0.000 
#    0.000    0.000    0.000    0.000    0.000    0.000 
#
# Total GULP energy -347094.985232 kJ/mol
# GULP energy per Si atom -12396.249473 kJ/mol
# Density = 2.387238 g / cm^3
# Si number density = 23.926840 Si / 1000 Ang^3
#
#
#
# Elastic Constant Matrix: (Units=GPa)
#
#
# Indices 1 2 3 4 5 6 
#
# 1 103.1048 37.4106 40.8786 0.0000 -31.3954 0.0000
# 2 37.4106 116.5298 46.4706 0.0000 -32.5868 0.0000
# 3 40.8786 46.4706 137.8315 0.0000 -36.6087 0.0000
# 4 0.0000 0.0000 0.0000 35.6961 0.0000 -17.9603
# 5 -31.3954 -32.5868 -36.6087 0.0000 37.4664 0.0000
# 6 0.0000 0.0000 0.0000 -17.9603 0.0000 32.4828
#
#
#
# Elastic Compliance Matrix: (Units=1/GPa)
#
#
# Indices 1 2 3 4 5 6 
#
# 1 0.013349 -0.001340 -0.001142 0.000000 0.008905 0.000000
# 2 -0.001340 0.011750 -0.001550 0.000000 0.007582 0.000000
# 3 -0.001142 -0.001550 0.010134 0.000000 0.007597 0.000000
# 4 0.000000 0.000000 0.000000 0.038812 0.000000 0.021460
# 5 0.008905 0.007582 0.007597 0.000000 0.048170 0.000000
# 6 0.000000 0.000000 0.000000 0.021460 0.000000 0.042651
#
#
# Mechanical properties :
#
#
# Convention : Reuss Voigt Hill
#
# Bulk Modulus (GPa) = 36.80700 67.44285 52.12493
# Shear Modulus (GPa) = 27.47430 36.64282 32.05856
#
# Velocity S-wave (km/s) = 3.39228 3.91762 3.66438
# Velocity P-wave (km/s) = 5.54617 6.97940 6.30365
#
# Compressibility (1/GPa) = 0.02716875
#
# Stress axis : x y z
#
# Youngs Moduli (GPa) = 74.90943 85.10448 98.67291
#
# Poissons Ratio (x) = 0.11404 0.11272
# Poissons Ratio (y) = 0.10038 0.15298
# Poissons Ratio (z) = 0.08557 0.13194
#
# Static dielectric constant tensor:
#      x y z
#    x 4.194000 0.000000 -0.309950 
#    y 0.000000 4.547490 0.000000 
#    z -0.309950 0.000000 4.292670 
# 
# 
# High freq. dielectric constant tensor:
#      x y z
#    x 1.946940 0.000000 -0.018310 
#    y 0.000000 1.964620 0.000000 
#    z -0.018310 0.000000 1.950560 
# 
# From -- ./inp_files/152645.got.cif
#   From: 2010.06.25/outbox.cif.g09.slc.cpg/sg15_77_cif.got.tgz:152645.got - 2010.06.28 07:06:18.
