data_PCOD8152182
_publ_section_title
;
Structure prediction by ZEFSAII (Michael W. Deem and Ramdas Pophale) SiO2 
 PCOD8152182
Probable space group: C 2/C
;
_chemical_formula_sum "Si O2"
_cell_formula_units_Z 56
_cell_length_a 16.940793
_cell_length_b 20.397634
_cell_length_c 14.971570
_cell_angle_alpha 90.000000
_cell_angle_beta 148.952879
_cell_angle_gamma 90.000000
_cell_volume 2668.173651
_symmetry_space_group_name_H-M "C 2/C"
_symmetry_group_IT_number 15
_symmetry_cell_setting 'monoclinic'
loop_
_space_group_symop_operation_xyz
x,y,z
-x,y,1/2-z
-x,-y,-z
x,-y,1/2+z
1/2+x,1/2+y,z
1/2-x,1/2+y,1/2-z
1/2-x,1/2-y,-z
1/2+x,1/2-y,1/2+z
loop_
_atom_site_type_symbol
_atom_site_label
_atom_site_fract_x
_atom_site_fract_y
_atom_site_fract_z
Si Si1 0.856689 0.113636 0.661683
Si Si2 0.352555 0.930562 0.925945
Si Si3 0.209766 0.538994 0.779363
Si Si4 0.838968 0.693284 0.132244
Si Si5 0.834499 0.971498 0.594113
Si Si6 0.732442 0.302033 0.728076
Si Si7 0.128641 0.166985 0.631499
O O1 0.711564 0.123037 0.456282
O O2 0.831952 0.153046 0.728065
O O3 0.000000 0.145751 0.750000
O O4 0.875983 0.036399 0.692229
O O5 0.287283 0.934472 0.962960
O O6 0.318850 0.856029 0.869151
O O7 0.271957 0.981367 0.777473
O O8 0.533794 0.939804 0.106412
O O9 0.320977 0.601501 0.872028
O O10 0.260383 0.512699 0.925688
O O11 0.818488 0.693580 0.217469
O O12 0.000000 0.708128 0.250000
O O13 0.750000 0.750000 0.000000
O O14 0.000000 0.933970 0.750000
O O15 0.769421 0.229168 0.802370
O O16 0.551457 0.317007 0.553236
#
# Coordination Sequence:
#
# PCOD8152182 Si02
#       7
#     8   8   8   8   8   8   8
#     4  11  22  39  60  96 131 175 217 271 333 402
#     4  11  25  44  68 102 134 180 231 281 341 403
#     4  11  25  44  70  99 137 179 229 285 340 402
#     4  12  23  34  56  86 129 172 215 261 330 396
#     4  11  24  43  70  97 134 174 226 282 340 397
#     4  12  25  40  65  95 138 179 227 280 337 403
#     4  12  24  42  65  96 137 178 226 278 336 404
#
# _framework density 20.988139
#
# number of rings (size 3 to 8) (size 9 to 14) (size 15 to 20)
#    0.000    0.571    4.286    4.286    4.000    2.286 
#    0.000    0.714    0.000    0.000    0.000    0.000 
#    0.000    0.000    0.000    0.000    0.000    0.000 
#
# Total GULP energy -346958.236119 kJ/mol
# GULP energy per Si atom -12391.365576 kJ/mol
# Density = 2.094037 g / cm^3
# Si number density = 20.988139 Si / 1000 Ang^3
#
#
#
# Elastic Constant Matrix: (Units=GPa)
#
#
# Indices 1 2 3 4 5 6 
#
# 1 109.5041 34.6423 36.8927 0.0000 9.2955 0.0000
# 2 34.6423 113.4942 29.4495 0.0000 5.2361 0.0000
# 3 36.8927 29.4495 102.2923 0.0000 6.9976 0.0000
# 4 0.0000 0.0000 0.0000 34.1248 0.0000 -2.8205
# 5 9.2955 5.2361 6.9976 0.0000 40.9628 0.0000
# 6 0.0000 0.0000 0.0000 -2.8205 0.0000 24.7136
#
#
#
# Elastic Compliance Matrix: (Units=1/GPa)
#
#
# Indices 1 2 3 4 5 6 
#
# 1 0.011136 -0.002496 -0.003184 0.000000 -0.001664 0.000000
# 2 -0.002496 0.010105 -0.001983 0.000000 -0.000387 0.000000
# 3 -0.003184 -0.001983 0.011563 0.000000 -0.000999 0.000000
# 4 0.000000 0.000000 0.000000 0.029583 0.000000 0.003376
# 5 -0.001664 -0.000387 -0.000999 0.000000 0.025010 0.000000
# 6 0.000000 0.000000 0.000000 0.003376 0.000000 0.040849
#
#
# Mechanical properties :
#
#
# Convention : Reuss Voigt Hill
#
# Bulk Modulus (GPa) = 57.21033 58.58439 57.89736
# Shear Modulus (GPa) = 33.46776 34.91397 34.19087
#
# Velocity S-wave (km/s) = 3.99758 4.08304 4.04054
# Velocity P-wave (km/s) = 6.97317 7.08533 7.02948
#
# Compressibility (1/GPa) = 0.01747936
#
# Stress axis : x y z
#
# Youngs Moduli (GPa) = 89.80215 98.95910 86.48060
#
# Poissons Ratio (x) = 0.24701 0.27533
# Poissons Ratio (y) = 0.22415 0.17145
# Poissons Ratio (z) = 0.28590 0.19619
#
# Static dielectric constant tensor:
#      x y z
#    x -0.979860 0.000000 -6.353080 
#    y 0.000000 3.630840 0.000000 
#    z -6.353080 0.000000 -5.649800 
# 
# 
# High freq. dielectric constant tensor:
#      x y z
#    x 1.822300 0.000000 0.015430 
#    y 0.000000 1.825070 0.000000 
#    z 0.015430 0.000000 1.825890 
# 
# From -- ./inp_files/163842.got.cif
#   From: 2010.06.25/outbox.cif.g09.slc.cpg/sg15_82_cif.got.tgz:163842.got - 2010.06.28 07:06:18.
