data_PCOD8152323
_publ_section_title
;
Structure prediction by ZEFSAII (Michael W. Deem and Ramdas Pophale) SiO2 
 PCOD8152323
Probable space group: C 2/C
;
_chemical_formula_sum "Si O2"
_cell_formula_units_Z 56
_cell_length_a 11.452574
_cell_length_b 9.220948
_cell_length_c 28.033316
_cell_angle_alpha 90.000000
_cell_angle_beta 119.240668
_cell_angle_gamma 90.000000
_cell_volume 2583.189141
_symmetry_space_group_name_H-M "C 2/C"
_symmetry_group_IT_number 15
_symmetry_cell_setting 'monoclinic'
loop_
_space_group_symop_operation_xyz
x,y,z
-x,y,1/2-z
-x,-y,-z
x,-y,1/2+z
1/2+x,1/2+y,z
1/2-x,1/2+y,1/2-z
1/2-x,1/2-y,-z
1/2+x,1/2-y,1/2+z
loop_
_atom_site_type_symbol
_atom_site_label
_atom_site_fract_x
_atom_site_fract_y
_atom_site_fract_z
Si Si1 0.807182 0.332037 0.057331
Si Si2 0.617387 0.955032 0.243577
Si Si3 0.452050 0.306994 0.670834
Si Si4 0.824582 0.630191 0.336709
Si Si5 0.036984 0.109552 0.548136
Si Si6 0.975332 0.573898 0.045511
Si Si7 0.900384 0.062993 0.839188
O O1 0.921136 0.248511 0.110477
O O2 0.689118 0.340810 0.071856
O O3 0.856023 0.490919 0.049482
O O4 0.750000 0.250000 0.000000
O O5 0.500000 0.037960 0.250000
O O6 0.559636 0.797746 0.217287
O O7 0.740807 0.957852 0.304650
O O8 0.673843 0.022355 0.206767
O O9 0.324598 0.319871 0.679859
O O10 0.519210 0.466730 0.682675
O O11 0.890381 0.556191 0.396296
O O12 0.919508 0.763560 0.338122
O O13 0.943069 0.254322 0.530856
O O14 0.036582 0.019727 0.597017
O O15 0.000000 0.000000 0.500000
O O16 0.000000 0.500000 0.000000
#
# Coordination Sequence:
#
# PCOD8152323 Si02
#       7
#     8   8   8   8   8   8   8
#     4  12  21  41  72  97 137 187 223 285 351 404
#     4  12  24  46  73  97 140 184 229 293 347 403
#     4  12  24  47  73  98 142 186 230 284 350 413
#     4  11  24  47  67 103 141 179 232 288 345 413
#     4  11  24  43  66  99 143 174 232 291 345 419
#     4  11  22  40  68 102 136 181 236 276 347 425
#     4  11  25  43  67 104 134 179 237 279 344 419
#
# _framework density 21.678629000000001
#
# number of rings (size 3 to 8) (size 9 to 14) (size 15 to 20)
#    0.000    0.571    7.143    1.714    0.000    0.571 
#    5.143    1.429    0.000    0.000    0.000    0.000 
#    0.000    0.000    0.000    0.000    0.000    0.000 
#
# Total GULP energy -346928.176716 kJ/mol
# GULP energy per Si atom -12390.292026 kJ/mol
# Density = 2.162929 g / cm^3
# Si number density = 21.678629 Si / 1000 Ang^3
#
#
#
# Elastic Constant Matrix: (Units=GPa)
#
#
# Indices 1 2 3 4 5 6 
#
# 1 81.1584 60.0178 17.8843 0.0000 -10.2432 0.0000
# 2 60.0178 127.1068 53.7113 0.0000 -2.4205 0.0000
# 3 17.8843 53.7113 123.9631 0.0000 -2.9745 0.0000
# 4 0.0000 0.0000 0.0000 36.4445 0.0000 -4.4909
# 5 -10.2432 -2.4205 -2.9745 0.0000 30.7761 0.0000
# 6 0.0000 0.0000 0.0000 -4.4909 0.0000 47.6946
#
#
#
# Elastic Compliance Matrix: (Units=1/GPa)
#
#
# Indices 1 2 3 4 5 6 
#
# 1 0.020209 -0.010107 0.001610 0.000000 0.006087 0.000000
# 2 -0.010107 0.014689 -0.004971 0.000000 -0.002689 0.000000
# 3 0.001610 -0.004971 0.010015 0.000000 0.001113 0.000000
# 4 0.000000 0.000000 0.000000 0.027761 0.000000 0.002614
# 5 0.006087 -0.002689 0.001113 0.000000 0.034415 0.000000
# 6 0.000000 0.000000 0.000000 0.002614 0.000000 0.021213
#
#
# Mechanical properties :
#
#
# Convention : Reuss Voigt Hill
#
# Bulk Modulus (GPa) = 55.62591 66.16167 60.89379
# Shear Modulus (GPa) = 31.01147 36.35737 33.68442
#
# Velocity S-wave (km/s) = 3.78631 4.09969 3.94611
# Velocity P-wave (km/s) = 6.69551 7.27980 6.99376
#
# Compressibility (1/GPa) = 0.01797723
#
# Stress axis : x y z
#
# Youngs Moduli (GPa) = 49.48239 68.07827 99.84793
#
# Poissons Ratio (x) = 0.68805 -0.16071
# Poissons Ratio (y) = 0.50010 0.49634
# Poissons Ratio (z) = -0.07964 0.33841
#
# Static dielectric constant tensor:
#      x y z
#    x 4.006780 0.000000 -0.069120 
#    y 0.000000 4.209360 0.000000 
#    z -0.069120 0.000000 4.264990 
# 
# 
# High freq. dielectric constant tensor:
#      x y z
#    x 1.835750 0.000000 -0.005580 
#    y 0.000000 1.844620 0.000000 
#    z -0.005580 0.000000 1.881480 
# 
# From -- ./inp_files/310228.got.cif
#   From: 2010.06.25/outbox.cif.g09.slc.cpg/sg15_156_cif.got.tgz:310228.got - 2010.06.28 07:06:18.
