data_PCOD8152819
_publ_section_title
;
Structure prediction by ZEFSAII (Michael W. Deem and Ramdas Pophale) SiO2 
 PCOD8152819
Probable space group: C 2/C
;
_chemical_formula_sum "Si O2"
_cell_formula_units_Z 48
_cell_length_a 17.650019
_cell_length_b 23.191887
_cell_length_c 8.628689
_cell_angle_alpha 90.000000
_cell_angle_beta 134.418604
_cell_angle_gamma 90.000000
_cell_volume 2522.746246
_symmetry_space_group_name_H-M "C 2/C"
_symmetry_group_IT_number 15
_symmetry_cell_setting 'monoclinic'
loop_
_space_group_symop_operation_xyz
x,y,z
-x,y,1/2-z
-x,-y,-z
x,-y,1/2+z
1/2+x,1/2+y,z
1/2-x,1/2+y,1/2-z
1/2-x,1/2-y,-z
1/2+x,1/2-y,1/2+z
loop_
_atom_site_type_symbol
_atom_site_label
_atom_site_fract_x
_atom_site_fract_y
_atom_site_fract_z
Si Si1 0.612577 0.938732 0.836949
Si Si2 0.385017 0.937684 0.027797
Si Si3 0.274979 0.829997 0.389286
Si Si4 0.725151 0.166999 0.981332
Si Si5 0.074548 0.765356 0.730440
Si Si6 0.918776 0.766909 0.249224
O O1 0.500000 0.920682 0.750000
O O2 0.608108 0.940876 0.646244
O O3 0.647946 0.000512 0.952209
O O4 0.700711 0.892907 0.010887
O O5 0.500000 0.917921 0.250000
O O6 0.297968 0.893226 0.968097
O O7 0.274230 0.834113 0.203643
O O8 0.159499 0.812833 0.286366
O O9 0.359926 0.784180 0.573850
O O10 0.635907 0.212962 0.904066
O O11 0.839253 0.188455 0.209278
O O12 0.000000 0.796562 0.750000
O O13 0.997367 0.739308 0.489258
O O14 0.000000 0.799928 0.250000
#
# Coordination Sequence:
#
# PCOD8152819 Si02
#       6
#     8   8   8   8   8   8
#     4  11  23  39  62  86 119 150 194 240 295 345
#     4  11  23  39  61  87 116 154 191 243 293 347
#     4  11  23  37  59  88 118 159 193 243 289 349
#     4  11  23  37  60  87 121 154 200 237 292 346
#     4  11  23  38  57  87 121 158 192 240 288 346
#     4  11  23  38  58  85 123 157 196 236 293 346
#
# _framework density 19.026883999999999
#
# number of rings (size 3 to 8) (size 9 to 14) (size 15 to 20)
#    0.000    1.000    3.333    5.000    7.000    0.000 
#    0.000    0.000    0.000    2.000    0.000    0.000 
#    0.000    0.000    0.000    0.000    0.000    0.000 
#
# Total GULP energy -297532.427749 kJ/mol
# GULP energy per Si atom -12397.184490 kJ/mol
# Density = 1.898358 g / cm^3
# Si number density = 19.026884 Si / 1000 Ang^3
#
#
#
# Elastic Constant Matrix: (Units=GPa)
#
#
# Indices 1 2 3 4 5 6 
#
# 1 146.8056 62.4940 55.4556 0.0000 -3.5066 0.0000
# 2 62.4940 108.2558 30.8886 0.0000 5.3813 0.0000
# 3 55.4556 30.8886 101.3159 0.0000 -6.7079 0.0000
# 4 0.0000 0.0000 0.0000 23.5149 0.0000 -5.6338
# 5 -3.5066 5.3813 -6.7079 0.0000 38.7804 0.0000
# 6 0.0000 0.0000 0.0000 -5.6338 0.0000 30.3112
#
#
#
# Elastic Compliance Matrix: (Units=1/GPa)
#
#
# Indices 1 2 3 4 5 6 
#
# 1 0.010510 -0.004916 -0.004194 0.000000 0.000907 0.000000
# 2 -0.004916 0.012566 -0.001300 0.000000 -0.002413 0.000000
# 3 -0.004194 -0.001300 0.012694 0.000000 0.001997 0.000000
# 4 0.000000 0.000000 0.000000 0.044508 0.000000 0.008272
# 5 0.000907 -0.002413 0.001997 0.000000 0.026549 0.000000
# 6 0.000000 0.000000 0.000000 0.008272 0.000000 0.034529
#
#
# Mechanical properties :
#
#
# Convention : Reuss Voigt Hill
#
# Bulk Modulus (GPa) = 66.88666 72.67263 69.77965
# Shear Modulus (GPa) = 29.91147 32.35722 31.13435
#
# Velocity S-wave (km/s) = 3.96923 4.12831 4.04955
# Velocity P-wave (km/s) = 7.49910 7.81035 7.65631
#
# Compressibility (1/GPa) = 0.01495066
#
# Stress axis : x y z
#
# Youngs Moduli (GPa) = 95.14436 79.57910 78.77498
#
# Poissons Ratio (x) = 0.39120 0.33039
# Poissons Ratio (y) = 0.46771 0.10242
# Poissons Ratio (z) = 0.39905 0.10347
#
# Static dielectric constant tensor:
#      x y z
#    x 3.751220 0.000000 -0.051110 
#    y 0.000000 3.591800 0.000000 
#    z -0.051110 0.000000 3.676400 
# 
# 
# High freq. dielectric constant tensor:
#      x y z
#    x 1.757810 0.000000 -0.013240 
#    y 0.000000 1.714570 0.000000 
#    z -0.013240 0.000000 1.746480 
# 
# From -- ./inp_files/51351.got.cif
#   From: 2010.06.25/outbox.cif.g09.slc.cpg/sg15_26_cif.got.tgz:51351.got - 2010.06.28 07:06:18.
