data_PCOD8152509
_publ_section_title
;
Structure prediction by ZEFSAII (Michael W. Deem and Ramdas Pophale) SiO2 
 PCOD8152509
Probable space group: C 2/C
;
_chemical_formula_sum "Si O2"
_cell_formula_units_Z 64
_cell_length_a 11.852375
_cell_length_b 15.755165
_cell_length_c 26.008258
_cell_angle_alpha 90.000000
_cell_angle_beta 37.476798
_cell_angle_gamma 90.000000
_cell_volume 2954.999693
_symmetry_space_group_name_H-M "C 2/C"
_symmetry_group_IT_number 15
_symmetry_cell_setting 'monoclinic'
loop_
_space_group_symop_operation_xyz
x,y,z
-x,y,1/2-z
-x,-y,-z
x,-y,1/2+z
1/2+x,1/2+y,z
1/2-x,1/2+y,1/2-z
1/2-x,1/2-y,-z
1/2+x,1/2-y,1/2+z
loop_
_atom_site_type_symbol
_atom_site_label
_atom_site_fract_x
_atom_site_fract_y
_atom_site_fract_z
Si Si1 0.797922 0.042942 0.566814
Si Si2 0.785790 0.304926 0.329949
Si Si3 0.794008 0.892185 0.438664
Si Si4 0.407342 0.729380 0.701236
Si Si5 0.075304 0.672123 0.474850
Si Si6 0.367954 0.288693 0.620145
Si Si7 0.628750 0.417702 0.570191
Si Si8 0.822581 0.631015 0.407807
O O1 0.742673 0.103359 0.633577
O O2 0.786157 0.094408 0.517708
O O3 0.645386 0.967948 0.617245
O O4 0.000000 0.000000 0.500000
O O5 0.726647 0.311621 0.292321
O O6 0.654924 0.236004 0.403793
O O7 0.000000 0.277778 0.250000
O O8 0.586716 0.888145 0.489948
O O9 0.787782 0.855321 0.498877
O O10 0.914505 0.831815 0.358128
O O11 0.895932 0.983339 0.406354
O O12 0.300962 0.737025 0.793494
O O13 0.478423 0.823848 0.660967
O O14 0.241471 0.611996 0.430993
O O15 0.020576 0.720609 0.547287
O O16 0.442812 0.359151 0.634368
O O17 0.306353 0.331065 0.589587
#
# Coordination Sequence:
#
# PCOD8152509 Si02
#       8
#     8   8   8   8   8   8   8   8
#     4  11  22  43  68 102 129 173 228 288 345 402
#     4  12  26  43  69 101 139 180 228 283 341 413
#     4  11  24  44  70 100 132 184 232 281 337 414
#     4  12  25  42  68  99 138 180 227 280 346 406
#     4  12  23  45  70  96 136 187 232 270 341 423
#     4  12  24  41  70 102 135 176 228 283 345 404
#     4  11  24  41  71  97 134 180 225 285 345 409
#     4  11  22  42  69  97 131 176 228 280 339 405
#
# _framework density 21.658208999999999
#
# number of rings (size 3 to 8) (size 9 to 14) (size 15 to 20)
#    0.000    0.500    5.000    4.500    1.750    1.000 
#    0.000    0.000    5.500    0.000    0.000    0.000 
#    0.000    0.000    0.000    0.000    0.000    0.000 
#
# Total GULP energy -396701.934873 kJ/mol
# GULP energy per Si atom -12396.935465 kJ/mol
# Density = 2.160891 g / cm^3
# Si number density = 21.658209 Si / 1000 Ang^3
#
#
#
# Elastic Constant Matrix: (Units=GPa)
#
#
# Indices 1 2 3 4 5 6 
#
# 1 112.3978 29.3728 17.4887 -0.0009 -5.6634 -0.0008
# 2 29.3728 77.8643 31.8738 -0.0030 6.8651 -0.0003
# 3 17.4887 31.8738 95.0198 -0.0085 1.2980 -0.0018
# 4 -0.0009 -0.0030 -0.0085 17.4981 -0.0003 -1.7343
# 5 -5.6634 6.8651 1.2980 -0.0003 26.8460 0.0009
# 6 -0.0008 -0.0003 -0.0018 -1.7343 0.0009 42.3388
#
#
#
# Elastic Compliance Matrix: (Units=1/GPa)
#
#
# Indices 1 2 3 4 5 6 
#
# 1 0.010161 -0.003858 -0.000619 0.000000 0.003160 0.000000
# 2 -0.003858 0.016702 -0.004826 0.000000 -0.004851 0.000000
# 3 -0.000619 -0.004826 0.012250 0.000005 0.000511 0.000001
# 4 0.000000 0.000000 0.000005 0.057382 0.000000 0.002351
# 5 0.003160 -0.004851 0.000511 0.000000 0.039132 -0.000001
# 6 0.000000 0.000000 0.000001 0.002351 -0.000001 0.023715
#
#
# Mechanical properties :
#
#
# Convention : Reuss Voigt Hill
#
# Bulk Modulus (GPa) = 48.76694 49.19471 48.98083
# Shear Modulus (GPa) = 27.05870 31.10635 29.08253
#
# Velocity S-wave (km/s) = 3.53845 3.79389 3.66839
# Velocity P-wave (km/s) = 6.26575 6.47726 6.37238
#
# Compressibility (1/GPa) = 0.02050570
#
# Stress axis : x y z
#
# Youngs Moduli (GPa) = 98.41781 59.87466 81.63292
#
# Poissons Ratio (x) = 0.23100 0.05054
# Poissons Ratio (y) = 0.37971 0.39397
# Poissons Ratio (z) = 0.06093 0.28896
#
# Static dielectric constant tensor:
#      x y z
#    x 3.994440 0.000000 -0.017640 
#    y 0.000000 4.171380 0.000010 
#    z -0.017640 0.000010 3.724630 
# 
# 
# High freq. dielectric constant tensor:
#      x y z
#    x 1.863230 0.000000 0.002270 
#    y 0.000000 1.853620 0.000000 
#    z 0.002270 0.000000 1.828550 
# 
# From -- ./inp_files/293061.got.cif
#   From: 2010.06.25/outbox.cif.g09.slc.cpg/sg15_147_cif.got.tgz:293061.got - 2010.06.28 07:06:18.
