data_PCOD8152724
_publ_section_title
;
Structure prediction by ZEFSAII (Michael W. Deem and Ramdas Pophale) SiO2 
 PCOD8152724
Probable space group: C 2/C
;
_chemical_formula_sum "Si O2"
_cell_formula_units_Z 52
_cell_length_a 16.587901
_cell_length_b 9.486352
_cell_length_c 16.977315
_cell_angle_alpha 90.000000
_cell_angle_beta 117.599875
_cell_angle_gamma 90.000000
_cell_volume 2367.520085
_symmetry_space_group_name_H-M "C 2/C"
_symmetry_group_IT_number 15
_symmetry_cell_setting 'monoclinic'
loop_
_space_group_symop_operation_xyz
x,y,z
-x,y,1/2-z
-x,-y,-z
x,-y,1/2+z
1/2+x,1/2+y,z
1/2-x,1/2+y,1/2-z
1/2-x,1/2-y,-z
1/2+x,1/2-y,1/2+z
loop_
_atom_site_type_symbol
_atom_site_label
_atom_site_fract_x
_atom_site_fract_y
_atom_site_fract_z
Si Si1 0.659989 0.101414 0.243851
Si Si2 0.961166 0.823971 0.929805
Si Si3 0.084978 0.398712 0.542716
Si Si4 0.725601 0.372948 0.928785
Si Si5 0.500000 0.767090 0.750000
Si Si6 0.931450 0.926208 0.079626
Si Si7 0.314333 0.779939 0.251062
O O1 0.600112 0.127023 0.140373
O O2 0.589076 0.134469 0.281081
O O3 0.740477 0.216000 0.277894
O O4 0.702837 0.945420 0.272857
O O5 0.908544 0.732590 0.840747
O O6 0.906147 0.840550 0.987879
O O7 0.983596 0.974179 0.902918
O O8 0.057769 0.747479 0.988684
O O9 0.179366 0.454415 0.547275
O O10 0.000000 0.500000 0.500000
O O11 0.656869 0.488912 0.931012
O O12 0.684327 0.304775 0.830423
O O13 0.750000 0.250000 0.000000
O O14 0.525567 0.672401 0.835572
#
# Coordination Sequence:
#
# PCOD8152724 Si02
#       7
#     8   8   8   8   4   8   8
#     4  11  27  45  71 103 143 186 234 287 359 417
#     4  11  23  44  72 101 141 187 235 284 366 418
#     4  11  22  45  69  98 138 182 231 288 351 417
#     4  11  25  45  70 102 141 183 241 286 347 420
#     4  12  26  44  68 106 142 176 238 302 344 420
#     4  11  25  42  71 105 140 186 234 297 350 422
#     4  11  27  45  72 101 143 190 229 290 355 428
#
# _framework density 21.963911
#
# number of rings (size 3 to 8) (size 9 to 14) (size 15 to 20)
#    0.000    0.923    4.615    0.923    8.615    2.462 
#    0.000    1.538    0.000    0.000    0.000    0.000 
#    0.000    0.000    0.000    0.000    0.000    0.000 
#
# Total GULP energy -322323.554377 kJ/mol
# GULP energy per Si atom -12397.059784 kJ/mol
# Density = 2.191392 g / cm^3
# Si number density = 21.963911 Si / 1000 Ang^3
#
#
#
# Elastic Constant Matrix: (Units=GPa)
#
#
# Indices 1 2 3 4 5 6 
#
# 1 133.7759 54.8490 37.9017 0.0000 -6.5678 0.0000
# 2 54.8490 110.9899 23.9573 0.0000 2.8205 0.0000
# 3 37.9017 23.9573 100.6655 0.0000 -0.5196 0.0000
# 4 0.0000 0.0000 0.0000 34.6783 0.0000 2.9598
# 5 -6.5678 2.8205 -0.5196 0.0000 29.3304 0.0000
# 6 0.0000 0.0000 0.0000 2.9598 0.0000 47.4490
#
#
#
# Elastic Compliance Matrix: (Units=1/GPa)
#
#
# Indices 1 2 3 4 5 6 
#
# 1 0.010251 -0.004537 -0.002766 0.000000 0.002683 0.000000
# 2 -0.004537 0.011532 -0.001047 0.000000 -0.002143 0.000000
# 3 -0.002766 -0.001047 0.011223 0.000000 -0.000320 0.000000
# 4 0.000000 0.000000 0.000000 0.028991 0.000000 -0.001808
# 5 0.002683 -0.002143 -0.000320 0.000000 0.034896 0.000000
# 6 0.000000 0.000000 0.000000 -0.001808 0.000000 0.021188
#
#
# Mechanical properties :
#
#
# Convention : Reuss Voigt Hill
#
# Bulk Modulus (GPa) = 61.32890 64.31638 62.82264
# Shear Modulus (GPa) = 35.65925 37.53975 36.59950
#
# Velocity S-wave (km/s) = 4.03369 4.13868 4.08652
# Velocity P-wave (km/s) = 7.04822 7.22389 7.13659
#
# Compressibility (1/GPa) = 0.01630553
#
# Stress axis : x y z
#
# Youngs Moduli (GPa) = 97.55457 86.71219 89.10327
#
# Poissons Ratio (x) = 0.39340 0.24645
# Poissons Ratio (y) = 0.44259 0.09333
# Poissons Ratio (z) = 0.26983 0.09083
#
# Static dielectric constant tensor:
#      x y z
#    x 3.799760 0.000000 -0.469200 
#    y 0.000000 4.023460 0.000000 
#    z -0.469200 0.000000 3.714900 
# 
# 
# High freq. dielectric constant tensor:
#      x y z
#    x 1.868290 0.000000 -0.002040 
#    y 0.000000 1.864130 0.000000 
#    z -0.002040 0.000000 1.873940 
# 
# From -- ./inp_files/209691.got.cif
#   From: 2010.06.25/outbox.cif.g09.slc.cpg/sg15_105_cif.got.tgz:209691.got - 2010.06.28 07:06:18.
