data_PCOD8152692
_publ_section_title
;
Structure prediction by ZEFSAII (Michael W. Deem and Ramdas Pophale) SiO2 
 PCOD8152692
Probable space group: C 2/C
;
_chemical_formula_sum "Si O2"
_cell_formula_units_Z 40
_cell_length_a 23.099878
_cell_length_b 9.164906
_cell_length_c 27.337828
_cell_angle_alpha 90.000000
_cell_angle_beta 16.993383
_cell_angle_gamma 90.000000
_cell_volume 1691.503735
_symmetry_space_group_name_H-M "C 2/C"
_symmetry_group_IT_number 15
_symmetry_cell_setting 'monoclinic'
loop_
_space_group_symop_operation_xyz
x,y,z
-x,y,1/2-z
-x,-y,-z
x,-y,1/2+z
1/2+x,1/2+y,z
1/2-x,1/2+y,1/2-z
1/2-x,1/2-y,-z
1/2+x,1/2-y,1/2+z
loop_
_atom_site_type_symbol
_atom_site_label
_atom_site_fract_x
_atom_site_fract_y
_atom_site_fract_z
Si Si1 0.467195 0.551282 0.149519
Si Si2 0.209766 0.287150 0.364419
Si Si3 0.079425 0.289899 0.988652
Si Si4 0.485028 0.049056 0.393468
Si Si5 0.184727 0.587678 0.565116
O O1 0.363415 0.402333 0.215798
O O2 0.570369 0.630186 0.020075
O O3 0.307566 0.662762 0.301780
O O4 0.630575 0.509584 0.057770
O O5 0.012624 0.284404 0.490956
O O6 0.153818 0.340452 0.463730
O O7 0.310003 0.128470 0.286585
O O8 0.960755 0.407403 0.117867
O O9 0.362704 0.004201 0.444714
O O10 0.250000 0.750000 0.500000
O O11 0.000000 0.591980 0.750000
#
# Coordination Sequence:
#
# PCOD8152692 Si02
#       5
#     8   8   8   8   8
#     4  11  24  42  71 100 140 185 234 292 345 416
#     4  11  25  44  69 109 145 182 232 292 363 419
#     4  11  22  44  73 106 141 186 236 288 354 426
#     4  11  26  45  71 101 148 188 233 292 352 420
#     4  12  27  48  73 103 136 186 249 288 348 425
#
# _framework density 23.647597999999999
#
# number of rings (size 3 to 8) (size 9 to 14) (size 15 to 20)
#    0.000    0.800    2.000    6.000    5.600    0.800 
#    0.000    4.000    0.000    0.000    0.000    0.000 
#    0.000    0.000    0.000    0.000    0.000    0.000 
#
# Total GULP energy -248122.282467 kJ/mol
# GULP energy per Si atom -12406.114123 kJ/mol
# Density = 2.359378 g / cm^3
# Si number density = 23.647598 Si / 1000 Ang^3
#
#
#
# Elastic Constant Matrix: (Units=GPa)
#
#
# Indices 1 2 3 4 5 6 
#
# 1 187.7790 45.1656 68.1757 -0.0069 -11.6698 0.0007
# 2 45.1656 71.0979 26.0553 -0.0745 2.5902 0.0008
# 3 68.1757 26.0553 90.6180 0.0102 -15.2135 -0.0265
# 4 -0.0069 -0.0745 0.0102 46.7744 -0.0145 2.8812
# 5 -11.6698 2.5902 -15.2135 -0.0145 38.5897 -0.0018
# 6 0.0007 0.0008 -0.0265 2.8812 -0.0018 39.8286
#
#
#
# Elastic Compliance Matrix: (Units=1/GPa)
#
#
# Indices 1 2 3 4 5 6 
#
# 1 0.007939 -0.003265 -0.004920 -0.000003 0.000680 -0.000003
# 2 -0.003265 0.017405 -0.003116 0.000027 -0.003384 -0.000004
# 3 -0.004920 -0.003116 0.016511 -0.000008 0.005231 0.000012
# 4 -0.000003 0.000027 -0.000008 0.021475 0.000002 -0.001553
# 5 0.000680 -0.003384 0.005231 0.000002 0.028409 0.000005
# 6 -0.000003 -0.000004 0.000012 -0.001553 0.000005 0.025220
#
#
# Mechanical properties :
#
#
# Convention : Reuss Voigt Hill
#
# Bulk Modulus (GPa) = 51.94120 69.80979 60.87549
# Shear Modulus (GPa) = 34.25168 39.04509 36.64839
#
# Velocity S-wave (km/s) = 3.80994 4.06781 3.94099
# Velocity P-wave (km/s) = 6.43169 7.18664 6.81962
#
# Compressibility (1/GPa) = 0.01925254
#
# Stress axis : x y z
#
# Youngs Moduli (GPa) = 125.95487 57.45605 60.56609
#
# Poissons Ratio (x) = 0.18761 0.29798
# Poissons Ratio (y) = 0.41128 0.18872
# Poissons Ratio (z) = 0.61970 0.17902
#
# Static dielectric constant tensor:
#      x y z
#    x 4.319130 0.000050 -0.035370 
#    y 0.000050 4.372020 0.000180 
#    z -0.035370 0.000180 4.374190 
# 
# 
# High freq. dielectric constant tensor:
#      x y z
#    x 1.937130 -0.000010 0.000460 
#    y -0.000010 1.938720 0.000040 
#    z 0.000460 0.000040 1.947030 
# 
# From -- ./inp_files/279949.got.cif
#   From: 2010.06.25/outbox.cif.g09.slc.cpg/sg15_140_cif.got.tgz:279949.got - 2010.06.28 07:06:18.
