data_PCOD8152078
_publ_section_title
;
Structure prediction by ZEFSAII (Michael W. Deem and Ramdas Pophale) SiO2 
 PCOD8152078
Probable space group: C 2/C
;
_chemical_formula_sum "Si O2"
_cell_formula_units_Z 56
_cell_length_a 19.270624
_cell_length_b 12.871280
_cell_length_c 22.883049
_cell_angle_alpha 90.000000
_cell_angle_beta 28.421347
_cell_angle_gamma 90.000000
_cell_volume 2701.434747
_symmetry_space_group_name_H-M "C 2/C"
_symmetry_group_IT_number 15
_symmetry_cell_setting 'monoclinic'
loop_
_space_group_symop_operation_xyz
x,y,z
-x,y,1/2-z
-x,-y,-z
x,-y,1/2+z
1/2+x,1/2+y,z
1/2-x,1/2+y,1/2-z
1/2-x,1/2-y,-z
1/2+x,1/2-y,1/2+z
loop_
_atom_site_type_symbol
_atom_site_label
_atom_site_fract_x
_atom_site_fract_y
_atom_site_fract_z
Si Si1 0.389556 0.651205 0.054891
Si Si2 0.557696 0.390955 0.769073
Si Si3 0.346886 0.883253 0.607522
Si Si4 0.334053 0.274702 0.206469
Si Si5 0.594199 0.849408 0.233372
Si Si6 0.389496 0.069738 0.655390
Si Si7 0.401031 0.573992 0.499788
O O1 0.240208 0.716541 0.182074
O O2 0.343623 0.537665 0.065735
O O3 0.488243 0.712947 0.931834
O O4 0.484684 0.631305 0.042572
O O5 0.500000 0.433992 0.750000
O O6 0.725925 0.427983 0.652721
O O7 0.539303 0.266909 0.786503
O O8 0.468997 0.445869 0.886091
O O9 0.278492 0.782374 0.688617
O O10 0.493023 0.856912 0.464154
O O11 0.395968 0.953574 0.626604
O O12 0.270609 0.389909 0.244215
O O13 0.500000 0.896876 0.250000
O O14 0.572905 0.925749 0.304358
O O15 0.764868 0.849013 0.090975
#
# Coordination Sequence:
#
# PCOD8152078 Si02
#       7
#     8   8   8   8   8   8   8
#     4  11  22  36  63  85 127 153 214 262 311 362
#     4  11  24  36  58  88 126 164 197 246 308 384
#     4  11  22  36  56  85 120 158 204 251 298 355
#     4  12  20  36  57  92 117 160 194 260 310 358
#     4  11  24  36  58  88 126 164 197 246 308 384
#     4  11  22  36  56  85 120 158 204 251 298 355
#     4  11  22  39  56  87 120 168 204 249 311 376
#
# _framework density 20.729725999999999
#
# number of rings (size 3 to 8) (size 9 to 14) (size 15 to 20)
#    0.000    0.857    5.714    1.714    4.000    1.143 
#    0.000    0.000    0.000    0.000    0.000   24.000 
#    0.000    0.000    0.000    0.000    0.000    0.000 
#
# Total GULP energy -346962.681101 kJ/mol
# GULP energy per Si atom -12391.524325 kJ/mol
# Density = 2.068254 g / cm^3
# Si number density = 20.729726 Si / 1000 Ang^3
#
#
#
# Elastic Constant Matrix: (Units=GPa)
#
#
# Indices 1 2 3 4 5 6 
#
# 1 87.3957 11.7764 16.1172 -0.0078 7.8031 -0.0013
# 2 11.7764 45.4662 12.3983 -0.0213 6.1277 0.0010
# 3 16.1172 12.3983 112.9180 -0.0306 12.2316 0.0013
# 4 -0.0078 -0.0213 -0.0306 34.0151 0.0023 1.4387
# 5 7.8031 6.1277 12.2316 0.0023 20.7457 0.0009
# 6 -0.0013 0.0010 0.0013 1.4387 0.0009 18.9632
#
#
#
# Elastic Compliance Matrix: (Units=1/GPa)
#
#
# Indices 1 2 3 4 5 6 
#
# 1 0.012267 -0.002433 -0.001134 0.000000 -0.003227 0.000001
# 2 -0.002433 0.023778 -0.001711 0.000013 -0.005099 -0.000002
# 3 -0.001134 -0.001711 0.009726 0.000008 -0.004802 -0.000001
# 4 0.000000 0.000013 0.000008 0.029493 -0.000012 -0.002238
# 5 -0.003227 -0.005099 -0.004802 -0.000012 0.053754 -0.000001
# 6 0.000001 -0.000002 -0.000001 -0.002238 -0.000001 0.052904
#
#
# Mechanical properties :
#
#
# Convention : Reuss Voigt Hill
#
# Bulk Modulus (GPa) = 28.39746 36.26263 32.33004
# Shear Modulus (GPa) = 24.48361 28.44400 26.46380
#
# Velocity S-wave (km/s) = 3.44042 3.70825 3.57685
# Velocity P-wave (km/s) = 5.43237 5.98881 5.71737
#
# Compressibility (1/GPa) = 0.03521442
#
# Stress axis : x y z
#
# Youngs Moduli (GPa) = 81.51713 42.05484 102.81746
#
# Poissons Ratio (x) = 0.10233 0.11662
# Poissons Ratio (y) = 0.19835 0.17594
# Poissons Ratio (z) = 0.09246 0.07196
#
# Static dielectric constant tensor:
#      x y z
#    x 3.523220 0.000000 0.099160 
#    y 0.000000 3.612210 0.000020 
#    z 0.099160 0.000020 4.148810 
# 
# 
# High freq. dielectric constant tensor:
#      x y z
#    x 1.761980 0.000000 0.011260 
#    y 0.000000 1.797600 0.000000 
#    z 0.011260 0.000000 1.836330 
# 
# From -- ./inp_files/249212.got.cif
#   From: 2010.06.25/outbox.cif.g09.slc.cpg/sg15_125_cif.got.tgz:249212.got - 2010.06.28 07:06:18.
