data_PCOD8152219
_publ_section_title
;
Structure prediction by ZEFSAII (Michael W. Deem and Ramdas Pophale) SiO2 
 PCOD8152219
Probable space group: C 2/C
;
_chemical_formula_sum "Si O2"
_cell_formula_units_Z 48
_cell_length_a 25.078002
_cell_length_b 8.805075
_cell_length_c 10.422277
_cell_angle_alpha 90.000000
_cell_angle_beta 73.062735
_cell_angle_gamma 90.000000
_cell_volume 2201.557419
_symmetry_space_group_name_H-M "C 2/C"
_symmetry_group_IT_number 15
_symmetry_cell_setting 'monoclinic'
loop_
_space_group_symop_operation_xyz
x,y,z
-x,y,1/2-z
-x,-y,-z
x,-y,1/2+z
1/2+x,1/2+y,z
1/2-x,1/2+y,1/2-z
1/2-x,1/2-y,-z
1/2+x,1/2-y,1/2+z
loop_
_atom_site_type_symbol
_atom_site_label
_atom_site_fract_x
_atom_site_fract_y
_atom_site_fract_z
Si Si1 0.658791 0.889603 0.800419
Si Si2 0.539240 0.150493 0.333695
Si Si3 0.017989 0.295522 0.375445
Si Si4 0.639240 0.776302 0.313876
Si Si5 0.270998 0.379595 0.578355
Si Si6 0.189043 0.804276 0.519087
O O1 0.605401 0.829360 0.754728
O O2 0.713782 0.933936 0.682711
O O3 0.669326 0.759510 0.896564
O O4 0.642353 0.053194 0.870197
O O5 0.500000 0.223057 0.250000
O O6 0.526782 0.232924 0.479484
O O7 0.525877 0.973947 0.351731
O O8 0.076164 0.218584 0.380941
O O9 0.000000 0.224550 0.250000
O O10 0.686206 0.676113 0.345394
O O11 0.647729 0.762782 0.154510
O O12 0.250000 0.250000 0.500000
O O13 0.305098 0.512511 0.482881
O O14 0.250000 0.750000 0.500000
#
# Coordination Sequence:
#
# PCOD8152219 Si02
#       6
#     8   8   8   8   8   8
#     4  11  22  39  65  93 128 163 208 266 323 376
#     4   9  19  33  58  93 124 157 209 264 315 372
#     4   9  18  36  59  89 123 162 207 261 318 371
#     4  11  24  40  65  94 129 167 208 268 321 379
#     4  12  26  39  61  93 129 170 214 256 320 383
#     4  12  23  41  62  92 129 169 215 256 319 392
#
# _framework density 21.802745999999999
#
# number of rings (size 3 to 8) (size 9 to 14) (size 15 to 20)
#    0.000    1.333    3.333    2.000    4.667    2.667 
#    0.000    0.000    0.000    5.000    0.000    0.000 
#    0.000    0.000    0.000    0.000    0.000    0.000 
#
# Total GULP energy -297385.470663 kJ/mol
# GULP energy per Si atom -12391.061278 kJ/mol
# Density = 2.175312 g / cm^3
# Si number density = 21.802746 Si / 1000 Ang^3
#
#
#
# Elastic Constant Matrix: (Units=GPa)
#
#
# Indices 1 2 3 4 5 6 
#
# 1 162.4891 16.6972 30.8006 0.0000 4.3922 0.0000
# 2 16.6972 78.2254 13.5002 0.0000 8.2203 0.0000
# 3 30.8006 13.5002 74.2231 0.0000 9.4430 0.0000
# 4 0.0000 0.0000 0.0000 23.0985 0.0000 2.0506
# 5 4.3922 8.2203 9.4430 0.0000 37.6660 0.0000
# 6 0.0000 0.0000 0.0000 2.0506 0.0000 17.7387
#
#
#
# Elastic Compliance Matrix: (Units=1/GPa)
#
#
# Indices 1 2 3 4 5 6 
#
# 1 0.006753 -0.000997 -0.002633 0.000000 0.000090 0.000000
# 2 -0.000997 0.013550 -0.001745 0.000000 -0.002403 0.000000
# 3 -0.002633 -0.001745 0.015283 0.000000 -0.003144 0.000000
# 4 0.000000 0.000000 0.000000 0.043742 0.000000 -0.005057
# 5 0.000090 -0.002403 -0.003144 0.000000 0.027851 0.000000
# 6 0.000000 0.000000 0.000000 -0.005057 0.000000 0.056958
#
#
# Mechanical properties :
#
#
# Convention : Reuss Voigt Hill
#
# Bulk Modulus (GPa) = 40.26228 48.54819 44.40524
# Shear Modulus (GPa) = 27.29773 32.62995 29.96384
#
# Velocity S-wave (km/s) = 3.54224 3.87279 3.71120
# Velocity P-wave (km/s) = 5.93605 6.50487 6.22696
#
# Compressibility (1/GPa) = 0.02483714
#
# Stress axis : x y z
#
# Youngs Moduli (GPa) = 148.07664 73.80047 65.43339
#
# Poissons Ratio (x) = 0.07355 0.17226
# Poissons Ratio (y) = 0.14757 0.11420
# Poissons Ratio (z) = 0.38983 0.12880
#
# Static dielectric constant tensor:
#      x y z
#    x 5.141160 0.000000 -1.125020 
#    y 0.000000 3.021020 0.000000 
#    z -1.125020 0.000000 4.893270 
# 
# 
# High freq. dielectric constant tensor:
#      x y z
#    x 1.882150 0.000000 0.001840 
#    y 0.000000 1.813850 0.000000 
#    z 0.001840 0.000000 1.847210 
# 
# From -- ./inp_files/116286.got.cif
#   From: 2010.06.25/outbox.cif.g09.slc.cpg/sg15_59_cif.got.tgz:116286.got - 2010.06.28 07:06:18.
