data_PCOD8152710
_publ_section_title
;
Structure prediction by ZEFSAII (Michael W. Deem and Ramdas Pophale) SiO2 
 PCOD8152710
Probable space group: C 2/C
;
_chemical_formula_sum "Si O2"
_cell_formula_units_Z 64
_cell_length_a 18.287288
_cell_length_b 9.748236
_cell_length_c 27.978160
_cell_angle_alpha 90.000000
_cell_angle_beta 38.293698
_cell_angle_gamma 90.000000
_cell_volume 3090.799803
_symmetry_space_group_name_H-M "C 2/C"
_symmetry_group_IT_number 15
_symmetry_cell_setting 'monoclinic'
loop_
_space_group_symop_operation_xyz
x,y,z
-x,y,1/2-z
-x,-y,-z
x,-y,1/2+z
1/2+x,1/2+y,z
1/2-x,1/2+y,1/2-z
1/2-x,1/2-y,-z
1/2+x,1/2-y,1/2+z
loop_
_atom_site_type_symbol
_atom_site_label
_atom_site_fract_x
_atom_site_fract_y
_atom_site_fract_z
Si Si1 0.217194 0.440539 0.846006
Si Si2 0.829193 0.373370 0.975121
Si Si3 0.145628 0.198497 0.932122
Si Si4 0.824158 0.119268 0.476388
Si Si5 0.281406 0.565078 0.160503
Si Si6 0.070592 0.008516 0.325715
Si Si7 0.616920 0.802941 0.446470
Si Si8 0.585517 0.181682 0.323862
O O1 0.222956 0.338576 0.889110
O O2 0.351848 0.466359 0.761514
O O3 0.143276 0.580159 0.893263
O O4 0.148116 0.358870 0.840640
O O5 0.955715 0.377270 0.885733
O O6 0.750000 0.250000 0.000000
O O7 0.770179 0.504471 0.983534
O O8 0.841291 0.370928 0.025935
O O9 0.206527 0.089111 0.865297
O O10 0.137682 0.133060 0.988221
O O11 0.016473 0.249819 0.982009
O O12 0.750000 0.250000 0.500000
O O13 0.941697 0.078797 0.385752
O O14 0.372214 0.582363 0.157713
O O15 0.308253 0.668424 0.103697
O O16 0.152597 0.609327 0.245270
O O17 0.070514 0.845379 0.331423
#
# Coordination Sequence:
#
# PCOD8152710 Si02
#       8
#     8   8   8   8   8   8   8   8
#     4  11  24  40  72 105 135 174 235 291 339 403
#     4  12  25  44  69  97 140 183 224 280 348 417
#     4  12  24  44  69 103 135 178 235 283 334 412
#     4  12  28  45  68 100 140 182 223 282 358 416
#     4  11  23  40  72 103 130 176 233 285 336 401
#     4  11  22  45  67 101 140 179 219 288 354 405
#     4  12  23  42  70 104 133 178 239 280 328 413
#     4  11  23  43  68 102 139 175 228 284 352 404
#
# _framework density 20.706614999999999
#
# number of rings (size 3 to 8) (size 9 to 14) (size 15 to 20)
#    0.000    0.500    6.250    2.250    1.750    1.000 
#    0.000    7.500    0.000    0.000    0.000    0.000 
#    0.000    0.000    0.000    0.000    0.000    0.000 
#
# Total GULP energy -396600.913404 kJ/mol
# GULP energy per Si atom -12393.778544 kJ/mol
# Density = 2.065949 g / cm^3
# Si number density = 20.706615 Si / 1000 Ang^3
#
#
#
# Elastic Constant Matrix: (Units=GPa)
#
#
# Indices 1 2 3 4 5 6 
#
# 1 50.0504 23.8585 26.1341 -0.0002 -6.6870 -0.0032
# 2 23.8585 146.3705 58.6653 -0.0010 -11.8439 -0.0036
# 3 26.1341 58.6653 153.6931 0.0007 -19.3310 0.0011
# 4 -0.0002 -0.0010 0.0007 38.5297 0.0002 1.2292
# 5 -6.6870 -11.8439 -19.3310 0.0002 32.5571 0.0001
# 6 -0.0032 -0.0036 0.0011 1.2292 0.0001 39.2544
#
#
#
# Elastic Compliance Matrix: (Units=1/GPa)
#
#
# Indices 1 2 3 4 5 6 
#
# 1 0.022846 -0.002479 -0.002661 0.000000 0.002211 0.000002
# 2 -0.002479 0.008378 -0.002656 0.000000 0.000962 0.000001
# 3 -0.002661 -0.002656 0.008410 0.000000 0.003481 -0.000001
# 4 0.000000 0.000000 0.000000 0.025980 0.000000 -0.000814
# 5 0.002211 0.000962 0.003481 0.000000 0.033586 0.000000
# 6 0.000002 0.000001 -0.000001 -0.000814 0.000000 0.025500
#
#
# Mechanical properties :
#
#
# Convention : Reuss Voigt Hill
#
# Bulk Modulus (GPa) = 41.58850 63.04776 52.31813
# Shear Modulus (GPa) = 33.71414 38.16530 35.93972
#
# Velocity S-wave (km/s) = 4.03945 4.29784 4.17065
# Velocity P-wave (km/s) = 6.47182 7.42582 6.96517
#
# Compressibility (1/GPa) = 0.02404511
#
# Stress axis : x y z
#
# Youngs Moduli (GPa) = 43.77129 119.35771 118.90115
#
# Poissons Ratio (x) = 0.29585 0.31634
# Poissons Ratio (y) = 0.10849 0.31574
# Poissons Ratio (z) = 0.11646 0.31696
#
# Static dielectric constant tensor:
#      x y z
#    x 3.575250 0.000000 -0.008210 
#    y 0.000000 3.908140 0.000000 
#    z -0.008210 0.000000 4.180690 
# 
# 
# High freq. dielectric constant tensor:
#      x y z
#    x 1.783830 0.000000 0.002240 
#    y 0.000000 1.832180 0.000000 
#    z 0.002240 0.000000 1.829530 
# 
# From -- ./inp_files/315664.got.cif
#   From: 2010.06.25/outbox.cif.g09.slc.cpg/sg15_158_cif.got.tgz:315664.got - 2010.06.28 07:06:18.
