data_PCOD8152803
_publ_section_title
;
Structure prediction by ZEFSAII (Michael W. Deem and Ramdas Pophale) SiO2 
 PCOD8152803
Probable space group: C 2/C
;
_chemical_formula_sum "Si O2"
_cell_formula_units_Z 56
_cell_length_a 29.045002
_cell_length_b 11.985586
_cell_length_c 14.728908
_cell_angle_alpha 90.000000
_cell_angle_beta 27.592258
_cell_angle_gamma 90.000000
_cell_volume 2374.912136
_symmetry_space_group_name_H-M "C 2/C"
_symmetry_group_IT_number 15
_symmetry_cell_setting 'monoclinic'
loop_
_space_group_symop_operation_xyz
x,y,z
-x,y,1/2-z
-x,-y,-z
x,-y,1/2+z
1/2+x,1/2+y,z
1/2-x,1/2+y,1/2-z
1/2-x,1/2-y,-z
1/2+x,1/2-y,1/2+z
loop_
_atom_site_type_symbol
_atom_site_label
_atom_site_fract_x
_atom_site_fract_y
_atom_site_fract_z
Si Si1 0.719424 0.789099 0.332553
Si Si2 0.700439 0.607087 0.509483
Si Si3 0.058620 0.908199 0.735229
Si Si4 0.895152 0.513980 0.394244
Si Si5 0.701921 0.783824 0.987551
Si Si6 0.404147 0.675797 0.625059
Si Si7 0.925264 0.402780 0.654428
O O1 0.669073 0.697059 0.487523
O O2 0.663669 0.909457 0.430181
O O3 0.718470 0.744920 0.230785
O O4 0.834290 0.805159 0.160030
O O5 0.650531 0.489153 0.583156
O O6 0.669115 0.647722 0.664197
O O7 0.816992 0.582062 0.298795
O O8 0.099975 0.783528 0.652302
O O9 0.000000 0.947019 0.750000
O O10 0.986316 0.914885 0.950556
O O11 0.826972 0.414450 0.472900
O O12 0.916729 0.602334 0.277225
O O13 0.000000 0.467961 0.250000
O O14 0.750000 0.750000 0.000000
O O15 0.466878 0.786250 0.542967
O O16 0.000000 0.500000 0.500000
#
# Coordination Sequence:
#
# PCOD8152803 Si02
#       7
#     8   8   8   8   8   8   8
#     4  11  25  49  75 107 150 197 256 313 375 455
#     4  11  24  48  77 109 151 204 248 313 388 456
#     4  12  26  45  73 109 153 198 251 313 381 449
#     4  12  27  46  75 110 148 195 252 316 381 444
#     4  12  29  50  75 110 152 200 257 310 387 458
#     4  11  22  48  76 103 150 199 246 312 381 455
#     4  11  23  44  75 108 148 195 251 307 376 453
#
# _framework density 23.579819000000001
#
# number of rings (size 3 to 8) (size 9 to 14) (size 15 to 20)
#    0.000    0.571    4.286    3.429    6.000    2.857 
#    2.571    0.000    0.000    0.000    0.000    0.000 
#    0.000    0.000    0.000    0.000    0.000    0.000 
#
# Total GULP energy -347127.157540 kJ/mol
# GULP energy per Si atom -12397.398484 kJ/mol
# Density = 2.352615 g / cm^3
# Si number density = 23.579819 Si / 1000 Ang^3
#
#
#
# Elastic Constant Matrix: (Units=GPa)
#
#
# Indices 1 2 3 4 5 6 
#
# 1 123.0880 44.1410 39.4582 0.0000 15.7489 0.0000
# 2 44.1410 119.0295 51.9070 0.0000 -2.1690 0.0000
# 3 39.4582 51.9070 118.3959 0.0000 16.9254 0.0000
# 4 0.0000 0.0000 0.0000 30.1517 0.0000 -0.8008
# 5 15.7489 -2.1690 16.9254 0.0000 38.7349 0.0000
# 6 0.0000 0.0000 0.0000 -0.8008 0.0000 26.8742
#
#
#
# Elastic Compliance Matrix: (Units=1/GPa)
#
#
# Indices 1 2 3 4 5 6 
#
# 1 0.010221 -0.003218 -0.001468 0.000000 -0.003695 0.000000
# 2 -0.003218 0.011681 -0.004618 0.000000 0.003980 0.000000
# 3 -0.001468 -0.004618 0.011638 0.000000 -0.004747 0.000000
# 4 0.000000 0.000000 0.000000 0.033192 0.000000 0.000989
# 5 -0.003695 0.003980 -0.004747 0.000000 0.029616 0.000000
# 6 0.000000 0.000000 0.000000 0.000989 0.000000 0.037240
#
#
# Mechanical properties :
#
#
# Convention : Reuss Voigt Hill
#
# Bulk Modulus (GPa) = 66.95876 70.16953 68.56415
# Shear Modulus (GPa) = 31.81212 34.15264 32.98238
#
# Velocity S-wave (km/s) = 3.67703 3.80989 3.74405
# Velocity P-wave (km/s) = 6.81804 7.01260 6.91601
#
# Compressibility (1/GPa) = 0.01493457
#
# Stress axis : x y z
#
# Youngs Moduli (GPa) = 97.83351 85.61057 85.92200
#
# Poissons Ratio (x) = 0.27548 0.12610
# Poissons Ratio (y) = 0.31482 0.39676
# Poissons Ratio (z) = 0.14358 0.39532
#
# Static dielectric constant tensor:
#      x y z
#    x 4.271550 0.000000 0.168970 
#    y 0.000000 4.341480 0.000000 
#    z 0.168970 0.000000 4.505080 
# 
# 
# High freq. dielectric constant tensor:
#      x y z
#    x 1.929150 0.000000 0.012920 
#    y 0.000000 1.935700 0.000000 
#    z 0.012920 0.000000 1.942910 
# 
# From -- ./inp_files/181903.got.cif
#   From: 2010.06.25/outbox.cif.g09.slc.cpg/sg15_91_cif.got.tgz:181903.got - 2010.06.28 07:06:18.
