data_PCOD8152422
_publ_section_title
;
Structure prediction by ZEFSAII (Michael W. Deem and Ramdas Pophale) SiO2 
 PCOD8152422
Probable space group: C 2/C
;
_chemical_formula_sum "Si O2"
_cell_formula_units_Z 60
_cell_length_a 9.439686
_cell_length_b 30.157437
_cell_length_c 10.698002
_cell_angle_alpha 90.000000
_cell_angle_beta 100.244178
_cell_angle_gamma 90.000000
_cell_volume 2996.923727
_symmetry_space_group_name_H-M "C 2/C"
_symmetry_group_IT_number 15
_symmetry_cell_setting 'monoclinic'
loop_
_space_group_symop_operation_xyz
x,y,z
-x,y,1/2-z
-x,-y,-z
x,-y,1/2+z
1/2+x,1/2+y,z
1/2-x,1/2+y,1/2-z
1/2-x,1/2-y,-z
1/2+x,1/2-y,1/2+z
loop_
_atom_site_type_symbol
_atom_site_label
_atom_site_fract_x
_atom_site_fract_y
_atom_site_fract_z
Si Si1 0.331734 0.103678 0.204532
Si Si2 0.013246 0.795619 0.898107
Si Si3 0.216719 0.837375 0.474070
Si Si4 0.005729 0.304356 0.105410
Si Si5 0.734683 0.860200 0.552026
Si Si6 0.500000 0.618424 0.750000
Si Si7 0.123572 0.063397 0.558702
Si Si8 0.608393 0.531288 0.153177
O O1 0.500000 0.094411 0.250000
O O2 0.276226 0.138409 0.299729
O O3 0.249325 0.057541 0.218309
O O4 0.295397 0.122574 0.061200
O O5 0.134966 0.828489 0.971469
O O6 0.000000 0.804013 0.750000
O O7 0.055216 0.744736 0.932982
O O8 0.861742 0.805983 0.938698
O O9 0.332044 0.807981 0.418453
O O10 0.099921 0.852586 0.354908
O O11 0.000000 0.314935 0.250000
O O12 0.913257 0.341132 0.021642
O O13 0.756213 0.909933 0.500962
O O14 0.605466 0.587752 0.686893
O O15 0.975111 0.063263 0.456815
O O16 0.167193 0.012652 0.593006
O O17 0.500000 0.519327 0.250000
#
# Coordination Sequence:
#
# PCOD8152422 Si02
#       8
#     8   8   8   8   8   4   8   8
#     4  12  24  43  69  98 132 169 218 270 332 397
#     4  11  23  41  69  96 129 170 229 278 318 389
#     4  12  24  43  66  95 132 177 221 271 330 392
#     4  11  26  44  61  96 139 175 218 271 337 396
#     4  12  22  43  69  94 128 179 215 272 333 390
#     4  12  22  38  64  92 130 168 218 266 316 392
#     4  11  23  38  67  98 125 167 219 267 320 385
#     4  11  22  41  68  97 127 165 219 273 319 389
#
# _framework density 20.020530000000001
#
# number of rings (size 3 to 8) (size 9 to 14) (size 15 to 20)
#    0.000    0.533    7.333    1.600    0.000    0.000 
#    0.000    2.667    0.000    0.000    0.000    0.000 
#    0.000    0.000    0.000    0.000    0.000    0.000 
#
# Total GULP energy -372081.030915 kJ/mol
# GULP energy per Si atom -12402.701030 kJ/mol
# Density = 1.997496 g / cm^3
# Si number density = 20.020530 Si / 1000 Ang^3
#
#
#
# Elastic Constant Matrix: (Units=GPa)
#
#
# Indices 1 2 3 4 5 6 
#
# 1 119.3179 46.1516 46.3693 0.0000 -4.1860 0.0000
# 2 46.1516 99.1213 47.7268 0.0000 9.2170 0.0000
# 3 46.3693 47.7268 111.1596 0.0000 -1.8752 0.0000
# 4 0.0000 0.0000 0.0000 23.9144 0.0000 2.5073
# 5 -4.1860 9.2170 -1.8752 0.0000 36.4593 0.0000
# 6 0.0000 0.0000 0.0000 2.5073 0.0000 6.9408
#
#
#
# Elastic Compliance Matrix: (Units=1/GPa)
#
#
# Indices 1 2 3 4 5 6 
#
# 1 0.011121 -0.003984 -0.002893 0.000000 0.002135 0.000000
# 2 -0.003984 0.014607 -0.004684 0.000000 -0.004391 0.000000
# 3 -0.002893 -0.004684 0.012239 0.000000 0.001481 0.000000
# 4 0.000000 0.000000 0.000000 0.043462 0.000000 -0.015700
# 5 0.002135 -0.004391 0.001481 0.000000 0.028859 0.000000
# 6 0.000000 0.000000 0.000000 -0.015700 0.000000 0.149748
#
#
# Mechanical properties :
#
#
# Convention : Reuss Voigt Hill
#
# Bulk Modulus (GPa) = 67.35668 67.78824 67.57246
# Shear Modulus (GPa) = 17.35480 26.08630 21.72055
#
# Velocity S-wave (km/s) = 2.94743 3.61359 3.29738
# Velocity P-wave (km/s) = 6.73052 7.16545 6.95139
#
# Compressibility (1/GPa) = 0.01484634
#
# Stress axis : x y z
#
# Youngs Moduli (GPa) = 89.92109 68.45976 81.70796
#
# Poissons Ratio (x) = 0.27273 0.23634
# Poissons Ratio (y) = 0.35822 0.38271
# Poissons Ratio (z) = 0.26010 0.32066
#
# Static dielectric constant tensor:
#      x y z
#    x 3.543620 0.000000 -0.147830 
#    y 0.000000 3.575200 0.000000 
#    z -0.147830 0.000000 3.708400 
# 
# 
# High freq. dielectric constant tensor:
#      x y z
#    x 1.774500 0.000000 -0.012600 
#    y 0.000000 1.780510 0.000000 
#    z -0.012600 0.000000 1.790570 
# 
# From -- ./inp_files/82653.got.cif
#   From: 2010.06.25/outbox.cif.g09.slc.cpg/sg15_42_cif.got.tgz:82653.got - 2010.06.28 07:06:18.
