data_PCOD8152174
_publ_section_title
;
Structure prediction by ZEFSAII (Michael W. Deem and Ramdas Pophale) SiO2 
 PCOD8152174
Probable space group: C 2/C
;
_chemical_formula_sum "Si O2"
_cell_formula_units_Z 64
_cell_length_a 29.238291
_cell_length_b 14.096571
_cell_length_c 8.814517
_cell_angle_alpha 90.000000
_cell_angle_beta 123.353363
_cell_angle_gamma 90.000000
_cell_volume 3034.619278
_symmetry_space_group_name_H-M "C 2/C"
_symmetry_group_IT_number 15
_symmetry_cell_setting 'monoclinic'
loop_
_space_group_symop_operation_xyz
x,y,z
-x,y,1/2-z
-x,-y,-z
x,-y,1/2+z
1/2+x,1/2+y,z
1/2-x,1/2+y,1/2-z
1/2-x,1/2-y,-z
1/2+x,1/2-y,1/2+z
loop_
_atom_site_type_symbol
_atom_site_label
_atom_site_fract_x
_atom_site_fract_y
_atom_site_fract_z
Si Si1 0.294502 0.966798 0.016554
Si Si2 0.656221 0.159124 0.367689
Si Si3 0.742904 0.839525 0.793300
Si Si4 0.812702 0.707395 0.753324
Si Si5 0.383573 0.648813 0.200361
Si Si6 0.679145 0.455851 0.390251
Si Si7 0.594030 0.688758 0.594449
Si Si8 0.491718 0.601720 0.556254
O O1 0.299101 0.896411 0.167085
O O2 0.342898 0.044331 0.122850
O O3 0.299850 0.911560 0.866825
O O4 0.234815 0.016639 0.903490
O O5 0.713364 0.194880 0.393679
O O6 0.651279 0.199353 0.528380
O O7 0.608488 0.204970 0.179129
O O8 0.754661 0.754864 0.696135
O O9 0.801084 0.892886 0.929472
O O10 0.842052 0.771667 0.682674
O O11 0.353159 0.549101 0.114906
O O12 0.430718 0.637610 0.411697
O O13 0.410592 0.687088 0.095249
O O14 0.639145 0.390014 0.219541
O O15 0.535353 0.671213 0.560654
O O16 0.500000 0.596034 0.750000
O O17 0.500000 0.500000 0.500000
#
# Coordination Sequence:
#
# PCOD8152174 Si02
#       8
#     8   8   8   8   8   8   8   8
#     4  11  24  40  61  91 132 175 228 267 320 387
#     4  11  24  40  62  88 130 177 220 271 328 383
#     4  11  22  39  58  91 131 176 221 265 323 391
#     4  12  24  41  61  92 130 173 223 273 324 390
#     4  12  26  41  67  94 129 171 218 266 330 386
#     4  11  23  37  62  90 134 172 215 258 322 379
#     4  12  25  42  66  91 129 172 217 268 324 391
#     4  12  26  44  67  97 131 166 216 269 328 394
#
# _framework density 21.089959
#
# number of rings (size 3 to 8) (size 9 to 14) (size 15 to 20)
#    0.000    0.500    3.750    5.625    3.500    0.000 
#    0.000    0.000    0.000    0.750    0.000    1.750 
#    0.000    0.000    0.000    0.000    0.000    0.000 
#
# Total GULP energy -396759.933243 kJ/mol
# GULP energy per Si atom -12398.747914 kJ/mol
# Density = 2.104196 g / cm^3
# Si number density = 21.089959 Si / 1000 Ang^3
#
#
#
# Elastic Constant Matrix: (Units=GPa)
#
#
# Indices 1 2 3 4 5 6 
#
# 1 65.4355 8.9798 14.3824 0.0000 -7.0596 0.0000
# 2 8.9798 86.4830 18.0145 0.0000 5.8487 0.0000
# 3 14.3824 18.0145 83.5767 0.0000 -7.4489 0.0000
# 4 0.0000 0.0000 0.0000 20.2434 0.0000 5.0106
# 5 -7.0596 5.8487 -7.4489 0.0000 38.0153 0.0000
# 6 0.0000 0.0000 0.0000 5.0106 0.0000 27.1734
#
#
#
# Elastic Compliance Matrix: (Units=1/GPa)
#
#
# Indices 1 2 3 4 5 6 
#
# 1 0.016272 -0.001411 -0.002247 0.000000 0.002799 0.000000
# 2 -0.001411 0.012451 -0.002682 0.000000 -0.002703 0.000000
# 3 -0.002247 -0.002682 0.013159 0.000000 0.002574 0.000000
# 4 0.000000 0.000000 0.000000 0.051761 0.000000 -0.009544
# 5 0.002799 -0.002703 0.002574 0.000000 0.027745 0.000000
# 6 0.000000 0.000000 0.000000 -0.009544 0.000000 0.038561
#
#
# Mechanical properties :
#
#
# Convention : Reuss Voigt Hill
#
# Bulk Modulus (GPa) = 34.24301 35.36095 34.80198
# Shear Modulus (GPa) = 27.41808 30.02766 28.72287
#
# Velocity S-wave (km/s) = 3.60954 3.77741 3.69443
# Velocity P-wave (km/s) = 5.80031 5.98567 5.89372
#
# Compressibility (1/GPa) = 0.02920304
#
# Stress axis : x y z
#
# Youngs Moduli (GPa) = 61.45700 80.31558 75.99294
#
# Poissons Ratio (x) = 0.11331 0.17072
# Poissons Ratio (y) = 0.08670 0.20380
# Poissons Ratio (z) = 0.13807 0.21539
#
# Static dielectric constant tensor:
#      x y z
#    x 3.639820 0.000000 -0.052670 
#    y 0.000000 4.031060 0.000000 
#    z -0.052670 0.000000 4.034240 
# 
# 
# High freq. dielectric constant tensor:
#      x y z
#    x 1.796190 0.000000 -0.026770 
#    y 0.000000 1.832890 0.000000 
#    z -0.026770 0.000000 1.836720 
# 
# From -- ./inp_files/69962.got.cif
#   From: 2010.06.25/outbox.cif.g09.slc.cpg/sg15_35_cif.got.tgz:69962.got - 2010.06.28 07:06:18.
