data_PCOD8152434
_publ_section_title
;
Structure prediction by ZEFSAII (Michael W. Deem and Ramdas Pophale) SiO2 
 PCOD8152434
Probable space group: C 2/C
;
_chemical_formula_sum "Si O2"
_cell_formula_units_Z 64
_cell_length_a 19.119362
_cell_length_b 14.106723
_cell_length_c 17.482618
_cell_angle_alpha 90.000000
_cell_angle_beta 138.840378
_cell_angle_gamma 90.000000
_cell_volume 3103.393592
_symmetry_space_group_name_H-M "C 2/C"
_symmetry_group_IT_number 15
_symmetry_cell_setting 'monoclinic'
loop_
_space_group_symop_operation_xyz
x,y,z
-x,y,1/2-z
-x,-y,-z
x,-y,1/2+z
1/2+x,1/2+y,z
1/2-x,1/2+y,1/2-z
1/2-x,1/2-y,-z
1/2+x,1/2-y,1/2+z
loop_
_atom_site_type_symbol
_atom_site_label
_atom_site_fract_x
_atom_site_fract_y
_atom_site_fract_z
Si Si1 0.124424 0.497280 0.614880
Si Si2 0.206659 0.986643 0.872448
Si Si3 0.685979 0.817385 0.256290
Si Si4 0.044645 0.855289 0.653717
Si Si5 0.599664 0.595869 0.032147
Si Si6 0.302740 0.188632 0.243138
Si Si7 0.682087 0.581692 0.517591
Si Si8 0.065031 0.162834 0.728410
O O1 0.182995 0.480538 0.582296
O O2 0.161823 0.595762 0.681024
O O3 0.152874 0.412737 0.695530
O O4 0.000000 0.500000 0.500000
O O5 0.123527 0.909335 0.774921
O O6 0.159996 0.091532 0.825442
O O7 0.228666 0.965863 0.979561
O O8 0.579688 0.754468 0.177928
O O9 0.781521 0.755157 0.299029
O O10 0.726678 0.850891 0.372861
O O11 0.048818 0.907911 0.574833
O O12 0.925453 0.859097 0.588629
O O13 0.691310 0.676318 0.106234
O O14 0.654478 0.496347 0.058651
O O15 0.509514 0.617391 0.896836
O O16 0.389077 0.236781 0.260140
O O17 0.000000 0.185304 0.750000
#
# Coordination Sequence:
#
# PCOD8152434 Si02
#       8
#     8   8   8   8   8   8   8   8
#     4  12  27  48  68  97 138 183 230 285 346 415
#     4  12  23  45  69 103 141 170 228 300 335 401
#     4  11  24  44  71  97 138 183 233 277 332 421
#     4  11  23  39  70 104 132 180 235 275 335 408
#     4  11  22  41  69  99 134 184 225 281 334 399
#     4  11  25  44  68 101 137 184 239 274 335 417
#     4  12  23  42  71 101 142 179 223 291 352 392
#     4  12  24  41  71 109 139 172 227 290 351 397
#
# _framework density 20.622585000000001
#
# number of rings (size 3 to 8) (size 9 to 14) (size 15 to 20)
#    0.000    0.500    7.500    1.500    5.250    1.000 
#    2.250    1.875    0.000    0.000    0.000    0.000 
#    0.000    0.000    0.000    0.000    0.000    0.000 
#
# Total GULP energy -396962.262809 kJ/mol
# GULP energy per Si atom -12405.070713 kJ/mol
# Density = 2.057565 g / cm^3
# Si number density = 20.622585 Si / 1000 Ang^3
#
#
#
# Elastic Constant Matrix: (Units=GPa)
#
#
# Indices 1 2 3 4 5 6 
#
# 1 113.0980 33.4767 38.7419 0.0000 0.8100 0.0000
# 2 33.4767 111.2673 21.9136 0.0000 -6.3834 0.0000
# 3 38.7419 21.9136 86.3956 0.0000 -3.6430 0.0000
# 4 0.0000 0.0000 0.0000 24.3332 0.0000 1.5835
# 5 0.8100 -6.3834 -3.6430 0.0000 30.5358 0.0000
# 6 0.0000 0.0000 0.0000 1.5835 0.0000 24.1095
#
#
#
# Elastic Compliance Matrix: (Units=1/GPa)
#
#
# Indices 1 2 3 4 5 6 
#
# 1 0.011113 -0.002556 -0.004392 0.000000 -0.001353 0.000000
# 2 -0.002556 0.010136 -0.001339 0.000000 0.002027 0.000000
# 3 -0.004392 -0.001339 0.013947 0.000000 0.001500 0.000000
# 4 0.000000 0.000000 0.000000 0.041273 0.000000 -0.002711
# 5 -0.001353 0.002027 0.001500 0.000000 0.033387 0.000000
# 6 0.000000 0.000000 0.000000 -0.002711 0.000000 0.041656
#
#
# Mechanical properties :
#
#
# Convention : Reuss Voigt Hill
#
# Bulk Modulus (GPa) = 53.70134 55.44724 54.57429
# Shear Modulus (GPa) = 28.68729 30.23760 29.46244
#
# Velocity S-wave (km/s) = 3.73374 3.83330 3.78385
# Velocity P-wave (km/s) = 6.68464 6.82183 6.75358
#
# Compressibility (1/GPa) = 0.01862151
#
# Stress axis : x y z
#
# Youngs Moduli (GPa) = 89.98771 98.65360 71.69959
#
# Poissons Ratio (x) = 0.25217 0.31490
# Poissons Ratio (y) = 0.23002 0.09603
# Poissons Ratio (z) = 0.39522 0.13213
#
# Static dielectric constant tensor:
#      x y z
#    x 3.622570 0.000000 0.124250 
#    y 0.000000 3.925310 0.000000 
#    z 0.124250 0.000000 3.715180 
# 
# 
# High freq. dielectric constant tensor:
#      x y z
#    x 1.802920 0.000000 -0.000650 
#    y 0.000000 1.814700 0.000000 
#    z -0.000650 0.000000 1.805520 
# 
# From -- ./inp_files/162578.got.cif
#   From: 2010.06.25/outbox.cif.g09.slc.cpg/sg15_82_cif.got.tgz:162578.got - 2010.06.28 07:06:18.
