data_PCOD8152364
_publ_section_title
;
Structure prediction by ZEFSAII (Michael W. Deem and Ramdas Pophale) SiO2 
 PCOD8152364
Probable space group: C 2/C
;
_chemical_formula_sum "Si O2"
_cell_formula_units_Z 64
_cell_length_a 9.737015
_cell_length_b 28.216725
_cell_length_c 14.340541
_cell_angle_alpha 90.000000
_cell_angle_beta 131.294607
_cell_angle_gamma 90.000000
_cell_volume 2960.237422
_symmetry_space_group_name_H-M "C 2/C"
_symmetry_group_IT_number 15
_symmetry_cell_setting 'monoclinic'
loop_
_space_group_symop_operation_xyz
x,y,z
-x,y,1/2-z
-x,-y,-z
x,-y,1/2+z
1/2+x,1/2+y,z
1/2-x,1/2+y,1/2-z
1/2-x,1/2-y,-z
1/2+x,1/2-y,1/2+z
loop_
_atom_site_type_symbol
_atom_site_label
_atom_site_fract_x
_atom_site_fract_y
_atom_site_fract_z
Si Si1 0.037100 0.254028 0.374078
Si Si2 0.789011 0.002172 0.644705
Si Si3 0.700539 0.074571 0.960424
Si Si4 0.163843 0.895050 0.394878
Si Si5 0.846793 0.840544 0.752801
Si Si6 0.497025 0.156234 0.530323
Si Si7 0.914132 0.907077 0.933589
Si Si8 0.685307 0.005464 0.305729
O O1 0.250000 0.250000 0.500000
O O2 0.944689 0.296192 0.390488
O O3 0.000000 0.266544 0.250000
O O4 0.927469 0.205232 0.343353
O O5 0.764588 0.051018 0.578213
O O6 0.000000 0.988911 0.750000
O O7 0.694235 0.959732 0.547160
O O8 0.689972 0.007953 0.699421
O O9 0.669724 0.044137 0.853384
O O10 0.554506 0.115723 0.916522
O O11 0.891142 0.100435 0.027447
O O12 0.328273 0.859440 0.450410
O O13 0.088195 0.885392 0.464496
O O14 0.000000 0.886145 0.250000
O O15 0.666705 0.830098 0.612501
O O16 0.784962 0.878604 0.803637
O O17 0.000000 0.860477 0.750000
O O18 0.858929 0.962658 0.911552
O O19 0.500000 0.034179 0.250000
#
# Coordination Sequence:
#
# PCOD8152364 Si02
#       8
#     8   8   8   8   8   8   8   8
#     4  11  22  45  77 112 144 178 234 317 373 427
#     4  11  22  41  63  89 141 189 238 298 340 415
#     4  12  23  41  66 100 132 188 246 287 344 431
#     4  11  27  46  64  99 150 190 235 294 363 428
#     4  11  23  45  73 108 138 173 242 301 355 430
#     4  12  26  44  77 107 139 184 241 304 370 431
#     4  12  24  42  68  96 140 192 235 288 358 426
#     4  12  26  37  59  95 138 187 239 284 352 417
#
# _framework density 21.619888
#
# number of rings (size 3 to 8) (size 9 to 14) (size 15 to 20)
#    0.000    0.500    6.250    3.375    3.500    4.500 
#    0.000    0.625    0.000    0.000    0.000    0.000 
#    0.000    0.000    0.000    0.000    0.000    0.000 
#
# Total GULP energy -396768.111858 kJ/mol
# GULP energy per Si atom -12399.003496 kJ/mol
# Density = 2.157068 g / cm^3
# Si number density = 21.619888 Si / 1000 Ang^3
#
#
#
# Elastic Constant Matrix: (Units=GPa)
#
#
# Indices 1 2 3 4 5 6 
#
# 1 101.1508 42.6478 48.9639 0.0000 -24.3994 0.0000
# 2 42.6478 103.9036 38.1732 0.0000 -11.1425 0.0000
# 3 48.9639 38.1732 101.8003 0.0000 -18.3576 0.0000
# 4 0.0000 0.0000 0.0000 28.2709 0.0000 -7.2151
# 5 -24.3994 -11.1425 -18.3576 0.0000 44.5025 0.0000
# 6 0.0000 0.0000 0.0000 -7.2151 0.0000 25.5896
#
#
#
# Elastic Compliance Matrix: (Units=1/GPa)
#
#
# Indices 1 2 3 4 5 6 
#
# 1 0.015164 -0.003857 -0.004885 0.000000 0.005333 0.000000
# 2 -0.003857 0.012198 -0.002754 0.000000 -0.000197 0.000000
# 3 -0.004885 -0.002754 0.013611 0.000000 0.002246 0.000000
# 4 0.000000 0.000000 0.000000 0.038115 0.000000 0.010747
# 5 0.005333 -0.000197 0.002246 0.000000 0.026272 0.000000
# 6 0.000000 0.000000 0.000000 0.010747 0.000000 0.042108
#
#
# Mechanical properties :
#
#
# Convention : Reuss Voigt Hill
#
# Bulk Modulus (GPa) = 55.62079 62.93605 59.27842
# Shear Modulus (GPa) = 28.33581 31.47725 29.90653
#
# Velocity S-wave (km/s) = 3.62420 3.81982 3.72329
# Velocity P-wave (km/s) = 6.57994 6.97339 6.77952
#
# Compressibility (1/GPa) = 0.01797889
#
# Stress axis : x y z
#
# Youngs Moduli (GPa) = 65.94636 81.97807 73.47075
#
# Poissons Ratio (x) = 0.31622 0.35893
# Poissons Ratio (y) = 0.25438 0.20236
# Poissons Ratio (z) = 0.32217 0.22580
#
# Static dielectric constant tensor:
#      x y z
#    x 4.044940 0.000000 0.072140 
#    y 0.000000 3.897340 0.000000 
#    z 0.072140 0.000000 4.134830 
# 
# 
# High freq. dielectric constant tensor:
#      x y z
#    x 1.847570 0.000000 -0.007650 
#    y 0.000000 1.835780 0.000000 
#    z -0.007650 0.000000 1.860410 
# 
# From -- ./inp_files/139846.got.cif
#   From: 2010.06.25/outbox.cif.g09.slc.cpg/sg15_70_cif.got.tgz:139846.got - 2010.06.28 07:06:18.
