data_PCOD8152155
_publ_section_title
;
Structure prediction by ZEFSAII (Michael W. Deem and Ramdas Pophale) SiO2 
 PCOD8152155
Probable space group: C 2/C
;
_chemical_formula_sum "Si O2"
_cell_formula_units_Z 56
_cell_length_a 18.725431
_cell_length_b 7.616371
_cell_length_c 24.742251
_cell_angle_alpha 90.000000
_cell_angle_beta 48.028712
_cell_angle_gamma 90.000000
_cell_volume 2623.544523
_symmetry_space_group_name_H-M "C 2/C"
_symmetry_group_IT_number 15
_symmetry_cell_setting 'monoclinic'
loop_
_space_group_symop_operation_xyz
x,y,z
-x,y,1/2-z
-x,-y,-z
x,-y,1/2+z
1/2+x,1/2+y,z
1/2-x,1/2+y,1/2-z
1/2-x,1/2-y,-z
1/2+x,1/2-y,1/2+z
loop_
_atom_site_type_symbol
_atom_site_label
_atom_site_fract_x
_atom_site_fract_y
_atom_site_fract_z
Si Si1 0.971710 0.841303 0.179659
Si Si2 0.138482 0.019911 0.947934
Si Si3 0.147624 0.077231 0.660689
Si Si4 0.308273 0.211099 0.914229
Si Si5 0.963615 0.867091 0.593781
Si Si6 0.682743 0.202205 0.984011
Si Si7 0.027712 0.477165 0.111799
O O1 0.882113 0.902017 0.261839
O O2 0.069723 0.825098 0.163407
O O3 0.959927 0.641973 0.162851
O O4 0.983388 0.990588 0.129459
O O5 0.120101 0.870958 0.002331
O O6 0.130115 0.934551 0.892030
O O7 0.242051 0.106764 0.905043
O O8 0.051157 0.151461 0.005964
O O9 0.250924 0.166500 0.601629
O O10 0.156747 0.879982 0.635425
O O11 0.407598 0.105923 0.873006
O O12 0.250000 0.250000 0.000000
O O13 0.956640 0.671016 0.622642
O O14 0.750000 0.250000 0.000000
O O15 0.610328 0.041081 0.028452
#
# Coordination Sequence:
#
# PCOD8152155 Si02
#       7
#     8   8   8   8   8   8   8
#     4  11  23  43  60  94 137 171 213 285 333 399
#     4  11  22  38  65  97 132 164 224 275 334 388
#     4  11  22  39  65  96 132 167 224 279 339 384
#     4  12  19  38  69 101 126 170 225 285 331 401
#     4  11  23  42  60  95 136 172 209 279 334 411
#     4  12  19  37  65  95 123 165 219 283 316 387
#     4  12  22  39  72  91 131 175 220 268 344 388
#
# _framework density 21.345168999999999
#
# number of rings (size 3 to 8) (size 9 to 14) (size 15 to 20)
#    0.000    0.571    8.571    0.000    0.000    0.571 
#   10.286    1.429    0.000    0.000    0.000    0.000 
#    0.000    0.000    0.000    0.000    0.000    0.000 
#
# Total GULP energy -346914.973640 kJ/mol
# GULP energy per Si atom -12389.820487 kJ/mol
# Density = 2.129659 g / cm^3
# Si number density = 21.345169 Si / 1000 Ang^3
#
#
#
# Elastic Constant Matrix: (Units=GPa)
#
#
# Indices 1 2 3 4 5 6 
#
# 1 73.9449 24.9634 19.3700 -0.0003 6.4642 -0.0002
# 2 24.9634 147.3050 46.9347 -0.0002 7.7062 -0.0047
# 3 19.3700 46.9347 122.2826 0.0003 4.8094 -0.0002
# 4 -0.0003 -0.0002 0.0003 28.9351 0.0001 5.8612
# 5 6.4642 7.7062 4.8094 0.0001 15.5230 0.0001
# 6 -0.0002 -0.0047 -0.0002 5.8612 0.0001 36.3810
#
#
#
# Elastic Compliance Matrix: (Units=1/GPa)
#
#
# Indices 1 2 3 4 5 6 
#
# 1 0.014947 -0.001806 -0.001483 0.000000 -0.004868 0.000000
# 2 -0.001806 0.008089 -0.002724 0.000000 -0.002420 0.000001
# 3 -0.001483 -0.002724 0.009496 0.000000 -0.000972 0.000000
# 4 0.000000 0.000000 0.000000 0.035726 0.000000 -0.005756
# 5 -0.004868 -0.002420 -0.000972 0.000000 0.067950 0.000000
# 6 0.000000 0.000001 0.000000 -0.005756 0.000000 0.028414
#
#
# Mechanical properties :
#
#
# Convention : Reuss Voigt Hill
#
# Bulk Modulus (GPa) = 48.76215 58.45209 53.60712
# Shear Modulus (GPa) = 27.25033 32.98546 30.11790
#
# Velocity S-wave (km/s) = 3.57690 3.93534 3.76039
# Velocity P-wave (km/s) = 6.32085 6.93490 6.63498
#
# Compressibility (1/GPa) = 0.02050771
#
# Stress axis : x y z
#
# Youngs Moduli (GPa) = 66.90165 123.62411 105.30410
#
# Poissons Ratio (x) = 0.22325 0.15618
# Poissons Ratio (y) = 0.12081 0.28680
# Poissons Ratio (z) = 0.09922 0.33669
#
# Static dielectric constant tensor:
#      x y z
#    x 3.825990 0.000000 0.024900 
#    y 0.000000 4.097210 0.000000 
#    z 0.024900 0.000000 3.913710 
# 
# 
# High freq. dielectric constant tensor:
#      x y z
#    x 1.817620 0.000000 0.001500 
#    y 0.000000 1.854360 0.000000 
#    z 0.001500 0.000000 1.809740 
# 
# From -- ./inp_files/298105.got.cif
#   From: 2010.06.25/outbox.cif.g09.slc.cpg/sg15_150_cif.got.tgz:298105.got - 2010.06.28 07:06:18.
