data_PCOD8152563
_publ_section_title
;
Structure prediction by ZEFSAII (Michael W. Deem and Ramdas Pophale) SiO2 
 PCOD8152563
Probable space group: C 2/C
;
_chemical_formula_sum "Si O2"
_cell_formula_units_Z 52
_cell_length_a 10.151057
_cell_length_b 9.245514
_cell_length_c 28.386765
_cell_angle_alpha 90.000000
_cell_angle_beta 119.318365
_cell_angle_gamma 90.000000
_cell_volume 2322.902956
_symmetry_space_group_name_H-M "C 2/C"
_symmetry_group_IT_number 15
_symmetry_cell_setting 'monoclinic'
loop_
_space_group_symop_operation_xyz
x,y,z
-x,y,1/2-z
-x,-y,-z
x,-y,1/2+z
1/2+x,1/2+y,z
1/2-x,1/2+y,1/2-z
1/2-x,1/2-y,-z
1/2+x,1/2-y,1/2+z
loop_
_atom_site_type_symbol
_atom_site_label
_atom_site_fract_x
_atom_site_fract_y
_atom_site_fract_z
Si Si1 0.634170 0.006947 0.870235
Si Si2 0.352690 0.341442 0.603419
Si Si3 0.069726 0.021732 0.214099
Si Si4 0.563650 0.811653 0.601700
Si Si5 0.228349 0.751411 0.223777
Si Si6 0.500000 0.049190 0.750000
Si Si7 0.981154 0.995333 0.441389
O O1 0.561580 0.922216 0.901624
O O2 0.558252 0.959523 0.806712
O O3 0.809742 0.965453 0.897054
O O4 0.610996 0.175575 0.877944
O O5 0.456906 0.448706 0.652112
O O6 0.172624 0.373131 0.578834
O O7 0.401719 0.385906 0.559047
O O8 0.231312 0.109404 0.237515
O O9 0.000000 0.081282 0.250000
O O10 0.094482 0.849130 0.222207
O O11 0.688947 0.786286 0.663595
O O12 0.479736 0.665459 0.570793
O O13 0.373205 0.850902 0.249387
O O14 0.000000 0.000000 0.500000
#
# Coordination Sequence:
#
# PCOD8152563 Si02
#       7
#     8   8   8   8   8   4   8
#     4  11  24  42  68 101 136 175 217 271 329 396
#     4  11  22  43  64  93 131 171 214 273 331 389
#     4  12  22  38  59  93 132 173 211 257 324 397
#     4  11  23  42  65  98 129 168 219 271 328 389
#     4  12  21  39  62  93 136 175 209 260 322 395
#     4  12  18  40  64  94 136 176 204 256 326 396
#     4  11  26  49  70  92 129 176 227 279 332 387
#
# _framework density 22.385783
#
# number of rings (size 3 to 8) (size 9 to 14) (size 15 to 20)
#    0.000    0.615    8.462    0.923    0.000    4.308 
#    8.308    1.538    0.000    0.000    0.000    0.000 
#    0.000    0.000    0.000    0.000    0.000    0.000 
#
# Total GULP energy -322276.141360 kJ/mol
# GULP energy per Si atom -12395.236206 kJ/mol
# Density = 2.233483 g / cm^3
# Si number density = 22.385783 Si / 1000 Ang^3
#
#
#
# Elastic Constant Matrix: (Units=GPa)
#
#
# Indices 1 2 3 4 5 6 
#
# 1 113.6294 54.9516 6.4578 0.0000 -17.8181 0.0000
# 2 54.9516 90.1412 2.2872 0.0000 -13.1910 0.0000
# 3 6.4578 2.2872 51.1920 0.0000 -17.9622 0.0000
# 4 0.0000 0.0000 0.0000 20.3384 0.0000 -14.4037
# 5 -17.8181 -13.1910 -17.9622 0.0000 29.9496 0.0000
# 6 0.0000 0.0000 0.0000 -14.4037 0.0000 37.1856
#
#
#
# Elastic Compliance Matrix: (Units=1/GPa)
#
#
# Indices 1 2 3 4 5 6 
#
# 1 0.013040 -0.007260 0.000354 0.000000 0.004773 0.000000
# 2 -0.007260 0.016011 0.001468 0.000000 0.003613 0.000000
# 3 0.000354 0.001468 0.024982 0.000000 0.015840 0.000000
# 4 0.000000 0.000000 0.000000 0.067755 0.000000 0.026245
# 5 0.004773 0.003613 0.015840 0.000000 0.047320 0.000000
# 6 0.000000 0.000000 0.000000 0.026245 0.000000 0.037058
#
#
# Mechanical properties :
#
#
# Convention : Reuss Voigt Hill
#
# Bulk Modulus (GPa) = 23.17088 42.48399 32.82744
# Shear Modulus (GPa) = 21.60516 30.24578 25.92547
#
# Velocity S-wave (km/s) = 3.11002 3.67974 3.40681
# Velocity P-wave (km/s) = 4.82385 6.08878 5.49285
#
# Compressibility (1/GPa) = 0.04315761
#
# Stress axis : x y z
#
# Youngs Moduli (GPa) = 76.68909 62.45748 40.02885
#
# Poissons Ratio (x) = 0.45343 -0.01417
# Poissons Ratio (y) = 0.55675 -0.05877
# Poissons Ratio (z) = -0.02715 -0.09171
#
# Static dielectric constant tensor:
#      x y z
#    x 4.345810 0.000000 -0.042910 
#    y 0.000000 4.068740 0.000000 
#    z -0.042910 0.000000 3.831120 
# 
# 
# High freq. dielectric constant tensor:
#      x y z
#    x 1.893670 0.000000 -0.004280 
#    y 0.000000 1.876170 0.000000 
#    z -0.004280 0.000000 1.858870 
# 
# From -- ./inp_files/291255.got.cif
#   From: 2010.06.25/outbox.cif.g09.slc.cpg/sg15_146_cif.got.tgz:291255.got - 2010.06.28 07:06:18.
