data_PCOD8152376
_publ_section_title
;
Structure prediction by ZEFSAII (Michael W. Deem and Ramdas Pophale) SiO2 
 PCOD8152376
Probable space group: C 2/C
;
_chemical_formula_sum "Si O2"
_cell_formula_units_Z 48
_cell_length_a 19.433620
_cell_length_b 13.878957
_cell_length_c 8.601775
_cell_angle_alpha 90.000000
_cell_angle_beta 80.398859
_cell_angle_gamma 90.000000
_cell_volume 2287.559092
_symmetry_space_group_name_H-M "C 2/C"
_symmetry_group_IT_number 15
_symmetry_cell_setting 'monoclinic'
loop_
_space_group_symop_operation_xyz
x,y,z
-x,y,1/2-z
-x,-y,-z
x,-y,1/2+z
1/2+x,1/2+y,z
1/2-x,1/2+y,1/2-z
1/2-x,1/2-y,-z
1/2+x,1/2-y,1/2+z
loop_
_atom_site_type_symbol
_atom_site_label
_atom_site_fract_x
_atom_site_fract_y
_atom_site_fract_z
Si Si1 0.648210 0.990008 0.696833
Si Si2 0.248475 0.469440 0.906282
Si Si3 0.800375 0.216707 0.220079
Si Si4 0.923526 0.701892 0.212978
Si Si5 0.425444 0.176495 0.845015
Si Si6 0.820874 0.845204 0.367520
O O1 0.672109 0.999189 0.866319
O O2 0.622617 0.879854 0.681628
O O3 0.724426 0.015501 0.593102
O O4 0.585872 0.063100 0.682784
O O5 0.268059 0.361028 0.852264
O O6 0.312880 0.540384 0.841783
O O7 0.865715 0.263671 0.281601
O O8 0.742539 0.295168 0.200088
O O9 0.823712 0.168728 0.051273
O O10 0.892825 0.806435 0.268684
O O11 0.000000 0.692773 0.250000
O O12 0.923080 0.693011 0.028735
O O13 0.500000 0.208512 0.750000
#
# Coordination Sequence:
#
# PCOD8152376 Si02
#       6
#     8   8   8   8   8   8
#     4  12  23  40  66  99 133 166 210 268 326 382
#     4  12  23  40  67 102 130 165 215 267 321 377
#     4  11  23  41  67  95 130 170 216 264 320 379
#     4  12  27  43  64  95 133 176 215 262 328 382
#     4  12  27  42  65  95 133 174 215 266 320 391
#     4  11  22  41  66  94 132 170 212 267 316 383
#
# _framework density 20.983065
#
# number of rings (size 3 to 8) (size 9 to 14) (size 15 to 20)
#    0.000    0.333    6.667    2.500    4.667    2.667 
#    0.000    0.833    0.000    4.000    0.000    0.000 
#    0.000    0.000    0.000    0.000    0.000    0.000 
#
# Total GULP energy -297500.329496 kJ/mol
# GULP energy per Si atom -12395.847062 kJ/mol
# Density = 2.093531 g / cm^3
# Si number density = 20.983065 Si / 1000 Ang^3
#
#
#
# Elastic Constant Matrix: (Units=GPa)
#
#
# Indices 1 2 3 4 5 6 
#
# 1 98.4419 45.1928 51.9016 0.0000 2.2869 0.0000
# 2 45.1928 75.6033 33.0339 0.0000 1.8501 0.0000
# 3 51.9016 33.0339 69.9612 0.0000 0.5112 0.0000
# 4 0.0000 0.0000 0.0000 27.4268 0.0000 -4.8598
# 5 2.2869 1.8501 0.5112 0.0000 38.1022 0.0000
# 6 0.0000 0.0000 0.0000 -4.8598 0.0000 21.4419
#
#
#
# Elastic Compliance Matrix: (Units=1/GPa)
#
#
# Indices 1 2 3 4 5 6 
#
# 1 0.018954 -0.006516 -0.010980 0.000000 -0.000674 0.000000
# 2 -0.006516 0.018924 -0.004098 0.000000 -0.000473 0.000000
# 3 -0.010980 -0.004098 0.024370 0.000000 0.000531 0.000000
# 4 0.000000 0.000000 0.000000 0.037986 0.000000 0.008610
# 5 -0.000674 -0.000473 0.000531 0.000000 0.026301 0.000000
# 6 0.000000 0.000000 0.000000 0.008610 0.000000 0.048589
#
#
# Mechanical properties :
#
#
# Convention : Reuss Voigt Hill
#
# Bulk Modulus (GPa) = 52.46360 56.02922 54.24641
# Shear Modulus (GPa) = 22.25519 24.98607 23.62063
#
# Velocity S-wave (km/s) = 3.26026 3.45450 3.35878
# Velocity P-wave (km/s) = 6.26335 6.53234 6.39926
#
# Compressibility (1/GPa) = 0.01906083
#
# Stress axis : x y z
#
# Youngs Moduli (GPa) = 52.75864 52.84248 41.03373
#
# Poissons Ratio (x) = 0.34433 0.45054
# Poissons Ratio (y) = 0.34378 0.16815
# Poissons Ratio (z) = 0.57928 0.21655
#
# Static dielectric constant tensor:
#      x y z
#    x 3.731910 0.000000 0.144540 
#    y 0.000000 3.829010 0.000000 
#    z 0.144540 0.000000 4.042710 
# 
# 
# High freq. dielectric constant tensor:
#      x y z
#    x 1.806020 0.000000 0.011830 
#    y 0.000000 1.815480 0.000000 
#    z 0.011830 0.000000 1.846320 
# 
# From -- ./inp_files/47488.got.cif
#   From: 2010.06.25/outbox.cif.g09.slc.cpg/sg15_24_cif.got.tgz:47488.got - 2010.06.28 07:06:18.
