data_PCOD8152095
_publ_section_title
;
Structure prediction by ZEFSAII (Michael W. Deem and Ramdas Pophale) SiO2 
 PCOD8152095
Probable space group: C 2/C
;
_chemical_formula_sum "Si O2"
_cell_formula_units_Z 48
_cell_length_a 8.512929
_cell_length_b 21.246233
_cell_length_c 19.379907
_cell_angle_alpha 90.000000
_cell_angle_beta 139.228794
_cell_angle_gamma 90.000000
_cell_volume 2289.035276
_symmetry_space_group_name_H-M "C 2/C"
_symmetry_group_IT_number 15
_symmetry_cell_setting 'monoclinic'
loop_
_space_group_symop_operation_xyz
x,y,z
-x,y,1/2-z
-x,-y,-z
x,-y,1/2+z
1/2+x,1/2+y,z
1/2-x,1/2+y,1/2-z
1/2-x,1/2-y,-z
1/2+x,1/2-y,1/2+z
loop_
_atom_site_type_symbol
_atom_site_label
_atom_site_fract_x
_atom_site_fract_y
_atom_site_fract_z
Si Si1 0.468162 0.155587 0.159903
Si Si2 0.671154 0.786164 0.542212
Si Si3 0.043231 0.069613 0.039464
Si Si4 0.964277 0.896164 0.810598
Si Si5 0.380001 0.292606 0.135167
Si Si6 0.771099 0.163855 0.859119
O O1 0.500000 0.168309 0.250000
O O2 0.288771 0.097060 0.088793
O O3 0.722134 0.141219 0.210721
O O4 0.369635 0.221833 0.097521
O O5 0.750000 0.750000 0.500000
O O6 0.398007 0.812604 0.449984
O O7 0.721305 0.736913 0.619266
O O8 0.827798 0.847289 0.605313
O O9 0.060367 0.062468 0.128595
O O10 0.837112 0.117239 0.944559
O O11 0.000000 0.000000 0.000000
O O12 0.000000 0.934992 0.750000
O O13 0.500000 0.292819 0.250000
O O14 0.535892 0.341244 0.139861
O O15 0.500000 0.144181 0.750000
#
# Coordination Sequence:
#
# PCOD8152095 Si02
#       6
#     8   8   8   8   8   8
#     4   9  18  39  62  90 127 167 212 254 320 392
#     4  12  20  37  64 101 137 165 207 267 339 399
#     4  11  25  45  66  90 124 178 225 265 315 382
#     4  11  23  39  69  95 128 167 217 270 323 394
#     4  11  22  36  63 101 134 170 208 262 334 396
#     4  12  24  39  63  96 136 171 209 268 333 386
#
# _framework density 20.969533999999999
#
# number of rings (size 3 to 8) (size 9 to 14) (size 15 to 20)
#    0.000    1.000    3.333    6.000    2.333    2.000 
#    0.000    1.667    0.000    0.000    0.000    0.000 
#    0.000    0.000    0.000    0.000    0.000    0.000 
#
# Total GULP energy -297397.036723 kJ/mol
# GULP energy per Si atom -12391.543197 kJ/mol
# Density = 2.092181 g / cm^3
# Si number density = 20.969534 Si / 1000 Ang^3
#
#
#
# Elastic Constant Matrix: (Units=GPa)
#
#
# Indices 1 2 3 4 5 6 
#
# 1 128.0235 17.0216 49.1087 0.0000 7.2538 0.0000
# 2 17.0216 78.4168 30.1936 0.0000 0.8350 0.0000
# 3 49.1087 30.1936 113.5415 -0.0002 26.7862 0.0002
# 4 0.0000 0.0000 -0.0002 21.9744 -0.0001 -10.7006
# 5 7.2538 0.8350 26.7862 -0.0001 51.8093 0.0001
# 6 0.0000 0.0000 0.0002 -10.7006 0.0001 32.1540
#
#
#
# Elastic Compliance Matrix: (Units=1/GPa)
#
#
# Indices 1 2 3 4 5 6 
#
# 1 0.009415 -0.000456 -0.004148 0.000000 0.000834 0.000000
# 2 -0.000456 0.014407 -0.004094 0.000000 0.001948 0.000000
# 3 -0.004148 -0.004094 0.013140 0.000000 -0.006147 0.000000
# 4 0.000000 0.000000 0.000000 0.054309 0.000000 0.018074
# 5 0.000834 0.001948 -0.006147 0.000000 0.022331 0.000000
# 6 0.000000 0.000000 0.000000 0.018074 0.000000 0.037115
#
#
# Mechanical properties :
#
#
# Convention : Reuss Voigt Hill
#
# Bulk Modulus (GPa) = 51.10339 56.95884 54.03111
# Shear Modulus (GPa) = 28.63123 36.09808 32.36465
#
# Velocity S-wave (km/s) = 3.69910 4.15354 3.93289
# Velocity P-wave (km/s) = 6.53205 7.08690 6.81513
#
# Compressibility (1/GPa) = 0.01956817
#
# Stress axis : x y z
#
# Youngs Moduli (GPa) = 106.20794 69.41197 76.10264
#
# Poissons Ratio (x) = 0.03162 0.31566
# Poissons Ratio (y) = 0.04838 0.31154
# Poissons Ratio (z) = 0.44054 0.28415
#
# Static dielectric constant tensor:
#      x y z
#    x 2.954680 0.000000 0.471010 
#    y 0.000000 3.253460 0.000000 
#    z 0.471010 0.000000 3.679190 
# 
# 
# High freq. dielectric constant tensor:
#      x y z
#    x 1.841150 0.000000 -0.001970 
#    y 0.000000 1.761850 0.000000 
#    z -0.001970 0.000000 1.844030 
# 
# From -- ./inp_files/233695.got.cif
#   From: 2010.06.25/outbox.cif.g09.slc.cpg/sg15_117_cif.got.tgz:233695.got - 2010.06.28 07:06:18.
