data_PCOD8152880
_publ_section_title
;
Structure prediction by ZEFSAII (Michael W. Deem and Ramdas Pophale) SiO2 
 PCOD8152880
Probable space group: C 2/C
;
_chemical_formula_sum "Si O2"
_cell_formula_units_Z 56
_cell_length_a 16.691553
_cell_length_b 27.369348
_cell_length_c 9.016870
_cell_angle_alpha 90.000000
_cell_angle_beta 141.987564
_cell_angle_gamma 90.000000
_cell_volume 2536.761331
_symmetry_space_group_name_H-M "C 2/C"
_symmetry_group_IT_number 15
_symmetry_cell_setting 'monoclinic'
loop_
_space_group_symop_operation_xyz
x,y,z
-x,y,1/2-z
-x,-y,-z
x,-y,1/2+z
1/2+x,1/2+y,z
1/2-x,1/2+y,1/2-z
1/2-x,1/2-y,-z
1/2+x,1/2-y,1/2+z
loop_
_atom_site_type_symbol
_atom_site_label
_atom_site_fract_x
_atom_site_fract_y
_atom_site_fract_z
Si Si1 0.289570 0.299876 0.133234
Si Si2 0.900759 0.328430 0.382595
Si Si3 0.329356 0.464432 0.106875
Si Si4 0.754828 0.856130 0.607015
Si Si5 0.906734 0.054268 0.382966
Si Si6 0.546698 0.723677 0.152497
Si Si7 0.841190 0.620407 0.220073
O O1 0.196269 0.309105 0.135705
O O2 0.440549 0.299347 0.389804
O O3 0.250000 0.250000 0.000000
O O4 0.275042 0.343980 0.998005
O O5 0.952743 0.281839 0.367418
O O6 0.018075 0.359890 0.627399
O O7 0.828761 0.364182 0.162926
O O8 0.319527 0.521268 0.140713
O O9 0.435867 0.448347 0.388740
O O10 0.372857 0.459390 0.001585
O O11 0.194554 0.432243 0.909784
O O12 0.879405 0.891034 0.791510
O O13 0.662539 0.874135 0.607112
O O14 0.813339 0.800560 0.686970
O O15 0.500000 0.711801 0.250000
#
# Coordination Sequence:
#
# PCOD8152880 Si02
#       7
#     8   8   8   8   8   8   8
#     4  12  25  41  61  92 124 167 215 265 318 372
#     4  12  25  41  62  89 129 171 212 256 317 388
#     4   9  19  38  63  93 121 160 206 265 323 376
#     4  11  23  41  64  91 124 168 213 262 319 385
#     4   9  19  38  63  93 124 158 209 265 320 373
#     4  12  24  41  63  89 124 165 218 265 310 374
#     4  11  23  40  63  91 129 165 207 260 324 383
#
# _framework density 22.075391
#
# number of rings (size 3 to 8) (size 9 to 14) (size 15 to 20)
#    0.000    1.143    2.857    3.857    0.000    4.000 
#    5.143    0.714    0.000    1.714    0.000    0.000 
#    0.000    0.000    0.000    0.000    0.000    0.000 
#
# Total GULP energy -346879.752525 kJ/mol
# GULP energy per Si atom -12388.562590 kJ/mol
# Density = 2.202515 g / cm^3
# Si number density = 22.075391 Si / 1000 Ang^3
#
#
#
# Elastic Constant Matrix: (Units=GPa)
#
#
# Indices 1 2 3 4 5 6 
#
# 1 48.6543 9.6578 19.5769 0.0000 -3.7757 0.0000
# 2 9.6578 83.8264 34.9188 0.0000 -6.8665 0.0000
# 3 19.5769 34.9188 109.7016 0.0000 -4.3781 0.0000
# 4 0.0000 0.0000 0.0000 45.8472 0.0000 -1.1216
# 5 -3.7757 -6.8665 -4.3781 0.0000 33.3590 0.0000
# 6 0.0000 0.0000 0.0000 -1.1216 0.0000 22.2463
#
#
#
# Elastic Compliance Matrix: (Units=1/GPa)
#
#
# Indices 1 2 3 4 5 6 
#
# 1 0.022336 -0.000912 -0.003621 0.000000 0.001865 0.000000
# 2 -0.000912 0.013963 -0.004193 0.000000 0.002221 0.000000
# 3 -0.003621 -0.004193 0.011104 0.000000 0.000184 0.000000
# 4 0.000000 0.000000 0.000000 0.021839 0.000000 0.001101
# 5 0.001865 0.002221 0.000184 0.000000 0.030669 0.000000
# 6 0.000000 0.000000 0.000000 0.001101 0.000000 0.045007
#
#
# Mechanical properties :
#
#
# Convention : Reuss Voigt Hill
#
# Bulk Modulus (GPa) = 33.38893 41.16545 37.27719
# Shear Modulus (GPa) = 29.01007 32.15910 30.58458
#
# Velocity S-wave (km/s) = 3.62903 3.82093 3.72622
# Velocity P-wave (km/s) = 5.71993 6.17690 5.95280
#
# Compressibility (1/GPa) = 0.02995005
#
# Stress axis : x y z
#
# Youngs Moduli (GPa) = 44.77069 71.61730 90.05816
#
# Poissons Ratio (x) = 0.06532 0.32612
# Poissons Ratio (y) = 0.04084 0.37763
# Poissons Ratio (z) = 0.16212 0.30030
#
# Static dielectric constant tensor:
#      x y z
#    x 3.669620 0.000000 -0.076620 
#    y 0.000000 4.098880 0.000000 
#    z -0.076620 0.000000 4.259880 
# 
# 
# High freq. dielectric constant tensor:
#      x y z
#    x 1.848650 0.000000 -0.011240 
#    y 0.000000 1.857800 0.000000 
#    z -0.011240 0.000000 1.884950 
# 
# From -- ./inp_files/35148.got.cif
#   From: 2010.06.25/outbox.cif.g09.slc.cpg/sg15_18_cif.got.tgz:35148.got - 2010.06.28 07:06:18.
