data_PCOD8152192
_publ_section_title
;
Structure prediction by ZEFSAII (Michael W. Deem and Ramdas Pophale) SiO2 
 PCOD8152192
Probable space group: C 2/C
;
_chemical_formula_sum "Si O2"
_cell_formula_units_Z 48
_cell_length_a 8.725424
_cell_length_b 22.480128
_cell_length_c 11.747468
_cell_angle_alpha 90.000000
_cell_angle_beta 104.733500
_cell_angle_gamma 90.000000
_cell_volume 2228.484431
_symmetry_space_group_name_H-M "C 2/C"
_symmetry_group_IT_number 15
_symmetry_cell_setting 'monoclinic'
loop_
_space_group_symop_operation_xyz
x,y,z
-x,y,1/2-z
-x,-y,-z
x,-y,1/2+z
1/2+x,1/2+y,z
1/2-x,1/2+y,1/2-z
1/2-x,1/2-y,-z
1/2+x,1/2-y,1/2+z
loop_
_atom_site_type_symbol
_atom_site_label
_atom_site_fract_x
_atom_site_fract_y
_atom_site_fract_z
Si Si1 0.670775 0.314349 0.732751
Si Si2 0.755420 0.600803 0.443297
Si Si3 0.145145 0.972756 0.360485
Si Si4 0.275242 0.288609 0.115209
Si Si5 0.564150 0.104608 0.636899
Si Si6 0.960336 0.871975 0.014228
O O1 0.500000 0.294627 0.750000
O O2 0.769771 0.353428 0.841069
O O3 0.778446 0.255957 0.724545
O O4 0.642948 0.352394 0.613712
O O5 0.664756 0.542272 0.385014
O O6 0.647219 0.629726 0.522530
O O7 0.925998 0.584729 0.524453
O O8 0.305370 0.947157 0.335312
O O9 0.103537 0.938085 0.469255
O O10 0.000000 0.961455 0.250000
O O11 0.128641 0.333080 0.103126
O O12 0.432576 0.328514 0.119419
O O13 0.250000 0.250000 0.000000
O O14 0.500000 0.113961 0.750000
#
# Coordination Sequence:
#
# PCOD8152192 Si02
#       6
#     8   8   8   8   8   8
#     4   9  18  36  61  88 122 163 207 253 304 364
#     4  11  22  39  62  94 124 157 204 257 307 358
#     4  11  22  40  64  90 123 165 204 246 302 373
#     4   9  19  40  61  84 121 162 205 249 296 360
#     4  11  24  41  61  92 126 160 202 257 310 357
#     4   9  19  36  62  90 119 163 209 248 301 364
#
# _framework density 21.539304000000001
#
# number of rings (size 3 to 8) (size 9 to 14) (size 15 to 20)
#    0.000    2.000    0.000    4.000    0.000    1.333 
#    0.000   34.167    0.000    0.000    0.000    0.000 
#    0.000    0.000    0.000    0.000    0.000    0.000 
#
# Total GULP energy -297544.999666 kJ/mol
# GULP energy per Si atom -12397.708319 kJ/mol
# Density = 2.149028 g / cm^3
# Si number density = 21.539304 Si / 1000 Ang^3
#
#
#
# Elastic Constant Matrix: (Units=GPa)
#
#
# Indices 1 2 3 4 5 6 
#
# 1 123.8474 47.9197 62.0596 0.0000 2.1588 0.0000
# 2 47.9197 118.5509 45.5626 0.0000 -11.9517 0.0000
# 3 62.0596 45.5626 92.8073 0.0000 -9.7577 0.0000
# 4 0.0000 0.0000 0.0000 34.1437 0.0000 -5.0101
# 5 2.1588 -11.9517 -9.7577 0.0000 38.4908 0.0000
# 6 0.0000 0.0000 0.0000 -5.0101 0.0000 25.1350
#
#
#
# Elastic Compliance Matrix: (Units=1/GPa)
#
#
# Indices 1 2 3 4 5 6 
#
# 1 0.013075 -0.002636 -0.007821 0.000000 -0.003534 0.000000
# 2 -0.002636 0.011078 -0.003389 0.000000 0.002728 0.000000
# 3 -0.007821 -0.003389 0.018086 0.000000 0.003971 0.000000
# 4 0.000000 0.000000 0.000000 0.030170 0.000000 0.006014
# 5 -0.003534 0.002728 0.003971 0.000000 0.028032 0.000000
# 6 0.000000 0.000000 0.000000 0.006014 0.000000 0.040984
#
#
# Mechanical properties :
#
#
# Convention : Reuss Voigt Hill
#
# Bulk Modulus (GPa) = 68.73918 71.80993 70.27455
# Shear Modulus (GPa) = 28.74116 31.53148 30.13632
#
# Velocity S-wave (km/s) = 3.65685 3.83025 3.74455
# Velocity P-wave (km/s) = 7.05781 7.27822 7.16886
#
# Compressibility (1/GPa) = 0.01454774
#
# Stress axis : x y z
#
# Youngs Moduli (GPa) = 76.48330 90.26682 55.29078
#
# Poissons Ratio (x) = 0.23790 0.43241
# Poissons Ratio (y) = 0.20158 0.18741
# Poissons Ratio (z) = 0.59815 0.30596
#
# Static dielectric constant tensor:
#      x y z
#    x 4.070710 0.000000 -0.419410 
#    y 0.000000 4.157070 0.000000 
#    z -0.419410 0.000000 3.831220 
# 
# 
# High freq. dielectric constant tensor:
#      x y z
#    x 1.844250 0.000000 -0.023980 
#    y 0.000000 1.855690 0.000000 
#    z -0.023980 0.000000 1.840240 
# 
# From -- ./inp_files/79100.got.cif
#   From: 2010.06.25/outbox.cif.g09.slc.cpg/sg15_40_cif.got.tgz:79100.got - 2010.06.28 07:06:18.
