data_PCOD8152580
_publ_section_title
;
Structure prediction by ZEFSAII (Michael W. Deem and Ramdas Pophale) SiO2 
 PCOD8152580
Probable space group: C 2/C
;
_chemical_formula_sum "Si O2"
_cell_formula_units_Z 52
_cell_length_a 20.060192
_cell_length_b 9.747110
_cell_length_c 18.904655
_cell_angle_alpha 90.000000
_cell_angle_beta 140.059641
_cell_angle_gamma 90.000000
_cell_volume 2373.055407
_symmetry_space_group_name_H-M "C 2/C"
_symmetry_group_IT_number 15
_symmetry_cell_setting 'monoclinic'
loop_
_space_group_symop_operation_xyz
x,y,z
-x,y,1/2-z
-x,-y,-z
x,-y,1/2+z
1/2+x,1/2+y,z
1/2-x,1/2+y,1/2-z
1/2-x,1/2-y,-z
1/2+x,1/2-y,1/2+z
loop_
_atom_site_type_symbol
_atom_site_label
_atom_site_fract_x
_atom_site_fract_y
_atom_site_fract_z
Si Si1 0.949611 0.189804 0.037494
Si Si2 0.785601 0.362759 0.973073
Si Si3 0.299305 0.533740 0.817120
Si Si4 0.398992 0.521173 0.257946
Si Si5 0.500000 0.302061 0.250000
Si Si6 0.165207 0.338160 0.970964
Si Si7 0.155606 0.266461 0.126949
O O1 0.998516 0.113003 0.145677
O O2 0.036568 0.231659 0.050531
O O3 0.890689 0.323238 0.017551
O O4 0.862124 0.089500 0.935135
O O5 0.693761 0.379727 0.841466
O O6 0.750000 0.250000 0.000000
O O7 0.812156 0.505538 0.033011
O O8 0.373715 0.553172 0.810613
O O9 0.195066 0.620439 0.715953
O O10 0.275045 0.372462 0.810480
O O11 0.413360 0.400856 0.213194
O O12 0.448000 0.207023 0.148334
O O13 0.250000 0.250000 0.000000
O O14 0.167176 0.324644 0.057470
#
# Coordination Sequence:
#
# PCOD8152580 Si02
#       7
#     8   8   8   8   4   8   8
#     4  11  24  42  72 103 134 180 231 280 349 410
#     4  12  27  47  70  99 145 181 231 288 343 407
#     4  11  22  43  68 101 136 177 224 283 342 407
#     4  11  22  45  67 103 136 185 226 278 353 410
#     4  12  22  42  74  94 142 186 228 282 336 414
#     4  12  26  47  68 106 136 183 233 281 341 410
#     4  11  24  44  71 100 138 177 230 282 343 406
#
# _framework density 21.912680000000002
#
# number of rings (size 3 to 8) (size 9 to 14) (size 15 to 20)
#    0.000    0.615    3.077    6.462    2.154    1.846 
#    5.538    0.000    0.000    0.000    0.000    0.000 
#    0.000    0.000    0.000    0.000    0.000    0.000 
#
# Total GULP energy -322458.611143 kJ/mol
# GULP energy per Si atom -12402.254275 kJ/mol
# Density = 2.186281 g / cm^3
# Si number density = 21.912680 Si / 1000 Ang^3
#
#
#
# Elastic Constant Matrix: (Units=GPa)
#
#
# Indices 1 2 3 4 5 6 
#
# 1 72.0034 42.4050 15.5817 0.0000 -1.7719 0.0000
# 2 42.4050 152.7659 51.5783 0.0000 -2.5140 0.0000
# 3 15.5817 51.5783 141.7971 0.0000 3.0899 0.0000
# 4 0.0000 0.0000 0.0000 44.5672 0.0000 1.2131
# 5 -1.7719 -2.5140 3.0899 0.0000 21.9490 0.0000
# 6 0.0000 0.0000 0.0000 1.2131 0.0000 40.2863
#
#
#
# Elastic Compliance Matrix: (Units=1/GPa)
#
#
# Indices 1 2 3 4 5 6 
#
# 1 0.016622 -0.004534 -0.000196 0.000000 0.000850 0.000000
# 2 -0.004534 0.008733 -0.002700 0.000000 0.001014 0.000000
# 3 -0.000196 -0.002700 0.008088 0.000000 -0.001464 0.000000
# 4 0.000000 0.000000 0.000000 0.022456 0.000000 -0.000676
# 5 0.000850 0.001014 -0.001464 0.000000 0.045951 0.000000
# 6 0.000000 0.000000 0.000000 -0.000676 0.000000 0.024843
#
#
# Mechanical properties :
#
#
# Convention : Reuss Voigt Hill
#
# Bulk Modulus (GPa) = 53.81448 65.07736 59.44592
# Shear Modulus (GPa) = 33.84164 38.49393 36.16778
#
# Velocity S-wave (km/s) = 3.93413 4.19584 4.06709
# Velocity P-wave (km/s) = 6.72670 7.29633 7.01730
#
# Compressibility (1/GPa) = 0.01858236
#
# Stress axis : x y z
#
# Youngs Moduli (GPa) = 60.16270 114.50955 123.63927
#
# Poissons Ratio (x) = 0.51915 0.02422
# Poissons Ratio (y) = 0.27276 0.33389
# Poissons Ratio (z) = 0.01179 0.30923
#
# Static dielectric constant tensor:
#      x y z
#    x 3.840440 0.000000 -0.050040 
#    y 0.000000 4.152360 0.000000 
#    z -0.050040 0.000000 4.173440 
# 
# 
# High freq. dielectric constant tensor:
#      x y z
#    x 1.853090 0.000000 -0.002280 
#    y 0.000000 1.869650 0.000000 
#    z -0.002280 0.000000 1.872670 
# 
# From -- ./inp_files/255087.got.cif
#   From: 2010.06.25/outbox.cif.g09.slc.cpg/sg15_128_cif.got.tgz:255087.got - 2010.06.28 07:06:18.
