data_PCOD8152841
_publ_section_title
;
Structure prediction by ZEFSAII (Michael W. Deem and Ramdas Pophale) SiO2 
 PCOD8152841
Probable space group: C 2/C
;
_chemical_formula_sum "Si O2"
_cell_formula_units_Z 44
_cell_length_a 18.213682
_cell_length_b 12.285942
_cell_length_c 8.797998
_cell_angle_alpha 90.000000
_cell_angle_beta 95.051612
_cell_angle_gamma 90.000000
_cell_volume 1961.100685
_symmetry_space_group_name_H-M "C 2/C"
_symmetry_group_IT_number 15
_symmetry_cell_setting 'monoclinic'
loop_
_space_group_symop_operation_xyz
x,y,z
-x,y,1/2-z
-x,-y,-z
x,-y,1/2+z
1/2+x,1/2+y,z
1/2-x,1/2+y,1/2-z
1/2-x,1/2-y,-z
1/2+x,1/2-y,1/2+z
loop_
_atom_site_type_symbol
_atom_site_label
_atom_site_fract_x
_atom_site_fract_y
_atom_site_fract_z
Si Si1 0.141129 0.285714 0.718335
Si Si2 0.627938 0.946104 0.468608
Si Si3 0.000000 0.625947 0.750000
Si Si4 0.393440 0.189697 0.964383
Si Si5 0.298112 0.631675 0.295544
Si Si6 0.295699 0.413022 0.452178
O O1 0.098075 0.359639 0.588428
O O2 0.210158 0.358741 0.787067
O O3 0.168024 0.172454 0.655124
O O4 0.092406 0.266288 0.861414
O O5 0.567175 0.948840 0.323502
O O6 0.706997 0.902265 0.424483
O O7 0.634664 0.065146 0.541658
O O8 0.031035 0.700413 0.618347
O O9 0.331626 0.258338 0.867088
O O10 0.323057 0.531580 0.405922
O O11 0.324075 0.611133 0.127219
#
# Coordination Sequence:
#
# PCOD8152841 Si02
#       6
#     8   8   4   8   8   8
#     4  11  23  38  66  95 133 174 221 278 338 386
#     4  11  24  42  64  99 140 175 219 272 329 404
#     4  12  26  42  64  94 144 184 226 262 320 402
#     4  12  24  41  64  94 133 181 221 267 332 390
#     4  11  23  39  68  95 137 170 218 280 339 391
#     4  11  23  41  66 102 133 170 220 279 341 396
#
# _framework density 22.436381000000001
#
# number of rings (size 3 to 8) (size 9 to 14) (size 15 to 20)
#    0.000    0.727    1.818    7.636    7.636    0.727 
#    0.000    0.000    0.000    9.818    0.000    1.273 
#    0.000    0.000    0.000    0.000    0.000    0.000 
#
# Total GULP energy -272826.625148 kJ/mol
# GULP energy per Si atom -12401.210234 kJ/mol
# Density = 2.238531 g / cm^3
# Si number density = 22.436381 Si / 1000 Ang^3
#
#
#
# Elastic Constant Matrix: (Units=GPa)
#
#
# Indices 1 2 3 4 5 6 
#
# 1 58.4891 32.0506 56.4989 0.0000 -14.4814 0.0000
# 2 32.0506 119.2097 68.4652 0.0000 2.3185 0.0000
# 3 56.4989 68.4652 160.5230 0.0000 -23.4347 0.0000
# 4 0.0000 0.0000 0.0000 46.7105 0.0000 -0.3752
# 5 -14.4814 2.3185 -23.4347 0.0000 52.7694 0.0000
# 6 0.0000 0.0000 0.0000 -0.3752 0.0000 13.9782
#
#
#
# Elastic Compliance Matrix: (Units=1/GPa)
#
#
# Indices 1 2 3 4 5 6 
#
# 1 0.027192 -0.002974 -0.007692 0.000000 0.004177 0.000000
# 2 -0.002974 0.011828 -0.004484 0.000000 -0.003327 0.000000
# 3 -0.007692 -0.004484 0.011303 0.000000 0.003106 0.000000
# 4 0.000000 0.000000 0.000000 0.021413 0.000000 0.000575
# 5 0.004177 -0.003327 0.003106 0.000000 0.021622 0.000000
# 6 0.000000 0.000000 0.000000 0.000575 0.000000 0.071555
#
#
# Mechanical properties :
#
#
# Convention : Reuss Voigt Hill
#
# Bulk Modulus (GPa) = 49.94453 72.47235 61.20844
# Shear Modulus (GPa) = 24.76629 34.77208 29.76918
#
# Velocity S-wave (km/s) = 3.32602 3.94103 3.64651
# Velocity P-wave (km/s) = 6.08759 7.28563 6.71338
#
# Compressibility (1/GPa) = 0.02002221
#
# Stress axis : x y z
#
# Youngs Moduli (GPa) = 36.77600 84.54497 88.47306
#
# Poissons Ratio (x) = 0.25144 0.68057
# Poissons Ratio (y) = 0.10937 0.39669
# Poissons Ratio (z) = 0.28289 0.37908
#
# Static dielectric constant tensor:
#      x y z
#    x 3.726740 0.000000 -0.303830 
#    y 0.000000 3.905600 0.000000 
#    z -0.303830 0.000000 4.523390 
# 
# 
# High freq. dielectric constant tensor:
#      x y z
#    x 1.842930 0.000000 -0.018190 
#    y 0.000000 1.878650 0.000000 
#    z -0.018190 0.000000 1.913500 
# 
# From -- ./inp_files/54466.got.cif
#   From: 2010.06.25/outbox.cif.g09.slc.cpg/sg15_28_cif.got.tgz:54466.got - 2010.06.28 07:06:18.
