data_PCOD8152955
_publ_section_title
;
Structure prediction by ZEFSAII (Michael W. Deem and Ramdas Pophale) SiO2 
 PCOD8152955
Probable space group: C 2/C
;
_chemical_formula_sum "Si O2"
_cell_formula_units_Z 48
_cell_length_a 18.222686
_cell_length_b 16.840679
_cell_length_c 14.084403
_cell_angle_alpha 90.000000
_cell_angle_beta 32.636670
_cell_angle_gamma 90.000000
_cell_volume 2331.034970
_symmetry_space_group_name_H-M "C 2/C"
_symmetry_group_IT_number 15
_symmetry_cell_setting 'monoclinic'
loop_
_space_group_symop_operation_xyz
x,y,z
-x,y,1/2-z
-x,-y,-z
x,-y,1/2+z
1/2+x,1/2+y,z
1/2-x,1/2+y,1/2-z
1/2-x,1/2-y,-z
1/2+x,1/2-y,1/2+z
loop_
_atom_site_type_symbol
_atom_site_label
_atom_site_fract_x
_atom_site_fract_y
_atom_site_fract_z
Si Si1 0.274548 0.737645 0.827069
Si Si2 0.633951 0.191458 0.662144
Si Si3 0.981958 0.051828 0.113582
Si Si4 0.154183 0.370698 0.605334
Si Si5 0.714055 0.531613 0.006023
Si Si6 0.448918 0.279987 0.571296
O O1 0.340637 0.797967 0.828647
O O2 0.389861 0.721700 0.623534
O O3 0.139613 0.776183 0.928176
O O4 0.235322 0.655004 0.921557
O O5 0.500000 0.212212 0.750000
O O6 0.750000 0.250000 0.500000
O O7 0.674606 0.100284 0.601635
O O8 0.599111 0.207086 0.810496
O O9 0.872021 0.015341 0.304943
O O10 0.922552 0.137856 0.153667
O O11 0.125165 0.056781 0.012164
O O12 0.000000 0.000000 0.000000
O O13 0.214677 0.447799 0.590989
O O14 0.000000 0.390989 0.750000
#
# Coordination Sequence:
#
# PCOD8152955 Si02
#       6
#     8   8   8   8   8   8
#     4  11  24  42  69 100 128 182 216 281 331 395
#     4  12  24  43  66  95 132 177 216 273 336 398
#     4  11  23  41  66  98 133 178 225 276 332 401
#     4  11  23  45  66  94 140 171 226 275 340 395
#     4  11  24  42  66  99 135 176 221 277 341 399
#     4  12  23  41  69  97 136 169 233 267 331 410
#
# _framework density 20.591712000000001
#
# number of rings (size 3 to 8) (size 9 to 14) (size 15 to 20)
#    0.000    0.667    3.333    5.500    0.000    1.333 
#    0.000    0.833    0.000    0.000    0.000    0.000 
#    0.000    0.000    0.000    0.000    0.000    0.000 
#
# Total GULP energy -297723.784482 kJ/mol
# GULP energy per Si atom -12405.157687 kJ/mol
# Density = 2.054484 g / cm^3
# Si number density = 20.591712 Si / 1000 Ang^3
#
#
#
# Elastic Constant Matrix: (Units=GPa)
#
#
# Indices 1 2 3 4 5 6 
#
# 1 101.7167 18.9140 22.9547 -0.0004 -5.7572 0.0002
# 2 18.9140 94.0139 21.2592 -0.0005 -3.6017 0.0004
# 3 22.9547 21.2592 104.1431 -0.0010 1.9273 0.0008
# 4 -0.0004 -0.0005 -0.0010 31.9399 0.0006 0.3493
# 5 -5.7572 -3.6017 1.9273 0.0006 41.3424 -0.0004
# 6 0.0002 0.0004 0.0008 0.3493 -0.0004 33.4281
#
#
#
# Elastic Compliance Matrix: (Units=1/GPa)
#
#
# Indices 1 2 3 4 5 6 
#
# 1 0.010678 -0.001630 -0.002047 0.000000 0.001440 0.000000
# 2 -0.001630 0.011449 -0.001994 0.000000 0.000863 0.000000
# 3 -0.002047 -0.001994 0.010478 0.000000 -0.000947 0.000000
# 4 0.000000 0.000000 0.000000 0.031312 0.000000 -0.000327
# 5 0.001440 0.000863 -0.000947 0.000000 0.024508 0.000000
# 6 0.000000 0.000000 0.000000 -0.000327 0.000000 0.029918
#
#
# Mechanical properties :
#
#
# Convention : Reuss Voigt Hill
#
# Bulk Modulus (GPa) = 47.03237 47.34774 47.19005
# Shear Modulus (GPa) = 36.55684 37.12513 36.84098
#
# Velocity S-wave (km/s) = 4.21802 4.25068 4.23438
# Velocity P-wave (km/s) = 6.82732 6.86546 6.84642
#
# Compressibility (1/GPa) = 0.02126195
#
# Stress axis : x y z
#
# Youngs Moduli (GPa) = 93.65123 87.34709 95.43815
#
# Poissons Ratio (x) = 0.14238 0.19541
# Poissons Ratio (y) = 0.15265 0.19028
# Poissons Ratio (z) = 0.19175 0.17415
#
# Static dielectric constant tensor:
#      x y z
#    x 3.781040 0.000000 0.025120 
#    y 0.000000 3.644870 0.000000 
#    z 0.025120 0.000000 3.787360 
# 
# 
# High freq. dielectric constant tensor:
#      x y z
#    x 1.814780 0.000000 -0.002930 
#    y 0.000000 1.805210 0.000000 
#    z -0.002930 0.000000 1.813970 
# 
# From -- ./inp_files/163196.got.cif
#   From: 2010.06.25/outbox.cif.g09.slc.cpg/sg15_82_cif.got.tgz:163196.got - 2010.06.28 07:06:18.
