data_PCOD8152548
_publ_section_title
;
Structure prediction by ZEFSAII (Michael W. Deem and Ramdas Pophale) SiO2 
 PCOD8152548
Probable space group: C 2/C
;
_chemical_formula_sum "Si O2"
_cell_formula_units_Z 60
_cell_length_a 18.015310
_cell_length_b 8.653599
_cell_length_c 17.247291
_cell_angle_alpha 90.000000
_cell_angle_beta 89.991343
_cell_angle_gamma 90.000000
_cell_volume 2688.805527
_symmetry_space_group_name_H-M "C 2/C"
_symmetry_group_IT_number 15
_symmetry_cell_setting 'monoclinic'
loop_
_space_group_symop_operation_xyz
x,y,z
-x,y,1/2-z
-x,-y,-z
x,-y,1/2+z
1/2+x,1/2+y,z
1/2-x,1/2+y,1/2-z
1/2-x,1/2-y,-z
1/2+x,1/2-y,1/2+z
loop_
_atom_site_type_symbol
_atom_site_label
_atom_site_fract_x
_atom_site_fract_y
_atom_site_fract_z
Si Si1 0.555418 0.334497 0.554961
Si Si2 0.172986 0.003808 0.151287
Si Si3 0.580915 0.001516 0.034900
Si Si4 0.500000 0.259584 0.250000
Si Si5 0.862999 0.340033 0.821530
Si Si6 0.292465 0.859687 0.062913
Si Si7 0.200177 0.898490 0.815346
Si Si8 0.938434 0.044690 0.613018
O O1 0.603067 0.460540 0.599136
O O2 0.588392 0.166245 0.575462
O O3 0.472321 0.376122 0.586434
O O4 0.562043 0.347492 0.462429
O O5 0.180574 0.121060 0.224128
O O6 0.166521 0.832990 0.185819
O O7 0.242026 0.001928 0.092300
O O8 0.593008 0.131179 0.099210
O O9 0.500000 0.000000 0.000000
O O10 0.637988 0.045464 0.968002
O O11 0.572666 0.147099 0.243917
O O12 0.509451 0.372542 0.323551
O O13 0.788574 0.447502 0.817399
O O14 0.315014 0.758405 0.137572
O O15 0.250000 0.750000 0.000000
O O16 0.145539 0.025136 0.854478
#
# Coordination Sequence:
#
# PCOD8152548 Si02
#       8
#     8   8   8   4   8   8   8   8
#     4  11  25  41  71 107 139 185 254 298 352 447
#     4  11  23  44  70 104 140 190 246 294 361 440
#     4  12  26  45  69 108 144 188 240 307 367 431
#     4  12  22  46  76 100 138 198 240 290 366 442
#     4  11  25  45  70 102 148 184 241 305 370 428
#     4  11  23  46  71  99 151 195 228 302 381 429
#     4  11  23  41  72 104 138 191 239 296 369 433
#     4  11  22  42  74 102 140 193 243 296 360 439
#
# _framework density 22.314741999999999
#
# number of rings (size 3 to 8) (size 9 to 14) (size 15 to 20)
#    0.000    0.800    5.333    2.400    1.867    4.800 
#    0.000    2.000    0.000    0.000    0.000    0.000 
#    0.000    0.000    0.000    0.000    0.000    0.000 
#
# Total GULP energy -371668.493711 kJ/mol
# GULP energy per Si atom -12388.949790 kJ/mol
# Density = 2.226395 g / cm^3
# Si number density = 22.314742 Si / 1000 Ang^3
#
#
#
# Elastic Constant Matrix: (Units=GPa)
#
#
# Indices 1 2 3 4 5 6 
#
# 1 162.2800 33.5355 54.3078 0.0000 -27.7005 0.0000
# 2 33.5355 56.0684 27.6754 0.0000 -8.7980 0.0000
# 3 54.3078 27.6754 139.8764 0.0000 -2.6743 0.0000
# 4 0.0000 0.0000 0.0000 33.0868 0.0000 -3.7966
# 5 -27.7005 -8.7980 -2.6743 0.0000 49.0000 0.0000
# 6 0.0000 0.0000 0.0000 -3.7966 0.0000 31.2539
#
#
#
# Elastic Compliance Matrix: (Units=1/GPa)
#
#
# Indices 1 2 3 4 5 6 
#
# 1 0.008342 -0.003101 -0.002548 0.000000 0.004020 0.000000
# 2 -0.003101 0.021480 -0.003009 0.000000 0.001940 0.000000
# 3 -0.002548 -0.003009 0.008705 0.000000 -0.001506 0.000000
# 4 0.000000 0.000000 0.000000 0.030651 0.000000 0.003723
# 5 0.004020 0.001940 -0.001506 0.000000 0.022947 0.000000
# 6 0.000000 0.000000 0.000000 0.003723 0.000000 0.032448
#
#
# Mechanical properties :
#
#
# Convention : Reuss Voigt Hill
#
# Bulk Modulus (GPa) = 47.14656 65.47359 56.31008
# Shear Modulus (GPa) = 33.56627 38.84855 36.20741
#
# Velocity S-wave (km/s) = 3.88263 4.17698 4.03249
# Velocity P-wave (km/s) = 6.42446 7.25724 6.85351
#
# Compressibility (1/GPa) = 0.02121046
#
# Stress axis : x y z
#
# Youngs Moduli (GPa) = 119.87478 46.55593 114.87430
#
# Poissons Ratio (x) = 0.14436 0.29275
# Poissons Ratio (y) = 0.37171 0.34564
# Poissons Ratio (z) = 0.30550 0.14008
#
# Static dielectric constant tensor:
#      x y z
#    x 4.619920 0.000000 -0.404340 
#    y 0.000000 4.592810 0.000000 
#    z -0.404340 0.000000 4.182390 
# 
# 
# High freq. dielectric constant tensor:
#      x y z
#    x 1.899620 0.000000 -0.011490 
#    y 0.000000 1.846030 0.000000 
#    z -0.011490 0.000000 1.886590 
# 
# From -- ./inp_files/209583.got.cif
#   From: 2010.06.25/outbox.cif.g09.slc.cpg/sg15_105_cif.got.tgz:209583.got - 2010.06.28 07:06:18.
