data_PCOD8152122
_publ_section_title
;
Structure prediction by ZEFSAII (Michael W. Deem and Ramdas Pophale) SiO2 
 PCOD8152122
Probable space group: C 2/C
;
_chemical_formula_sum "Si O2"
_cell_formula_units_Z 56
_cell_length_a 14.674424
_cell_length_b 14.026438
_cell_length_c 11.598451
_cell_angle_alpha 90.000000
_cell_angle_beta 92.905229
_cell_angle_gamma 90.000000
_cell_volume 2384.239670
_symmetry_space_group_name_H-M "C 2/C"
_symmetry_group_IT_number 15
_symmetry_cell_setting 'monoclinic'
loop_
_space_group_symop_operation_xyz
x,y,z
-x,y,1/2-z
-x,-y,-z
x,-y,1/2+z
1/2+x,1/2+y,z
1/2-x,1/2+y,1/2-z
1/2-x,1/2-y,-z
1/2+x,1/2-y,1/2+z
loop_
_atom_site_type_symbol
_atom_site_label
_atom_site_fract_x
_atom_site_fract_y
_atom_site_fract_z
Si Si1 0.368416 0.183764 0.581953
Si Si2 0.298439 0.581658 0.563200
Si Si3 0.831294 0.875527 0.488215
Si Si4 0.895521 0.800799 0.254538
Si Si5 0.856668 0.460318 0.274716
Si Si6 0.490232 0.086153 0.415606
Si Si7 0.688694 0.130505 0.352488
O O1 0.274604 0.136537 0.540263
O O2 0.362690 0.299117 0.589504
O O3 0.397050 0.130068 0.703578
O O4 0.434698 0.168219 0.477354
O O5 0.346475 0.481618 0.535708
O O6 0.374698 0.632709 0.643849
O O7 0.199869 0.573543 0.619331
O O8 0.270734 0.646075 0.449928
O O9 0.884423 0.859026 0.371557
O O10 0.819280 0.715304 0.243572
O O11 0.000000 0.761738 0.250000
O O12 0.936035 0.538982 0.304263
O O13 0.787234 0.525212 0.194882
O O14 0.587961 0.131428 0.400479
O O15 0.500000 0.000000 0.500000
#
# Coordination Sequence:
#
# PCOD8152122 Si02
#       7
#     8   8   8   8   8   8   8
#     4  11  22  37  64  96 136 179 213 265 333 409
#     4  12  24  44  69  96 133 173 230 277 322 397
#     4  11  23  45  64  95 131 178 225 270 329 401
#     4  12  27  46  70  93 129 179 226 277 340 391
#     4  12  20  37  63 100 136 176 212 261 340 393
#     4  12  21  37  63  98 146 171 209 274 341 396
#     4  12  24  40  65 106 133 170 217 277 336 407
#
# _framework density 23.487572
#
# number of rings (size 3 to 8) (size 9 to 14) (size 15 to 20)
#    0.000    0.286    7.143    3.429    2.000    0.571 
#    0.000    0.000    3.143    0.000    0.000    0.000 
#    0.000    0.000    0.000    0.000    0.000    0.000 
#
# Total GULP energy -346913.981659 kJ/mol
# GULP energy per Si atom -12389.785059 kJ/mol
# Density = 2.343411 g / cm^3
# Si number density = 23.487572 Si / 1000 Ang^3
#
#
#
# Elastic Constant Matrix: (Units=GPa)
#
#
# Indices 1 2 3 4 5 6 
#
# 1 40.6897 10.7412 8.4289 0.0000 5.8373 0.0000
# 2 10.7412 125.7315 37.3965 0.0000 28.5279 0.0000
# 3 8.4289 37.3965 91.1227 0.0000 12.6778 0.0000
# 4 0.0000 0.0000 0.0000 25.5141 0.0000 4.2812
# 5 5.8373 28.5279 12.6778 0.0000 28.0220 0.0000
# 6 0.0000 0.0000 0.0000 4.2812 0.0000 29.4070
#
#
#
# Elastic Compliance Matrix: (Units=1/GPa)
#
#
# Indices 1 2 3 4 5 6 
#
# 1 0.025660 -0.000898 -0.001482 0.000000 -0.003760 0.000000
# 2 -0.000898 0.011184 -0.003147 0.000000 -0.009775 0.000000
# 3 -0.001482 -0.003147 0.012714 0.000000 -0.002240 0.000000
# 4 0.000000 0.000000 0.000000 0.040176 0.000000 -0.005849
# 5 -0.003760 -0.009775 -0.002240 0.000000 0.047435 0.000000
# 6 0.000000 0.000000 0.000000 -0.005849 0.000000 0.034857
#
#
# Mechanical properties :
#
#
# Convention : Reuss Voigt Hill
#
# Bulk Modulus (GPa) = 25.97084 41.18637 33.57860
# Shear Modulus (GPa) = 25.52141 29.98709 27.75425
#
# Velocity S-wave (km/s) = 3.29993 3.57700 3.44125
# Velocity P-wave (km/s) = 5.05971 5.88501 5.48790
#
# Compressibility (1/GPa) = 0.03850473
#
# Stress axis : x y z
#
# Youngs Moduli (GPa) = 38.97157 89.41257 78.65114
#
# Poissons Ratio (x) = 0.08031 0.11654
# Poissons Ratio (y) = 0.03500 0.24750
# Poissons Ratio (z) = 0.05775 0.28137
#
# Static dielectric constant tensor:
#      x y z
#    x 3.793900 0.000000 0.048170 
#    y 0.000000 4.266380 0.000000 
#    z 0.048170 0.000000 4.220610 
# 
# 
# High freq. dielectric constant tensor:
#      x y z
#    x 1.899790 0.000000 -0.001420 
#    y 0.000000 1.935090 0.000000 
#    z -0.001420 0.000000 1.939720 
# 
# From -- ./inp_files/97056.got.cif
#   From: 2010.06.25/outbox.cif.g09.slc.cpg/sg15_49_cif.got.tgz:97056.got - 2010.06.28 07:06:18.
