data_PCOD8152235
_publ_section_title
;
Structure prediction by ZEFSAII (Michael W. Deem and Ramdas Pophale) SiO2 
 PCOD8152235
Probable space group: C 2/C
;
_chemical_formula_sum "Si O2"
_cell_formula_units_Z 48
_cell_length_a 11.483411
_cell_length_b 17.694768
_cell_length_c 11.821768
_cell_angle_alpha 90.000000
_cell_angle_beta 67.724731
_cell_angle_gamma 90.000000
_cell_volume 2222.875988
_symmetry_space_group_name_H-M "C 2/C"
_symmetry_group_IT_number 15
_symmetry_cell_setting 'monoclinic'
loop_
_space_group_symop_operation_xyz
x,y,z
-x,y,1/2-z
-x,-y,-z
x,-y,1/2+z
1/2+x,1/2+y,z
1/2-x,1/2+y,1/2-z
1/2-x,1/2-y,-z
1/2+x,1/2-y,1/2+z
loop_
_atom_site_type_symbol
_atom_site_label
_atom_site_fract_x
_atom_site_fract_y
_atom_site_fract_z
Si Si1 0.443252 0.413060 0.657819
Si Si2 0.613175 0.184769 0.462261
Si Si3 0.274369 0.807244 0.826279
Si Si4 0.666912 0.644824 0.963591
Si Si5 0.363576 0.422609 0.255763
Si Si6 0.835956 0.654024 0.545779
O O1 0.500000 0.374905 0.750000
O O2 0.349881 0.356862 0.632007
O O3 0.564573 0.420239 0.531657
O O4 0.376761 0.491729 0.710123
O O5 0.647001 0.182340 0.317155
O O6 0.609910 0.271603 0.503987
O O7 0.710527 0.136567 0.502347
O O8 0.478517 0.146428 0.537793
O O9 0.236234 0.721657 0.864432
O O10 0.352971 0.835952 0.905058
O O11 0.693797 0.630000 0.822307
O O12 0.500000 0.392697 0.250000
O O13 0.254489 0.417951 0.392604
#
# Coordination Sequence:
#
# PCOD8152235 Si02
#       6
#     8   8   8   8   8   8
#     4  11  22  42  68  94 132 179 221 274 330 400
#     4  11  23  39  67 102 132 171 220 275 342 393
#     4  11  22  41  67  96 137 172 224 274 336 389
#     4  11  22  39  67 100 133 171 216 278 333 400
#     4  11  25  42  67  97 131 174 232 273 332 397
#     4  11  24  40  69  99 133 176 223 278 327 402
#
# _framework density 21.593647000000001
#
# number of rings (size 3 to 8) (size 9 to 14) (size 15 to 20)
#    0.000    1.000    5.000    2.000    2.333    2.000 
#    0.000    0.833    3.667    0.000    0.000    0.000 
#    0.000    0.000    0.000    0.000    0.000    0.000 
#
# Total GULP energy -297509.790524 kJ/mol
# GULP energy per Si atom -12396.241272 kJ/mol
# Density = 2.154450 g / cm^3
# Si number density = 21.593647 Si / 1000 Ang^3
#
#
#
# Elastic Constant Matrix: (Units=GPa)
#
#
# Indices 1 2 3 4 5 6 
#
# 1 124.0764 21.6182 39.2373 0.0000 -1.9412 0.0000
# 2 21.6182 52.9446 11.5271 0.0000 7.4364 0.0000
# 3 39.2373 11.5271 106.8589 0.0000 2.6718 0.0000
# 4 0.0000 0.0000 0.0000 -74.2167 0.0000 -11.0079
# 5 -1.9412 7.4364 2.6718 0.0000 34.6865 0.0000
# 6 0.0000 0.0000 0.0000 -11.0079 0.0000 24.1512
#
#
#
# Elastic Compliance Matrix: (Units=1/GPa)
#
#
# Indices 1 2 3 4 5 6 
#
# 1 0.009711 -0.003478 -0.003229 0.000000 0.001538 0.000000
# 2 -0.003478 0.021156 -0.000888 0.000000 -0.004662 0.000000
# 3 -0.003229 -0.000888 0.010660 0.000000 -0.000811 0.000000
# 4 0.000000 0.000000 0.000000 -0.012621 0.000000 -0.005752
# 5 0.001538 -0.004662 -0.000811 0.000000 0.029978 0.000000
# 6 0.000000 0.000000 0.000000 -0.005752 0.000000 0.038784
#
#
# Mechanical properties :
#
#
# Convention : Reuss Voigt Hill
#
# Bulk Modulus (GPa) = 37.97128 47.62724 42.79926
# Shear Modulus (GPa) = 41.10601 11.02403 26.06502
#
# Velocity S-wave (km/s) = 4.36778 2.26192 3.47806
# Velocity P-wave (km/s) = 6.56196 5.37827 5.99938
#
# Compressibility (1/GPa) = 0.02633569
#
# Stress axis : x y z
#
# Youngs Moduli (GPa) = 102.97931 47.26789 93.80968
#
# Poissons Ratio (x) = 0.16440 0.30290
# Poissons Ratio (y) = 0.35817 0.08335
# Poissons Ratio (z) = 0.33251 0.04200
#
# Static dielectric constant tensor:
#      x y z
#    x 3.936510 0.000000 0.177760 
#    y 0.000000 3.556760 0.000000 
#    z 0.177760 0.000000 4.091220 
# 
# 
# High freq. dielectric constant tensor:
#      x y z
#    x 1.852920 0.000000 0.009520 
#    y 0.000000 1.819360 0.000000 
#    z 0.009520 0.000000 1.861410 
# 
# From -- ./inp_files/88376.got.cif
#   From: 2010.06.25/outbox.cif.g09.slc.cpg/sg15_45_cif.got.tgz:88376.got - 2010.06.28 07:06:18.
