data_PCOD8152765
_publ_section_title
;
Structure prediction by ZEFSAII (Michael W. Deem and Ramdas Pophale) SiO2 
 PCOD8152765
Probable space group: C 2/C
;
_chemical_formula_sum "Si O2"
_cell_formula_units_Z 56
_cell_length_a 20.659386
_cell_length_b 11.033928
_cell_length_c 11.932284
_cell_angle_alpha 90.000000
_cell_angle_beta 78.895138
_cell_angle_gamma 90.000000
_cell_volume 2669.085325
_symmetry_space_group_name_H-M "C 2/C"
_symmetry_group_IT_number 15
_symmetry_cell_setting 'monoclinic'
loop_
_space_group_symop_operation_xyz
x,y,z
-x,y,1/2-z
-x,-y,-z
x,-y,1/2+z
1/2+x,1/2+y,z
1/2-x,1/2+y,1/2-z
1/2-x,1/2-y,-z
1/2+x,1/2-y,1/2+z
loop_
_atom_site_type_symbol
_atom_site_label
_atom_site_fract_x
_atom_site_fract_y
_atom_site_fract_z
Si Si1 0.224536 0.154101 0.597717
Si Si2 0.500000 0.462078 0.250000
Si Si3 0.410027 0.663994 0.182307
Si Si4 0.585058 0.697141 0.574146
Si Si5 0.563085 0.978464 0.555096
Si Si6 0.798405 0.580309 0.022222
Si Si7 0.000000 0.639425 0.750000
Si Si8 0.278579 0.234076 0.814635
O O1 0.250000 0.250000 0.500000
O O2 0.146184 0.167922 0.635090
O O3 0.256692 0.170906 0.708033
O O4 0.242920 0.022147 0.546633
O O5 0.440626 0.542911 0.223219
O O6 0.477197 0.377456 0.359990
O O7 0.459899 0.777330 0.176405
O O8 0.342456 0.683284 0.271739
O O9 0.396365 0.649737 0.055456
O O10 0.569400 0.838679 0.584002
O O11 0.629668 0.025382 0.472198
O O12 0.553404 0.055945 0.670649
O O13 0.500000 0.000000 0.500000
O O14 0.781271 0.684787 0.117442
O O15 0.797616 0.630469 0.896408
#
# Coordination Sequence:
#
# PCOD8152765 Si02
#       8
#     8   4   8   8   8   8   4   8
#     4  12  25  43  70 100 137 183 228 284 345 400
#     4  11  27  42  70 102 133 183 226 282 332 413
#     4  11  22  46  69  94 139 177 225 277 346 408
#     4  12  25  46  66 103 137 180 227 281 344 402
#     4  12  24  42  69 102 136 174 228 280 338 412
#     4  11  26  45  71 104 137 183 231 286 348 408
#     4  11  23  40  68  96 135 181 212 276 348 397
#     4  11  25  46  73 101 138 181 232 285 347 414
#
# _framework density 20.980969999999999
#
# number of rings (size 3 to 8) (size 9 to 14) (size 15 to 20)
#    0.000    0.571    5.714    1.714    2.000    3.429 
#    0.000    0.000    0.000    0.000    0.000    0.000 
#    0.000    0.000    0.000    0.000    0.000    0.000 
#
# Total GULP energy -347383.475452 kJ/mol
# GULP energy per Si atom -12406.552695 kJ/mol
# Density = 2.093322 g / cm^3
# Si number density = 20.980970 Si / 1000 Ang^3
#
#
#
# Elastic Constant Matrix: (Units=GPa)
#
#
# Indices 1 2 3 4 5 6 
#
# 1 133.6554 58.4747 39.1660 0.0000 -4.7304 0.0000
# 2 58.4747 132.2673 55.2329 0.0000 -9.7823 0.0000
# 3 39.1660 55.2329 119.9463 0.0000 -3.3112 0.0000
# 4 0.0000 0.0000 0.0000 34.4025 0.0000 -15.6346
# 5 -4.7304 -9.7823 -3.3112 0.0000 29.4578 0.0000
# 6 0.0000 0.0000 0.0000 -15.6346 0.0000 31.6230
#
#
#
# Elastic Compliance Matrix: (Units=1/GPa)
#
#
# Indices 1 2 3 4 5 6 
#
# 1 0.009474 -0.003573 -0.001444 0.000000 0.000173 0.000000
# 2 -0.003573 0.010916 -0.003787 0.000000 0.002625 0.000000
# 3 -0.001444 -0.003787 0.010544 0.000000 -0.000304 0.000000
# 4 0.000000 0.000000 0.000000 0.037491 0.000000 0.018536
# 5 0.000173 0.002625 -0.000304 0.000000 0.034812 0.000000
# 6 0.000000 0.000000 0.000000 0.018536 0.000000 0.040787
#
#
# Mechanical properties :
#
#
# Convention : Reuss Voigt Hill
#
# Bulk Modulus (GPa) = 75.03962 76.84625 75.94294
# Shear Modulus (GPa) = 30.10701 34.62969 32.36835
#
# Velocity S-wave (km/s) = 3.79221 4.06708 3.93204
# Velocity P-wave (km/s) = 7.41739 7.66557 7.54250
#
# Compressibility (1/GPa) = 0.01332629
#
# Stress axis : x y z
#
# Youngs Moduli (GPa) = 105.54953 91.61100 94.84033
#
# Poissons Ratio (x) = 0.32732 0.13691
# Poissons Ratio (y) = 0.37712 0.35919
# Poissons Ratio (z) = 0.15237 0.34696
#
# Static dielectric constant tensor:
#      x y z
#    x 3.848830 0.000000 -0.150720 
#    y 0.000000 3.936170 0.000000 
#    z -0.150720 0.000000 3.782030 
# 
# 
# High freq. dielectric constant tensor:
#      x y z
#    x 1.829320 0.000000 -0.007500 
#    y 0.000000 1.834580 0.000000 
#    z -0.007500 0.000000 1.825750 
# 
# From -- ./inp_files/111615.got.cif
#   From: 2010.06.25/outbox.cif.g09.slc.cpg/sg15_56_cif.got.tgz:111615.got - 2010.06.28 07:06:18.
