data_PCOD8152162
_publ_section_title
;
Structure prediction by ZEFSAII (Michael W. Deem and Ramdas Pophale) SiO2 
 PCOD8152162
Probable space group: C 2/C
;
_chemical_formula_sum "Si O2"
_cell_formula_units_Z 48
_cell_length_a 24.099478
_cell_length_b 15.795538
_cell_length_c 9.358749
_cell_angle_alpha 90.000000
_cell_angle_beta 42.308846
_cell_angle_gamma 90.000000
_cell_volume 2398.041390
_symmetry_space_group_name_H-M "C 2/C"
_symmetry_group_IT_number 15
_symmetry_cell_setting 'monoclinic'
loop_
_space_group_symop_operation_xyz
x,y,z
-x,y,1/2-z
-x,-y,-z
x,-y,1/2+z
1/2+x,1/2+y,z
1/2-x,1/2+y,1/2-z
1/2-x,1/2-y,-z
1/2+x,1/2-y,1/2+z
loop_
_atom_site_type_symbol
_atom_site_label
_atom_site_fract_x
_atom_site_fract_y
_atom_site_fract_z
Si Si1 0.597241 0.085665 0.579148
Si Si2 0.596819 0.721318 0.083333
Si Si3 0.092846 0.077495 0.593939
Si Si4 0.190794 0.485400 0.630375
Si Si5 0.147145 0.925888 0.669930
Si Si6 0.801893 0.833292 0.377672
O O1 0.500000 0.078516 0.750000
O O2 0.625771 0.182237 0.549962
O O3 0.643342 0.052751 0.353375
O O4 0.622129 0.027006 0.662781
O O5 0.500000 0.716628 0.250000
O O6 0.624886 0.669909 0.170070
O O7 0.635864 0.678027 0.870691
O O8 0.135239 0.061187 0.361189
O O9 0.145987 0.147158 0.578181
O O10 0.000000 0.111293 0.750000
O O11 0.089325 0.990529 0.691400
O O12 0.257491 0.555766 0.550801
O O13 0.240334 0.410120 0.456796
O O14 0.750000 0.750000 0.500000
#
# Coordination Sequence:
#
# PCOD8152162 Si02
#       6
#     8   8   8   8   8   8
#     4  11  24  42  63  86 122 164 210 260 307 368
#     4  11  23  41  63  94 129 164 202 259 319 370
#     4  11  22  39  64  96 130 169 205 251 316 384
#     4  11  22  43  62  89 119 163 212 248 316 368
#     4  11  22  38  66  95 129 160 207 258 312 383
#     4  11  22  42  66  87 129 165 206 262 310 369
#
# _framework density 20.016335000000002
#
# number of rings (size 3 to 8) (size 9 to 14) (size 15 to 20)
#    0.000    1.000    1.667    7.500    0.000    0.667 
#    3.000    0.833    0.000    0.000    0.000    0.000 
#    0.000    0.000    0.000    0.000    0.000    0.000 
#
# Total GULP energy -297700.363824 kJ/mol
# GULP energy per Si atom -12404.181826 kJ/mol
# Density = 1.997078 g / cm^3
# Si number density = 20.016335 Si / 1000 Ang^3
#
#
#
# Elastic Constant Matrix: (Units=GPa)
#
#
# Indices 1 2 3 4 5 6 
#
# 1 107.8586 65.2554 17.0162 0.0000 -1.9234 0.0000
# 2 65.2554 118.7216 14.6943 0.0000 -3.9928 0.0000
# 3 17.0162 14.6943 72.9616 0.0000 -3.8842 0.0000
# 4 0.0000 0.0000 0.0000 31.8410 0.0000 -0.4585
# 5 -1.9234 -3.9928 -3.8842 0.0000 34.5924 0.0000
# 6 0.0000 0.0000 0.0000 -0.4585 0.0000 42.9661
#
#
#
# Elastic Compliance Matrix: (Units=1/GPa)
#
#
# Indices 1 2 3 4 5 6 
#
# 1 0.014114 -0.007546 -0.001787 0.000000 -0.000287 0.000000
# 2 -0.007546 0.012695 -0.000746 0.000000 0.000962 0.000000
# 3 -0.001787 -0.000746 0.014349 0.000000 0.001426 0.000000
# 4 0.000000 0.000000 0.000000 0.031411 0.000000 0.000335
# 5 -0.000287 0.000962 0.001426 0.000000 0.029163 0.000000
# 6 0.000000 0.000000 0.000000 0.000335 0.000000 0.023278
#
#
# Mechanical properties :
#
#
# Convention : Reuss Voigt Hill
#
# Bulk Modulus (GPa) = 47.61896 54.83038 51.22467
# Shear Modulus (GPa) = 32.85857 35.38497 34.12177
#
# Velocity S-wave (km/s) = 4.05605 4.20909 4.13328
# Velocity P-wave (km/s) = 6.76587 7.14662 6.95885
#
# Compressibility (1/GPa) = 0.02100004
#
# Stress axis : x y z
#
# Youngs Moduli (GPa) = 70.85353 78.76873 69.69268
#
# Poissons Ratio (x) = 0.59439 0.12455
# Poissons Ratio (y) = 0.53466 0.05197
# Poissons Ratio (z) = 0.12662 0.05874
#
# Static dielectric constant tensor:
#      x y z
#    x 3.600470 0.000000 -0.010960 
#    y 0.000000 3.833050 0.000000 
#    z -0.010960 0.000000 3.887070 
# 
# 
# High freq. dielectric constant tensor:
#      x y z
#    x 1.782600 0.000000 -0.005490 
#    y 0.000000 1.783570 0.000000 
#    z -0.005490 0.000000 1.796610 
# 
# From -- ./inp_files/66383.got.cif
#   From: 2010.06.25/outbox.cif.g09.slc.cpg/sg15_34_cif.got.tgz:66383.got - 2010.06.28 07:06:18.
