data_PCOD8152501
_publ_section_title
;
Structure prediction by ZEFSAII (Michael W. Deem and Ramdas Pophale) SiO2 
 PCOD8152501
Probable space group: C 2/C
;
_chemical_formula_sum "Si O2"
_cell_formula_units_Z 44
_cell_length_a 16.542778
_cell_length_b 9.629418
_cell_length_c 14.444293
_cell_angle_alpha 90.000000
_cell_angle_beta 54.797963
_cell_angle_gamma 90.000000
_cell_volume 1880.151960
_symmetry_space_group_name_H-M "C 2/C"
_symmetry_group_IT_number 15
_symmetry_cell_setting 'monoclinic'
loop_
_space_group_symop_operation_xyz
x,y,z
-x,y,1/2-z
-x,-y,-z
x,-y,1/2+z
1/2+x,1/2+y,z
1/2-x,1/2+y,1/2-z
1/2-x,1/2-y,-z
1/2+x,1/2-y,1/2+z
loop_
_atom_site_type_symbol
_atom_site_label
_atom_site_fract_x
_atom_site_fract_y
_atom_site_fract_z
Si Si1 0.415430 0.709557 0.977411
Si Si2 0.025542 0.275166 0.077990
Si Si3 0.814154 0.933262 0.979348
Si Si4 0.325988 0.996005 0.084890
Si Si5 0.853372 0.441981 0.273153
Si Si6 0.000000 0.657321 0.250000
O O1 0.350256 0.577019 0.998076
O O2 0.487412 0.742422 0.845122
O O3 0.485090 0.682634 0.019986
O O4 0.342480 0.837090 0.045826
O O5 0.099839 0.180177 0.087263
O O6 0.934955 0.323218 0.201981
O O7 0.077325 0.414792 0.005586
O O8 0.770836 0.950330 0.904734
O O9 0.731983 0.875885 0.106017
O O10 0.308703 0.003126 0.206886
O O11 0.901970 0.564786 0.301346
#
# Coordination Sequence:
#
# PCOD8152501 Si02
#       6
#     8   8   8   8   8   4
#     4  11  23  43  70 103 136 181 230 284 335 418
#     4  11  23  46  67 102 145 180 227 285 341 413
#     4  12  26  42  72 106 145 173 228 295 341 397
#     4  11  22  42  69 102 137 183 237 271 334 427
#     4  11  23  43  73  99 135 191 228 274 349 403
#     4  12  20  42  76  92 130 188 234 270 348 398
#
# _framework density 23.402363999999999
#
# number of rings (size 3 to 8) (size 9 to 14) (size 15 to 20)
#    0.000    0.727    5.455    2.727    0.000    4.364 
#    0.000    6.364    0.000    0.000    0.000    0.000 
#    0.000    0.000    0.000    0.000    0.000    0.000 
#
# Total GULP energy -272924.929337 kJ/mol
# GULP energy per Si atom -12405.678606 kJ/mol
# Density = 2.334910 g / cm^3
# Si number density = 23.402364 Si / 1000 Ang^3
#
#
#
# Elastic Constant Matrix: (Units=GPa)
#
#
# Indices 1 2 3 4 5 6 
#
# 1 170.4002 47.4450 48.8532 0.0000 14.7748 0.0000
# 2 47.4450 82.5835 10.5496 0.0000 -2.6784 0.0000
# 3 48.8532 10.5496 79.0484 0.0000 4.9404 0.0000
# 4 0.0000 0.0000 0.0000 6.9227 0.0000 -8.4801
# 5 14.7748 -2.6784 4.9404 0.0000 34.3776 0.0000
# 6 0.0000 0.0000 0.0000 -8.4801 0.0000 47.4877
#
#
#
# Elastic Compliance Matrix: (Units=1/GPa)
#
#
# Indices 1 2 3 4 5 6 
#
# 1 0.008750 -0.004554 -0.004584 0.000000 -0.003457 0.000000
# 2 -0.004554 0.014739 0.000659 0.000000 0.003011 0.000000
# 3 -0.004584 0.000659 0.015408 0.000000 -0.000193 0.000000
# 4 0.000000 0.000000 0.000000 0.184900 0.000000 0.033019
# 5 -0.003457 0.003011 -0.000193 0.000000 0.030837 0.000000
# 6 0.000000 0.000000 0.000000 0.033019 0.000000 0.026954
#
#
# Mechanical properties :
#
#
# Convention : Reuss Voigt Hill
#
# Bulk Modulus (GPa) = 45.58056 60.63643 53.10849
# Shear Modulus (GPa) = 16.34746 32.76987 24.55867
#
# Velocity S-wave (km/s) = 2.64586 3.74609 3.24297
# Velocity P-wave (km/s) = 5.37152 6.68413 6.06345
#
# Compressibility (1/GPa) = 0.02193918
#
# Stress axis : x y z
#
# Youngs Moduli (GPa) = 114.28008 67.84918 64.90293
#
# Poissons Ratio (x) = 0.30897 0.29752
# Poissons Ratio (y) = 0.52040 -0.04278
# Poissons Ratio (z) = 0.52388 -0.04472
#
# Static dielectric constant tensor:
#      x y z
#    x 4.490270 0.000000 0.314060 
#    y 0.000000 4.025180 0.000000 
#    z 0.314060 0.000000 4.085630 
# 
# 
# High freq. dielectric constant tensor:
#      x y z
#    x 1.942130 0.000000 0.019580 
#    y 0.000000 1.917750 0.000000 
#    z 0.019580 0.000000 1.919920 
# 
# From -- ./inp_files/159676.got.cif
#   From: 2010.06.25/outbox.cif.g09.slc.cpg/sg15_80_cif.got.tgz:159676.got - 2010.06.28 07:06:18.
