data_PCOD8152314
_publ_section_title
;
Structure prediction by ZEFSAII (Michael W. Deem and Ramdas Pophale) SiO2 
 PCOD8152314
Probable space group: C 2/C
;
_chemical_formula_sum "Si O2"
_cell_formula_units_Z 40
_cell_length_a 11.650645
_cell_length_b 12.838010
_cell_length_c 26.504558
_cell_angle_alpha 90.000000
_cell_angle_beta 150.008150
_cell_angle_gamma 90.000000
_cell_volume 1981.669535
_symmetry_space_group_name_H-M "C 2/C"
_symmetry_group_IT_number 15
_symmetry_cell_setting 'monoclinic'
loop_
_space_group_symop_operation_xyz
x,y,z
-x,y,1/2-z
-x,-y,-z
x,-y,1/2+z
1/2+x,1/2+y,z
1/2-x,1/2+y,1/2-z
1/2-x,1/2-y,-z
1/2+x,1/2-y,1/2+z
loop_
_atom_site_type_symbol
_atom_site_label
_atom_site_fract_x
_atom_site_fract_y
_atom_site_fract_z
Si Si1 0.333641 0.403856 0.452052
Si Si2 0.080486 0.943088 0.905967
Si Si3 0.546036 0.951680 0.711299
Si Si4 0.729416 0.307514 0.867532
Si Si5 0.864714 0.360585 0.544278
O O1 0.500000 0.500000 0.500000
O O2 0.365344 0.377582 0.522984
O O3 0.371353 0.296984 0.436270
O O4 0.070745 0.434838 0.339203
O O5 0.174938 0.878583 0.894956
O O6 0.810457 0.961998 0.798003
O O7 0.195827 0.055866 0.954677
O O8 0.500000 0.907002 0.750000
O O9 0.413829 0.878036 0.621916
O O10 0.500000 0.279301 0.750000
O O11 0.897431 0.370904 0.895214
O O12 0.750000 0.250000 0.500000
#
# Coordination Sequence:
#
# PCOD8152314 Si02
#       5
#     8   8   8   8   8
#     4  11  23  40  68  95 129 172 224 278 323 391
#     4  11  24  43  65  94 135 172 216 277 336 390
#     4  11  22  40  67  95 128 167 225 273 322 389
#     4  12  24  43  67  98 134 173 219 270 341 402
#     4  11  26  44  67  97 132 177 222 270 333 402
#
# _framework density 20.184999999999999
#
# number of rings (size 3 to 8) (size 9 to 14) (size 15 to 20)
#    0.000    0.800    4.000    4.200    2.800    0.000 
#    0.000    1.000    0.000    0.000    0.000    0.000 
#    0.000    0.000    0.000    0.000    0.000    0.000 
#
# Total GULP energy -247966.407027 kJ/mol
# GULP energy per Si atom -12398.320351 kJ/mol
# Density = 2.013906 g / cm^3
# Si number density = 20.185000 Si / 1000 Ang^3
#
#
#
# Elastic Constant Matrix: (Units=GPa)
#
#
# Indices 1 2 3 4 5 6 
#
# 1 122.8598 36.2071 47.6667 -0.0002 -10.8006 -0.0004
# 2 36.2071 111.4176 58.5960 -0.0004 -7.9401 -0.0003
# 3 47.6667 58.5960 116.2731 0.0001 -2.5807 -0.0006
# 4 -0.0002 -0.0004 0.0001 21.1127 -0.0002 3.2310
# 5 -10.8006 -7.9401 -2.5807 -0.0002 46.3224 -0.0002
# 6 -0.0004 -0.0003 -0.0006 3.2310 -0.0002 28.6367
#
#
#
# Elastic Compliance Matrix: (Units=1/GPa)
#
#
# Indices 1 2 3 4 5 6 
#
# 1 0.010017 -0.001335 -0.003391 0.000000 0.001918 0.000000
# 2 -0.001335 0.012534 -0.005735 0.000000 0.001518 0.000000
# 3 -0.003391 -0.005735 0.012857 0.000000 -0.001057 0.000000
# 4 0.000000 0.000000 0.000000 0.048197 0.000000 -0.005438
# 5 0.001918 0.001518 -0.001057 0.000000 0.022236 0.000000
# 6 0.000000 0.000000 0.000000 -0.005438 0.000000 0.035534
#
#
# Mechanical properties :
#
#
# Convention : Reuss Voigt Hill
#
# Bulk Modulus (GPa) = 69.03676 70.61001 69.82338
# Shear Modulus (GPa) = 29.91744 33.08641 31.50192
#
# Velocity S-wave (km/s) = 3.85406 4.05304 3.95480
# Velocity P-wave (km/s) = 7.35400 7.54720 7.45123
#
# Compressibility (1/GPa) = 0.01448504
#
# Stress axis : x y z
#
# Youngs Moduli (GPa) = 99.82923 79.78613 77.77569
#
# Poissons Ratio (x) = 0.10652 0.26375
# Poissons Ratio (y) = 0.13328 0.44606
# Poissons Ratio (z) = 0.33854 0.45759
#
# Static dielectric constant tensor:
#      x y z
#    x 3.981890 0.000000 -0.040770 
#    y 0.000000 3.542930 0.000000 
#    z -0.040770 0.000000 3.944080 
# 
# 
# High freq. dielectric constant tensor:
#      x y z
#    x 1.805550 0.000000 -0.000960 
#    y 0.000000 1.772790 0.000000 
#    z -0.000960 0.000000 1.809190 
# 
# From -- ./inp_files/225042.got.cif
#   From: 2010.06.25/outbox.cif.g09.slc.cpg/sg15_113_cif.got.tgz:225042.got - 2010.06.28 07:06:18.
