data_PCOD8152366
_publ_section_title
;
Structure prediction by ZEFSAII (Michael W. Deem and Ramdas Pophale) SiO2 
 PCOD8152366
Probable space group: C 2/C
;
_chemical_formula_sum "Si O2"
_cell_formula_units_Z 56
_cell_length_a 9.419490
_cell_length_b 28.243683
_cell_length_c 20.758335
_cell_angle_alpha 90.000000
_cell_angle_beta 152.401482
_cell_angle_gamma 90.000000
_cell_volume 2558.458222
_symmetry_space_group_name_H-M "C 2/C"
_symmetry_group_IT_number 15
_symmetry_cell_setting 'monoclinic'
loop_
_space_group_symop_operation_xyz
x,y,z
-x,y,1/2-z
-x,-y,-z
x,-y,1/2+z
1/2+x,1/2+y,z
1/2-x,1/2+y,1/2-z
1/2-x,1/2-y,-z
1/2+x,1/2-y,1/2+z
loop_
_atom_site_type_symbol
_atom_site_label
_atom_site_fract_x
_atom_site_fract_y
_atom_site_fract_z
Si Si1 0.304012 0.122175 0.406877
Si Si2 0.625015 0.963400 0.102821
Si Si3 0.140466 0.319008 0.951503
Si Si4 0.560613 0.738153 0.704861
Si Si5 0.188119 0.858805 0.088170
Si Si6 0.790761 0.532760 0.606766
Si Si7 0.666347 0.195371 0.973465
O O1 0.482609 0.086941 0.525843
O O2 0.505073 0.132912 0.425028
O O3 0.257969 0.171680 0.426980
O O4 0.000000 0.101087 0.250000
O O5 0.486645 0.974523 0.118623
O O6 0.000000 0.962323 0.250000
O O7 0.500000 0.000000 0.000000
O O8 0.255597 0.286200 0.056050
O O9 0.411386 0.336347 0.015539
O O10 0.878010 0.286552 0.811225
O O11 0.500000 0.759338 0.750000
O O12 0.810194 0.696182 0.809411
O O13 0.500000 0.845180 0.250000
O O14 0.166584 0.914426 0.066630
O O15 0.152484 0.835391 0.004697
O O16 0.500000 0.500000 0.500000
O O17 0.000000 0.517823 0.750000
O O18 0.750000 0.250000 0.000000
#
# Coordination Sequence:
#
# PCOD8152366 Si02
#       7
#     8   8   8   8   8   8   8
#     4  12  28  47  72 110 148 193 256 303 376 444
#     4  12  28  51  85 115 154 196 247 313 387 460
#     4  11  25  41  68 100 142 194 244 312 358 437
#     4  11  22  41  63  99 140 192 254 299 369 425
#     4  11  24  43  70 106 144 190 249 295 374 450
#     4  11  26  50  79 114 149 194 247 306 381 456
#     4  12  24  42  70  97 150 197 247 308 364 441
#
# _framework density 21.888182
#
# number of rings (size 3 to 8) (size 9 to 14) (size 15 to 20)
#    0.000    0.571    4.286    3.000   10.000    0.571 
#    0.000    0.000    0.000    0.000    0.000    0.000 
#    0.000    0.000    0.000    0.000    0.000    0.000 
#
# Total GULP energy -346881.075593 kJ/mol
# GULP energy per Si atom -12388.609843 kJ/mol
# Density = 2.183836 g / cm^3
# Si number density = 21.888182 Si / 1000 Ang^3
#
#
#
# Elastic Constant Matrix: (Units=GPa)
#
#
# Indices 1 2 3 4 5 6 
#
# 1 137.5493 34.7603 63.3500 -0.0086 -4.7892 0.0114
# 2 34.7603 87.7900 51.3053 -0.0242 -2.3973 0.0019
# 3 63.3500 51.3053 121.9646 0.0574 -3.7634 -0.1251
# 4 -0.0086 -0.0242 0.0574 44.5958 -0.0108 -7.4493
# 5 -4.7892 -2.3973 -3.7634 -0.0108 35.2814 0.0206
# 6 0.0114 0.0019 -0.1251 -7.4493 0.0206 31.8702
#
#
#
# Elastic Compliance Matrix: (Units=1/GPa)
#
#
# Indices 1 2 3 4 5 6 
#
# 1 0.009668 -0.001175 -0.004504 0.000004 0.000752 -0.000021
# 2 -0.001175 0.015251 -0.005797 0.000012 0.000258 -0.000021
# 3 -0.004504 -0.005797 0.012989 -0.000012 0.000380 0.000050
# 4 0.000004 0.000012 -0.000012 0.023335 0.000004 0.005454
# 5 0.000752 0.000258 0.000380 0.000004 0.028504 -0.000016
# 6 -0.000021 -0.000021 0.000050 0.005454 -0.000016 0.032652
#
#
# Mechanical properties :
#
#
# Convention : Reuss Voigt Hill
#
# Bulk Modulus (GPa) = 66.86690 71.79280 69.32985
# Shear Modulus (GPa) = 33.25881 35.54203 34.40042
#
# Velocity S-wave (km/s) = 3.90229 4.03401 3.96870
# Velocity P-wave (km/s) = 7.13579 7.38706 7.26251
#
# Compressibility (1/GPa) = 0.01495508
#
# Stress axis : x y z
#
# Youngs Moduli (GPa) = 103.43780 65.56911 76.98877
#
# Poissons Ratio (x) = 0.07706 0.34676
# Poissons Ratio (y) = 0.12156 0.44631
# Poissons Ratio (z) = 0.46588 0.38011
#
# Static dielectric constant tensor:
#      x y z
#    x 4.074290 -0.000070 -0.550090 
#    y -0.000070 3.912830 0.001420 
#    z -0.550090 0.001420 2.560010 
# 
# 
# High freq. dielectric constant tensor:
#      x y z
#    x 1.877880 0.000000 -0.008640 
#    y 0.000000 1.859930 -0.000010 
#    z -0.008640 -0.000010 1.871040 
# 
# From -- ./inp_files/234950.got.cif
#   From: 2010.06.25/outbox.cif.g09.slc.cpg/sg15_118_cif.got.tgz:234950.got - 2010.06.28 07:06:18.
