data_PCOD8152805
_publ_section_title
;
Structure prediction by ZEFSAII (Michael W. Deem and Ramdas Pophale) SiO2 
 PCOD8152805
Probable space group: C 2/C
;
_chemical_formula_sum "Si O2"
_cell_formula_units_Z 44
_cell_length_a 10.838899
_cell_length_b 10.638538
_cell_length_c 16.656855
_cell_angle_alpha 90.000000
_cell_angle_beta 68.237623
_cell_angle_gamma 90.000000
_cell_volume 1783.813132
_symmetry_space_group_name_H-M "C 2/C"
_symmetry_group_IT_number 15
_symmetry_cell_setting 'monoclinic'
loop_
_space_group_symop_operation_xyz
x,y,z
-x,y,1/2-z
-x,-y,-z
x,-y,1/2+z
1/2+x,1/2+y,z
1/2-x,1/2+y,1/2-z
1/2-x,1/2-y,-z
1/2+x,1/2-y,1/2+z
loop_
_atom_site_type_symbol
_atom_site_label
_atom_site_fract_x
_atom_site_fract_y
_atom_site_fract_z
Si Si1 0.329929 0.531044 0.932748
Si Si2 0.498119 0.681833 0.156678
Si Si3 0.941578 0.629988 0.542637
Si Si4 0.775914 0.990630 0.631758
Si Si5 0.500000 0.894804 0.750000
Si Si6 0.554947 0.289316 0.374064
O O1 0.362072 0.386071 0.902240
O O2 0.214042 0.600733 0.912110
O O3 0.458513 0.600982 0.867790
O O4 0.304797 0.544642 0.033002
O O5 0.500000 0.705507 0.250000
O O6 0.493234 0.819900 0.115973
O O7 0.366944 0.603325 0.162077
O O8 0.000000 0.500000 0.500000
O O9 0.983344 0.735392 0.469660
O O10 0.806825 0.138798 0.640099
O O11 0.619011 0.976769 0.684929
O O12 0.427814 0.813616 0.698612
#
# Coordination Sequence:
#
# PCOD8152805 Si02
#       6
#     8   8   8   8   4   8
#     4  11  22  48  83 105 145 206 264 315 398 468
#     4  11  25  49  77 115 156 201 263 330 384 471
#     4  12  25  46  76 109 152 207 254 316 401 464
#     4  11  23  48  79 111 149 205 265 316 399 459
#     4  12  26  44  76 120 154 202 266 330 366 472
#     4  11  23  47  77 108 147 201 263 315 386 463
#
# _framework density 24.666262
#
# number of rings (size 3 to 8) (size 9 to 14) (size 15 to 20)
#    0.000    0.727    5.455    2.727    5.091    2.182 
#    8.182    0.000    4.000    0.000    0.000    0.000 
#    0.000    0.000    0.000    0.000    0.000    0.000 
#
# Total GULP energy -272742.185805 kJ/mol
# GULP energy per Si atom -12397.372082 kJ/mol
# Density = 2.461012 g / cm^3
# Si number density = 24.666262 Si / 1000 Ang^3
#
#
#
# Elastic Constant Matrix: (Units=GPa)
#
#
# Indices 1 2 3 4 5 6 
#
# 1 81.8839 75.6478 65.9420 0.0000 -3.4181 0.0000
# 2 75.6478 139.1517 54.2027 0.0000 -5.2235 0.0000
# 3 65.9420 54.2027 139.8711 0.0000 11.4947 0.0000
# 4 0.0000 0.0000 0.0000 25.6552 0.0000 0.7977
# 5 -3.4181 -5.2235 11.4947 0.0000 44.1851 0.0000
# 6 0.0000 0.0000 0.0000 0.7977 0.0000 42.4747
#
#
#
# Elastic Compliance Matrix: (Units=1/GPa)
#
#
# Indices 1 2 3 4 5 6 
#
# 1 0.034450 -0.014292 -0.011019 0.000000 0.003842 0.000000
# 2 -0.014292 0.014551 0.001071 0.000000 0.000336 0.000000
# 3 -0.011019 0.001071 0.012250 0.000000 -0.003913 0.000000
# 4 0.000000 0.000000 0.000000 0.039001 0.000000 -0.000732
# 5 0.003842 0.000336 -0.003913 0.000000 0.023987 0.000000
# 6 0.000000 0.000000 0.000000 -0.000732 0.000000 0.023557
#
#
# Mechanical properties :
#
#
# Convention : Reuss Voigt Hill
#
# Bulk Modulus (GPa) = 78.28855 83.61018 80.94937
# Shear Modulus (GPa) = 24.93365 33.47062 29.20213
#
# Velocity S-wave (km/s) = 3.18282 3.68766 3.44450
# Velocity P-wave (km/s) = 6.73165 7.21817 6.97915
#
# Compressibility (1/GPa) = 0.01277326
#
# Stress axis : x y z
#
# Youngs Moduli (GPa) = 29.02798 68.72275 81.62944
#
# Poissons Ratio (x) = 0.98217 0.89944
# Poissons Ratio (y) = 0.41486 -0.08746
# Poissons Ratio (z) = 0.31985 -0.07363
#
# Static dielectric constant tensor:
#      x y z
#    x 4.305810 0.000000 0.039080 
#    y 0.000000 4.291450 0.000000 
#    z 0.039080 0.000000 4.295660 
# 
# 
# High freq. dielectric constant tensor:
#      x y z
#    x 1.980900 0.000000 -0.001930 
#    y 0.000000 1.992540 0.000000 
#    z -0.001930 0.000000 1.979000 
# 
# From -- ./inp_files/195955.got.cif
#   From: 2010.06.25/outbox.cif.g09.slc.cpg/sg15_98_cif.got.tgz:195955.got - 2010.06.28 07:06:18.
