data_PCOD8152566
_publ_section_title
;
Structure prediction by ZEFSAII (Michael W. Deem and Ramdas Pophale) SiO2 
 PCOD8152566
Probable space group: C 2/C
;
_chemical_formula_sum "Si O2"
_cell_formula_units_Z 48
_cell_length_a 19.117198
_cell_length_b 19.168704
_cell_length_c 8.809188
_cell_angle_alpha 90.000000
_cell_angle_beta 45.341292
_cell_angle_gamma 90.000000
_cell_volume 2296.198716
_symmetry_space_group_name_H-M "C 2/C"
_symmetry_group_IT_number 15
_symmetry_cell_setting 'monoclinic'
loop_
_space_group_symop_operation_xyz
x,y,z
-x,y,1/2-z
-x,-y,-z
x,-y,1/2+z
1/2+x,1/2+y,z
1/2-x,1/2+y,1/2-z
1/2-x,1/2-y,-z
1/2+x,1/2-y,1/2+z
loop_
_atom_site_type_symbol
_atom_site_label
_atom_site_fract_x
_atom_site_fract_y
_atom_site_fract_z
Si Si1 0.181444 0.420037 0.742726
Si Si2 0.000000 0.736508 0.750000
Si Si3 0.686761 0.694237 0.303003
Si Si4 0.702927 0.066013 0.854647
Si Si5 0.818758 0.178994 0.534155
Si Si6 0.018238 0.642407 0.986021
Si Si7 0.000000 0.247636 0.750000
O O1 0.236621 0.352507 0.722253
O O2 0.214305 0.486348 0.788926
O O3 0.204302 0.431111 0.532418
O O4 0.064585 0.411209 0.944434
O O5 0.082911 0.785533 0.548148
O O6 0.942286 0.687447 0.717363
O O7 0.725962 0.772475 0.217452
O O8 0.587666 0.698948 0.554393
O O9 0.666690 0.662939 0.166885
O O10 0.799375 0.105808 0.646371
O O11 0.604764 0.099873 0.933533
O O12 0.963436 0.699169 0.175526
#
# Coordination Sequence:
#
# PCOD8152566 Si02
#       7
#     8   4   8   8   8   8   4
#     4  12  26  42  65  94 134 177 214 269 328 391
#     4  12  24  38  72 100 130 172 218 274 324 382
#     4  11  23  41  68  95 134 170 219 270 324 386
#     4  12  26  43  64  94 135 174 219 266 328 392
#     4  11  22  43  65  97 131 173 218 269 321 391
#     4  12  23  40  65  99 132 169 216 273 330 387
#     4  12  22  42  66 102 132 162 224 274 324 384
#
# _framework density 20.904112999999999
#
# number of rings (size 3 to 8) (size 9 to 14) (size 15 to 20)
#    0.000    0.333    6.667    2.500    4.667    1.333 
#    0.000    0.833    0.000    4.000    0.000    0.000 
#    0.000    0.000    0.000    0.000    0.000    0.000 
#
# Total GULP energy -297630.091315 kJ/mol
# GULP energy per Si atom -12401.253805 kJ/mol
# Density = 2.085653 g / cm^3
# Si number density = 20.904113 Si / 1000 Ang^3
#
#
#
# Elastic Constant Matrix: (Units=GPa)
#
#
# Indices 1 2 3 4 5 6 
#
# 1 65.7152 22.4165 21.1764 0.0000 16.0633 0.0000
# 2 22.4165 92.0899 31.9819 0.0000 11.5819 0.0000
# 3 21.1764 31.9819 105.2106 0.0000 -2.1229 0.0000
# 4 0.0000 0.0000 0.0000 31.0373 0.0000 5.9995
# 5 16.0633 11.5819 -2.1229 0.0000 23.6167 0.0000
# 6 0.0000 0.0000 0.0000 5.9995 0.0000 34.1683
#
#
#
# Elastic Compliance Matrix: (Units=1/GPa)
#
#
# Indices 1 2 3 4 5 6 
#
# 1 0.020329 -0.001986 -0.003754 0.000000 -0.013190 0.000000
# 2 -0.001986 0.013347 -0.003769 0.000000 -0.005534 0.000000
# 3 -0.003754 -0.003769 0.011516 0.000000 0.005437 0.000000
# 4 0.000000 0.000000 0.000000 0.033351 0.000000 -0.005856
# 5 -0.013190 -0.005534 0.005437 0.000000 0.054517 0.000000
# 6 0.000000 0.000000 0.000000 -0.005856 0.000000 0.030295
#
#
# Mechanical properties :
#
#
# Convention : Reuss Voigt Hill
#
# Bulk Modulus (GPa) = 38.20670 46.01836 42.11253
# Shear Modulus (GPa) = 26.16455 30.26052 28.21253
#
# Velocity S-wave (km/s) = 3.54170 3.80884 3.67770
# Velocity P-wave (km/s) = 5.91960 6.43466 6.18250
#
# Compressibility (1/GPa) = 0.02617342
#
# Stress axis : x y z
#
# Youngs Moduli (GPa) = 49.19201 74.92130 86.83652
#
# Poissons Ratio (x) = 0.14877 0.32600
# Poissons Ratio (y) = 0.09768 0.32732
# Poissons Ratio (z) = 0.18468 0.28240
#
# Static dielectric constant tensor:
#      x y z
#    x 3.757020 0.000000 0.255790 
#    y 0.000000 3.735210 0.000000 
#    z 0.255790 0.000000 3.962870 
# 
# 
# High freq. dielectric constant tensor:
#      x y z
#    x 1.813980 0.000000 0.013210 
#    y 0.000000 1.808120 0.000000 
#    z 0.013210 0.000000 1.828470 
# 
# From -- ./inp_files/56442.got.cif
#   From: 2010.06.25/outbox.cif.g09.slc.cpg/sg15_29_cif.got.tgz:56442.got - 2010.06.28 07:06:18.
