data_PCOD8152545
_publ_section_title
;
Structure prediction by ZEFSAII (Michael W. Deem and Ramdas Pophale) SiO2 
 PCOD8152545
Probable space group: C 2/C
;
_chemical_formula_sum "Si O2"
_cell_formula_units_Z 52
_cell_length_a 16.843848
_cell_length_b 10.855103
_cell_length_c 13.389793
_cell_angle_alpha 90.000000
_cell_angle_beta 125.480480
_cell_angle_gamma 90.000000
_cell_volume 1993.612090
_symmetry_space_group_name_H-M "C 2/C"
_symmetry_group_IT_number 15
_symmetry_cell_setting 'monoclinic'
loop_
_space_group_symop_operation_xyz
x,y,z
-x,y,1/2-z
-x,-y,-z
x,-y,1/2+z
1/2+x,1/2+y,z
1/2-x,1/2+y,1/2-z
1/2-x,1/2-y,-z
1/2+x,1/2-y,1/2+z
loop_
_atom_site_type_symbol
_atom_site_label
_atom_site_fract_x
_atom_site_fract_y
_atom_site_fract_z
Si Si1 0.833906 0.827347 0.303901
Si Si2 0.607385 0.268921 0.363289
Si Si3 0.615008 0.500714 0.986517
Si Si4 0.377599 0.815834 0.261055
Si Si5 0.000000 0.135890 0.250000
Si Si6 0.323669 0.998693 0.070697
Si Si7 0.556071 0.879749 0.508158
O O1 0.841018 0.846854 0.189471
O O2 0.878784 0.947369 0.395104
O O3 0.721821 0.799604 0.250212
O O4 0.895347 0.702846 0.370492
O O5 0.500000 0.231372 0.250000
O O6 0.606967 0.350494 0.465474
O O7 0.666582 0.145558 0.431905
O O8 0.520505 0.447961 0.861669
O O9 0.712814 0.457030 0.003167
O O10 0.398829 0.712652 0.192203
O O11 0.474196 0.795633 0.397792
O O12 0.381171 0.950623 0.211309
O O13 0.357262 0.924849 0.998727
O O14 0.500000 0.000000 0.500000
#
# Coordination Sequence:
#
# PCOD8152545 Si02
#       7
#     8   8   8   8   4   8   8
#     4  11  26  47  73 112 145 188 252 300 369 442
#     4  12  26  49  72 104 149 195 245 307 370 444
#     4  11  25  46  70 105 145 195 237 303 374 432
#     4  11  22  42  73 103 143 185 238 308 358 439
#     4  12  20  46  70 108 140 190 244 294 370 438
#     4  11  23  45  72 103 146 188 245 307 373 432
#     4  12  23  41  74 108 139 192 240 304 367 435
#
# _framework density 26.083309
#
# number of rings (size 3 to 8) (size 9 to 14) (size 15 to 20)
#    0.000    0.615    3.846    4.154    2.154    3.077 
#    8.308    0.000    0.000    0.000    0.000    0.000 
#    0.000    0.000    0.000    0.000    0.000    0.000 
#
# Total GULP energy -322263.390571 kJ/mol
# GULP energy per Si atom -12394.745791 kJ/mol
# Density = 2.602394 g / cm^3
# Si number density = 26.083309 Si / 1000 Ang^3
#
#
#
# Elastic Constant Matrix: (Units=GPa)
#
#
# Indices 1 2 3 4 5 6 
#
# 1 77.7283 24.3898 11.4527 0.0000 -12.0123 0.0000
# 2 24.3898 126.7624 28.3182 0.0000 -5.8305 0.0000
# 3 11.4527 28.3182 57.8692 0.0000 -4.3351 0.0000
# 4 0.0000 0.0000 0.0000 29.0919 0.0000 0.0523
# 5 -12.0123 -5.8305 -4.3351 0.0000 26.6847 0.0000
# 6 0.0000 0.0000 0.0000 0.0523 0.0000 39.2693
#
#
#
# Elastic Compliance Matrix: (Units=1/GPa)
#
#
# Indices 1 2 3 4 5 6 
#
# 1 0.014683 -0.002249 -0.001363 0.000000 0.005897 0.000000
# 2 -0.002249 0.009243 -0.004052 0.000000 0.000349 0.000000
# 3 -0.001363 -0.004052 0.019660 0.000000 0.001695 0.000000
# 4 0.000000 0.000000 0.000000 0.034374 0.000000 -0.000046
# 5 0.005897 0.000349 0.001695 0.000000 0.040481 0.000000
# 6 0.000000 0.000000 0.000000 -0.000046 0.000000 0.025465
#
#
# Mechanical properties :
#
#
# Convention : Reuss Voigt Hill
#
# Bulk Modulus (GPa) = 35.38950 43.40904 39.39927
# Shear Modulus (GPa) = 29.64657 32.22246 30.93452
#
# Velocity S-wave (km/s) = 3.37502 3.51859 3.44756
# Velocity P-wave (km/s) = 5.36517 5.76072 5.56646
#
# Compressibility (1/GPa) = 0.02825697
#
# Stress axis : x y z
#
# Youngs Moduli (GPa) = 68.10440 108.19330 50.86519
#
# Poissons Ratio (x) = 0.24336 0.06935
# Poissons Ratio (y) = 0.15319 0.20609
# Poissons Ratio (z) = 0.09286 0.43836
#
# Static dielectric constant tensor:
#      x y z
#    x 4.881270 0.000000 -0.024700 
#    y 0.000000 4.592760 0.000000 
#    z -0.024700 0.000000 4.532290 
# 
# 
# High freq. dielectric constant tensor:
#      x y z
#    x 2.057390 0.000000 0.010620 
#    y 0.000000 2.044230 0.000000 
#    z 0.010620 0.000000 2.036540 
# 
# From -- ./inp_files/161053.got.cif
#   From: 2010.06.25/outbox.cif.g09.slc.cpg/sg15_81_cif.got.tgz:161053.got - 2010.06.28 07:06:18.
