data_PCOD8152648
_publ_section_title
;
Structure prediction by ZEFSAII (Michael W. Deem and Ramdas Pophale) SiO2 
 PCOD8152648
Probable space group: C 2/C
;
_chemical_formula_sum "Si O2"
_cell_formula_units_Z 64
_cell_length_a 13.715678
_cell_length_b 26.066522
_cell_length_c 12.290686
_cell_angle_alpha 90.000000
_cell_angle_beta 137.216995
_cell_angle_gamma 90.000000
_cell_volume 2984.621636
_symmetry_space_group_name_H-M "C 2/C"
_symmetry_group_IT_number 15
_symmetry_cell_setting 'monoclinic'
loop_
_space_group_symop_operation_xyz
x,y,z
-x,y,1/2-z
-x,-y,-z
x,-y,1/2+z
1/2+x,1/2+y,z
1/2-x,1/2+y,1/2-z
1/2-x,1/2-y,-z
1/2+x,1/2-y,1/2+z
loop_
_atom_site_type_symbol
_atom_site_label
_atom_site_fract_x
_atom_site_fract_y
_atom_site_fract_z
Si Si1 0.560404 0.126026 0.915833
Si Si2 0.114113 0.045658 0.072833
Si Si3 0.158017 0.437454 0.922568
Si Si4 0.019034 0.140796 0.638106
Si Si5 0.271041 0.223708 0.401377
Si Si6 0.142715 0.522241 0.063329
Si Si7 0.556132 0.738756 0.036357
Si Si8 0.659352 0.846757 0.077758
O O1 0.500000 0.143551 0.750000
O O2 0.444062 0.128804 0.916803
O O3 0.691426 0.163833 0.051157
O O4 0.607923 0.066882 0.947881
O O5 0.214795 0.044978 0.050452
O O6 0.232706 0.047570 0.263356
O O7 0.024037 0.097408 0.984261
O O8 0.000000 0.000000 0.000000
O O9 0.000000 0.452779 0.750000
O O10 0.207427 0.471712 0.063679
O O11 0.153588 0.378109 0.958247
O O12 0.182846 0.151547 0.744386
O O13 0.000000 0.125765 0.750000
O O14 0.926459 0.191375 0.532886
O O15 0.250000 0.250000 0.500000
O O16 0.391430 0.252444 0.430553
O O17 0.129179 0.228136 0.212597
O O18 0.000000 0.500000 0.000000
O O19 0.617889 0.787802 0.022021
#
# Coordination Sequence:
#
# PCOD8152648 Si02
#       8
#     8   8   8   8   8   8   8   8
#     4  11  24  40  71 103 139 184 238 291 358 427
#     4  12  28  46  72 103 143 187 234 301 365 428
#     4  12  24  45  75 101 140 193 235 293 358 432
#     4  12  26  46  71 101 144 186 240 298 367 424
#     4  11  22  44  68 102 140 184 230 289 359 423
#     4  12  24  43  69 103 138 181 242 289 353 432
#     4  11  24  43  71 101 142 184 235 291 355 427
#     4  11  23  45  67 103 143 186 236 294 355 433
#
# _framework density 21.443254
#
# number of rings (size 3 to 8) (size 9 to 14) (size 15 to 20)
#    0.000    0.500    5.000    3.750    0.000    2.000 
#    0.000    0.000    0.000    0.000    0.000    0.000 
#    0.000    0.000    0.000    0.000    0.000    0.000 
#
# Total GULP energy -396557.360280 kJ/mol
# GULP energy per Si atom -12392.417509 kJ/mol
# Density = 2.139445 g / cm^3
# Si number density = 21.443254 Si / 1000 Ang^3
#
#
#
# Elastic Constant Matrix: (Units=GPa)
#
#
# Indices 1 2 3 4 5 6 
#
# 1 94.3285 40.7589 19.1129 0.0000 9.4913 0.0000
# 2 40.7589 160.8507 45.1860 0.0000 -2.4318 0.0000
# 3 19.1129 45.1860 99.5439 0.0000 -2.1452 0.0000
# 4 0.0000 0.0000 0.0000 40.8256 0.0000 -5.0803
# 5 9.4913 -2.4318 -2.1452 0.0000 35.1786 0.0000
# 6 0.0000 0.0000 0.0000 -5.0803 0.0000 29.7170
#
#
#
# Elastic Compliance Matrix: (Units=1/GPa)
#
#
# Indices 1 2 3 4 5 6 
#
# 1 0.012447 -0.002883 -0.001159 0.000000 -0.003628 0.000000
# 2 -0.002883 0.007797 -0.002961 0.000000 0.001136 0.000000
# 3 -0.001159 -0.002961 0.011630 0.000000 0.000817 0.000000
# 4 0.000000 0.000000 0.000000 0.025027 0.000000 0.004278
# 5 -0.003628 0.001136 0.000817 0.000000 0.029534 0.000000
# 6 0.000000 0.000000 0.000000 0.004278 0.000000 0.034382
#
#
# Mechanical properties :
#
#
# Convention : Reuss Voigt Hill
#
# Bulk Modulus (GPa) = 55.97020 62.75985 59.36503
# Shear Modulus (GPa) = 35.51667 37.78859 36.65263
#
# Velocity S-wave (km/s) = 4.07419 4.20248 4.13884
# Velocity P-wave (km/s) = 6.94912 7.27181 7.11230
#
# Compressibility (1/GPa) = 0.01786665
#
# Stress axis : x y z
#
# Youngs Moduli (GPa) = 80.34038 128.26242 85.98370
#
# Poissons Ratio (x) = 0.36981 0.09968
# Poissons Ratio (y) = 0.23164 0.25460
# Poissons Ratio (z) = 0.09314 0.37978
#
# Static dielectric constant tensor:
#      x y z
#    x 5.025280 0.000000 0.489170 
#    y 0.000000 4.150600 0.000000 
#    z 0.489170 0.000000 4.119180 
# 
# 
# High freq. dielectric constant tensor:
#      x y z
#    x 1.838850 0.000000 0.008690 
#    y 0.000000 1.856290 0.000000 
#    z 0.008690 0.000000 1.849840 
# 
# From -- ./inp_files/101357.got.cif
#   From: 2010.06.25/outbox.cif.g09.slc.cpg/sg15_51_cif.got.tgz:101357.got - 2010.06.28 07:06:18.
