data_PCOD8152526
_publ_section_title
;
Structure prediction by ZEFSAII (Michael W. Deem and Ramdas Pophale) SiO2 
 PCOD8152526
Probable space group: C 2/C
;
_chemical_formula_sum "Si O2"
_cell_formula_units_Z 60
_cell_length_a 8.451982
_cell_length_b 29.622814
_cell_length_c 11.568338
_cell_angle_alpha 90.000000
_cell_angle_beta 111.827731
_cell_angle_gamma 90.000000
_cell_volume 2688.728751
_symmetry_space_group_name_H-M "C 2/C"
_symmetry_group_IT_number 15
_symmetry_cell_setting 'monoclinic'
loop_
_space_group_symop_operation_xyz
x,y,z
-x,y,1/2-z
-x,-y,-z
x,-y,1/2+z
1/2+x,1/2+y,z
1/2-x,1/2+y,1/2-z
1/2-x,1/2-y,-z
1/2+x,1/2-y,1/2+z
loop_
_atom_site_type_symbol
_atom_site_label
_atom_site_fract_x
_atom_site_fract_y
_atom_site_fract_z
Si Si1 0.500000 0.232165 0.250000
Si Si2 0.892392 0.905949 0.997236
Si Si3 0.772005 0.054473 0.674112
Si Si4 0.828939 0.286886 0.261372
Si Si5 0.253734 0.379121 0.364839
Si Si6 0.377818 0.168261 0.020116
Si Si7 0.692933 0.036914 0.255690
Si Si8 0.939102 0.415856 0.988002
O O1 0.650786 0.259138 0.222973
O O2 0.398907 0.202625 0.130272
O O3 0.790468 0.861473 0.007008
O O4 0.808893 0.932900 0.869450
O O5 0.922241 0.939875 0.118219
O O6 0.075728 0.886606 0.012889
O O7 0.764967 0.101485 0.739607
O O8 0.608039 0.053230 0.543071
O O9 0.780344 0.011885 0.762064
O O10 0.793579 0.326982 0.160360
O O11 0.871588 0.303764 0.400704
O O12 0.000000 0.262619 0.250000
O O13 0.113950 0.408078 0.394480
O O14 0.534367 0.133164 0.063114
O O15 0.500000 0.033417 0.250000
O O16 0.696122 0.058606 0.128914
#
# Coordination Sequence:
#
# PCOD8152526 Si02
#       8
#     4   8   8   8   8   8   8   8
#     4  12  28  44  72 106 144 174 218 296 352 416
#     4  11  25  42  68  94 135 185 224 279 346 407
#     4  11  23  39  67  93 128 178 230 281 332 401
#     4  12  24  46  75 105 136 179 232 283 343 422
#     4  12  23  44  66  97 130 178 230 278 335 412
#     4  11  22  47  70  97 134 179 226 271 348 416
#     4  12  23  40  64  96 133 176 233 286 342 396
#     4  11  22  42  71  92 129 178 226 277 337 411
#
# _framework density 22.315377000000002
#
# number of rings (size 3 to 8) (size 9 to 14) (size 15 to 20)
#    0.000    0.533    6.667    4.000    1.867    1.600 
#    4.800    0.000    0.000    0.000    0.000    0.000 
#    0.000    0.000    0.000    0.000    0.000    0.000 
#
# Total GULP energy -371789.107936 kJ/mol
# GULP energy per Si atom -12392.970265 kJ/mol
# Density = 2.226459 g / cm^3
# Si number density = 22.315377 Si / 1000 Ang^3
#
#
#
# Elastic Constant Matrix: (Units=GPa)
#
#
# Indices 1 2 3 4 5 6 
#
# 1 93.5036 22.7730 12.7734 0.0000 3.3935 0.0000
# 2 22.7730 63.8642 18.7444 0.0000 -3.2596 0.0000
# 3 12.7734 18.7444 55.1022 0.0000 -14.3322 0.0000
# 4 0.0000 0.0000 0.0000 38.0756 0.0000 -5.3986
# 5 3.3935 -3.2596 -14.3322 0.0000 23.9142 0.0000
# 6 0.0000 0.0000 0.0000 -5.3986 0.0000 16.1239
#
#
#
# Elastic Compliance Matrix: (Units=1/GPa)
#
#
# Indices 1 2 3 4 5 6 
#
# 1 0.012088 -0.003770 -0.002487 0.000000 -0.003720 0.000000
# 2 -0.003770 0.018610 -0.005518 0.000000 -0.000235 0.000000
# 3 -0.002487 -0.005518 0.024283 0.000000 0.014154 0.000000
# 4 0.000000 0.000000 0.000000 0.027572 0.000000 0.009232
# 5 -0.003720 -0.000235 0.014154 0.000000 0.050795 0.000000
# 6 0.000000 0.000000 0.000000 0.009232 0.000000 0.065111
#
#
# Mechanical properties :
#
#
# Convention : Reuss Voigt Hill
#
# Bulk Modulus (GPa) = 31.81604 35.67241 33.74422
# Shear Modulus (GPa) = 21.50665 26.16803 23.83734
#
# Velocity S-wave (km/s) = 3.10781 3.42811 3.27188
# Velocity P-wave (km/s) = 5.21214 5.62934 5.42475
#
# Compressibility (1/GPa) = 0.03143069
#
# Stress axis : x y z
#
# Youngs Moduli (GPa) = 82.72826 53.73414 41.18070
#
# Poissons Ratio (x) = 0.20259 0.10242
# Poissons Ratio (y) = 0.31190 0.22723
# Poissons Ratio (z) = 0.20575 0.29650
#
# Static dielectric constant tensor:
#      x y z
#    x 4.392000 0.000000 0.010740 
#    y 0.000000 4.010970 0.000000 
#    z 0.010740 0.000000 3.933130 
# 
# 
# High freq. dielectric constant tensor:
#      x y z
#    x 1.885250 0.000000 -0.000310 
#    y 0.000000 1.863210 0.000000 
#    z -0.000310 0.000000 1.887410 
# 
# From -- ./inp_files/82634.got.cif
#   From: 2010.06.25/outbox.cif.g09.slc.cpg/sg15_42_cif.got.tgz:82634.got - 2010.06.28 07:06:18.
