data_PCOD8152082
_publ_section_title
;
Structure prediction by ZEFSAII (Michael W. Deem and Ramdas Pophale) SiO2 
 PCOD8152082
Probable space group: C 2/C
;
_chemical_formula_sum "Si O2"
_cell_formula_units_Z 48
_cell_length_a 10.715075
_cell_length_b 14.458080
_cell_length_c 18.195619
_cell_angle_alpha 90.000000
_cell_angle_beta 126.356532
_cell_angle_gamma 90.000000
_cell_volume 2270.146978
_symmetry_space_group_name_H-M "C 2/C"
_symmetry_group_IT_number 15
_symmetry_cell_setting 'monoclinic'
loop_
_space_group_symop_operation_xyz
x,y,z
-x,y,1/2-z
-x,-y,-z
x,-y,1/2+z
1/2+x,1/2+y,z
1/2-x,1/2+y,1/2-z
1/2-x,1/2-y,-z
1/2+x,1/2-y,1/2+z
loop_
_atom_site_type_symbol
_atom_site_label
_atom_site_fract_x
_atom_site_fract_y
_atom_site_fract_z
Si Si1 0.394734 0.280359 0.278063
Si Si2 0.914528 0.276801 0.421293
Si Si3 0.445902 0.067686 0.613089
Si Si4 0.397152 0.416500 0.934241
Si Si5 0.610180 0.135701 0.432807
Si Si6 0.247566 0.568356 0.814959
O O1 0.500000 0.323154 0.250000
O O2 0.226782 0.260698 0.184847
O O3 0.476753 0.188741 0.339577
O O4 0.376792 0.356165 0.336957
O O5 0.997199 0.175157 0.450819
O O6 0.851962 0.311977 0.478240
O O7 0.046799 0.348740 0.442376
O O8 0.603241 0.074545 0.712624
O O9 0.299941 0.082649 0.615900
O O10 0.444046 0.969587 0.570710
O O11 0.269315 0.371959 0.943857
O O12 0.315432 0.463567 0.834539
O O13 0.500000 0.500000 0.000000
#
# Coordination Sequence:
#
# PCOD8152082 Si02
#       6
#     8   8   8   8   8   8
#     4  11  22  37  66  90 119 160 205 253 307 354
#     4  11  22  38  63  94 121 156 209 253 299 361
#     4   9  20  39  62  85 121 165 199 245 306 365
#     4  11  22  36  58  85 120 161 197 250 303 357
#     4  11  22  39  61  91 125 159 208 249 303 367
#     4   9  20  38  60  84 121 161 205 244 304 371
#
# _framework density 21.144003999999999
#
# number of rings (size 3 to 8) (size 9 to 14) (size 15 to 20)
#    0.000    1.667    1.667    3.000    4.667    0.000 
#    0.000    9.167    7.333    0.000    0.000    0.000 
#    0.000    0.000    0.000    0.000    0.000    0.000 
#
# Total GULP energy -297341.026901 kJ/mol
# GULP energy per Si atom -12389.209454 kJ/mol
# Density = 2.109588 g / cm^3
# Si number density = 21.144004 Si / 1000 Ang^3
#
#
#
# Elastic Constant Matrix: (Units=GPa)
#
#
# Indices 1 2 3 4 5 6 
#
# 1 61.4204 73.2651 24.6300 0.0000 -4.8732 0.0000
# 2 73.2651 220.6400 47.0215 0.0000 -10.1539 0.0000
# 3 24.6300 47.0215 65.6262 0.0000 -6.7124 0.0000
# 4 0.0000 0.0000 0.0000 35.7479 0.0000 1.2934
# 5 -4.8732 -10.1539 -6.7124 0.0000 24.6290 0.0000
# 6 0.0000 0.0000 0.0000 1.2934 0.0000 33.8096
#
#
#
# Elastic Compliance Matrix: (Units=1/GPa)
#
#
# Indices 1 2 3 4 5 6 
#
# 1 0.028085 -0.008330 -0.004480 0.000000 0.000902 0.000000
# 2 -0.008330 0.007854 -0.002406 0.000000 0.000934 0.000000
# 3 -0.004480 -0.002406 0.018980 0.000000 0.003295 0.000000
# 4 0.000000 0.000000 0.000000 0.028012 0.000000 -0.001072
# 5 0.000902 0.000934 0.003295 0.000000 0.042064 0.000000
# 6 0.000000 0.000000 0.000000 -0.001072 0.000000 0.029618
#
#
# Mechanical properties :
#
#
# Convention : Reuss Voigt Hill
#
# Bulk Modulus (GPa) = 40.83590 70.83555 55.83572
# Shear Modulus (GPa) = 25.87889 32.35528 29.11709
#
# Velocity S-wave (km/s) = 3.50227 3.91606 3.71494
# Velocity P-wave (km/s) = 5.97576 7.34994 6.69818
#
# Compressibility (1/GPa) = 0.02448826
#
# Stress axis : x y z
#
# Youngs Moduli (GPa) = 35.60569 127.32604 52.68745
#
# Poissons Ratio (x) = 1.06058 0.23605
# Poissons Ratio (y) = 0.29658 0.12674
# Poissons Ratio (z) = 0.15952 0.30629
#
# Static dielectric constant tensor:
#      x y z
#    x 3.947900 0.000000 -0.031890 
#    y 0.000000 4.935670 0.000000 
#    z -0.031890 0.000000 3.835110 
# 
# 
# High freq. dielectric constant tensor:
#      x y z
#    x 1.807340 0.000000 0.005580 
#    y 0.000000 1.850120 0.000000 
#    z 0.005580 0.000000 1.826680 
# 
# From -- ./inp_files/237743.got.cif
#   From: 2010.06.25/outbox.cif.g09.slc.cpg/sg15_119_cif.got.tgz:237743.got - 2010.06.28 07:06:18.
