data_PCOD8152731
_publ_section_title
;
Structure prediction by ZEFSAII (Michael W. Deem and Ramdas Pophale) SiO2 
 PCOD8152731
Probable space group: C 2/C
;
_chemical_formula_sum "Si O2"
_cell_formula_units_Z 44
_cell_length_a 9.717395
_cell_length_b 19.968475
_cell_length_c 11.169700
_cell_angle_alpha 90.000000
_cell_angle_beta 73.818204
_cell_angle_gamma 90.000000
_cell_volume 2081.519107
_symmetry_space_group_name_H-M "C 2/C"
_symmetry_group_IT_number 15
_symmetry_cell_setting 'monoclinic'
loop_
_space_group_symop_operation_xyz
x,y,z
-x,y,1/2-z
-x,-y,-z
x,-y,1/2+z
1/2+x,1/2+y,z
1/2-x,1/2+y,1/2-z
1/2-x,1/2-y,-z
1/2+x,1/2-y,1/2+z
loop_
_atom_site_type_symbol
_atom_site_label
_atom_site_fract_x
_atom_site_fract_y
_atom_site_fract_z
Si Si1 0.932360 0.529233 0.895608
Si Si2 0.130359 0.004188 0.377733
Si Si3 0.889745 0.792551 0.974315
Si Si4 0.500000 0.386130 0.750000
Si Si5 0.641288 0.364927 0.275508
Si Si6 0.451494 0.825506 0.134860
O O1 0.771758 0.500204 0.926653
O O2 0.000000 0.508519 0.750000
O O3 0.946968 0.609426 0.909401
O O4 0.000000 0.500000 0.000000
O O5 0.137199 0.945263 0.277855
O O6 0.112629 0.071164 0.302878
O O7 0.000000 0.000000 0.500000
O O8 0.903745 0.839584 0.856356
O O9 0.017504 0.737057 0.961814
O O10 0.750000 0.750000 0.000000
O O11 0.868420 0.842350 0.087319
O O12 0.500000 0.334423 0.250000
O O13 0.783204 0.342571 0.169888
O O14 0.500000 0.795063 0.250000
#
# Coordination Sequence:
#
# PCOD8152731 Si02
#       6
#     8   8   8   4   8   8
#     4  11  26  45  71 101 143 187 234 291 354 421
#     4  12  25  41  68 105 142 176 231 294 353 420
#     4  12  23  45  71  98 138 185 235 279 346 426
#     4  12  26  38  74 108 132 180 240 280 350 426
#     4  12  25  43  69 100 142 183 224 296 355 407
#     4  11  22  45  70  97 134 190 230 271 356 427
#
# _framework density 21.138407999999998
#
# number of rings (size 3 to 8) (size 9 to 14) (size 15 to 20)
#    0.000    0.364    9.091    0.000    5.091    0.727 
#    0.000    2.727    0.000    0.000    0.000    0.000 
#    0.000    0.000    0.000    0.000    0.000    0.000 
#
# Total GULP energy -272625.670331 kJ/mol
# GULP energy per Si atom -12392.075924 kJ/mol
# Density = 2.109030 g / cm^3
# Si number density = 21.138408 Si / 1000 Ang^3
#
#
#
# Elastic Constant Matrix: (Units=GPa)
#
#
# Indices 1 2 3 4 5 6 
#
# 1 162.3487 47.6885 41.4664 0.0000 -11.2677 0.0000
# 2 47.6885 130.2019 55.3374 0.0000 -10.7975 0.0000
# 3 41.4664 55.3374 98.6500 0.0000 -5.1510 0.0000
# 4 0.0000 0.0000 0.0000 18.5448 0.0000 -9.6973
# 5 -11.2677 -10.7975 -5.1510 0.0000 39.3843 0.0000
# 6 0.0000 0.0000 0.0000 -9.6973 0.0000 20.4507
#
#
#
# Elastic Compliance Matrix: (Units=1/GPa)
#
#
# Indices 1 2 3 4 5 6 
#
# 1 0.007269 -0.001683 -0.002041 0.000000 0.001351 0.000000
# 2 -0.001683 0.010640 -0.005169 0.000000 0.001759 0.000000
# 3 -0.002041 -0.005169 0.013885 0.000000 -0.000185 0.000000
# 4 0.000000 0.000000 0.000000 0.071703 0.000000 0.034000
# 5 0.001351 0.001759 -0.000185 0.000000 0.026236 0.000000
# 6 0.000000 0.000000 0.000000 0.034000 0.000000 0.065020
#
#
# Mechanical properties :
#
#
# Convention : Reuss Voigt Hill
#
# Bulk Modulus (GPa) = 71.38975 75.57614 73.48294
# Shear Modulus (GPa) = 23.01959 32.12317 27.57138
#
# Velocity S-wave (km/s) = 3.30357 3.90251 3.61546
# Velocity P-wave (km/s) = 6.95682 7.49244 7.22959
#
# Compressibility (1/GPa) = 0.01400761
#
# Stress axis : x y z
#
# Youngs Moduli (GPa) = 137.57091 93.98889 72.02258
#
# Poissons Ratio (x) = 0.15818 0.14699
# Poissons Ratio (y) = 0.23152 0.37228
# Poissons Ratio (z) = 0.28076 0.48582
#
# Static dielectric constant tensor:
#      x y z
#    x 4.065410 0.000000 -0.268220 
#    y 0.000000 4.128220 0.000000 
#    z -0.268220 0.000000 3.996250 
# 
# 
# High freq. dielectric constant tensor:
#      x y z
#    x 1.826290 0.000000 -0.015620 
#    y 0.000000 1.839120 0.000000 
#    z -0.015620 0.000000 1.828750 
# 
# From -- ./inp_files/78138.got.cif
#   From: 2010.06.25/outbox.cif.g09.slc.cpg/sg15_40_cif.got.tgz:78138.got - 2010.06.28 07:06:18.
