data_PCOD8152241
_publ_section_title
;
Structure prediction by ZEFSAII (Michael W. Deem and Ramdas Pophale) SiO2 
 PCOD8152241
Probable space group: C 2/C
;
_chemical_formula_sum "Si O2"
_cell_formula_units_Z 52
_cell_length_a 13.208040
_cell_length_b 13.416623
_cell_length_c 17.550265
_cell_angle_alpha 90.000000
_cell_angle_beta 53.767832
_cell_angle_gamma 90.000000
_cell_volume 2508.643133
_symmetry_space_group_name_H-M "C 2/C"
_symmetry_group_IT_number 15
_symmetry_cell_setting 'monoclinic'
loop_
_space_group_symop_operation_xyz
x,y,z
-x,y,1/2-z
-x,-y,-z
x,-y,1/2+z
1/2+x,1/2+y,z
1/2-x,1/2+y,1/2-z
1/2-x,1/2-y,-z
1/2+x,1/2-y,1/2+z
loop_
_atom_site_type_symbol
_atom_site_label
_atom_site_fract_x
_atom_site_fract_y
_atom_site_fract_z
Si Si1 0.424266 0.080164 0.486639
Si Si2 0.074581 0.568442 0.641426
Si Si3 0.500000 0.233542 0.250000
Si Si4 0.699593 0.584083 0.866490
Si Si5 0.228304 0.146587 0.376570
Si Si6 0.025191 0.205881 0.575204
Si Si7 0.847227 0.665062 0.664315
O O1 0.505728 0.177988 0.429132
O O2 0.317693 0.117099 0.593572
O O3 0.500000 0.000000 0.500000
O O4 0.379778 0.028464 0.427716
O O5 0.202879 0.622400 0.611769
O O6 0.000000 0.531761 0.750000
O O7 0.989438 0.642921 0.629598
O O8 0.377799 0.162969 0.310417
O O9 0.497919 0.307249 0.324218
O O10 0.693448 0.465287 0.870026
O O11 0.564779 0.635493 0.936439
O O12 0.745214 0.618301 0.763828
O O13 0.167842 0.216095 0.337142
O O14 0.166621 0.175504 0.486341
#
# Coordination Sequence:
#
# PCOD8152241 Si02
#       7
#     8   8   4   8   8   8   8
#     4   9  19  35  60  91 127 160 214 261 304 374
#     4   9  19  34  62  91 119 167 218 255 307 385
#     4  12  24  40  70  92 124 174 222 266 316 382
#     4  11  22  39  67  91 128 169 213 260 330 382
#     4  11  24  41  64  94 128 164 215 266 322 386
#     4  11  24  41  62  98 134 166 208 276 329 378
#     4   9  20  38  58  92 127 157 209 271 312 373
#
# _framework density 20.728335999999999
#
# number of rings (size 3 to 8) (size 9 to 14) (size 15 to 20)
#    0.000    1.846    1.538    1.846   10.769    1.231 
#    0.000    6.923    5.077    1.846    0.000    0.000 
#    0.000    0.000    0.000    0.000    0.000    0.000 
#
# Total GULP energy -322128.305800 kJ/mol
# GULP energy per Si atom -12389.550223 kJ/mol
# Density = 2.068116 g / cm^3
# Si number density = 20.728336 Si / 1000 Ang^3
#
#
#
# Elastic Constant Matrix: (Units=GPa)
#
#
# Indices 1 2 3 4 5 6 
#
# 1 98.5370 50.8276 52.5219 0.0000 -5.5973 0.0000
# 2 50.8276 105.2480 28.2475 0.0000 -2.8014 0.0000
# 3 52.5219 28.2475 117.4922 0.0000 5.7292 0.0000
# 4 0.0000 0.0000 0.0000 18.6096 0.0000 -1.1174
# 5 -5.5973 -2.8014 5.7292 0.0000 34.7494 0.0000
# 6 0.0000 0.0000 0.0000 -1.1174 0.0000 31.8851
#
#
#
# Elastic Compliance Matrix: (Units=1/GPa)
#
#
# Indices 1 2 3 4 5 6 
#
# 1 0.016952 -0.006440 -0.006187 0.000000 0.003231 0.000000
# 2 -0.006440 0.012656 -0.000164 0.000000 0.000010 0.000000
# 3 -0.006187 -0.000164 0.011458 0.000000 -0.002899 0.000000
# 4 0.000000 0.000000 0.000000 0.053849 0.000000 0.001887
# 5 0.003231 0.000010 -0.002899 0.000000 0.029777 0.000000
# 6 0.000000 0.000000 0.000000 0.001887 0.000000 0.031429
#
#
# Mechanical properties :
#
#
# Convention : Reuss Voigt Hill
#
# Bulk Modulus (GPa) = 64.58903 64.94125 64.76514
# Shear Modulus (GPa) = 26.75747 29.69417 28.22582
#
# Velocity S-wave (km/s) = 3.59676 3.78900 3.69413
# Velocity P-wave (km/s) = 6.96249 7.10913 7.03619
#
# Compressibility (1/GPa) = 0.01548250
#
# Stress axis : x y z
#
# Youngs Moduli (GPa) = 58.99096 79.01499 87.27618
#
# Poissons Ratio (x) = 0.50885 0.53999
# Poissons Ratio (y) = 0.37990 0.01435
# Poissons Ratio (z) = 0.36498 0.01299
#
# Static dielectric constant tensor:
#      x y z
#    x 3.916270 0.000000 0.157560 
#    y 0.000000 3.815120 0.000000 
#    z 0.157560 0.000000 4.239560 
# 
# 
# High freq. dielectric constant tensor:
#      x y z
#    x 1.798250 0.000000 0.009790 
#    y 0.000000 1.802840 0.000000 
#    z 0.009790 0.000000 1.824430 
# 
# From -- ./inp_files/204982.got.cif
#   From: 2010.06.25/outbox.cif.g09.slc.cpg/sg15_103_cif.got.tgz:204982.got - 2010.06.28 07:06:18.
