data_PCOD8152717
_publ_section_title
;
Structure prediction by ZEFSAII (Michael W. Deem and Ramdas Pophale) SiO2 
 PCOD8152717
Probable space group: C 2/C
;
_chemical_formula_sum "Si O2"
_cell_formula_units_Z 48
_cell_length_a 13.892803
_cell_length_b 12.146264
_cell_length_c 19.986543
_cell_angle_alpha 90.000000
_cell_angle_beta 40.782615
_cell_angle_gamma 90.000000
_cell_volume 2202.979166
_symmetry_space_group_name_H-M "C 2/C"
_symmetry_group_IT_number 15
_symmetry_cell_setting 'monoclinic'
loop_
_space_group_symop_operation_xyz
x,y,z
-x,y,1/2-z
-x,-y,-z
x,-y,1/2+z
1/2+x,1/2+y,z
1/2-x,1/2+y,1/2-z
1/2-x,1/2-y,-z
1/2+x,1/2-y,1/2+z
loop_
_atom_site_type_symbol
_atom_site_label
_atom_site_fract_x
_atom_site_fract_y
_atom_site_fract_z
Si Si1 0.504778 0.455288 0.894680
Si Si2 0.738289 0.127407 0.320132
Si Si3 0.500000 0.064795 0.750000
Si Si4 0.500000 0.287631 0.250000
Si Si5 0.479330 0.894638 0.869515
Si Si6 0.179627 0.867551 0.388248
Si Si7 0.718206 0.451754 0.093204
O O1 0.598191 0.371801 0.798350
O O2 0.617453 0.540278 0.870754
O O3 0.393232 0.524067 0.908355
O O4 0.410423 0.381436 0.995422
O O5 0.634136 0.069496 0.320293
O O6 0.657807 0.244713 0.372479
O O7 0.738365 0.062352 0.390250
O O8 0.642526 0.133197 0.697233
O O9 0.432752 0.990999 0.844224
O O10 0.511447 0.218737 0.176079
O O11 0.642918 0.365507 0.183598
O O12 0.358804 0.887703 0.990995
#
# Coordination Sequence:
#
# PCOD8152717 Si02
#       7
#     8   8   4   4   8   8   8
#     4  11  24  48  69 100 142 176 233 283 336 413
#     4  12  26  43  70 104 137 181 224 285 346 405
#     4  11  22  45  68  98 138 181 224 285 332 408
#     4  11  24  41  74  96 132 187 220 289 344 396
#     4  11  25  43  67 101 137 177 235 278 341 408
#     4  11  26  44  75  98 136 190 224 281 347 399
#     4  12  24  45  68 101 141 178 228 288 340 406
#
# _framework density 21.788675999999999
#
# number of rings (size 3 to 8) (size 9 to 14) (size 15 to 20)
#    0.000    0.667    5.000    2.000    2.333    3.333 
#    0.000    0.000    0.000    0.000    0.000    0.000 
#    0.000    0.000    0.000    0.000    0.000    0.000 
#
# Total GULP energy -297594.331052 kJ/mol
# GULP energy per Si atom -12399.763794 kJ/mol
# Density = 2.173908 g / cm^3
# Si number density = 21.788676 Si / 1000 Ang^3
#
#
#
# Elastic Constant Matrix: (Units=GPa)
#
#
# Indices 1 2 3 4 5 6 
#
# 1 92.9423 21.9237 12.5413 0.0000 -7.3500 0.0000
# 2 21.9237 80.5991 67.3844 0.0000 6.4370 0.0000
# 3 12.5413 67.3844 134.5698 -0.0002 -1.6468 0.0001
# 4 0.0000 0.0000 -0.0002 29.3769 0.0001 -4.4670
# 5 -7.3500 6.4370 -1.6468 0.0001 34.6197 0.0000
# 6 0.0000 0.0000 0.0001 -4.4670 0.0000 15.3855
#
#
#
# Elastic Compliance Matrix: (Units=1/GPa)
#
#
# Indices 1 2 3 4 5 6 
#
# 1 0.011935 -0.004516 0.001191 0.000000 0.003430 0.000000
# 2 -0.004516 0.023768 -0.011553 0.000000 -0.005928 0.000000
# 3 0.001191 -0.011553 0.013142 0.000000 0.003026 0.000000
# 4 0.000000 0.000000 0.000000 0.035613 0.000000 0.010340
# 5 0.003430 -0.005928 0.003026 0.000000 0.030860 0.000000
# 6 0.000000 0.000000 0.000000 0.010340 0.000000 0.067998
#
#
# Mechanical properties :
#
#
# Convention : Reuss Voigt Hill
#
# Bulk Modulus (GPa) = 52.38686 56.86776 54.62731
# Shear Modulus (GPa) = 22.78575 29.62722 26.20649
#
# Velocity S-wave (km/s) = 3.23733 3.69148 3.47184
# Velocity P-wave (km/s) = 6.17002 6.65776 6.41852
#
# Compressibility (1/GPa) = 0.01908875
#
# Stress axis : x y z
#
# Youngs Moduli (GPa) = 83.78555 42.07356 76.09059
#
# Poissons Ratio (x) = 0.19002 -0.09064
# Poissons Ratio (y) = 0.37840 0.87909
# Poissons Ratio (z) = -0.09980 0.48608
#
# Static dielectric constant tensor:
#      x y z
#    x 3.910030 0.000000 0.026340 
#    y 0.000000 3.662820 0.000000 
#    z 0.026340 0.000000 4.050140 
# 
# 
# High freq. dielectric constant tensor:
#      x y z
#    x 1.865500 0.000000 -0.001060 
#    y 0.000000 1.844050 0.000000 
#    z -0.001060 0.000000 1.872910 
# 
# From -- ./inp_files/243945.got.cif
#   From: 2010.06.25/outbox.cif.g09.slc.cpg/sg15_122_cif.got.tgz:243945.got - 2010.06.28 07:06:18.
