data_PCOD8152042
_publ_section_title
;
Structure prediction by ZEFSAII (Michael W. Deem and Ramdas Pophale) SiO2 
 PCOD8152042
Probable space group: C 2/C
;
_chemical_formula_sum "Si O2"
_cell_formula_units_Z 48
_cell_length_a 27.432632
_cell_length_b 15.365165
_cell_length_c 13.906835
_cell_angle_alpha 90.000000
_cell_angle_beta 20.383016
_cell_angle_gamma 90.000000
_cell_volume 2041.640377
_symmetry_space_group_name_H-M "C 2/C"
_symmetry_group_IT_number 15
_symmetry_cell_setting 'monoclinic'
loop_
_space_group_symop_operation_xyz
x,y,z
-x,y,1/2-z
-x,-y,-z
x,-y,1/2+z
1/2+x,1/2+y,z
1/2-x,1/2+y,1/2-z
1/2-x,1/2-y,-z
1/2+x,1/2-y,1/2+z
loop_
_atom_site_type_symbol
_atom_site_label
_atom_site_fract_x
_atom_site_fract_y
_atom_site_fract_z
Si Si1 0.789542 0.845113 0.802506
Si Si2 0.050269 0.131888 0.309782
Si Si3 0.820298 0.655601 0.690926
Si Si4 0.992180 0.685275 0.874025
Si Si5 0.922921 0.414707 0.674094
Si Si6 0.779413 0.037799 0.791014
O O1 0.921383 0.853769 0.629477
O O2 0.804117 0.760984 0.704334
O O3 0.764506 0.935522 0.790776
O O4 0.650045 0.826880 0.124920
O O5 0.959334 0.212247 0.435102
O O6 0.946614 0.051771 0.483683
O O7 0.196362 0.116994 0.986136
O O8 0.809750 0.600155 0.613216
O O9 0.974084 0.642227 0.449979
O O10 0.000000 0.648543 0.750000
O O11 0.885751 0.636441 0.143042
O O12 0.000000 0.500000 0.500000
O O13 0.780680 0.441251 0.991401
#
# Coordination Sequence:
#
# PCOD8152042 Si02
#       6
#     8   8   8   8   8   8
#     4  11  22  45  71  94 135 191 225 276 352 418
#     4  11  21  46  70  97 135 185 231 280 340 417
#     4  11  23  47  70  97 140 185 232 276 348 418
#     4  11  22  41  73  99 130 185 240 274 342 417
#     4  12  24  43  67 105 139 182 225 295 342 402
#     4  12  26  40  72 108 137 175 239 288 338 412
#
# _framework density 23.510505999999999
#
# number of rings (size 3 to 8) (size 9 to 14) (size 15 to 20)
#    0.000    0.667    5.000    4.500    2.333    0.667 
#    0.000    3.333    0.000    0.000    0.000    0.000 
#    0.000    0.000    0.000    0.000    0.000    0.000 
#
# Total GULP energy -297467.701826 kJ/mol
# GULP energy per Si atom -12394.487576 kJ/mol
# Density = 2.345699 g / cm^3
# Si number density = 23.510506 Si / 1000 Ang^3
#
#
#
# Elastic Constant Matrix: (Units=GPa)
#
#
# Indices 1 2 3 4 5 6 
#
# 1 100.8305 32.0130 10.2894 -0.0003 14.0732 0.0003
# 2 32.0130 155.8756 28.9783 -0.0004 12.4218 0.0003
# 3 10.2894 28.9783 78.6858 -0.0004 2.1572 0.0001
# 4 -0.0003 -0.0004 -0.0004 24.7116 0.0001 4.0263
# 5 14.0732 12.4218 2.1572 0.0001 28.0546 -0.0003
# 6 0.0003 0.0003 0.0001 4.0263 -0.0003 35.6072
#
#
#
# Elastic Compliance Matrix: (Units=1/GPa)
#
#
# Indices 1 2 3 4 5 6 
#
# 1 0.011225 -0.001799 -0.000674 0.000000 -0.004783 0.000000
# 2 -0.001799 0.007412 -0.002434 0.000000 -0.002192 0.000000
# 3 -0.000674 -0.002434 0.013684 0.000000 0.000364 0.000000
# 4 0.000000 0.000000 0.000000 0.041226 0.000000 -0.004662
# 5 -0.004783 -0.002192 0.000364 0.000000 0.038987 0.000000
# 6 0.000000 0.000000 0.000000 -0.004662 0.000000 0.028611
#
#
# Mechanical properties :
#
#
# Convention : Reuss Voigt Hill
#
# Bulk Modulus (GPa) = 44.43332 53.10593 48.76962
# Shear Modulus (GPa) = 31.55332 35.28209 33.41771
#
# Velocity S-wave (km/s) = 3.66744 3.87808 3.77423
# Velocity P-wave (km/s) = 6.07238 6.53375 6.30729
#
# Compressibility (1/GPa) = 0.02250563
#
# Stress axis : x y z
#
# Youngs Moduli (GPa) = 89.08622 134.91472 73.08072
#
# Poissons Ratio (x) = 0.24270 0.04928
# Poissons Ratio (y) = 0.16026 0.17791
# Poissons Ratio (z) = 0.06007 0.32843
#
# Static dielectric constant tensor:
#      x y z
#    x 3.106650 0.000000 0.117210 
#    y 0.000000 4.432230 0.000000 
#    z 0.117210 0.000000 4.163290 
# 
# 
# High freq. dielectric constant tensor:
#      x y z
#    x 1.924320 0.000000 -0.009120 
#    y 0.000000 1.939280 0.000000 
#    z -0.009120 0.000000 1.906430 
# 
# From -- ./inp_files/182412.got.cif
#   From: 2010.06.25/outbox.cif.g09.slc.cpg/sg15_92_cif.got.tgz:182412.got - 2010.06.28 07:06:18.
