data_PCOD8152508
_publ_section_title
;
Structure prediction by ZEFSAII (Michael W. Deem and Ramdas Pophale) SiO2 
 PCOD8152508
Probable space group: C 2/C
;
_chemical_formula_sum "Si O2"
_cell_formula_units_Z 48
_cell_length_a 11.460917
_cell_length_b 13.733494
_cell_length_c 19.638845
_cell_angle_alpha 90.000000
_cell_angle_beta 50.190708
_cell_angle_gamma 90.000000
_cell_volume 2374.538306
_symmetry_space_group_name_H-M "C 2/C"
_symmetry_group_IT_number 15
_symmetry_cell_setting 'monoclinic'
loop_
_space_group_symop_operation_xyz
x,y,z
-x,y,1/2-z
-x,-y,-z
x,-y,1/2+z
1/2+x,1/2+y,z
1/2-x,1/2+y,1/2-z
1/2-x,1/2-y,-z
1/2+x,1/2-y,1/2+z
loop_
_atom_site_type_symbol
_atom_site_label
_atom_site_fract_x
_atom_site_fract_y
_atom_site_fract_z
Si Si1 0.368113 0.027818 0.148748
Si Si2 0.164158 0.392175 0.210991
Si Si3 0.791678 0.742473 0.383891
Si Si4 0.667957 0.469365 0.953169
Si Si5 0.632917 0.763166 0.798553
Si Si6 0.194785 0.554814 0.963757
O O1 0.313078 0.129675 0.199984
O O2 0.353750 0.947938 0.211860
O O3 0.265446 0.998845 0.121986
O O4 0.537043 0.027504 0.057027
O O5 0.214095 0.464978 0.132629
O O6 0.292092 0.309421 0.174178
O O7 0.000000 0.348099 0.250000
O O8 0.700162 0.642919 0.424931
O O9 0.809362 0.764223 0.297679
O O10 0.694788 0.828677 0.453591
O O11 0.950447 0.739202 0.365516
O O12 0.500000 0.500000 0.000000
O O13 0.680316 0.483560 0.029788
#
# Coordination Sequence:
#
# PCOD8152508 Si02
#       6
#     8   8   8   8   8   8
#     4  11  23  43  67  93 133 176 216 270 336 395
#     4  12  23  45  65  95 136 178 222 270 344 403
#     4  11  22  42  69  96 129 167 232 274 323 393
#     4  12  25  41  69 102 133 172 221 282 331 395
#     4  11  23  42  69  96 125 180 222 274 324 404
#     4  11  23  42  66  98 132 170 220 277 329 390
#
# _framework density 20.214455000000001
#
# number of rings (size 3 to 8) (size 9 to 14) (size 15 to 20)
#    0.000    0.667    6.667    1.500    2.333    0.000 
#    3.000    0.833    0.000    0.000    0.000    0.000 
#    0.000    0.000    0.000    0.000    0.000    0.000 
#
# Total GULP energy -297583.146421 kJ/mol
# GULP energy per Si atom -12399.297768 kJ/mol
# Density = 2.016845 g / cm^3
# Si number density = 20.214455 Si / 1000 Ang^3
#
#
#
# Elastic Constant Matrix: (Units=GPa)
#
#
# Indices 1 2 3 4 5 6 
#
# 1 110.2182 54.9401 24.0894 0.0000 18.2640 0.0000
# 2 54.9401 91.4049 13.5824 0.0000 -0.6975 0.0000
# 3 24.0894 13.5824 54.8079 0.0000 9.0673 0.0000
# 4 0.0000 0.0000 0.0000 19.3868 0.0000 -18.1594
# 5 18.2640 -0.6975 9.0673 0.0000 36.1368 0.0000
# 6 0.0000 0.0000 0.0000 -18.1594 0.0000 13.1509
#
#
#
# Elastic Compliance Matrix: (Units=1/GPa)
#
#
# Indices 1 2 3 4 5 6 
#
# 1 0.015371 -0.008787 -0.003407 0.000000 -0.007084 0.000000
# 2 -0.008787 0.016414 -0.001036 0.000000 0.005018 0.000000
# 3 -0.003407 -0.001036 0.020572 0.000000 -0.003460 0.000000
# 4 0.000000 0.000000 0.000000 -0.175794 0.000000 -0.242745
# 5 -0.007084 0.005018 -0.003460 0.000000 0.032218 0.000000
# 6 0.000000 0.000000 0.000000 -0.242745 0.000000 -0.259153
#
#
# Mechanical properties :
#
#
# Convention : Reuss Voigt Hill
#
# Bulk Modulus (GPa) = 38.61197 49.07274 43.84235
# Shear Modulus (GPa) = -15.85887 24.65619 4.39866
#
# Velocity S-wave (km/s) = -2.80399 3.49625 1.47673
# Velocity P-wave (km/s) = 2.94270 6.37394 4.96420
#
# Compressibility (1/GPa) = 0.02589871
#
# Stress axis : x y z
#
# Youngs Moduli (GPa) = 65.05635 60.92340 48.60995
#
# Poissons Ratio (x) = 0.53533 0.16559
# Poissons Ratio (y) = 0.57165 0.05035
# Poissons Ratio (z) = 0.22162 0.06310
#
# Static dielectric constant tensor:
#      x y z
#    x 4.233090 0.000000 0.679430 
#    y 0.000000 3.752030 0.000000 
#    z 0.679430 0.000000 4.237970 
# 
# 
# High freq. dielectric constant tensor:
#      x y z
#    x 1.794540 0.000000 0.020230 
#    y 0.000000 1.787250 0.000000 
#    z 0.020230 0.000000 1.797630 
# 
# From -- ./inp_files/196098.got.cif
#   From: 2010.06.25/outbox.cif.g09.slc.cpg/sg15_99_cif.got.tgz:196098.got - 2010.06.28 07:06:18.
