data_PCOD8152522
_publ_section_title
;
Structure prediction by ZEFSAII (Michael W. Deem and Ramdas Pophale) SiO2 
 PCOD8152522
Probable space group: C 2/C
;
_chemical_formula_sum "Si O2"
_cell_formula_units_Z 56
_cell_length_a 8.799268
_cell_length_b 11.968614
_cell_length_c 24.983571
_cell_angle_alpha 90.000000
_cell_angle_beta 104.579050
_cell_angle_gamma 90.000000
_cell_volume 2546.426290
_symmetry_space_group_name_H-M "C 2/C"
_symmetry_group_IT_number 15
_symmetry_cell_setting 'monoclinic'
loop_
_space_group_symop_operation_xyz
x,y,z
-x,y,1/2-z
-x,-y,-z
x,-y,1/2+z
1/2+x,1/2+y,z
1/2-x,1/2+y,1/2-z
1/2-x,1/2-y,-z
1/2+x,1/2-y,1/2+z
loop_
_atom_site_type_symbol
_atom_site_label
_atom_site_fract_x
_atom_site_fract_y
_atom_site_fract_z
Si Si1 0.816894 0.239397 0.156501
Si Si2 0.971159 0.960515 0.806179
Si Si3 0.344983 0.051389 0.008900
Si Si4 0.781422 0.833522 0.454109
Si Si5 0.639072 0.981543 0.302629
Si Si6 0.584240 0.372978 0.406634
Si Si7 0.524932 0.147419 0.377761
O O1 0.846041 0.287814 0.099571
O O2 0.807390 0.352032 0.191334
O O3 0.663090 0.159864 0.145143
O O4 0.962064 0.165109 0.188040
O O5 0.785505 0.946594 0.795613
O O6 0.000000 0.016139 0.750000
O O7 0.041699 0.024668 0.863882
O O8 0.409618 0.142316 0.055774
O O9 0.240080 0.959398 0.028968
O O10 0.245239 0.104564 0.951929
O O11 0.500000 0.000000 0.000000
O O12 0.750000 0.750000 0.500000
O O13 0.948719 0.838401 0.437753
O O14 0.500000 0.000660 0.250000
O O15 0.583183 0.036129 0.353400
O O16 0.601901 0.266713 0.367589
#
# Coordination Sequence:
#
# PCOD8152522 Si02
#       7
#     8   8   8   8   8   8   8
#     4  11  24  49  70 105 146 184 242 300 363 437
#     4  12  25  48  73 102 140 192 240 303 373 429
#     4  12  23  38  67 108 144 188 236 292 355 438
#     4  11  22  42  71 103 145 191 236 295 363 435
#     4  12  26  48  73 102 141 185 247 304 360 434
#     4  11  24  45  70 103 152 187 247 298 363 445
#     4  11  23  46  69 103 145 184 238 294 358 431
#
# _framework density 21.991603999999999
#
# number of rings (size 3 to 8) (size 9 to 14) (size 15 to 20)
#    0.000    0.571    4.286    5.571    0.000    2.857 
#    7.714    0.000    0.000    0.000    0.000    0.000 
#    0.000    0.000    0.000    0.000    0.000    0.000 
#
# Total GULP energy -346888.842150 kJ/mol
# GULP energy per Si atom -12388.887220 kJ/mol
# Density = 2.194155 g / cm^3
# Si number density = 21.991604 Si / 1000 Ang^3
#
#
#
# Elastic Constant Matrix: (Units=GPa)
#
#
# Indices 1 2 3 4 5 6 
#
# 1 109.9520 48.8426 52.3528 0.0000 20.4923 0.0000
# 2 48.8426 113.0582 27.2080 0.0000 7.9838 0.0000
# 3 52.3528 27.2080 123.9724 0.0000 20.3916 0.0000
# 4 0.0000 0.0000 0.0000 25.2481 0.0000 11.6172
# 5 20.4923 7.9838 20.3916 0.0000 39.3006 0.0000
# 6 0.0000 0.0000 0.0000 11.6172 0.0000 31.3906
#
#
#
# Elastic Compliance Matrix: (Units=1/GPa)
#
#
# Indices 1 2 3 4 5 6 
#
# 1 0.013958 -0.004733 -0.004173 0.000000 -0.004151 0.000000
# 2 -0.004733 0.010973 -0.000491 0.000000 0.000493 0.000000
# 3 -0.004173 -0.000491 0.010454 0.000000 -0.003149 0.000000
# 4 0.000000 0.000000 0.000000 0.047736 0.000000 -0.017666
# 5 -0.004151 0.000493 -0.003149 0.000000 0.029143 0.000000
# 6 0.000000 0.000000 0.000000 -0.017666 0.000000 0.038395
#
#
# Mechanical properties :
#
#
# Convention : Reuss Voigt Hill
#
# Bulk Modulus (GPa) = 60.26861 67.08772 63.67816
# Shear Modulus (GPa) = 28.57453 33.75980 31.16717
#
# Velocity S-wave (km/s) = 3.60854 3.92231 3.76870
# Velocity P-wave (km/s) = 6.69529 7.14738 6.92502
#
# Compressibility (1/GPa) = 0.01659239
#
# Stress axis : x y z
#
# Youngs Moduli (GPa) = 71.64497 91.13438 95.65649
#
# Poissons Ratio (x) = 0.43130 0.39915
# Poissons Ratio (y) = 0.33906 0.04695
# Poissons Ratio (z) = 0.29896 0.04473
#
# Static dielectric constant tensor:
#      x y z
#    x 3.881560 0.000000 0.007800 
#    y 0.000000 4.294350 0.000000 
#    z 0.007800 0.000000 4.320560 
# 
# 
# High freq. dielectric constant tensor:
#      x y z
#    x 1.852880 0.000000 0.013150 
#    y 0.000000 1.880030 0.000000 
#    z 0.013150 0.000000 1.876730 
# 
# From -- ./inp_files/288048.got.cif
#   From: 2010.06.25/outbox.cif.g09.slc.cpg/sg15_145_cif.got.tgz:288048.got - 2010.06.28 07:06:18.
