data_PCOD8152898
_publ_section_title
;
Structure prediction by ZEFSAII (Michael W. Deem and Ramdas Pophale) SiO2 
 PCOD8152898
Probable space group: C 2/C
;
_chemical_formula_sum "Si O2"
_cell_formula_units_Z 52
_cell_length_a 18.825117
_cell_length_b 14.621349
_cell_length_c 14.560243
_cell_angle_alpha 90.000000
_cell_angle_beta 38.210886
_cell_angle_gamma 90.000000
_cell_volume 2478.985372
_symmetry_space_group_name_H-M "C 2/C"
_symmetry_group_IT_number 15
_symmetry_cell_setting 'monoclinic'
loop_
_space_group_symop_operation_xyz
x,y,z
-x,y,1/2-z
-x,-y,-z
x,-y,1/2+z
1/2+x,1/2+y,z
1/2-x,1/2+y,1/2-z
1/2-x,1/2-y,-z
1/2+x,1/2-y,1/2+z
loop_
_atom_site_type_symbol
_atom_site_label
_atom_site_fract_x
_atom_site_fract_y
_atom_site_fract_z
Si Si1 0.628006 0.490952 0.983030
Si Si2 0.718976 0.147956 0.625233
Si Si3 0.495425 0.061190 0.918237
Si Si4 0.754713 0.359629 0.989166
Si Si5 0.288196 0.160084 0.073179
Si Si6 0.641643 0.488686 0.254184
Si Si7 0.500000 0.934116 0.750000
O O1 0.672288 0.579668 0.993573
O O2 0.687181 0.400585 0.968526
O O3 0.663131 0.512424 0.841977
O O4 0.492366 0.479236 0.133205
O O5 0.620474 0.102252 0.784103
O O6 0.669531 0.170304 0.574840
O O7 0.748055 0.241113 0.649257
O O8 0.455344 0.998593 0.875624
O O9 0.396025 0.136776 0.028614
O O10 0.500000 0.000000 0.000000
O O11 0.889766 0.375456 0.833907
O O12 0.750000 0.250000 0.000000
O O13 0.708135 0.407938 0.130723
O O14 0.185012 0.087905 0.179657
#
# Coordination Sequence:
#
# PCOD8152898 Si02
#       7
#     8   8   8   8   8   8   4
#     4  11  24  45  68  98 139 181 228 289 353 416
#     4  11  23  40  67  99 133 172 222 278 343 418
#     4  12  22  44  68  93 136 182 220 291 350 401
#     4  12  27  46  71 100 139 190 241 293 354 428
#     4  11  23  40  67  99 133 172 222 278 343 418
#     4  11  24  45  68  98 139 181 228 289 353 416
#     4  12  24  46  64  98 130 176 246 282 350 426
#
# _framework density 20.976324999999999
#
# number of rings (size 3 to 8) (size 9 to 14) (size 15 to 20)
#    0.000    0.615    6.154    1.385    4.308    1.231 
#    0.000    0.000    0.000    0.000    0.000    0.000 
#    0.000    0.000    0.000    0.000    0.000    0.000 
#
# Total GULP energy -322301.558175 kJ/mol
# GULP energy per Si atom -12396.213776 kJ/mol
# Density = 2.092858 g / cm^3
# Si number density = 20.976325 Si / 1000 Ang^3
#
#
#
# Elastic Constant Matrix: (Units=GPa)
#
#
# Indices 1 2 3 4 5 6 
#
# 1 109.2410 39.4898 38.1104 0.0000 -11.3903 0.0000
# 2 39.4898 159.9826 34.9793 0.0000 -13.1976 0.0000
# 3 38.1104 34.9793 93.9522 0.0000 -15.6923 0.0000
# 4 0.0000 0.0000 0.0000 21.4978 0.0000 1.7631
# 5 -11.3903 -13.1976 -15.6923 0.0000 46.7741 0.0000
# 6 0.0000 0.0000 0.0000 1.7631 0.0000 28.0566
#
#
#
# Elastic Compliance Matrix: (Units=1/GPa)
#
#
# Indices 1 2 3 4 5 6 
#
# 1 0.011223 -0.001884 -0.003690 0.000000 0.000963 0.000000
# 2 -0.001884 0.007178 -0.001744 0.000000 0.000981 0.000000
# 3 -0.003690 -0.001744 0.013303 0.000000 0.003072 0.000000
# 4 0.000000 0.000000 0.000000 0.046757 0.000000 -0.002938
# 5 0.000963 0.000981 0.003072 0.000000 0.022922 0.000000
# 6 0.000000 0.000000 0.000000 -0.002938 0.000000 0.035827
#
#
# Mechanical properties :
#
#
# Convention : Reuss Voigt Hill
#
# Bulk Modulus (GPa) = 58.59152 65.37054 61.98103
# Shear Modulus (GPa) = 31.73881 35.97211 33.85546
#
# Velocity S-wave (km/s) = 3.89405 4.14562 4.02180
# Velocity P-wave (km/s) = 6.94342 7.35843 7.15393
#
# Compressibility (1/GPa) = 0.01706731
#
# Stress axis : x y z
#
# Youngs Moduli (GPa) = 89.10358 139.31345 75.17028
#
# Poissons Ratio (x) = 0.26246 0.27738
# Poissons Ratio (y) = 0.16787 0.13112
# Poissons Ratio (z) = 0.32880 0.24301
#
# Static dielectric constant tensor:
#      x y z
#    x 3.802070 0.000000 0.121960 
#    y 0.000000 3.997450 0.000000 
#    z 0.121960 0.000000 3.738420 
# 
# 
# High freq. dielectric constant tensor:
#      x y z
#    x 1.830560 0.000000 -0.008440 
#    y 0.000000 1.818140 0.000000 
#    z -0.008440 0.000000 1.827750 
# 
# From -- ./inp_files/162479.got.cif
#   From: 2010.06.25/outbox.cif.g09.slc.cpg/sg15_82_cif.got.tgz:162479.got - 2010.06.28 07:06:18.
