data_PCOD8152572
_publ_section_title
;
Structure prediction by ZEFSAII (Michael W. Deem and Ramdas Pophale) SiO2 
 PCOD8152572
Probable space group: C 2/C
;
_chemical_formula_sum "Si O2"
_cell_formula_units_Z 56
_cell_length_a 28.194718
_cell_length_b 8.677981
_cell_length_c 11.392099
_cell_angle_alpha 90.000000
_cell_angle_beta 69.303838
_cell_angle_gamma 90.000000
_cell_volume 2607.468078
_symmetry_space_group_name_H-M "C 2/C"
_symmetry_group_IT_number 15
_symmetry_cell_setting 'monoclinic'
loop_
_space_group_symop_operation_xyz
x,y,z
-x,y,1/2-z
-x,-y,-z
x,-y,1/2+z
1/2+x,1/2+y,z
1/2-x,1/2+y,1/2-z
1/2-x,1/2-y,-z
1/2+x,1/2-y,1/2+z
loop_
_atom_site_type_symbol
_atom_site_label
_atom_site_fract_x
_atom_site_fract_y
_atom_site_fract_z
Si Si1 0.051197 0.184143 0.558515
Si Si2 0.305127 0.019341 0.622035
Si Si3 0.789253 0.837911 0.724296
Si Si4 0.592809 0.923268 0.338687
Si Si5 0.337494 0.203208 0.906322
Si Si6 0.938855 0.256058 0.691100
Si Si7 0.875361 0.070847 0.571645
O O1 0.065308 0.296913 0.440716
O O2 0.073336 0.251425 0.660199
O O3 0.990621 0.166169 0.616493
O O4 0.074993 0.015737 0.520168
O O5 0.263810 0.925278 0.733560
O O6 0.311587 0.947770 0.487010
O O7 0.288201 0.198664 0.630194
O O8 0.357901 0.005197 0.643316
O O9 0.797697 0.768709 0.846953
O O10 0.835535 0.948748 0.654563
O O11 0.609633 0.843702 0.201928
O O12 0.554607 0.064277 0.348805
O O13 0.349004 0.330620 0.993667
O O14 0.892145 0.179635 0.663733
#
# Coordination Sequence:
#
# PCOD8152572 Si02
#       7
#     8   8   8   8   8   8   8
#     4  11  24  45  65 101 130 168 226 270 328 391
#     4  11  22  43  66  95 132 174 218 266 323 387
#     4  11  25  43  67  99 135 173 221 270 321 395
#     4  11  23  45  68  97 133 172 220 272 325 394
#     4  11  23  43  68  96 138 172 216 270 327 388
#     4  11  25  42  72  92 132 174 219 276 327 383
#     4  12  23  45  67  99 135 174 215 270 332 389
#
# _framework density 21.476773999999999
#
# number of rings (size 3 to 8) (size 9 to 14) (size 15 to 20)
#    0.000    0.857    4.286    3.857    0.000    1.143 
#    0.000    3.571    0.000    0.000    0.000    0.000 
#    0.000    0.000    0.000    0.000    0.000    0.000 
#
# Total GULP energy -347300.223676 kJ/mol
# GULP energy per Si atom -12403.579417 kJ/mol
# Density = 2.142789 g / cm^3
# Si number density = 21.476774 Si / 1000 Ang^3
#
#
#
# Elastic Constant Matrix: (Units=GPa)
#
#
# Indices 1 2 3 4 5 6 
#
# 1 34.2040 8.9909 4.9924 0.0000 0.5255 0.0000
# 2 8.9909 104.2367 37.1363 0.0000 5.0285 0.0000
# 3 4.9924 37.1363 100.6391 0.0000 -1.5222 0.0000
# 4 0.0000 0.0000 0.0000 42.9955 0.0000 -7.9864
# 5 0.5255 5.0285 -1.5222 0.0000 30.4143 0.0000
# 6 0.0000 0.0000 0.0000 -7.9864 0.0000 38.6991
#
#
#
# Elastic Compliance Matrix: (Units=1/GPa)
#
#
# Indices 1 2 3 4 5 6 
#
# 1 0.029948 -0.002355 -0.000619 0.000000 -0.000159 0.000000
# 2 -0.002355 0.011358 -0.004105 0.000000 -0.002043 0.000000
# 3 -0.000619 -0.004105 0.011501 0.000000 0.001265 0.000000
# 4 0.000000 0.000000 0.000000 0.024185 0.000000 0.004991
# 5 -0.000159 -0.002043 0.001265 0.000000 0.033283 0.000000
# 6 0.000000 0.000000 0.000000 0.004991 0.000000 0.026870
#
#
# Mechanical properties :
#
#
# Convention : Reuss Voigt Hill
#
# Bulk Modulus (GPa) = 25.87400 37.92432 31.89916
# Shear Modulus (GPa) = 30.45305 34.95245 32.70275
#
# Velocity S-wave (km/s) = 3.76966 4.03855 3.90642
# Velocity P-wave (km/s) = 5.56962 6.28038 5.93565
#
# Compressibility (1/GPa) = 0.03864884
#
# Stress axis : x y z
#
# Youngs Moduli (GPa) = 33.39097 88.04565 86.94777
#
# Poissons Ratio (x) = 0.20734 0.05382
# Poissons Ratio (y) = 0.07863 0.35693
# Poissons Ratio (z) = 0.02067 0.36144
#
# Static dielectric constant tensor:
#      x y z
#    x 3.741300 0.000000 -0.061560 
#    y 0.000000 4.062680 0.000000 
#    z -0.061560 0.000000 4.031780 
# 
# 
# High freq. dielectric constant tensor:
#      x y z
#    x 1.835440 0.000000 -0.006070 
#    y 0.000000 1.856520 0.000000 
#    z -0.006070 0.000000 1.849690 
# 
# From -- ./inp_files/121910.got.cif
#   From: 2010.06.25/outbox.cif.g09.slc.cpg/sg15_61_cif.got.tgz:121910.got - 2010.06.28 07:06:18.
