data_PCOD8152092
_publ_section_title
;
Structure prediction by ZEFSAII (Michael W. Deem and Ramdas Pophale) SiO2 
 PCOD8152092
Probable space group: C 2/C
;
_chemical_formula_sum "Si O2"
_cell_formula_units_Z 40
_cell_length_a 19.909682
_cell_length_b 12.194336
_cell_length_c 8.570823
_cell_angle_alpha 90.000000
_cell_angle_beta 103.875184
_cell_angle_gamma 90.000000
_cell_volume 2020.151396
_symmetry_space_group_name_H-M "C 2/C"
_symmetry_group_IT_number 15
_symmetry_cell_setting 'monoclinic'
loop_
_space_group_symop_operation_xyz
x,y,z
-x,y,1/2-z
-x,-y,-z
x,-y,1/2+z
1/2+x,1/2+y,z
1/2-x,1/2+y,1/2-z
1/2-x,1/2-y,-z
1/2+x,1/2-y,1/2+z
loop_
_atom_site_type_symbol
_atom_site_label
_atom_site_fract_x
_atom_site_fract_y
_atom_site_fract_z
Si Si1 0.695075 0.087618 0.283274
Si Si2 0.052212 0.039918 0.654887
Si Si3 0.688005 0.863729 0.141798
Si Si4 0.838115 0.143100 0.234115
Si Si5 0.328614 0.304938 0.377810
O O1 0.680549 0.117040 0.453928
O O2 0.777901 0.081647 0.297581
O O3 0.660024 0.175997 0.148177
O O4 0.661842 0.970119 0.222238
O O5 0.100558 0.135585 0.621907
O O6 0.000000 0.091657 0.750000
O O7 0.095954 0.935653 0.741899
O O8 0.000000 0.000000 0.500000
O O9 0.642919 0.757474 0.167703
O O10 0.768128 0.842340 0.227568
O O11 0.808713 0.172233 0.046228
#
# Coordination Sequence:
#
# PCOD8152092 Si02
#       5
#     8   8   8   8   8
#     4  11  22  36  61  88 122 155 195 258 303 355
#     4  12  26  40  62  88 124 164 200 247 291 358
#     4  11  22  36  61  88 122 155 195 257 305 353
#     4  11  22  38  59  88 121 156 204 245 303 356
#     4  11  22  38  59  88 121 156 204 244 305 355
#
# _framework density 19.800497
#
# number of rings (size 3 to 8) (size 9 to 14) (size 15 to 20)
#    0.000    0.800    4.000    7.200    5.600    0.000 
#    0.000    0.000    0.000    2.400    0.000    0.000 
#    0.000    0.000    0.000    0.000    0.000    0.000 
#
# Total GULP energy -247962.114002 kJ/mol
# GULP energy per Si atom -12398.105700 kJ/mol
# Density = 1.975543 g / cm^3
# Si number density = 19.800497 Si / 1000 Ang^3
#
#
#
# Elastic Constant Matrix: (Units=GPa)
#
#
# Indices 1 2 3 4 5 6 
#
# 1 57.0354 13.1739 -0.3358 0.0000 -3.8080 0.0000
# 2 13.1739 105.8527 -7.8112 0.0000 -4.0745 0.0000
# 3 -0.3358 -7.8112 78.2366 0.0000 -15.6606 0.0000
# 4 0.0000 0.0000 0.0000 33.9686 0.0000 -8.3786
# 5 -3.8080 -4.0745 -15.6606 0.0000 33.8308 0.0000
# 6 0.0000 0.0000 0.0000 -8.3786 0.0000 13.7808
#
#
#
# Elastic Compliance Matrix: (Units=1/GPa)
#
#
# Indices 1 2 3 4 5 6 
#
# 1 0.018162 -0.002170 0.000241 0.000000 0.001894 0.000000
# 2 -0.002170 0.009871 0.001284 0.000000 0.001539 0.000000
# 3 0.000241 0.001284 0.014270 0.000000 0.006787 0.000000
# 4 0.000000 0.000000 0.000000 0.034633 0.000000 0.021056
# 5 0.001894 0.001539 0.006787 0.000000 0.033099 0.000000
# 6 0.000000 0.000000 0.000000 0.021056 0.000000 0.085367
#
#
# Mechanical properties :
#
#
# Convention : Reuss Voigt Hill
#
# Bulk Modulus (GPa) = 24.38247 27.90872 26.14560
# Shear Modulus (GPa) = 23.76850 32.05588 27.91219
#
# Velocity S-wave (km/s) = 3.46844 4.02797 3.75863
# Velocity P-wave (km/s) = 5.32737 5.97983 5.66300
#
# Compressibility (1/GPa) = 0.04101307
#
# Stress axis : x y z
#
# Youngs Moduli (GPa) = 55.06000 101.30542 70.07895
#
# Poissons Ratio (x) = 0.21980 -0.01685
# Poissons Ratio (y) = 0.11946 -0.09000
# Poissons Ratio (z) = -0.01324 -0.13011
#
# Static dielectric constant tensor:
#      x y z
#    x 3.349080 0.000000 -0.147790 
#    y 0.000000 3.927170 0.000000 
#    z -0.147790 0.000000 3.686790 
# 
# 
# High freq. dielectric constant tensor:
#      x y z
#    x 1.726470 0.000000 -0.018590 
#    y 0.000000 1.789730 0.000000 
#    z -0.018590 0.000000 1.787820 
# 
# From -- ./inp_files/54064.got.cif
#   From: 2010.06.25/outbox.cif.g09.slc.cpg/sg15_28_cif.got.tgz:54064.got - 2010.06.28 07:06:18.
