data_PCOD8152967
_publ_section_title
;
Structure prediction by ZEFSAII (Michael W. Deem and Ramdas Pophale) SiO2 
 PCOD8152967
Probable space group: C 2/C
;
_chemical_formula_sum "Si O2"
_cell_formula_units_Z 56
_cell_length_a 26.677593
_cell_length_b 5.388362
_cell_length_c 17.755232
_cell_angle_alpha 90.000000
_cell_angle_beta 69.323058
_cell_angle_gamma 90.000000
_cell_volume 2387.885889
_symmetry_space_group_name_H-M "C 2/C"
_symmetry_group_IT_number 15
_symmetry_cell_setting 'monoclinic'
loop_
_space_group_symop_operation_xyz
x,y,z
-x,y,1/2-z
-x,-y,-z
x,-y,1/2+z
1/2+x,1/2+y,z
1/2-x,1/2+y,1/2-z
1/2-x,1/2-y,-z
1/2+x,1/2-y,1/2+z
loop_
_atom_site_type_symbol
_atom_site_label
_atom_site_fract_x
_atom_site_fract_y
_atom_site_fract_z
Si Si1 0.758715 0.150349 0.199088
Si Si2 0.166171 0.380017 0.631126
Si Si3 0.871162 0.018964 0.089606
Si Si4 0.035757 0.672488 0.931097
Si Si5 0.017373 0.048288 0.164956
Si Si6 0.637840 0.600779 0.069530
Si Si7 0.420219 0.206354 0.198014
O O1 0.743213 0.410471 0.245507
O O2 0.719562 0.094256 0.151152
O O3 0.818785 0.179827 0.136166
O O4 0.158895 0.640837 0.591899
O O5 0.114624 0.336703 0.710166
O O6 0.173964 0.140672 0.571944
O O7 0.921802 0.189025 0.038056
O O8 0.888264 0.876993 0.155956
O O9 0.860826 0.851527 0.021285
O O10 0.071648 0.553099 0.847094
O O11 0.993163 0.841842 0.911559
O O12 0.000000 0.500000 0.000000
O O13 0.080817 0.015190 0.134031
O O14 0.000000 0.203563 0.250000
O O15 0.979260 0.804204 0.189819
#
# Coordination Sequence:
#
# PCOD8152967 Si02
#       7
#     8   8   8   8   8   8   8
#     4  12  26  49  83 108 140 195 255 312 370 435
#     4  12  27  47  74 108 147 190 252 302 367 450
#     4  11  27  46  73 109 147 195 249 313 371 439
#     4  11  24  42  72 103 146 193 255 296 368 453
#     4  11  23  41  68 104 145 197 242 302 371 436
#     4  12  28  46  70 110 155 190 237 310 381 435
#     4  11  23  44  71 103 139 196 255 297 358 455
#
# _framework density 23.451706999999999
#
# number of rings (size 3 to 8) (size 9 to 14) (size 15 to 20)
#    0.000    0.571    2.857    4.286    8.000    4.000 
#    0.000    0.000    0.000    0.000    0.000    0.000 
#    0.000    0.000    0.000    0.000    0.000    0.000 
#
# Total GULP energy -347018.019581 kJ/mol
# GULP energy per Si atom -12393.500699 kJ/mol
# Density = 2.339833 g / cm^3
# Si number density = 23.451707 Si / 1000 Ang^3
#
#
#
# Elastic Constant Matrix: (Units=GPa)
#
#
# Indices 1 2 3 4 5 6 
#
# 1 122.5056 35.4506 23.6527 0.0000 20.3074 0.0000
# 2 35.4506 128.3747 29.3929 0.0003 15.8041 0.0000
# 3 23.6527 29.3929 89.5930 0.0000 15.9526 0.0000
# 4 0.0000 0.0003 0.0000 30.0016 0.0000 1.1322
# 5 20.3074 15.8041 15.9526 0.0000 30.1337 0.0000
# 6 0.0000 0.0000 0.0000 1.1322 0.0000 14.8039
#
#
#
# Elastic Compliance Matrix: (Units=1/GPa)
#
#
# Indices 1 2 3 4 5 6 
#
# 1 0.009732 -0.001822 -0.001075 0.000000 -0.005034 0.000000
# 2 -0.001822 0.009064 -0.002059 0.000000 -0.002436 0.000000
# 3 -0.001075 -0.002059 0.013028 0.000000 -0.005092 0.000000
# 4 0.000000 0.000000 0.000000 0.033428 0.000000 -0.002557
# 5 -0.005034 -0.002436 -0.005092 0.000000 0.040551 0.000000
# 6 0.000000 0.000000 0.000000 -0.002557 0.000000 0.067745
#
#
# Mechanical properties :
#
#
# Convention : Reuss Voigt Hill
#
# Bulk Modulus (GPa) = 45.63706 57.49619 51.56663
# Shear Modulus (GPa) = 26.21031 31.78629 28.99830
#
# Velocity S-wave (km/s) = 3.34672 3.68556 3.52022
# Velocity P-wave (km/s) = 5.86825 6.53309 6.20957
#
# Compressibility (1/GPa) = 0.02191201
#
# Stress axis : x y z
#
# Youngs Moduli (GPa) = 102.75273 110.32567 76.75963
#
# Poissons Ratio (x) = 0.20097 0.08255
# Poissons Ratio (y) = 0.18717 0.15805
# Poissons Ratio (z) = 0.11050 0.22716
#
# Static dielectric constant tensor:
#      x y z
#    x 4.609890 0.000000 0.327080 
#    y 0.000000 4.616390 0.000000 
#    z 0.327080 0.000000 4.453120 
# 
# 
# High freq. dielectric constant tensor:
#      x y z
#    x 1.945150 0.000000 0.012070 
#    y 0.000000 1.918790 0.000000 
#    z 0.012070 0.000000 1.939630 
# 
# From -- ./inp_files/221230.got.cif
#   From: 2010.06.25/outbox.cif.g09.slc.cpg/sg15_111_cif.got.tgz:221230.got - 2010.06.28 07:06:18.
