data_PCOD8152561
_publ_section_title
;
Structure prediction by ZEFSAII (Michael W. Deem and Ramdas Pophale) SiO2 
 PCOD8152561
Probable space group: C 2/C
;
_chemical_formula_sum "Si O2"
_cell_formula_units_Z 64
_cell_length_a 18.731437
_cell_length_b 14.157259
_cell_length_c 15.073623
_cell_angle_alpha 90.000000
_cell_angle_beta 128.638755
_cell_angle_gamma 90.000000
_cell_volume 3122.292710
_symmetry_space_group_name_H-M "C 2/C"
_symmetry_group_IT_number 15
_symmetry_cell_setting 'monoclinic'
loop_
_space_group_symop_operation_xyz
x,y,z
-x,y,1/2-z
-x,-y,-z
x,-y,1/2+z
1/2+x,1/2+y,z
1/2-x,1/2+y,1/2-z
1/2-x,1/2-y,-z
1/2+x,1/2-y,1/2+z
loop_
_atom_site_type_symbol
_atom_site_label
_atom_site_fract_x
_atom_site_fract_y
_atom_site_fract_z
Si Si1 0.335942 0.146919 0.681398
Si Si2 0.081315 0.568263 0.585688
Si Si3 0.779026 0.027320 0.692557
Si Si4 0.998109 0.244996 0.999497
Si Si5 0.296852 0.273130 0.275264
Si Si6 0.696968 0.471374 0.986269
Si Si7 0.927732 0.801035 0.628448
Si Si8 0.837927 0.889328 0.889745
O O1 0.408872 0.095966 0.802598
O O2 0.256303 0.197915 0.676635
O O3 0.297870 0.061286 0.592414
O O4 0.373641 0.224654 0.644234
O O5 0.170565 0.514765 0.619509
O O6 0.061017 0.666525 0.518835
O O7 0.000000 0.500000 0.500000
O O8 0.800625 0.138180 0.712307
O O9 0.811526 0.988258 0.624313
O O10 0.831976 0.970394 0.810309
O O11 0.059437 0.152345 0.030491
O O12 0.978632 0.253448 0.089124
O O13 0.902450 0.251876 0.873691
O O14 0.242768 0.186683 0.187939
O O15 0.671815 0.564961 0.020904
O O16 0.632262 0.383402 0.961038
O O17 0.000000 0.850335 0.750000
#
# Coordination Sequence:
#
# PCOD8152561 Si02
#       8
#     8   8   8   8   8   8   8   8
#     4  11  22  43  63 103 136 174 229 285 349 397
#     4  11  23  43  66 100 135 180 230 277 350 404
#     4  11  24  45  68  96 136 183 228 281 343 412
#     4  12  24  40  72  96 132 186 217 291 348 402
#     4  11  23  45  66  93 137 181 225 278 347 410
#     4  12  26  40  71  97 135 184 225 279 346 413
#     4  12  23  38  65 105 135 166 230 289 347 399
#     4  12  24  47  68  99 141 179 230 283 344 418
#
# _framework density 20.497758000000001
#
# number of rings (size 3 to 8) (size 9 to 14) (size 15 to 20)
#    0.000    0.500    7.500    2.625    3.500    3.500 
#    0.000    0.000    0.000    0.000    0.000    0.000 
#    0.000    0.000    0.000    0.000    0.000    0.000 
#
# Total GULP energy -396712.092254 kJ/mol
# GULP energy per Si atom -12397.252883 kJ/mol
# Density = 2.045110 g / cm^3
# Si number density = 20.497758 Si / 1000 Ang^3
#
#
#
# Elastic Constant Matrix: (Units=GPa)
#
#
# Indices 1 2 3 4 5 6 
#
# 1 68.3648 34.6506 27.1529 0.0000 4.4934 0.0000
# 2 34.6506 99.2380 30.7203 0.0000 -0.7337 0.0000
# 3 27.1529 30.7203 88.2320 0.0000 18.0940 0.0000
# 4 0.0000 0.0000 0.0000 48.3834 0.0000 -0.3128
# 5 4.4934 -0.7337 18.0940 0.0000 29.4179 0.0000
# 6 0.0000 0.0000 0.0000 -0.3128 0.0000 21.3234
#
#
#
# Elastic Compliance Matrix: (Units=1/GPa)
#
#
# Indices 1 2 3 4 5 6 
#
# 1 0.018938 -0.005445 -0.003789 0.000000 -0.000698 0.000000
# 2 -0.005445 0.013110 -0.003578 0.000000 0.003359 0.000000
# 3 -0.003789 -0.003578 0.015615 0.000000 -0.009115 0.000000
# 4 0.000000 0.000000 0.000000 0.020670 0.000000 0.000303
# 5 -0.000698 0.003359 -0.009115 0.000000 0.039790 0.000000
# 6 0.000000 0.000000 0.000000 0.000303 0.000000 0.046901
#
#
# Mechanical properties :
#
#
# Convention : Reuss Voigt Hill
#
# Bulk Modulus (GPa) = 45.37370 48.98692 47.18031
# Shear Modulus (GPa) = 26.59653 30.71232 28.65442
#
# Velocity S-wave (km/s) = 3.60604 3.87502 3.74295
# Velocity P-wave (km/s) = 6.28665 6.63111 6.46118
#
# Compressibility (1/GPa) = 0.02203920
#
# Stress axis : x y z
#
# Youngs Moduli (GPa) = 52.80422 76.27560 64.04152
#
# Poissons Ratio (x) = 0.41529 0.24267
# Poissons Ratio (y) = 0.28750 0.22915
# Poissons Ratio (z) = 0.20009 0.27292
#
# Static dielectric constant tensor:
#      x y z
#    x 3.637110 0.000000 0.223610 
#    y 0.000000 3.854960 0.000000 
#    z 0.223610 0.000000 3.888700 
# 
# 
# High freq. dielectric constant tensor:
#      x y z
#    x 1.782540 0.000000 0.016730 
#    y 0.000000 1.809650 0.000000 
#    z 0.016730 0.000000 1.815920 
# 
# From -- ./inp_files/162594.got.cif
#   From: 2010.06.25/outbox.cif.g09.slc.cpg/sg15_82_cif.got.tgz:162594.got - 2010.06.28 07:06:18.
