data_PCOD8152795
_publ_section_title
;
Structure prediction by ZEFSAII (Michael W. Deem and Ramdas Pophale) SiO2 
 PCOD8152795
Probable space group: C 2/C
;
_chemical_formula_sum "Si O2"
_cell_formula_units_Z 48
_cell_length_a 17.596777
_cell_length_b 16.892009
_cell_length_c 13.594103
_cell_angle_alpha 90.000000
_cell_angle_beta 147.690876
_cell_angle_gamma 90.000000
_cell_volume 2159.743088
_symmetry_space_group_name_H-M "C 2/C"
_symmetry_group_IT_number 15
_symmetry_cell_setting 'monoclinic'
loop_
_space_group_symop_operation_xyz
x,y,z
-x,y,1/2-z
-x,-y,-z
x,-y,1/2+z
1/2+x,1/2+y,z
1/2-x,1/2+y,1/2-z
1/2-x,1/2-y,-z
1/2+x,1/2-y,1/2+z
loop_
_atom_site_type_symbol
_atom_site_label
_atom_site_fract_x
_atom_site_fract_y
_atom_site_fract_z
Si Si1 0.974349 0.292910 0.835939
Si Si2 0.847356 0.979502 0.376086
Si Si3 0.858324 0.285964 0.044702
Si Si4 0.785373 0.199568 0.766356
Si Si5 0.626850 0.964681 0.487004
Si Si6 0.838918 0.539305 0.172012
O O1 0.880150 0.221220 0.775345
O O2 0.881793 0.372155 0.749066
O O3 0.000000 0.273972 0.750000
O O4 0.119728 0.297543 0.057065
O O5 0.825421 0.886764 0.347511
O O6 0.729208 0.029723 0.190407
O O7 0.813710 0.011530 0.449685
O O8 0.000000 0.000000 0.500000
O O9 0.000000 0.253188 0.250000
O O10 0.750000 0.250000 0.000000
O O11 0.827519 0.259189 0.899749
O O12 0.855523 0.380570 0.045259
O O13 0.464157 0.978632 0.343128
O O14 0.671770 0.033654 0.458387
#
# Coordination Sequence:
#
# PCOD8152795 Si02
#       6
#     8   8   8   8   8   8
#     4  12  25  48  74 106 142 188 242 298 363 429
#     4  12  28  44  67 104 145 186 235 297 357 421
#     4  12  26  44  71 105 144 184 231 292 357 428
#     4  12  28  44  70 107 146 188 233 293 365 428
#     4  11  23  47  75 101 127 190 243 287 352 417
#     4  11  22  47  77  97 133 185 251 290 341 430
#
# _framework density 22.224865000000001
#
# number of rings (size 3 to 8) (size 9 to 14) (size 15 to 20)
#    0.000    0.333    5.000    4.000    9.333    0.667 
#    0.000    0.000    0.000    0.000    0.000    0.000 
#    0.000    0.000    0.000    0.000    0.000    0.000 
#
# Total GULP energy -297583.238686 kJ/mol
# GULP energy per Si atom -12399.301612 kJ/mol
# Density = 2.217428 g / cm^3
# Si number density = 22.224865 Si / 1000 Ang^3
#
#
#
# Elastic Constant Matrix: (Units=GPa)
#
#
# Indices 1 2 3 4 5 6 
#
# 1 124.8298 29.5265 12.5846 0.0000 16.8087 0.0000
# 2 29.5265 73.1902 13.5202 0.0000 4.8108 0.0000
# 3 12.5846 13.5202 51.0198 0.0000 -2.7503 0.0000
# 4 0.0000 0.0000 0.0000 27.4701 0.0000 0.0349
# 5 16.8087 4.8108 -2.7503 0.0000 44.3193 0.0000
# 6 0.0000 0.0000 0.0000 0.0349 0.0000 40.6805
#
#
#
# Elastic Compliance Matrix: (Units=1/GPa)
#
#
# Indices 1 2 3 4 5 6 
#
# 1 0.009395 -0.003272 -0.001629 0.000000 -0.003309 0.000000
# 2 -0.003272 0.015650 -0.003376 0.000000 -0.000668 0.000000
# 3 -0.001629 -0.003376 0.021020 0.000000 0.002289 0.000000
# 4 0.000000 0.000000 0.000000 0.036403 0.000000 -0.000031
# 5 -0.003309 -0.000668 0.002289 0.000000 0.024033 0.000000
# 6 0.000000 0.000000 0.000000 -0.000031 0.000000 0.024582
#
#
# Mechanical properties :
#
#
# Convention : Reuss Voigt Hill
#
# Bulk Modulus (GPa) = 33.88477 40.03359 36.95918
# Shear Modulus (GPa) = 31.75135 35.38787 33.56961
#
# Velocity S-wave (km/s) = 3.78384 3.99465 3.89067
# Velocity P-wave (km/s) = 5.86254 6.27123 6.07033
#
# Compressibility (1/GPa) = 0.02951179
#
# Stress axis : x y z
#
# Youngs Moduli (GPa) = 106.44521 63.89596 47.57359
#
# Poissons Ratio (x) = 0.20904 0.07748
# Poissons Ratio (y) = 0.34825 0.16063
# Poissons Ratio (z) = 0.17336 0.21574
#
# Static dielectric constant tensor:
#      x y z
#    x 4.117180 0.000000 -0.014230 
#    y 0.000000 4.097940 0.000000 
#    z -0.014230 0.000000 4.103620 
# 
# 
# High freq. dielectric constant tensor:
#      x y z
#    x 1.891430 0.000000 -0.003110 
#    y 0.000000 1.880690 0.000000 
#    z -0.003110 0.000000 1.872510 
# 
# From -- ./inp_files/163309.got.cif
#   From: 2010.06.25/outbox.cif.g09.slc.cpg/sg15_82_cif.got.tgz:163309.got - 2010.06.28 07:06:18.
