data_PCOD8152924
_publ_section_title
;
Structure prediction by ZEFSAII (Michael W. Deem and Ramdas Pophale) SiO2 
 PCOD8152924
Probable space group: C 2/C
;
_chemical_formula_sum "Si O2"
_cell_formula_units_Z 56
_cell_length_a 17.060511
_cell_length_b 26.894803
_cell_length_c 7.960994
_cell_angle_alpha 90.000000
_cell_angle_beta 45.852363
_cell_angle_gamma 90.000000
_cell_volume 2621.068227
_symmetry_space_group_name_H-M "C 2/C"
_symmetry_group_IT_number 15
_symmetry_cell_setting 'monoclinic'
loop_
_space_group_symop_operation_xyz
x,y,z
-x,y,1/2-z
-x,-y,-z
x,-y,1/2+z
1/2+x,1/2+y,z
1/2-x,1/2+y,1/2-z
1/2-x,1/2-y,-z
1/2+x,1/2-y,1/2+z
loop_
_atom_site_type_symbol
_atom_site_label
_atom_site_fract_x
_atom_site_fract_y
_atom_site_fract_z
Si Si1 0.317313 0.852371 0.865030
Si Si2 0.244618 0.688019 0.695792
Si Si3 0.609619 0.043794 0.174160
Si Si4 0.878510 0.907135 0.497612
Si Si5 0.745304 0.508984 0.818832
Si Si6 0.374874 0.788473 0.458115
Si Si7 0.879580 0.100106 0.369163
O O1 0.400883 0.898038 0.767029
O O2 0.195951 0.873601 0.012225
O O3 0.362464 0.824402 0.635160
O O4 0.317450 0.817939 0.032284
O O5 0.303955 0.740484 0.605235
O O6 0.162202 0.684908 0.660159
O O7 0.331926 0.643797 0.555007
O O8 0.500000 0.025102 0.250000
O O9 0.634597 0.009781 0.298429
O O10 0.723548 0.035740 0.901480
O O11 0.879163 0.881114 0.678484
O O12 0.837608 0.963536 0.577525
O O13 0.000000 0.908080 0.250000
O O14 0.693304 0.550572 0.015268
O O15 0.500000 0.772466 0.250000
O O16 0.000000 0.086197 0.250000
#
# Coordination Sequence:
#
# PCOD8152924 Si02
#       7
#     8   8   8   8   8   8   8
#     4  11  24  45  69 102 134 178 228 282 333 411
#     4  11  24  47  69 101 142 172 229 281 343 408
#     4  11  24  41  65  96 134 180 229 273 337 400
#     4  11  24  41  63  98 134 174 225 274 335 402
#     4  11  23  41  61  94 134 173 223 278 328 398
#     4  11  26  45  72 102 136 179 225 286 345 407
#     4  12  23  39  68  95 134 180 219 281 342 400
#
# _framework density 21.365335999999999
#
# number of rings (size 3 to 8) (size 9 to 14) (size 15 to 20)
#    0.000    0.857    4.286    2.571    4.000    1.143 
#    0.000    2.143    0.000    0.000    0.000    0.000 
#    0.000    0.000    0.000    0.000    0.000    0.000 
#
# Total GULP energy -347220.915882 kJ/mol
# GULP energy per Si atom -12400.746996 kJ/mol
# Density = 2.131671 g / cm^3
# Si number density = 21.365336 Si / 1000 Ang^3
#
#
#
# Elastic Constant Matrix: (Units=GPa)
#
#
# Indices 1 2 3 4 5 6 
#
# 1 86.0262 17.0218 25.1991 0.0000 13.7378 0.0000
# 2 17.0218 79.0091 11.9144 0.0000 9.1493 0.0000
# 3 25.1991 11.9144 71.0988 0.0000 17.0022 0.0000
# 4 0.0000 0.0000 0.0000 22.8961 0.0000 13.9038
# 5 13.7378 9.1493 17.0022 0.0000 43.6631 0.0000
# 6 0.0000 0.0000 0.0000 13.9038 0.0000 22.2710
#
#
#
# Elastic Compliance Matrix: (Units=1/GPa)
#
#
# Indices 1 2 3 4 5 6 
#
# 1 0.013544 -0.002062 -0.003903 0.000000 -0.002310 0.000000
# 2 -0.002062 0.013470 -0.001110 0.000000 -0.001742 0.000000
# 3 -0.003903 -0.001110 0.016854 0.000000 -0.005103 0.000000
# 4 0.000000 0.000000 0.000000 0.070344 0.000000 -0.043916
# 5 -0.002310 -0.001742 -0.005103 0.000000 0.025981 0.000000
# 6 0.000000 0.000000 0.000000 -0.043916 0.000000 0.072318
#
#
# Mechanical properties :
#
#
# Convention : Reuss Voigt Hill
#
# Bulk Modulus (GPa) = 33.64776 38.26718 35.95747
# Shear Modulus (GPa) = 21.13563 29.89928 25.51745
#
# Velocity S-wave (km/s) = 3.14864 3.74495 3.45967
# Velocity P-wave (km/s) = 5.38531 6.05387 5.72935
#
# Compressibility (1/GPa) = 0.02971966
#
# Stress axis : x y z
#
# Youngs Moduli (GPa) = 73.83132 74.23864 59.33203
#
# Poissons Ratio (x) = 0.15308 0.23155
# Poissons Ratio (y) = 0.15224 0.06585
# Poissons Ratio (z) = 0.28813 0.08240
#
# Static dielectric constant tensor:
#      x y z
#    x 4.037890 0.000000 0.234240 
#    y 0.000000 3.759440 0.000000 
#    z 0.234240 0.000000 3.757430 
# 
# 
# High freq. dielectric constant tensor:
#      x y z
#    x 1.852770 0.000000 0.012490 
#    y 0.000000 1.835020 0.000000 
#    z 0.012490 0.000000 1.839570 
# 
# From -- ./inp_files/34321.got.cif
#   From: 2010.06.25/outbox.cif.g09.slc.cpg/sg15_18_cif.got.tgz:34321.got - 2010.06.28 07:06:18.
