data_PCOD8152516
_publ_section_title
;
Structure prediction by ZEFSAII (Michael W. Deem and Ramdas Pophale) SiO2 
 PCOD8152516
Probable space group: C 2/C
;
_chemical_formula_sum "Si O2"
_cell_formula_units_Z 44
_cell_length_a 26.237642
_cell_length_b 6.409208
_cell_length_c 14.296900
_cell_angle_alpha 90.000000
_cell_angle_beta 122.020101
_cell_angle_gamma 90.000000
_cell_volume 2038.432275
_symmetry_space_group_name_H-M "C 2/C"
_symmetry_group_IT_number 15
_symmetry_cell_setting 'monoclinic'
loop_
_space_group_symop_operation_xyz
x,y,z
-x,y,1/2-z
-x,-y,-z
x,-y,1/2+z
1/2+x,1/2+y,z
1/2-x,1/2+y,1/2-z
1/2-x,1/2-y,-z
1/2+x,1/2-y,1/2+z
loop_
_atom_site_type_symbol
_atom_site_label
_atom_site_fract_x
_atom_site_fract_y
_atom_site_fract_z
Si Si1 0.623870 0.594020 0.717665
Si Si2 0.004462 0.297145 0.938725
Si Si3 0.116977 0.739930 0.858804
Si Si4 0.682377 0.171428 0.434211
Si Si5 0.882181 0.050677 0.477849
Si Si6 0.500000 0.992517 0.250000
O O1 0.556396 0.666558 0.628232
O O2 0.634360 0.394922 0.793651
O O3 0.654582 0.779725 0.805231
O O4 0.655417 0.540263 0.648197
O O5 0.059138 0.144204 0.018766
O O6 0.025919 0.365293 0.856878
O O7 0.000000 0.500000 0.000000
O O8 0.171763 0.577867 0.932241
O O9 0.055490 0.636970 0.763396
O O10 0.100882 0.858132 0.939190
O O11 0.750000 0.250000 0.500000
O O12 0.652842 0.278169 0.496135
#
# Coordination Sequence:
#
# PCOD8152516 Si02
#       6
#     8   8   8   8   8   4
#     4  11  24  42  65 103 133 176 225 277 350 416
#     4  12  22  38  66 102 145 174 222 278 347 431
#     4  11  22  42  70  91 144 174 231 286 343 418
#     4  11  26  48  67  94 130 181 237 285 339 407
#     4  11  24  42  65 103 133 176 225 277 350 416
#     4  12  18  36  66  92 126 188 198 272 352 396
#
# _framework density 21.585217
#
# number of rings (size 3 to 8) (size 9 to 14) (size 15 to 20)
#    0.000    0.727    3.636    4.909    0.000    2.909 
#    6.545    0.000    0.000    0.000    0.000    0.000 
#    0.000    0.000    0.000    0.000    0.000    0.000 
#
# Total GULP energy -272650.033860 kJ/mol
# GULP energy per Si atom -12393.183357 kJ/mol
# Density = 2.153609 g / cm^3
# Si number density = 21.585217 Si / 1000 Ang^3
#
#
#
# Elastic Constant Matrix: (Units=GPa)
#
#
# Indices 1 2 3 4 5 6 
#
# 1 88.1246 44.6296 45.7492 0.0000 11.5173 0.0000
# 2 44.6296 126.5583 37.1877 0.0000 -2.7112 0.0000
# 3 45.7492 37.1877 107.5220 0.0000 -35.9194 0.0000
# 4 0.0000 0.0000 0.0000 29.7594 0.0000 -6.4856
# 5 11.5173 -2.7112 -35.9194 0.0000 42.0269 0.0000
# 6 0.0000 0.0000 0.0000 -6.4856 0.0000 28.7931
#
#
#
# Elastic Compliance Matrix: (Units=1/GPa)
#
#
# Indices 1 2 3 4 5 6 
#
# 1 0.024349 -0.004435 -0.015607 0.000000 -0.020297 0.000000
# 2 -0.004435 0.009853 -0.001263 0.000000 0.000772 0.000000
# 3 -0.015607 -0.001263 0.024884 0.000000 0.025463 0.000000
# 4 0.000000 0.000000 0.000000 0.035338 0.000000 0.007960
# 5 -0.020297 0.000772 0.025463 0.000000 0.051169 0.000000
# 6 0.000000 0.000000 0.000000 0.007960 0.000000 0.036523
#
#
# Mechanical properties :
#
#
# Convention : Reuss Voigt Hill
#
# Bulk Modulus (GPa) = 60.69372 64.14866 62.42119
# Shear Modulus (GPa) = 21.71857 33.09177 27.40517
#
# Velocity S-wave (km/s) = 3.17547 3.91970 3.56705
# Velocity P-wave (km/s) = 6.45167 7.09004 6.77838
#
# Compressibility (1/GPa) = 0.01647617
#
# Stress axis : x y z
#
# Youngs Moduli (GPa) = 41.07014 101.49019 40.18642
#
# Poissons Ratio (x) = 0.45014 0.62718
# Poissons Ratio (y) = 0.18216 0.05075
# Poissons Ratio (z) = 0.64097 0.12817
#
# Static dielectric constant tensor:
#      x y z
#    x 2.396940 0.000000 0.604320 
#    y 0.000000 4.307660 0.000000 
#    z 0.604320 0.000000 3.684230 
# 
# 
# High freq. dielectric constant tensor:
#      x y z
#    x 1.822010 0.000000 -0.020960 
#    y 0.000000 1.866280 0.000000 
#    z -0.020960 0.000000 1.856920 
# 
# From -- ./inp_files/179821.got.cif
#   From: 2010.06.25/outbox.cif.g09.slc.cpg/sg15_90_cif.got.tgz:179821.got - 2010.06.28 07:06:18.
