data_PCOD8152733
_publ_section_title
;
Structure prediction by ZEFSAII (Michael W. Deem and Ramdas Pophale) SiO2 
 PCOD8152733
Probable space group: C 2/C
;
_chemical_formula_sum "Si O2"
_cell_formula_units_Z 60
_cell_length_a 12.760400
_cell_length_b 15.572652
_cell_length_c 14.470873
_cell_angle_alpha 90.000000
_cell_angle_beta 111.637441
_cell_angle_gamma 90.000000
_cell_volume 2672.930625
_symmetry_space_group_name_H-M "C 2/C"
_symmetry_group_IT_number 15
_symmetry_cell_setting 'monoclinic'
loop_
_space_group_symop_operation_xyz
x,y,z
-x,y,1/2-z
-x,-y,-z
x,-y,1/2+z
1/2+x,1/2+y,z
1/2-x,1/2+y,1/2-z
1/2-x,1/2-y,-z
1/2+x,1/2-y,1/2+z
loop_
_atom_site_type_symbol
_atom_site_label
_atom_site_fract_x
_atom_site_fract_y
_atom_site_fract_z
Si Si1 0.500000 0.085717 0.750000
Si Si2 0.563667 0.234103 0.658885
Si Si3 0.168145 0.810411 0.921973
Si Si4 0.669844 0.953716 0.873933
Si Si5 0.303154 0.826093 0.458182
Si Si6 0.783838 0.893115 0.737651
Si Si7 0.873731 0.917973 0.240750
Si Si8 0.390914 0.557689 0.950469
O O1 0.588839 0.144042 0.720599
O O2 0.573003 0.025017 0.840956
O O3 0.434653 0.252607 0.650137
O O4 0.588131 0.211185 0.560005
O O5 0.637039 0.317706 0.700138
O O6 0.248970 0.858555 0.874328
O O7 0.250000 0.750000 0.000000
O O8 0.102439 0.874007 0.966990
O O9 0.680228 0.906197 0.776020
O O10 0.789804 0.993198 0.935394
O O11 0.644477 0.892144 0.951395
O O12 0.250000 0.750000 0.500000
O O13 0.213929 0.867028 0.354256
O O14 0.850662 0.980471 0.739249
O O15 0.873500 0.889860 0.348679
O O16 0.000000 0.900153 0.250000
O O17 0.500000 0.500000 0.000000
#
# Coordination Sequence:
#
# PCOD8152733 Si02
#       8
#     4   8   8   8   8   8   8   8
#     4  12  26  46  74 108 148 202 242 300 376 452
#     4  12  24  44  71  98 147 189 237 296 366 431
#     4  12  25  38  68 104 136 174 235 295 357 422
#     4  11  25  46  72  99 147 193 240 301 371 451
#     4  12  27  46  70 102 147 201 248 303 372 445
#     4  11  22  45  71 100 137 185 237 302 363 432
#     4  11  24  42  71 102 140 182 242 305 373 434
#     4  11  23  41  72 103 135 179 240 302 364 430
#
# _framework density 22.447272000000002
#
# number of rings (size 3 to 8) (size 9 to 14) (size 15 to 20)
#    0.000    0.533    2.667    7.200    3.733    1.600 
#    1.200    0.000    0.000    0.000    0.000    0.000 
#    0.000    0.000    0.000    0.000    0.000    0.000 
#
# Total GULP energy -371658.061532 kJ/mol
# GULP energy per Si atom -12388.602051 kJ/mol
# Density = 2.239618 g / cm^3
# Si number density = 22.447272 Si / 1000 Ang^3
#
#
#
# Elastic Constant Matrix: (Units=GPa)
#
#
# Indices 1 2 3 4 5 6 
#
# 1 49.1817 31.1766 17.9042 0.0000 -14.7044 0.0000
# 2 31.1766 122.9045 57.4353 0.0000 -3.1689 0.0000
# 3 17.9042 57.4353 123.4794 0.0000 -15.8321 0.0000
# 4 0.0000 0.0000 0.0000 55.8823 0.0000 -3.1805
# 5 -14.7044 -3.1689 -15.8321 0.0000 40.7467 0.0000
# 6 0.0000 0.0000 0.0000 -3.1805 0.0000 29.9844
#
#
#
# Elastic Compliance Matrix: (Units=1/GPa)
#
#
# Indices 1 2 3 4 5 6 
#
# 1 0.027401 -0.006925 0.000470 0.000000 0.009532 0.000000
# 2 -0.006925 0.012195 -0.005123 0.000000 -0.003541 0.000000
# 3 0.000470 -0.005123 0.010928 0.000000 0.004017 0.000000
# 4 0.000000 0.000000 0.000000 0.018003 0.000000 0.001910
# 5 0.009532 -0.003541 0.004017 0.000000 0.029267 0.000000
# 6 0.000000 0.000000 0.000000 0.001910 0.000000 0.033553
#
#
# Mechanical properties :
#
#
# Convention : Reuss Voigt Hill
#
# Bulk Modulus (GPa) = 36.53556 56.51087 46.52321
# Shear Modulus (GPa) = 30.55733 37.92598 34.24165
#
# Velocity S-wave (km/s) = 3.69357 4.11488 3.90991
# Velocity P-wave (km/s) = 5.87380 6.91418 6.41512
#
# Compressibility (1/GPa) = 0.02737059
#
# Stress axis : x y z
#
# Youngs Moduli (GPa) = 36.49472 81.99749 91.50667
#
# Poissons Ratio (x) = 0.56780 -0.04301
# Poissons Ratio (y) = 0.25271 0.46875
# Poissons Ratio (z) = -0.01715 0.42004
#
# Static dielectric constant tensor:
#      x y z
#    x 3.902070 0.000000 -0.338150 
#    y 0.000000 3.715320 0.000000 
#    z -0.338150 0.000000 4.478290 
# 
# 
# High freq. dielectric constant tensor:
#      x y z
#    x 1.872270 0.000000 -0.024070 
#    y 0.000000 1.899720 0.000000 
#    z -0.024070 0.000000 1.898800 
# 
# From -- ./inp_files/154030.got.cif
#   From: 2010.06.25/outbox.cif.g09.slc.cpg/sg15_78_cif.got.tgz:154030.got - 2010.06.28 07:06:18.
