data_PCOD8152418
_publ_section_title
;
Structure prediction by ZEFSAII (Michael W. Deem and Ramdas Pophale) SiO2 
 PCOD8152418
Probable space group: C 2/C
;
_chemical_formula_sum "Si O2"
_cell_formula_units_Z 36
_cell_length_a 19.652674
_cell_length_b 12.416385
_cell_length_c 7.213885
_cell_angle_alpha 90.000000
_cell_angle_beta 47.050311
_cell_angle_gamma 90.000000
_cell_volume 1288.453654
_symmetry_space_group_name_H-M "C 2/C"
_symmetry_group_IT_number 15
_symmetry_cell_setting 'monoclinic'
loop_
_space_group_symop_operation_xyz
x,y,z
-x,y,1/2-z
-x,-y,-z
x,-y,1/2+z
1/2+x,1/2+y,z
1/2-x,1/2+y,1/2-z
1/2-x,1/2-y,-z
1/2+x,1/2-y,1/2+z
loop_
_atom_site_type_symbol
_atom_site_label
_atom_site_fract_x
_atom_site_fract_y
_atom_site_fract_z
Si Si1 0.079734 0.607021 0.733833
Si Si2 0.182084 0.199497 0.478608
Si Si3 0.000000 0.310446 0.750000
Si Si4 0.721848 0.485160 0.677527
Si Si5 0.321489 0.681471 0.525956
O O1 0.167887 0.524600 0.573431
O O2 0.101202 0.726160 0.609332
O O3 0.000000 0.557701 0.750000
O O4 0.041961 0.613578 0.013113
O O5 0.250000 0.250000 0.500000
O O6 0.075641 0.230852 0.702781
O O7 0.205502 0.070515 0.415795
O O8 0.219008 0.258972 0.214346
O O9 0.680750 0.606817 0.776861
O O10 0.659461 0.404357 0.670790
#
# Coordination Sequence:
#
# PCOD8152418 Si02
#       5
#     8   8   4   8   8
#     4  11  24  45  72 100 138 180 234 292 350 416
#     4  11  22  41  68  96 134 183 226 283 353 413
#     4  12  20  42  72  98 132 176 230 288 354 394
#     4  11  22  44  66  96 136 181 227 280 350 420
#     4  11  22  44  66  96 136 181 227 280 350 420
#
# _framework density 27.940470999999999
#
# number of rings (size 3 to 8) (size 9 to 14) (size 15 to 20)
#    0.000    0.889    4.444    5.333    0.000    0.000 
#    4.000    4.444    0.000    0.000    0.000    0.000 
#    0.000    0.000    0.000    0.000    0.000    0.000 
#
# Total GULP energy -223135.556661 kJ/mol
# GULP energy per Si atom -12396.419815 kJ/mol
# Density = 2.787688 g / cm^3
# Si number density = 27.940471 Si / 1000 Ang^3
#
#
#
# Elastic Constant Matrix: (Units=GPa)
#
#
# Indices 1 2 3 4 5 6 
#
# 1 89.9573 17.5521 31.9614 0.0000 -29.5132 0.0000
# 2 17.5521 150.2569 30.4165 0.0000 8.2637 0.0000
# 3 31.9614 30.4165 131.1392 0.0000 -0.3420 0.0000
# 4 0.0000 0.0000 0.0000 48.7792 0.0000 4.0522
# 5 -29.5132 8.2637 -0.3420 0.0000 39.7020 0.0000
# 6 0.0000 0.0000 0.0000 4.0522 0.0000 16.4805
#
#
#
# Elastic Compliance Matrix: (Units=1/GPa)
#
#
# Indices 1 2 3 4 5 6 
#
# 1 0.017103 -0.001974 -0.003677 0.000000 0.013093 0.000000
# 2 -0.001974 0.007297 -0.001219 0.000000 -0.002997 0.000000
# 3 -0.003677 -0.001219 0.008798 0.000000 -0.002403 0.000000
# 4 0.000000 0.000000 0.000000 0.020928 0.000000 -0.005146
# 5 0.013093 -0.002997 -0.002403 0.000000 0.035524 0.000000
# 6 0.000000 0.000000 0.000000 -0.005146 0.000000 0.061943
#
#
# Mechanical properties :
#
#
# Convention : Reuss Voigt Hill
#
# Bulk Modulus (GPa) = 51.38834 59.02374 55.20604
# Shear Modulus (GPa) = 29.10031 40.42057 34.76044
#
# Velocity S-wave (km/s) = 3.23075 3.80763 3.53099
# Velocity P-wave (km/s) = 5.68762 6.36408 6.03533
#
# Compressibility (1/GPa) = 0.01945967
#
# Stress axis : x y z
#
# Youngs Moduli (GPa) = 58.46797 137.03367 113.66123
#
# Poissons Ratio (x) = 0.27047 0.41788
# Poissons Ratio (y) = 0.11540 0.13859
# Poissons Ratio (z) = 0.21496 0.16709
#
# Static dielectric constant tensor:
#      x y z
#    x 5.211530 0.000000 0.630610 
#    y 0.000000 5.683560 0.000000 
#    z 0.630610 0.000000 4.624060 
# 
# 
# High freq. dielectric constant tensor:
#      x y z
#    x 2.133170 0.000000 0.064670 
#    y 0.000000 2.164560 0.000000 
#    z 0.064670 0.000000 2.138730 
# 
# From -- ./inp_files/37581.got.cif
#   From: 2010.06.25/outbox.cif.g09.slc.cpg/sg15_19_cif.got.tgz:37581.got - 2010.06.28 07:06:18.
