data_PCOD8152863
_publ_section_title
;
Structure prediction by ZEFSAII (Michael W. Deem and Ramdas Pophale) SiO2 
 PCOD8152863
Probable space group: C 2/C
;
_chemical_formula_sum "Si O2"
_cell_formula_units_Z 64
_cell_length_a 15.841408
_cell_length_b 17.598462
_cell_length_c 25.011788
_cell_angle_alpha 90.000000
_cell_angle_beta 153.356624
_cell_angle_gamma 90.000000
_cell_volume 3126.897098
_symmetry_space_group_name_H-M "C 2/C"
_symmetry_group_IT_number 15
_symmetry_cell_setting 'monoclinic'
loop_
_space_group_symop_operation_xyz
x,y,z
-x,y,1/2-z
-x,-y,-z
x,-y,1/2+z
1/2+x,1/2+y,z
1/2-x,1/2+y,1/2-z
1/2-x,1/2-y,-z
1/2+x,1/2-y,1/2+z
loop_
_atom_site_type_symbol
_atom_site_label
_atom_site_fract_x
_atom_site_fract_y
_atom_site_fract_z
Si Si1 0.676476 0.123227 0.737000
Si Si2 0.912507 0.492264 0.143256
Si Si3 0.017308 0.998137 0.073261
Si Si4 0.453998 0.214771 0.936356
Si Si5 0.340367 0.271934 0.702374
Si Si6 0.838734 0.847795 0.806370
Si Si7 0.681899 0.292928 0.380161
Si Si8 0.933753 0.656225 0.112653
O O1 0.498475 0.070799 0.652363
O O2 0.634701 0.152600 0.653661
O O3 0.703275 0.192426 0.793142
O O4 0.875922 0.078797 0.849028
O O5 0.977328 0.574672 0.161522
O O6 0.000000 0.474113 0.250000
O O7 0.686410 0.491830 0.015362
O O8 0.147207 0.065352 0.168731
O O9 0.000000 0.000000 0.000000
O O10 0.472599 0.297150 0.919434
O O11 0.333307 0.223701 0.921039
O O12 0.663527 0.192243 0.071454
O O13 0.500000 0.257242 0.750000
O O14 0.401591 0.335040 0.780627
O O15 0.625454 0.816193 0.692741
O O16 0.500000 0.332688 0.250000
O O17 0.767313 0.347147 0.474354
O O18 0.620860 0.212489 0.370633
#
# Coordination Sequence:
#
# PCOD8152863 Si02
#       8
#     8   8   8   8   8   8   8   8
#     4  11  26  44  67 102 131 171 227 271 329 397
#     4  12  25  42  66  97 132 170 216 277 339 383
#     4  12  25  42  68  93 135 168 216 275 335 388
#     4  11  25  42  68  95 136 172 217 274 324 394
#     4  11  26  44  68  94 134 178 223 270 325 389
#     4  11  23  43  65  99 127 173 221 273 327 388
#     4  11  23  39  65  97 132 169 216 262 334 395
#     4  11  23  40  66  97 134 167 219 276 327 400
#
# _framework density 20.467573999999999
#
# number of rings (size 3 to 8) (size 9 to 14) (size 15 to 20)
#    0.000    0.750    5.000    1.500    8.750    1.000 
#    0.000    2.500    0.000    0.000    0.000    0.000 
#    0.000    0.000    0.000    0.000    0.000    0.000 
#
# Total GULP energy -396879.778421 kJ/mol
# GULP energy per Si atom -12402.493076 kJ/mol
# Density = 2.042099 g / cm^3
# Si number density = 20.467574 Si / 1000 Ang^3
#
#
#
# Elastic Constant Matrix: (Units=GPa)
#
#
# Indices 1 2 3 4 5 6 
#
# 1 105.6568 29.7789 42.1397 0.0023 5.0660 0.0033
# 2 29.7789 89.9500 21.7303 0.0046 -8.8949 0.0052
# 3 42.1397 21.7303 112.5630 0.0047 8.0786 0.0202
# 4 0.0023 0.0046 0.0047 54.2130 -0.0011 -31.4463
# 5 5.0660 -8.8949 8.0786 -0.0011 32.4809 0.0058
# 6 0.0033 0.0052 0.0202 -31.4463 0.0058 84.0091
#
#
#
# Elastic Compliance Matrix: (Units=1/GPa)
#
#
# Indices 1 2 3 4 5 6 
#
# 1 0.011947 -0.003238 -0.003716 0.000001 -0.001826 0.000001
# 2 -0.003238 0.013024 -0.001623 -0.000001 0.004475 -0.000001
# 3 -0.003716 -0.001623 0.010771 -0.000002 -0.002544 -0.000003
# 4 0.000001 -0.000001 -0.000002 0.023562 -0.000001 0.008820
# 5 -0.001826 0.004475 -0.002544 -0.000001 0.032930 -0.000002
# 6 0.000001 -0.000001 -0.000003 0.008820 -0.000002 0.015205
#
#
# Mechanical properties :
#
#
# Convention : Reuss Voigt Hill
#
# Bulk Modulus (GPa) = 53.80155 55.05195 54.42675
# Shear Modulus (GPa) = 38.22931 48.44199 43.33565
#
# Velocity S-wave (km/s) = 4.32649 4.87022 4.60639
# Velocity P-wave (km/s) = 7.16250 7.65382 7.41223
#
# Compressibility (1/GPa) = 0.01858682
#
# Stress axis : x y z
#
# Youngs Moduli (GPa) = 83.70318 76.78162 92.84035
#
# Poissons Ratio (x) = 0.24861 0.34503
# Poissons Ratio (y) = 0.27102 0.15071
# Poissons Ratio (z) = 0.31108 0.12464
#
# Static dielectric constant tensor:
#      x y z
#    x 3.910680 -0.000010 0.117270 
#    y -0.000010 3.541950 -0.000020 
#    z 0.117270 -0.000020 4.146870 
# 
# 
# High freq. dielectric constant tensor:
#      x y z
#    x 1.810410 0.000000 0.002120 
#    y 0.000000 1.784700 0.000000 
#    z 0.002120 0.000000 1.814120 
# 
# From -- ./inp_files/155493.got.cif
#   From: 2010.06.25/outbox.cif.g09.slc.cpg/sg15_78_cif.got.tgz:155493.got - 2010.06.28 07:06:18.
