data_PCOD8152127
_publ_section_title
;
Structure prediction by ZEFSAII (Michael W. Deem and Ramdas Pophale) SiO2 
 PCOD8152127
Probable space group: C 2/C
;
_chemical_formula_sum "Si O2"
_cell_formula_units_Z 44
_cell_length_a 11.784300
_cell_length_b 19.318977
_cell_length_c 10.872845
_cell_angle_alpha 90.000000
_cell_angle_beta 105.838915
_cell_angle_gamma 90.000000
_cell_volume 2381.337823
_symmetry_space_group_name_H-M "C 2/C"
_symmetry_group_IT_number 15
_symmetry_cell_setting 'monoclinic'
loop_
_space_group_symop_operation_xyz
x,y,z
-x,y,1/2-z
-x,-y,-z
x,-y,1/2+z
1/2+x,1/2+y,z
1/2-x,1/2+y,1/2-z
1/2-x,1/2-y,-z
1/2+x,1/2-y,1/2+z
loop_
_atom_site_type_symbol
_atom_site_label
_atom_site_fract_x
_atom_site_fract_y
_atom_site_fract_z
Si Si1 0.000000 0.360991 0.250000
Si Si2 0.127093 0.283392 0.495368
Si Si3 0.110788 0.467173 0.101908
Si Si4 0.373255 0.892498 0.784594
Si Si5 0.729286 0.143808 0.482594
Si Si6 0.442135 0.732604 0.598447
O O1 0.919049 0.408333 0.310109
O O2 0.082746 0.311803 0.353474
O O3 0.250000 0.250000 0.500000
O O4 0.125012 0.344881 0.594870
O O5 0.045985 0.222276 0.529347
O O6 0.170069 0.531010 0.190080
O O7 0.197841 0.430713 0.031037
O O8 0.000000 0.500000 0.000000
O O9 0.500000 0.894017 0.750000
O O10 0.269814 0.864973 0.664754
O O11 0.630321 0.202087 0.478228
O O12 0.856479 0.166192 0.573900
O O13 0.500000 0.746406 0.750000
#
# Coordination Sequence:
#
# PCOD8152127 Si02
#       6
#     4   8   8   8   8   8
#     4  12  22  36  56  92 122 146 194 252 312 346
#     4  12  26  37  58  89 126 159 202 251 299 362
#     4  12  20  36  61  96 119 150 196 263 302 356
#     4  12  20  40  61  89 126 154 202 252 310 361
#     4  11  22  37  66  88 120 160 199 250 310 362
#     4  11  22  41  62  88 122 162 204 243 303 376
#
# _framework density 18.477008999999999
#
# number of rings (size 3 to 8) (size 9 to 14) (size 15 to 20)
#    0.000    0.364   10.000    0.000    5.091    0.000 
#    0.000    0.000    0.000    4.364    0.000    0.000 
#    0.000    0.000    0.000    0.000    0.000    0.000 
#
# Total GULP energy -272678.732657 kJ/mol
# GULP energy per Si atom -12394.487848 kJ/mol
# Density = 1.843495 g / cm^3
# Si number density = 18.477009 Si / 1000 Ang^3
#
#
#
# Elastic Constant Matrix: (Units=GPa)
#
#
# Indices 1 2 3 4 5 6 
#
# 1 112.4816 57.7929 50.8085 0.0000 0.5411 0.0000
# 2 57.7929 99.9152 44.3409 0.0000 2.8803 0.0000
# 3 50.8085 44.3409 116.5280 0.0000 -3.6254 0.0000
# 4 0.0000 0.0000 0.0000 32.5721 0.0000 -6.6368
# 5 0.5411 2.8803 -3.6254 0.0000 22.4176 0.0000
# 6 0.0000 0.0000 0.0000 -6.6368 0.0000 29.5538
#
#
#
# Elastic Compliance Matrix: (Units=1/GPa)
#
#
# Indices 1 2 3 4 5 6 
#
# 1 0.013790 -0.006382 -0.003587 0.000000 -0.000093 0.000000
# 2 -0.006382 0.015115 -0.003040 0.000000 -0.002280 0.000000
# 3 -0.003587 -0.003040 0.011374 0.000000 0.002317 0.000000
# 4 0.000000 0.000000 0.000000 0.032173 0.000000 0.007225
# 5 -0.000093 -0.002280 0.002317 0.000000 0.045278 0.000000
# 6 0.000000 0.000000 0.000000 0.007225 0.000000 0.035459
#
#
# Mechanical properties :
#
#
# Convention : Reuss Voigt Hill
#
# Bulk Modulus (GPa) = 70.11822 70.53438 70.32630
# Shear Modulus (GPa) = 27.17975 28.64087 27.91031
#
# Velocity S-wave (km/s) = 3.83953 3.94138 3.89079
# Velocity P-wave (km/s) = 7.59521 7.67917 7.63731
#
# Compressibility (1/GPa) = 0.01426163
#
# Stress axis : x y z
#
# Youngs Moduli (GPa) = 72.51552 66.16156 87.91622
#
# Poissons Ratio (x) = 0.42223 0.31538
# Poissons Ratio (y) = 0.46278 0.26723
# Poissons Ratio (z) = 0.26013 0.20111
#
# Static dielectric constant tensor:
#      x y z
#    x 3.535000 0.000000 -0.884750 
#    y 0.000000 3.605660 0.000000 
#    z -0.884750 0.000000 5.889690 
# 
# 
# High freq. dielectric constant tensor:
#      x y z
#    x 1.681680 0.000000 -0.017100 
#    y 0.000000 1.712510 0.000000 
#    z -0.017100 0.000000 1.735640 
# 
# From -- ./inp_files/88611.got.cif
#   From: 2010.06.25/outbox.cif.g09.slc.cpg/sg15_45_cif.got.tgz:88611.got - 2010.06.28 07:06:18.
