data_PCOD8152214
_publ_section_title
;
Structure prediction by ZEFSAII (Michael W. Deem and Ramdas Pophale) SiO2 
 PCOD8152214
Probable space group: C 2/C
;
_chemical_formula_sum "Si O2"
_cell_formula_units_Z 48
_cell_length_a 17.818024
_cell_length_b 13.975402
_cell_length_c 7.969649
_cell_angle_alpha 90.000000
_cell_angle_beta 100.361396
_cell_angle_gamma 90.000000
_cell_volume 1952.192182
_symmetry_space_group_name_H-M "C 2/C"
_symmetry_group_IT_number 15
_symmetry_cell_setting 'monoclinic'
loop_
_space_group_symop_operation_xyz
x,y,z
-x,y,1/2-z
-x,-y,-z
x,-y,1/2+z
1/2+x,1/2+y,z
1/2-x,1/2+y,1/2-z
1/2-x,1/2-y,-z
1/2+x,1/2-y,1/2+z
loop_
_atom_site_type_symbol
_atom_site_label
_atom_site_fract_x
_atom_site_fract_y
_atom_site_fract_z
Si Si1 0.436893 0.067565 0.858106
Si Si2 0.060195 0.257734 0.918713
Si Si3 0.652921 0.910756 0.482603
Si Si4 0.200097 0.257334 0.744502
Si Si5 0.186050 0.931340 0.044526
Si Si6 0.144551 0.870718 0.683870
O O1 0.500000 0.034358 0.750000
O O2 0.368294 0.110336 0.719656
O O3 0.468364 0.145701 0.001890
O O4 0.410353 0.974018 0.948024
O O5 0.144263 0.274243 0.877880
O O6 0.000000 0.226525 0.750000
O O7 0.070159 0.177004 0.067066
O O8 0.661483 0.807698 0.568777
O O9 0.734978 0.963342 0.515709
O O10 0.204754 0.145531 0.698496
O O11 0.280534 0.305841 0.823136
O O12 0.148561 0.024032 0.106826
O O13 0.132200 0.884143 0.878943
#
# Coordination Sequence:
#
# PCOD8152214 Si02
#       6
#     8   8   8   8   8   8
#     4  12  24  40  63  97 141 185 220 269 340 417
#     4  12  26  44  64  94 132 180 232 285 343 407
#     4  11  22  39  65 101 137 174 219 276 340 413
#     4  11  23  42  69 101 135 176 225 283 344 405
#     4  11  22  42  69 102 132 171 227 283 340 403
#     4  11  23  41  68  97 131 174 224 284 341 401
#
# _framework density 24.587741999999999
#
# number of rings (size 3 to 8) (size 9 to 14) (size 15 to 20)
#    0.000    0.667    0.000   11.000    0.000    1.333 
#    0.000    3.333    0.000    1.000    0.000    0.000 
#    0.000    0.000    0.000    0.000    0.000    0.000 
#
# Total GULP energy -297560.071859 kJ/mol
# GULP energy per Si atom -12398.336327 kJ/mol
# Density = 2.453178 g / cm^3
# Si number density = 24.587742 Si / 1000 Ang^3
#
#
#
# Elastic Constant Matrix: (Units=GPa)
#
#
# Indices 1 2 3 4 5 6 
#
# 1 51.8336 38.9254 24.9407 0.0000 -4.5762 0.0000
# 2 38.9254 121.0635 35.8025 0.0000 19.4731 0.0000
# 3 24.9407 35.8025 148.2701 0.0000 33.4133 0.0000
# 4 0.0000 0.0000 0.0000 47.5380 0.0000 -3.5973
# 5 -4.5762 19.4731 33.4133 0.0000 42.1748 0.0000
# 6 0.0000 0.0000 0.0000 -3.5973 0.0000 24.1798
#
#
#
# Elastic Compliance Matrix: (Units=1/GPa)
#
#
# Indices 1 2 3 4 5 6 
#
# 1 0.030734 -0.010255 -0.005493 0.000000 0.012422 0.000000
# 2 -0.010255 0.012625 0.000293 0.000000 -0.007174 0.000000
# 3 -0.005493 0.000293 0.009449 0.000000 -0.008218 0.000000
# 4 0.000000 0.000000 0.000000 0.021275 0.000000 0.003165
# 5 0.012422 -0.007174 -0.008218 0.000000 0.034882 0.000000
# 6 0.000000 0.000000 0.000000 0.003165 0.000000 0.041828
#
#
# Mechanical properties :
#
#
# Convention : Reuss Voigt Hill
#
# Bulk Modulus (GPa) = 45.66527 57.83383 51.74955
# Shear Modulus (GPa) = 26.45482 37.54509 31.99995
#
# Velocity S-wave (km/s) = 3.28370 3.91190 3.61149
# Velocity P-wave (km/s) = 5.74366 6.63147 6.20347
#
# Compressibility (1/GPa) = 0.02189848
#
# Stress axis : x y z
#
# Youngs Moduli (GPa) = 32.53777 79.20939 105.82618
#
# Poissons Ratio (x) = 0.81232 0.58126
# Poissons Ratio (y) = 0.33369 -0.03105
# Poissons Ratio (z) = 0.17872 -0.02324
#
# Static dielectric constant tensor:
#      x y z
#    x 4.262240 0.000000 0.107440 
#    y 0.000000 4.216640 0.000000 
#    z 0.107440 0.000000 5.028210 
# 
# 
# High freq. dielectric constant tensor:
#      x y z
#    x 1.952150 0.000000 0.005340 
#    y 0.000000 1.972310 0.000000 
#    z 0.005340 0.000000 2.007740 
# 
# From -- ./inp_files/55435.got.cif
#   From: 2010.06.25/outbox.cif.g09.slc.cpg/sg15_28_cif.got.tgz:55435.got - 2010.06.28 07:06:18.
