data_PCOD8152010
_publ_section_title
;
Structure prediction by ZEFSAII (Michael W. Deem and Ramdas Pophale) SiO2 
 PCOD8152010
Probable space group: C 2/C
;
_chemical_formula_sum "Si O2"
_cell_formula_units_Z 48
_cell_length_a 16.882262
_cell_length_b 9.398240
_cell_length_c 17.160214
_cell_angle_alpha 90.000000
_cell_angle_beta 49.704187
_cell_angle_gamma 90.000000
_cell_volume 2076.646106
_symmetry_space_group_name_H-M "C 2/C"
_symmetry_group_IT_number 15
_symmetry_cell_setting 'monoclinic'
loop_
_space_group_symop_operation_xyz
x,y,z
-x,y,1/2-z
-x,-y,-z
x,-y,1/2+z
1/2+x,1/2+y,z
1/2-x,1/2+y,1/2-z
1/2-x,1/2-y,-z
1/2+x,1/2-y,1/2+z
loop_
_atom_site_type_symbol
_atom_site_label
_atom_site_fract_x
_atom_site_fract_y
_atom_site_fract_z
Si Si1 0.672887 0.501136 0.965596
Si Si2 0.010693 0.783371 0.122359
Si Si3 0.297670 0.392935 0.299275
Si Si4 0.153007 0.460047 0.527574
Si Si5 0.830919 0.831446 0.689918
Si Si6 0.949595 0.728075 0.986621
O O1 0.691472 0.415567 0.875146
O O2 0.581055 0.424262 0.071748
O O3 0.778539 0.521692 0.946462
O O4 0.641884 0.660977 0.966884
O O5 0.912673 0.826874 0.238343
O O6 0.075932 0.653638 0.117251
O O7 0.975006 0.721594 0.061539
O O8 0.228592 0.373416 0.420414
O O9 0.243315 0.306954 0.262580
O O10 0.303291 0.561542 0.277641
O O11 0.087325 0.577158 0.522831
O O12 0.948794 0.779997 0.624714
#
# Coordination Sequence:
#
# PCOD8152010 Si02
#       6
#     8   8   8   8   8   8
#     4  11  22  46  64  95 137 178 211 279 349 375
#     4  11  22  43  68  92 134 175 225 269 327 395
#     4  12  24  41  71 101 131 175 236 269 321 409
#     4  12  26  40  70 103 134 175 222 279 337 390
#     4  11  24  42  70  96 132 179 227 271 326 402
#     4  11  21  45  67  93 131 183 219 265 336 403
#
# _framework density 23.114193
#
# number of rings (size 3 to 8) (size 9 to 14) (size 15 to 20)
#    0.000    0.667    6.667    3.500    2.333    0.667 
#    0.000    0.000    0.000    0.000    0.000    0.000 
#    0.000    0.000    0.000    0.000    0.000    0.000 
#
# Total GULP energy -297650.846868 kJ/mol
# GULP energy per Si atom -12402.118619 kJ/mol
# Density = 2.306158 g / cm^3
# Si number density = 23.114193 Si / 1000 Ang^3
#
#
#
# Elastic Constant Matrix: (Units=GPa)
#
#
# Indices 1 2 3 4 5 6 
#
# 1 84.4136 14.5195 11.0074 0.0000 -22.8677 0.0000
# 2 14.5195 87.7330 25.8311 0.0000 -12.5601 0.0000
# 3 11.0074 25.8311 58.0141 0.0000 -18.1778 0.0000
# 4 0.0000 0.0000 0.0000 32.2801 0.0000 -12.7876
# 5 -22.8677 -12.5601 -18.1778 0.0000 18.5419 0.0000
# 6 0.0000 0.0000 0.0000 -12.7876 0.0000 28.2967
#
#
#
# Elastic Compliance Matrix: (Units=1/GPa)
#
#
# Indices 1 2 3 4 5 6 
#
# 1 0.018917 -0.000726 0.005615 0.000000 0.028344 0.000000
# 2 -0.000726 0.013419 -0.004719 0.000000 0.003567 0.000000
# 3 0.005615 -0.004719 0.028061 0.000000 0.031238 0.000000
# 4 0.000000 0.000000 0.000000 0.037734 0.000000 0.017052
# 5 0.028344 0.003567 0.031238 0.000000 0.121929 0.000000
# 6 0.000000 0.000000 0.000000 0.017052 0.000000 0.043046
#
#
# Mechanical properties :
#
#
# Convention : Reuss Voigt Hill
#
# Bulk Modulus (GPa) = 16.46458 36.98631 26.72544
# Shear Modulus (GPa) = 17.66709 27.74394 22.70551
#
# Velocity S-wave (km/s) = 2.76767 3.46829 3.13760
# Velocity P-wave (km/s) = 4.16556 5.66348 4.97126
#
# Compressibility (1/GPa) = 0.06073644
#
# Stress axis : x y z
#
# Youngs Moduli (GPa) = 52.86125 74.52351 35.63662
#
# Poissons Ratio (x) = 0.05412 -0.20010
# Poissons Ratio (y) = 0.03839 0.16817
# Poissons Ratio (z) = -0.29682 0.35168
#
# Static dielectric constant tensor:
#      x y z
#    x 4.176760 0.000000 -0.339240 
#    y 0.000000 4.365990 0.000000 
#    z -0.339240 0.000000 4.012430 
# 
# 
# High freq. dielectric constant tensor:
#      x y z
#    x 1.911850 0.000000 -0.024190 
#    y 0.000000 1.923360 0.000000 
#    z -0.024190 0.000000 1.899540 
# 
# From -- ./inp_files/247293.got.cif
#   From: 2010.06.25/outbox.cif.g09.slc.cpg/sg15_124_cif.got.tgz:247293.got - 2010.06.28 07:06:18.
