data_PCOD8152153
_publ_section_title
;
Structure prediction by ZEFSAII (Michael W. Deem and Ramdas Pophale) SiO2 
 PCOD8152153
Probable space group: C 2/C
;
_chemical_formula_sum "Si O2"
_cell_formula_units_Z 56
_cell_length_a 20.000052
_cell_length_b 13.414885
_cell_length_c 9.282462
_cell_angle_alpha 90.000000
_cell_angle_beta 86.193663
_cell_angle_gamma 90.000000
_cell_volume 2484.976033
_symmetry_space_group_name_H-M "C 2/C"
_symmetry_group_IT_number 15
_symmetry_cell_setting 'monoclinic'
loop_
_space_group_symop_operation_xyz
x,y,z
-x,y,1/2-z
-x,-y,-z
x,-y,1/2+z
1/2+x,1/2+y,z
1/2-x,1/2+y,1/2-z
1/2-x,1/2-y,-z
1/2+x,1/2-y,1/2+z
loop_
_atom_site_type_symbol
_atom_site_label
_atom_site_fract_x
_atom_site_fract_y
_atom_site_fract_z
Si Si1 0.293058 0.662042 0.676408
Si Si2 0.856998 0.334325 0.211411
Si Si3 0.752577 0.459222 0.880461
Si Si4 0.899356 0.738905 0.989425
Si Si5 0.849008 0.187403 0.965540
Si Si6 0.843604 0.546800 0.115489
Si Si7 0.008548 0.102963 0.579285
O O1 0.214708 0.682860 0.703366
O O2 0.301031 0.541390 0.668971
O O3 0.326935 0.709353 0.529539
O O4 0.336130 0.709126 0.800517
O O5 0.907729 0.280393 0.315966
O O6 0.857050 0.289377 0.051696
O O7 0.877121 0.449811 0.185667
O O8 0.715282 0.372046 0.968382
O O9 0.790126 0.409555 0.738505
O O10 0.804797 0.515600 0.976776
O O11 0.899143 0.630649 0.070098
O O12 0.959461 0.808843 0.033435
O O13 0.916582 0.127900 0.974931
O O14 0.000000 0.087671 0.750000
O O15 0.000000 0.000000 0.500000
#
# Coordination Sequence:
#
# PCOD8152153 Si02
#       7
#     8   8   8   8   8   8   8
#     4  11  22  40  65 105 142 183 233 292 378 422
#     4  11  25  40  70 110 136 188 231 304 371 427
#     4  11  22  38  65 109 148 183 228 304 368 433
#     4  12  25  46  71  98 151 191 241 300 358 437
#     4  12  25  42  69 100 147 187 241 288 357 432
#     4  11  23  42  67 107 147 178 236 293 375 431
#     4  12  30  52  74 102 138 196 245 295 348 436
#
# _framework density 22.535428
#
# number of rings (size 3 to 8) (size 9 to 14) (size 15 to 20)
#    0.000    0.571    7.143    2.571    6.000    0.000 
#    0.000    0.714    0.000    0.000    0.000    0.000 
#    0.000    0.000    0.000    0.000    0.000    0.000 
#
# Total GULP energy -347124.672387 kJ/mol
# GULP energy per Si atom -12397.309728 kJ/mol
# Density = 2.248414 g / cm^3
# Si number density = 22.535428 Si / 1000 Ang^3
#
#
#
# Elastic Constant Matrix: (Units=GPa)
#
#
# Indices 1 2 3 4 5 6 
#
# 1 55.6740 35.9559 24.1527 0.0000 11.0899 0.0000
# 2 35.9559 130.4921 50.5655 0.0000 12.8010 0.0000
# 3 24.1527 50.5655 97.8041 0.0000 16.9431 0.0000
# 4 0.0000 0.0000 0.0000 44.0156 0.0000 3.5806
# 5 11.0899 12.8010 16.9431 0.0000 24.1127 0.0000
# 6 0.0000 0.0000 0.0000 3.5806 0.0000 -26.1140
#
#
#
# Elastic Compliance Matrix: (Units=1/GPa)
#
#
# Indices 1 2 3 4 5 6 
#
# 1 0.023408 -0.005006 -0.002036 0.000000 -0.006678 0.000000
# 2 -0.005006 0.010725 -0.004237 0.000000 -0.000414 0.000000
# 3 -0.002036 -0.004237 0.014080 0.000000 -0.006708 0.000000
# 4 0.000000 0.000000 0.000000 0.022469 0.000000 0.003081
# 5 -0.006678 -0.000414 -0.006708 0.000000 0.049476 0.000000
# 6 0.000000 0.000000 0.000000 0.003081 0.000000 -0.037871
#
#
# Mechanical properties :
#
#
# Convention : Reuss Voigt Hill
#
# Bulk Modulus (GPa) = 38.97762 56.14648 47.56205
# Shear Modulus (GPa) = 44.09337 19.95595 32.02466
#
# Velocity S-wave (km/s) = 4.42817 2.97903 3.77381
# Velocity P-wave (km/s) = 6.59384 6.06644 6.33563
#
# Compressibility (1/GPa) = 0.02565575
#
# Stress axis : x y z
#
# Youngs Moduli (GPa) = 42.72045 93.23920 71.02379
#
# Poissons Ratio (x) = 0.46675 0.14458
# Poissons Ratio (y) = 0.21386 0.30093
# Poissons Ratio (z) = 0.08696 0.39505
#
# Static dielectric constant tensor:
#      x y z
#    x 3.755990 0.000000 -0.037260 
#    y 0.000000 4.377030 0.000000 
#    z -0.037260 0.000000 4.390850 
# 
# 
# High freq. dielectric constant tensor:
#      x y z
#    x 1.846540 0.000000 -0.002200 
#    y 0.000000 1.902880 0.000000 
#    z -0.002200 0.000000 1.910690 
# 
# From -- ./inp_files/55609.got.cif
#   From: 2010.06.25/outbox.cif.g09.slc.cpg/sg15_28_cif.got.tgz:55609.got - 2010.06.28 07:06:18.
