data_PCOD8152893
_publ_section_title
;
Structure prediction by ZEFSAII (Michael W. Deem and Ramdas Pophale) SiO2 
 PCOD8152893
Probable space group: C 2/C
;
_chemical_formula_sum "Si O2"
_cell_formula_units_Z 48
_cell_length_a 29.370217
_cell_length_b 8.360219
_cell_length_c 14.853736
_cell_angle_alpha 90.000000
_cell_angle_beta 139.873219
_cell_angle_gamma 90.000000
_cell_volume 2350.556494
_symmetry_space_group_name_H-M "C 2/C"
_symmetry_group_IT_number 15
_symmetry_cell_setting 'monoclinic'
loop_
_space_group_symop_operation_xyz
x,y,z
-x,y,1/2-z
-x,-y,-z
x,-y,1/2+z
1/2+x,1/2+y,z
1/2-x,1/2+y,1/2-z
1/2-x,1/2-y,-z
1/2+x,1/2-y,1/2+z
loop_
_atom_site_type_symbol
_atom_site_label
_atom_site_fract_x
_atom_site_fract_y
_atom_site_fract_z
Si Si1 0.676285 0.935243 0.674229
Si Si2 0.676285 0.564756 0.674229
Si Si3 0.170544 0.064216 0.357818
Si Si4 0.580884 0.934815 0.878514
Si Si5 0.580884 0.565185 0.878515
Si Si6 0.670544 0.935784 0.357818
O O1 0.684389 0.750000 0.710526
O O2 0.750000 1.000000 0.750001
O O3 0.617087 0.957533 0.509220
O O4 0.652977 0.031085 0.727486
O O5 0.652977 0.468915 0.727487
O O6 0.617087 0.542466 0.509220
O O7 0.250000 0.008724 0.500000
O O8 0.160169 0.250000 0.364532
O O9 0.117170 0.962228 0.337229
O O10 0.500000 0.988873 0.750000
O O11 0.587835 0.750000 0.916488
O O12 0.617170 0.962228 0.837228
O O13 0.500000 0.511128 0.750000
#
# Coordination Sequence:
#
# PCOD8152893 Si02
#       6
#     8   8   8   8   8   8
#     4  12  24  40  66  96 128 168 213 263 316 376
#     4  12  24  40  66  96 128 168 213 263 316 376
#     4  11  23  40  66  97 127 167 215 262 313 377
#     4  11  25  44  66  95 131 169 211 263 320 377
#     4  11  25  44  66  95 131 169 211 263 320 377
#     4  11  23  40  66  97 127 167 215 262 313 377
#
# _framework density 20.420697000000001
#
# number of rings (size 3 to 8) (size 9 to 14) (size 15 to 20)
#    0.000    0.667    3.333    5.000    0.000    5.333 
#    0.000    0.000    0.000    0.000    0.000    0.000 
#    0.000    0.000    0.000    0.000    0.000    0.000 
#
# Total GULP energy -297831.968994 kJ/mol
# GULP energy per Si atom -12409.665375 kJ/mol
# Density = 2.037422 g / cm^3
# Si number density = 20.420697 Si / 1000 Ang^3
#
#
#
# Elastic Constant Matrix: (Units=GPa)
#
#
# Indices 1 2 3 4 5 6 
#
# 1 130.3570 8.8294 61.2745 0.0000 0.5932 0.0000
# 2 8.8294 67.1061 23.5238 0.0000 14.4174 0.0000
# 3 61.2745 23.5238 123.2777 0.0000 6.8789 0.0000
# 4 0.0000 0.0000 0.0000 32.2400 0.0000 -3.1519
# 5 0.5932 14.4174 6.8789 0.0000 44.0120 0.0000
# 6 0.0000 0.0000 0.0000 -3.1519 0.0000 35.8242
#
#
#
# Elastic Compliance Matrix: (Units=1/GPa)
#
#
# Indices 1 2 3 4 5 6 
#
# 1 0.010035 0.000344 -0.005084 0.000000 0.000547 0.000000
# 2 0.000344 0.017053 -0.003141 0.000000 -0.005100 0.000000
# 3 -0.005084 -0.003141 0.011275 0.000000 -0.000665 0.000000
# 4 0.000000 0.000000 0.000000 0.031287 0.000000 0.002753
# 5 0.000547 -0.005100 -0.000665 0.000000 0.024488 0.000000
# 6 0.000000 0.000000 0.000000 0.002753 0.000000 0.028156
#
#
# Mechanical properties :
#
#
# Convention : Reuss Voigt Hill
#
# Bulk Modulus (GPa) = 44.24241 56.44401 50.34321
# Shear Modulus (GPa) = 34.34305 37.55610 35.94958
#
# Velocity S-wave (km/s) = 4.10540 4.29315 4.20032
# Velocity P-wave (km/s) = 6.64717 7.23017 6.94479
#
# Compressibility (1/GPa) = 0.02260275
#
# Stress axis : x y z
#
# Youngs Moduli (GPa) = 99.64869 58.64029 88.68988
#
# Poissons Ratio (x) = -0.02020 0.45092
# Poissons Ratio (y) = -0.03432 0.27855
# Poissons Ratio (z) = 0.50663 0.18417
#
# Static dielectric constant tensor:
#      x y z
#    x 3.769340 0.000000 0.036260 
#    y 0.000000 3.702940 0.000000 
#    z 0.036260 0.000000 4.032430 
# 
# 
# High freq. dielectric constant tensor:
#      x y z
#    x 1.806740 0.000000 -0.007810 
#    y 0.000000 1.809380 0.000000 
#    z -0.007810 0.000000 1.798960 
# 
# From -- ./inp_files/166408.got.cif
#   From: 2010.06.25/outbox.cif.g09.slc.cpg/sg15_84_cif.got.tgz:166408.got - 2010.06.28 07:06:18.
