data_PCOD8152818
_publ_section_title
;
Structure prediction by ZEFSAII (Michael W. Deem and Ramdas Pophale) SiO2 
 PCOD8152818
Probable space group: C 2/C
;
_chemical_formula_sum "Si O2"
_cell_formula_units_Z 56
_cell_length_a 18.130231
_cell_length_b 13.874425
_cell_length_c 17.188032
_cell_angle_alpha 90.000000
_cell_angle_beta 136.537753
_cell_angle_gamma 90.000000
_cell_volume 2974.095684
_symmetry_space_group_name_H-M "C 2/C"
_symmetry_group_IT_number 15
_symmetry_cell_setting 'monoclinic'
loop_
_space_group_symop_operation_xyz
x,y,z
-x,y,1/2-z
-x,-y,-z
x,-y,1/2+z
1/2+x,1/2+y,z
1/2-x,1/2+y,1/2-z
1/2-x,1/2-y,-z
1/2+x,1/2-y,1/2+z
loop_
_atom_site_type_symbol
_atom_site_label
_atom_site_fract_x
_atom_site_fract_y
_atom_site_fract_z
Si Si1 0.445805 0.273986 0.788061
Si Si2 0.107981 0.624647 0.968345
Si Si3 0.339028 0.827977 0.820297
Si Si4 0.392890 0.379766 0.410926
Si Si5 0.048848 0.537912 0.207898
Si Si6 0.787731 0.382561 0.113119
Si Si7 0.121178 0.912499 0.643690
O O1 0.500000 0.299299 0.750000
O O2 0.531726 0.218846 0.908544
O O3 0.341377 0.208202 0.697015
O O4 0.410729 0.376022 0.795359
O O5 0.199705 0.629109 0.970880
O O6 0.036847 0.530902 0.899254
O O7 0.159987 0.622656 0.093314
O O8 0.358421 0.713845 0.836231
O O9 0.428607 0.875304 0.833821
O O10 0.223772 0.851025 0.693760
O O11 0.336471 0.381952 0.453985
O O12 0.521379 0.387055 0.511458
O O13 0.351693 0.474129 0.332858
O O14 0.155567 0.479050 0.312328
O O15 0.000000 0.581251 0.250000
#
# Coordination Sequence:
#
# PCOD8152818 Si02
#       7
#     8   8   8   8   8   8   8
#     4   9  17  33  57  85 116 146 184 234 289 339
#     4   9  19  33  59  93 110 138 191 248 286 320
#     4  12  21  36  62  85 110 152 195 235 277 344
#     4  11  23  37  56  84 121 155 184 228 287 350
#     4   9  19  37  60  85 112 147 194 242 280 322
#     4   9  17  35  58  84 119 145 180 239 293 330
#     4  11  23  37  53  85 120 157 181 224 297 342
#
# _framework density 18.829253000000001
#
# number of rings (size 3 to 8) (size 9 to 14) (size 15 to 20)
#    0.000    2.000    4.286    2.143    0.000    1.714 
#    2.571    0.714    0.000    0.857    0.000    0.000 
#    0.000    0.000    0.000    0.000    0.000    0.000 
#
# Total GULP energy -347087.154929 kJ/mol
# GULP energy per Si atom -12395.969819 kJ/mol
# Density = 1.878640 g / cm^3
# Si number density = 18.829253 Si / 1000 Ang^3
#
#
#
# Elastic Constant Matrix: (Units=GPa)
#
#
# Indices 1 2 3 4 5 6 
#
# 1 108.2855 67.1025 35.2413 0.0000 -1.8364 0.0000
# 2 67.1025 140.5307 35.6964 0.0000 -8.0249 0.0000
# 3 35.2413 35.6964 57.3169 0.0000 0.1792 0.0000
# 4 0.0000 0.0000 0.0000 19.3042 0.0000 -4.5604
# 5 -1.8364 -8.0249 0.1792 0.0000 30.1150 0.0000
# 6 0.0000 0.0000 0.0000 -4.5604 0.0000 31.0446
#
#
#
# Elastic Compliance Matrix: (Units=1/GPa)
#
#
# Indices 1 2 3 4 5 6 
#
# 1 0.014422 -0.005544 -0.005413 0.000000 -0.000566 0.000000
# 2 -0.005544 0.010744 -0.003291 0.000000 0.002545 0.000000
# 3 -0.005413 -0.003291 0.022829 0.000000 -0.001343 0.000000
# 4 0.000000 0.000000 0.000000 0.053665 0.000000 0.007883
# 5 -0.000566 0.002545 -0.001343 0.000000 0.033858 0.000000
# 6 0.000000 0.000000 0.000000 0.007883 0.000000 0.033370
#
#
# Mechanical properties :
#
#
# Convention : Reuss Voigt Hill
#
# Bulk Modulus (GPa) = 51.28236 64.69040 57.98638
# Shear Modulus (GPa) = 24.52388 27.29895 25.91141
#
# Velocity S-wave (km/s) = 3.61284 3.81178 3.71364
# Velocity P-wave (km/s) = 6.68566 7.33510 7.01790
#
# Compressibility (1/GPa) = 0.01949988
#
# Stress axis : x y z
#
# Youngs Moduli (GPa) = 69.33652 93.07314 43.80438
#
# Poissons Ratio (x) = 0.51599 0.23712
# Poissons Ratio (y) = 0.38439 0.14415
# Poissons Ratio (z) = 0.37533 0.30628
#
# Static dielectric constant tensor:
#      x y z
#    x 3.623820 0.000000 0.194500 
#    y 0.000000 3.439870 0.000000 
#    z 0.194500 0.000000 3.316740 
# 
# 
# High freq. dielectric constant tensor:
#      x y z
#    x 1.736610 0.000000 0.016010 
#    y 0.000000 1.721980 0.000000 
#    z 0.016010 0.000000 1.711750 
# 
# From -- ./inp_files/162329.got.cif
#   From: 2010.06.25/outbox.cif.g09.slc.cpg/sg15_82_cif.got.tgz:162329.got - 2010.06.28 07:06:18.
