data_PCOD8152073
_publ_section_title
;
Structure prediction by ZEFSAII (Michael W. Deem and Ramdas Pophale) SiO2 
 PCOD8152073
Probable space group: C 2/C
;
_chemical_formula_sum "Si O2"
_cell_formula_units_Z 60
_cell_length_a 19.899060
_cell_length_b 18.942345
_cell_length_c 14.030728
_cell_angle_alpha 90.000000
_cell_angle_beta 31.051194
_cell_angle_gamma 90.000000
_cell_volume 2727.916079
_symmetry_space_group_name_H-M "C 2/C"
_symmetry_group_IT_number 15
_symmetry_cell_setting 'monoclinic'
loop_
_space_group_symop_operation_xyz
x,y,z
-x,y,1/2-z
-x,-y,-z
x,-y,1/2+z
1/2+x,1/2+y,z
1/2-x,1/2+y,1/2-z
1/2-x,1/2-y,-z
1/2+x,1/2-y,1/2+z
loop_
_atom_site_type_symbol
_atom_site_label
_atom_site_fract_x
_atom_site_fract_y
_atom_site_fract_z
Si Si1 0.836153 0.628563 0.052473
Si Si2 0.605411 0.876931 0.803456
Si Si3 0.087256 0.737522 0.005085
Si Si4 0.500000 0.243249 0.750000
Si Si5 0.421557 0.027198 0.437261
Si Si6 0.195533 0.130868 0.737536
Si Si7 0.055821 0.165253 0.363778
Si Si8 0.634461 0.643618 0.600400
O O1 0.858971 0.649389 0.134457
O O2 0.683983 0.615925 0.212962
O O3 0.914491 0.556749 0.939238
O O4 0.885631 0.692630 0.927153
O O5 0.510169 0.945454 0.918762
O O6 0.740032 0.898957 0.587704
O O7 0.537384 0.813560 0.827114
O O8 0.212046 0.689573 0.829554
O O9 0.064826 0.778815 0.936237
O O10 0.114405 0.784115 0.065181
O O11 0.446458 0.294331 0.733346
O O12 0.500000 0.056316 0.250000
O O13 0.275244 0.058326 0.623362
O O14 0.142949 0.161969 0.701389
O O15 0.074751 0.118525 0.957559
O O16 0.500000 0.598425 0.750000
#
# Coordination Sequence:
#
# PCOD8152073 Si02
#       8
#     8   8   8   4   8   8   8   8
#     4  12  24  45  71  95 130 178 231 281 327 401
#     4  11  23  40  63  98 134 173 223 273 331 401
#     4  11  22  35  63  94 133 173 209 267 336 403
#     4  12  26  46  70  98 136 176 234 288 336 398
#     4  11  24  44  69  96 131 180 227 273 328 400
#     4  11  24  40  64  96 140 173 219 274 339 411
#     4  12  24  44  66 100 134 173 225 283 347 393
#     4  12  22  33  61  98 136 174 210 270 341 405
#
# _framework density 21.994810999999999
#
# number of rings (size 3 to 8) (size 9 to 14) (size 15 to 20)
#    0.000    0.533    6.000    2.800    1.867    0.533 
#    0.000    0.000    1.467    0.000    0.000    0.000 
#    0.000    0.000    0.000    0.000    0.000    0.000 
#
# Total GULP energy -371910.029771 kJ/mol
# GULP energy per Si atom -12397.000992 kJ/mol
# Density = 2.194475 g / cm^3
# Si number density = 21.994811 Si / 1000 Ang^3
#
#
#
# Elastic Constant Matrix: (Units=GPa)
#
#
# Indices 1 2 3 4 5 6 
#
# 1 98.6164 37.2561 55.0476 0.0003 -4.9045 0.0000
# 2 37.2561 72.8133 28.0762 0.0002 -4.6411 0.0001
# 3 55.0476 28.0762 149.1779 0.0005 -17.8526 0.0001
# 4 0.0003 0.0002 0.0005 15.3488 -0.0004 1.8939
# 5 -4.9045 -4.6411 -17.8526 -0.0004 42.5922 -0.0001
# 6 0.0000 0.0001 0.0001 1.8939 -0.0001 22.7955
#
#
#
# Elastic Compliance Matrix: (Units=1/GPa)
#
#
# Indices 1 2 3 4 5 6 
#
# 1 0.014821 -0.005918 -0.004451 0.000000 -0.000804 0.000000
# 2 -0.005918 0.017181 -0.000955 0.000000 0.000790 0.000000
# 3 -0.004451 -0.000955 0.008898 0.000000 0.003113 0.000000
# 4 0.000000 0.000000 0.000000 0.065827 0.000000 -0.005469
# 5 -0.000804 0.000790 0.003113 0.000000 0.024777 0.000000
# 6 0.000000 0.000000 0.000000 -0.005469 0.000000 0.044323
#
#
# Mechanical properties :
#
#
# Convention : Reuss Voigt Hill
#
# Bulk Modulus (GPa) = 54.79315 62.37415 58.58365
# Shear Modulus (GPa) = 24.44287 29.49582 26.96935
#
# Velocity S-wave (km/s) = 3.33724 3.66599 3.50547
# Velocity P-wave (km/s) = 6.30995 6.80731 6.56334
#
# Compressibility (1/GPa) = 0.01825046
#
# Stress axis : x y z
#
# Youngs Moduli (GPa) = 67.47241 58.20550 112.38106
#
# Poissons Ratio (x) = 0.34447 0.50025
# Poissons Ratio (y) = 0.39931 0.10733
# Poissons Ratio (z) = 0.30035 0.05559
#
# Static dielectric constant tensor:
#      x y z
#    x 4.159800 0.000000 -0.242440 
#    y 0.000000 3.519750 0.000000 
#    z -0.242440 0.000000 4.462100 
# 
# 
# High freq. dielectric constant tensor:
#      x y z
#    x 1.874800 0.000000 -0.012680 
#    y 0.000000 1.828180 0.000000 
#    z -0.012680 0.000000 1.882090 
# 
# From -- ./inp_files/169463.got.cif
#   From: 2010.06.25/outbox.cif.g09.slc.cpg/sg15_85_cif.got.tgz:169463.got - 2010.06.28 07:06:18.
