data_PCOD8152486
_publ_section_title
;
Structure prediction by ZEFSAII (Michael W. Deem and Ramdas Pophale) SiO2 
 PCOD8152486
Probable space group: C 2/C
;
_chemical_formula_sum "Si O2"
_cell_formula_units_Z 40
_cell_length_a 11.685977
_cell_length_b 16.704327
_cell_length_c 17.161892
_cell_angle_alpha 90.000000
_cell_angle_beta 147.519618
_cell_angle_gamma 90.000000
_cell_volume 1799.045700
_symmetry_space_group_name_H-M "C 2/C"
_symmetry_group_IT_number 15
_symmetry_cell_setting 'monoclinic'
loop_
_space_group_symop_operation_xyz
x,y,z
-x,y,1/2-z
-x,-y,-z
x,-y,1/2+z
1/2+x,1/2+y,z
1/2-x,1/2+y,1/2-z
1/2-x,1/2-y,-z
1/2+x,1/2-y,1/2+z
loop_
_atom_site_type_symbol
_atom_site_label
_atom_site_fract_x
_atom_site_fract_y
_atom_site_fract_z
Si Si1 0.811423 0.220620 0.294042
Si Si2 0.013727 0.628037 0.849492
Si Si3 0.843025 0.713485 0.974188
Si Si4 0.796370 0.447301 0.361553
Si Si5 0.474173 0.584301 0.153750
O O1 0.754183 0.235149 0.351083
O O2 0.906544 0.131222 0.346254
O O3 0.995571 0.278538 0.363810
O O4 0.597670 0.223180 0.120190
O O5 0.000000 0.616548 0.750000
O O6 0.822515 0.589192 0.789719
O O7 0.224349 0.579521 0.994442
O O8 0.775522 0.621542 0.916758
O O9 0.750000 0.750000 0.000000
O O10 0.578745 0.497329 0.229121
O O11 0.000000 0.500000 0.500000
O O12 0.500000 0.633071 0.250000
#
# Coordination Sequence:
#
# PCOD8152486 Si02
#       5
#     8   8   8   8   8
#     4  11  22  42  68 102 138 170 245 288 346 430
#     4  11  24  42  66 102 136 177 235 294 351 412
#     4  11  24  44  70 100 138 187 231 295 357 426
#     4  11  23  46  65  98 142 183 239 282 356 437
#     4  12  22  41  71  94 134 192 225 289 360 422
#
# _framework density 22.234009
#
# number of rings (size 3 to 8) (size 9 to 14) (size 15 to 20)
#    0.000    0.800    4.000    4.200    0.000    4.000 
#    3.600    0.000    0.000    0.000    0.000    0.000 
#    0.000    0.000    0.000    0.000    0.000    0.000 
#
# Total GULP energy -247832.861620 kJ/mol
# GULP energy per Si atom -12391.643081 kJ/mol
# Density = 2.218340 g / cm^3
# Si number density = 22.234009 Si / 1000 Ang^3
#
#
#
# Elastic Constant Matrix: (Units=GPa)
#
#
# Indices 1 2 3 4 5 6 
#
# 1 130.9435 72.5701 40.4932 0.0008 -18.4702 0.0001
# 2 72.5701 144.8822 49.7125 0.0006 -0.7159 0.0002
# 3 40.4932 49.7125 122.3309 0.0013 2.5341 0.0020
# 4 0.0008 0.0006 0.0013 28.3139 -0.0004 -11.0896
# 5 -18.4702 -0.7159 2.5341 -0.0004 41.8834 -0.0002
# 6 0.0001 0.0002 0.0020 -11.0896 -0.0002 20.5134
#
#
#
# Elastic Compliance Matrix: (Units=1/GPa)
#
#
# Indices 1 2 3 4 5 6 
#
# 1 0.011894 -0.005279 -0.001901 0.000000 0.005270 0.000000
# 2 -0.005279 0.010368 -0.002424 0.000000 -0.002004 0.000000
# 3 -0.001901 -0.002424 0.009820 -0.000001 -0.001474 -0.000001
# 4 0.000000 0.000000 -0.000001 0.044805 0.000001 0.024222
# 5 0.005270 -0.002004 -0.001474 0.000001 0.026255 0.000001
# 6 0.000000 0.000000 -0.000001 0.024222 0.000001 0.061843
#
#
# Mechanical properties :
#
#
# Convention : Reuss Voigt Hill
#
# Bulk Modulus (GPa) = 77.68363 80.41202 79.04783
# Shear Modulus (GPa) = 26.52731 33.83420 30.18075
#
# Velocity S-wave (km/s) = 3.45787 3.90517 3.68831
# Velocity P-wave (km/s) = 7.13845 7.52187 7.33267
#
# Compressibility (1/GPa) = 0.01287272
#
# Stress axis : x y z
#
# Youngs Moduli (GPa) = 84.07711 96.44610 101.83781
#
# Poissons Ratio (x) = 0.50916 0.19358
# Poissons Ratio (y) = 0.44386 0.24691
# Poissons Ratio (z) = 0.15982 0.23383
#
# Static dielectric constant tensor:
#      x y z
#    x 3.931300 0.000010 0.023200 
#    y 0.000010 4.114770 -0.000010 
#    z 0.023200 -0.000010 4.033210 
# 
# 
# High freq. dielectric constant tensor:
#      x y z
#    x 1.888070 0.000000 0.002380 
#    y 0.000000 1.870420 0.000000 
#    z 0.002380 0.000000 1.875080 
# 
# From -- ./inp_files/29214.got.cif
#   From: 2010.06.25/outbox.cif.g09.slc.cpg/sg15_15_cif.got.tgz:29214.got - 2010.06.28 07:06:18.
