data_PCOD8152257
_publ_section_title
;
Structure prediction by ZEFSAII (Michael W. Deem and Ramdas Pophale) SiO2 
 PCOD8152257
Probable space group: C 2/C
;
_chemical_formula_sum "Si O2"
_cell_formula_units_Z 52
_cell_length_a 8.516582
_cell_length_b 13.379579
_cell_length_c 25.697530
_cell_angle_alpha 90.000000
_cell_angle_beta 55.856717
_cell_angle_gamma 90.000000
_cell_volume 2423.476633
_symmetry_space_group_name_H-M "C 2/C"
_symmetry_group_IT_number 15
_symmetry_cell_setting 'monoclinic'
loop_
_space_group_symop_operation_xyz
x,y,z
-x,y,1/2-z
-x,-y,-z
x,-y,1/2+z
1/2+x,1/2+y,z
1/2-x,1/2+y,1/2-z
1/2-x,1/2-y,-z
1/2+x,1/2-y,1/2+z
loop_
_atom_site_type_symbol
_atom_site_label
_atom_site_fract_x
_atom_site_fract_y
_atom_site_fract_z
Si Si1 0.686119 0.841933 0.833852
Si Si2 0.488603 0.833495 0.064701
Si Si3 0.019312 0.468486 0.155066
Si Si4 0.000000 0.690731 0.750000
Si Si5 0.444698 0.518490 0.569429
Si Si6 0.819999 0.854990 0.923825
Si Si7 0.632051 0.289457 0.069846
O O1 0.815205 0.762132 0.778979
O O2 0.794865 0.861012 0.867176
O O3 0.476739 0.800409 0.882561
O O4 0.643460 0.945148 0.809817
O O5 0.516876 0.927575 0.096728
O O6 0.537189 0.733168 0.087027
O O7 0.271456 0.835615 0.086889
O O8 0.618809 0.842152 0.989464
O O9 0.985858 0.380215 0.202355
O O10 0.230298 0.513254 0.122927
O O11 0.500000 0.500000 0.500000
O O12 0.588248 0.459272 0.578612
O O13 0.472657 0.634706 0.578077
O O14 0.750000 0.250000 0.000000
#
# Coordination Sequence:
#
# PCOD8152257 Si02
#       7
#     8   8   8   4   8   8   8
#     4  12  26  49  75 101 140 191 243 298 366 432
#     4  11  22  40  68 110 144 180 230 292 366 433
#     4  12  26  49  75 101 141 194 239 305 363 436
#     4  12  28  56  72  98 152 194 258 304 356 442
#     4  12  23  39  69 109 148 184 233 295 376 434
#     4  11  22  39  71 107 146 182 227 294 368 437
#     4  12  23  40  68 110 146 182 230 295 362 442
#
# _framework density 21.456778
#
# number of rings (size 3 to 8) (size 9 to 14) (size 15 to 20)
#    0.000    0.308    6.154    3.692    0.000    2.462 
#    5.538    0.000    0.000    0.000    0.000    0.000 
#    0.000    0.000    0.000    0.000    0.000    0.000 
#
# Total GULP energy -322471.178090 kJ/mol
# GULP energy per Si atom -12402.737619 kJ/mol
# Density = 2.140794 g / cm^3
# Si number density = 21.456778 Si / 1000 Ang^3
#
#
#
# Elastic Constant Matrix: (Units=GPa)
#
#
# Indices 1 2 3 4 5 6 
#
# 1 112.9921 33.3237 33.1643 -0.0001 -1.5918 0.0001
# 2 33.3237 110.9141 32.4452 -0.0001 -6.6532 0.0000
# 3 33.1643 32.4452 78.0875 -0.0001 -9.1900 0.0001
# 4 -0.0001 -0.0001 -0.0001 38.2172 0.0001 -2.8838
# 5 -1.5918 -6.6532 -9.1900 0.0001 27.9473 -0.0001
# 6 0.0001 0.0000 0.0001 -2.8838 -0.0001 54.0045
#
#
#
# Elastic Compliance Matrix: (Units=1/GPa)
#
#
# Indices 1 2 3 4 5 6 
#
# 1 0.010562 -0.002152 -0.003725 0.000000 -0.001136 0.000000
# 2 -0.002152 0.010733 -0.003391 0.000000 0.001318 0.000000
# 3 -0.003725 -0.003391 0.016308 0.000000 0.004343 0.000000
# 4 0.000000 0.000000 0.000000 0.026272 0.000000 0.001403
# 5 -0.001136 0.001318 0.004343 0.000000 0.037459 0.000000
# 6 0.000000 0.000000 0.000000 0.001403 0.000000 0.018592
#
#
# Mechanical properties :
#
#
# Convention : Reuss Voigt Hill
#
# Bulk Modulus (GPa) = 52.44365 55.54000 53.99182
# Shear Modulus (GPa) = 34.52589 37.57116 36.04852
#
# Velocity S-wave (km/s) = 4.01570 4.18905 4.10329
# Velocity P-wave (km/s) = 6.78201 7.02413 6.90413
#
# Compressibility (1/GPa) = 0.01906808
#
# Stress axis : x y z
#
# Youngs Moduli (GPa) = 94.67700 93.16720 61.31805
#
# Poissons Ratio (x) = 0.20047 0.22844
# Poissons Ratio (y) = 0.20372 0.20792
# Poissons Ratio (z) = 0.35272 0.31591
#
# Static dielectric constant tensor:
#      x y z
#    x 4.190440 0.000000 -0.072110 
#    y 0.000000 4.302800 0.000000 
#    z -0.072110 0.000000 3.717480 
# 
# 
# High freq. dielectric constant tensor:
#      x y z
#    x 1.856330 0.000000 0.000290 
#    y 0.000000 1.855150 0.000000 
#    z 0.000290 0.000000 1.820650 
# 
# From -- ./inp_files/287913.got.cif
#   From: 2010.06.25/outbox.cif.g09.slc.cpg/sg15_144_cif.got.tgz:287913.got - 2010.06.28 07:06:18.
