data_PCOD8152702
_publ_section_title
;
Structure prediction by ZEFSAII (Michael W. Deem and Ramdas Pophale) SiO2 
 PCOD8152702
Probable space group: C 2/C
;
_chemical_formula_sum "Si O2"
_cell_formula_units_Z 40
_cell_length_a 14.210938
_cell_length_b 11.426066
_cell_length_c 13.799741
_cell_angle_alpha 90.000000
_cell_angle_beta 63.341725
_cell_angle_gamma 90.000000
_cell_volume 2002.540789
_symmetry_space_group_name_H-M "C 2/C"
_symmetry_group_IT_number 15
_symmetry_cell_setting 'monoclinic'
loop_
_space_group_symop_operation_xyz
x,y,z
-x,y,1/2-z
-x,-y,-z
x,-y,1/2+z
1/2+x,1/2+y,z
1/2-x,1/2+y,1/2-z
1/2-x,1/2-y,-z
1/2+x,1/2-y,1/2+z
loop_
_atom_site_type_symbol
_atom_site_label
_atom_site_fract_x
_atom_site_fract_y
_atom_site_fract_z
Si Si1 0.474070 0.863287 0.506173
Si Si2 0.791244 0.762787 0.184616
Si Si3 0.812781 0.222138 0.065930
Si Si4 0.617906 0.533664 0.963726
Si Si5 0.403939 0.716882 0.362844
O O1 0.378887 0.837461 0.624915
O O2 0.573743 0.783817 0.488858
O O3 0.437267 0.826757 0.415031
O O4 0.500000 0.000000 0.500000
O O5 0.753062 0.763376 0.311563
O O6 0.843081 0.889114 0.144310
O O7 0.695100 0.751147 0.155155
O O8 0.814820 0.082768 0.065837
O O9 0.750000 0.250000 0.000000
O O10 0.500000 0.500000 0.000000
O O11 0.628771 0.605295 0.058367
O O12 0.500000 0.680238 0.250000
#
# Coordination Sequence:
#
# PCOD8152702 Si02
#       5
#     8   8   8   8   8
#     4  11  25  46  66 103 135 170 224 275 335 402
#     4  11  25  46  70  96 133 185 220 272 333 396
#     4  12  28  43  65 102 136 175 222 277 340 384
#     4  11  22  45  69  98 133 170 229 275 322 404
#     4  11  22  44  75  99 128 181 228 269 330 404
#
# _framework density 19.974625
#
# number of rings (size 3 to 8) (size 9 to 14) (size 15 to 20)
#    0.000    0.800    6.000    2.400    8.400    2.400 
#    0.000    0.000    0.000    0.000    0.000    0.000 
#    0.000    0.000    0.000    0.000    0.000    0.000 
#
# Total GULP energy -248028.494910 kJ/mol
# GULP energy per Si atom -12401.424746 kJ/mol
# Density = 1.992916 g / cm^3
# Si number density = 19.974625 Si / 1000 Ang^3
#
#
#
# Elastic Constant Matrix: (Units=GPa)
#
#
# Indices 1 2 3 4 5 6 
#
# 1 147.4315 53.1980 77.5271 0.0000 3.3148 0.0000
# 2 53.1980 166.7948 50.7329 0.0000 0.5758 0.0000
# 3 77.5271 50.7329 145.9649 0.0000 4.1617 0.0000
# 4 0.0000 0.0000 0.0000 25.2020 0.0000 -13.7155
# 5 3.3148 0.5758 4.1617 0.0000 39.7600 0.0000
# 6 0.0000 0.0000 0.0000 -13.7155 0.0000 27.9309
#
#
#
# Elastic Compliance Matrix: (Units=1/GPa)
#
#
# Indices 1 2 3 4 5 6 
#
# 1 0.009843 -0.001734 -0.004616 0.000000 -0.000312 0.000000
# 2 -0.001734 0.007011 -0.001521 0.000000 0.000202 0.000000
# 3 -0.004616 -0.001521 0.009849 0.000000 -0.000624 0.000000
# 4 0.000000 0.000000 0.000000 0.054151 0.000000 0.026591
# 5 -0.000312 0.000202 -0.000624 0.000000 0.025239 0.000000
# 6 0.000000 0.000000 0.000000 0.026591 0.000000 0.048860
#
#
# Mechanical properties :
#
#
# Convention : Reuss Voigt Hill
#
# Bulk Modulus (GPa) = 91.24652 91.45635 91.35143
# Shear Modulus (GPa) = 28.67795 37.16079 32.91937
#
# Velocity S-wave (km/s) = 3.79320 4.31791 4.06403
# Velocity P-wave (km/s) = 8.06008 8.41100 8.23741
#
# Compressibility (1/GPa) = 0.01095932
#
# Stress axis : x y z
#
# Youngs Moduli (GPa) = 101.59400 142.64258 101.52865
#
# Poissons Ratio (x) = 0.24737 0.46869
# Poissons Ratio (y) = 0.17618 0.15446
# Poissons Ratio (z) = 0.46900 0.21701
#
# Static dielectric constant tensor:
#      x y z
#    x 3.448980 0.000000 0.295490 
#    y 0.000000 2.933530 0.000000 
#    z 0.295490 0.000000 3.130350 
# 
# 
# High freq. dielectric constant tensor:
#      x y z
#    x 1.790960 0.000000 -0.012870 
#    y 0.000000 1.785260 0.000000 
#    z -0.012870 0.000000 1.791640 
# 
# From -- ./inp_files/151667.got.cif
#   From: 2010.06.25/outbox.cif.g09.slc.cpg/sg15_76_cif.got.tgz:151667.got - 2010.06.28 07:06:18.
