data_PCOD8152594
_publ_section_title
;
Structure prediction by ZEFSAII (Michael W. Deem and Ramdas Pophale) SiO2 
 PCOD8152594
Probable space group: C 2/C
;
_chemical_formula_sum "Si O2"
_cell_formula_units_Z 56
_cell_length_a 11.907687
_cell_length_b 13.509817
_cell_length_c 18.450717
_cell_angle_alpha 90.000000
_cell_angle_beta 64.643552
_cell_angle_gamma 90.000000
_cell_volume 2682.228054
_symmetry_space_group_name_H-M "C 2/C"
_symmetry_group_IT_number 15
_symmetry_cell_setting 'monoclinic'
loop_
_space_group_symop_operation_xyz
x,y,z
-x,y,1/2-z
-x,-y,-z
x,-y,1/2+z
1/2+x,1/2+y,z
1/2-x,1/2+y,1/2-z
1/2-x,1/2-y,-z
1/2+x,1/2-y,1/2+z
loop_
_atom_site_type_symbol
_atom_site_label
_atom_site_fract_x
_atom_site_fract_y
_atom_site_fract_z
Si Si1 0.452548 0.195286 0.186323
Si Si2 0.209563 0.095147 0.203741
Si Si3 0.643829 0.518983 0.949648
Si Si4 0.120147 0.245342 0.334894
Si Si5 0.721104 0.813689 0.575726
Si Si6 0.798488 0.108495 0.723954
Si Si7 0.350557 0.317868 0.936334
O O1 0.500000 0.155954 0.250000
O O2 0.351942 0.119844 0.182464
O O3 0.573673 0.185915 0.104698
O O4 0.403468 0.308024 0.204437
O O5 0.120778 0.145570 0.287461
O O6 0.176712 0.142618 0.136123
O O7 0.186140 0.977317 0.219076
O O8 0.722982 0.422114 0.942667
O O9 0.687220 0.564457 0.860691
O O10 0.500000 0.500000 0.000000
O O11 0.667419 0.588938 0.009176
O O12 0.227570 0.240116 0.366329
O O13 0.161587 0.339923 0.273906
O O14 0.980361 0.244757 0.405058
O O15 0.750000 0.750000 0.500000
O O16 0.250000 0.250000 0.000000
#
# Coordination Sequence:
#
# PCOD8152594 Si02
#       7
#     8   8   8   8   8   8   8
#     4  11  22  43  69  99 136 175 232 288 344 417
#     4  11  24  45  68 102 137 179 233 283 354 429
#     4  12  24  46  72 105 142 185 236 290 356 423
#     4  11  24  46  67 100 137 184 234 288 350 423
#     4  12  25  42  70 103 140 181 233 295 350 417
#     4  11  23  43  73 102 136 184 234 289 353 420
#     4  12  27  45  69 102 143 183 230 295 359 424
#
# _framework density 20.878164999999999
#
# number of rings (size 3 to 8) (size 9 to 14) (size 15 to 20)
#    0.000    0.571    5.714    3.000    4.000    3.429 
#    0.000    7.143    0.000    0.000    0.000    0.000 
#    0.000    0.000    0.000    0.000    0.000    0.000 
#
# Total GULP energy -346889.511378 kJ/mol
# GULP energy per Si atom -12388.911121 kJ/mol
# Density = 2.083065 g / cm^3
# Si number density = 20.878165 Si / 1000 Ang^3
#
#
#
# Elastic Constant Matrix: (Units=GPa)
#
#
# Indices 1 2 3 4 5 6 
#
# 1 111.5011 51.9172 49.4689 0.0000 -17.5274 0.0000
# 2 51.9172 129.0823 57.0513 0.0000 -16.6017 0.0000
# 3 49.4689 57.0513 127.8231 0.0000 -13.6276 0.0000
# 4 0.0000 0.0000 0.0000 45.6865 0.0000 2.8984
# 5 -17.5274 -16.6017 -13.6276 0.0000 55.0423 0.0000
# 6 0.0000 0.0000 0.0000 2.8984 0.0000 28.3917
#
#
#
# Elastic Compliance Matrix: (Units=1/GPa)
#
#
# Indices 1 2 3 4 5 6 
#
# 1 0.012174 -0.003288 -0.003016 0.000000 0.002138 0.000000
# 2 -0.003288 0.010735 -0.003374 0.000000 0.001355 0.000000
# 3 -0.003016 -0.003374 0.010564 0.000000 0.000638 0.000000
# 4 0.000000 0.000000 0.000000 0.022031 0.000000 -0.002249
# 5 0.002138 0.001355 0.000638 0.000000 0.019415 0.000000
# 6 0.000000 0.000000 0.000000 -0.002249 0.000000 0.035451
#
#
# Mechanical properties :
#
#
# Convention : Reuss Voigt Hill
#
# Bulk Modulus (GPa) = 70.83881 76.14235 73.49058
# Shear Modulus (GPa) = 37.19313 39.82203 38.50758
#
# Velocity S-wave (km/s) = 4.22529 4.37206 4.29930
# Velocity P-wave (km/s) = 7.60311 7.87627 7.74090
#
# Compressibility (1/GPa) = 0.01411656
#
# Stress axis : x y z
#
# Youngs Moduli (GPa) = 82.14413 93.15051 94.65712
#
# Poissons Ratio (x) = 0.30632 0.28546
# Poissons Ratio (y) = 0.27013 0.31940
# Poissons Ratio (z) = 0.24772 0.31432
#
# Static dielectric constant tensor:
#      x y z
#    x 3.699570 0.000000 -0.120090 
#    y 0.000000 3.908390 0.000000 
#    z -0.120090 0.000000 4.126790 
# 
# 
# High freq. dielectric constant tensor:
#      x y z
#    x 1.819090 0.000000 -0.007940 
#    y 0.000000 1.821100 0.000000 
#    z -0.007940 0.000000 1.840270 
# 
# From -- ./inp_files/198199.got.cif
#   From: 2010.06.25/outbox.cif.g09.slc.cpg/sg15_100_cif.got.tgz:198199.got - 2010.06.28 07:06:18.
