data_PCOD8152427
_publ_section_title
;
Structure prediction by ZEFSAII (Michael W. Deem and Ramdas Pophale) SiO2 
 PCOD8152427
Probable space group: C 2/C
;
_chemical_formula_sum "Si O2"
_cell_formula_units_Z 60
_cell_length_a 24.104332
_cell_length_b 19.440148
_cell_length_c 8.767289
_cell_angle_alpha 90.000000
_cell_angle_beta 139.233488
_cell_angle_gamma 90.000000
_cell_volume 2682.616371
_symmetry_space_group_name_H-M "C 2/C"
_symmetry_group_IT_number 15
_symmetry_cell_setting 'monoclinic'
loop_
_space_group_symop_operation_xyz
x,y,z
-x,y,1/2-z
-x,-y,-z
x,-y,1/2+z
1/2+x,1/2+y,z
1/2-x,1/2+y,1/2-z
1/2-x,1/2-y,-z
1/2+x,1/2-y,1/2+z
loop_
_atom_site_type_symbol
_atom_site_label
_atom_site_fract_x
_atom_site_fract_y
_atom_site_fract_z
Si Si1 0.759911 0.444749 0.851258
Si Si2 0.365619 0.027762 0.288989
Si Si3 0.411527 0.420617 0.564663
Si Si4 0.500000 0.332845 0.250000
Si Si5 0.513576 0.895945 0.948751
Si Si6 0.401286 0.448365 0.202597
Si Si7 0.278018 0.662115 0.970243
Si Si8 0.384151 0.771811 0.337859
O O1 0.839865 0.441753 0.900515
O O2 0.678773 0.457126 0.577277
O O3 0.742367 0.375695 0.910969
O O4 0.782761 0.507696 0.015173
O O5 0.423534 0.086761 0.336032
O O6 0.421483 0.959048 0.419268
O O7 0.500000 0.375012 0.750000
O O8 0.377660 0.447021 0.330812
O O9 0.447578 0.480112 0.756918
O O10 0.327942 0.385980 0.458451
O O11 0.457928 0.381146 0.290127
O O12 0.572187 0.285291 0.468488
O O13 0.500000 0.869798 0.750000
O O14 0.552912 0.827535 0.110248
O O15 0.334031 0.730865 0.103033
O O16 0.186696 0.685222 0.711116
#
# Coordination Sequence:
#
# PCOD8152427 Si02
#       8
#     8   8   8   4   8   8   8   8
#     4  12  23  42  68 103 144 176 226 296 347 420
#     4  11  24  41  69 107 140 175 239 293 352 402
#     4  12  25  45  73 108 140 174 234 303 354 415
#     4  12  24  46  70 104 140 184 240 280 344 434
#     4  11  22  41  69 102 139 188 232 287 346 417
#     4  12  26  42  72 106 138 178 227 293 358 408
#     4  11  25  47  71 101 140 190 236 286 354 418
#     4  11  24  45  72  94 143 198 232 278 353 423
#
# _framework density 22.366223999999999
#
# number of rings (size 3 to 8) (size 9 to 14) (size 15 to 20)
#    0.000    0.533    5.333    3.600    0.000    1.067 
#    0.000    7.333    0.000    0.000    0.000    0.000 
#    0.000    0.000    0.000    0.000    0.000    0.000 
#
# Total GULP energy -371730.329835 kJ/mol
# GULP energy per Si atom -12391.010995 kJ/mol
# Density = 2.231532 g / cm^3
# Si number density = 22.366224 Si / 1000 Ang^3
#
#
#
# Elastic Constant Matrix: (Units=GPa)
#
#
# Indices 1 2 3 4 5 6 
#
# 1 137.8227 65.0971 42.6935 0.0000 -8.6932 0.0000
# 2 65.0971 127.3682 35.4337 0.0000 7.1775 0.0000
# 3 42.6935 35.4337 100.2990 0.0000 7.6350 0.0000
# 4 0.0000 0.0000 0.0000 41.6615 0.0000 15.3416
# 5 -8.6932 7.1775 7.6350 0.0000 30.2173 0.0000
# 6 0.0000 0.0000 0.0000 15.3416 0.0000 27.7796
#
#
#
# Elastic Compliance Matrix: (Units=1/GPa)
#
#
# Indices 1 2 3 4 5 6 
#
# 1 0.010951 -0.004970 -0.003299 0.000000 0.005164 0.000000
# 2 -0.004970 0.011015 -0.001496 0.000000 -0.003668 0.000000
# 3 -0.003299 -0.001496 0.012182 0.000000 -0.003672 0.000000
# 4 0.000000 0.000000 0.000000 0.030130 0.000000 -0.016640
# 5 0.005164 -0.003668 -0.003672 0.000000 0.036378 0.000000
# 6 0.000000 0.000000 0.000000 -0.016640 0.000000 0.045187
#
#
# Mechanical properties :
#
#
# Convention : Reuss Voigt Hill
#
# Bulk Modulus (GPa) = 68.41179 72.43760 70.42469
# Shear Modulus (GPa) = 29.36915 34.74939 32.05927
#
# Velocity S-wave (km/s) = 3.62761 3.94592 3.79011
# Velocity P-wave (km/s) = 6.94259 7.29505 7.12100
#
# Compressibility (1/GPa) = 0.01461736
#
# Stress axis : x y z
#
# Youngs Moduli (GPa) = 91.31711 90.78923 82.08563
#
# Poissons Ratio (x) = 0.45125 0.27077
# Poissons Ratio (y) = 0.45387 0.12283
# Poissons Ratio (z) = 0.30122 0.13585
#
# Static dielectric constant tensor:
#      x y z
#    x 4.128700 0.000000 0.294110 
#    y 0.000000 4.091760 0.000000 
#    z 0.294110 0.000000 4.459080 
# 
# 
# High freq. dielectric constant tensor:
#      x y z
#    x 1.875590 0.000000 0.024260 
#    y 0.000000 1.872080 0.000000 
#    z 0.024260 0.000000 1.900430 
# 
# From -- ./inp_files/63547.got.cif
#   From: 2010.06.25/outbox.cif.g09.slc.cpg/sg15_32_cif.got.tgz:63547.got - 2010.06.28 07:06:18.
