data_PCOD8152057
_publ_section_title
;
Structure prediction by ZEFSAII (Michael W. Deem and Ramdas Pophale) SiO2 
 PCOD8152057
Probable space group: C 2/C
;
_chemical_formula_sum "Si O2"
_cell_formula_units_Z 48
_cell_length_a 25.506916
_cell_length_b 9.631534
_cell_length_c 14.596264
_cell_angle_alpha 90.000000
_cell_angle_beta 136.405340
_cell_angle_gamma 90.000000
_cell_volume 2472.647319
_symmetry_space_group_name_H-M "C 2/C"
_symmetry_group_IT_number 15
_symmetry_cell_setting 'monoclinic'
loop_
_space_group_symop_operation_xyz
x,y,z
-x,y,1/2-z
-x,-y,-z
x,-y,1/2+z
1/2+x,1/2+y,z
1/2-x,1/2+y,1/2-z
1/2-x,1/2-y,-z
1/2+x,1/2-y,1/2+z
loop_
_atom_site_type_symbol
_atom_site_label
_atom_site_fract_x
_atom_site_fract_y
_atom_site_fract_z
Si Si1 0.856399 0.997921 0.715929
Si Si2 0.663952 0.212244 0.871738
Si Si3 0.586569 0.292665 0.349626
Si Si4 0.824010 0.470035 0.493763
Si Si5 0.703463 0.870056 0.230384
Si Si6 0.165870 0.924744 0.617797
O O1 0.902719 0.123503 0.730924
O O2 0.765842 0.028347 0.598755
O O3 0.880072 0.858527 0.689415
O O4 0.881132 0.977905 0.853093
O O5 0.655534 0.131920 0.763447
O O6 0.635542 0.110301 0.916854
O O7 0.750000 0.250000 0.000000
O O8 0.500000 0.244797 0.250000
O O9 0.639796 0.159184 0.407555
O O10 0.608553 0.387453 0.464290
O O11 0.840096 0.455015 0.405239
O O12 0.716398 0.710611 0.212060
O O13 0.782098 0.948617 0.351646
#
# Coordination Sequence:
#
# PCOD8152057 Si02
#       6
#     8   8   8   8   8   8
#     4   9  18  33  54  76  95 128 173 215 248 285
#     4   9  16  29  51  75  99 123 161 213 256 289
#     4  11  22  34  49  73 108 140 164 199 252 310
#     4   9  18  33  53  76 101 129 167 212 252 293
#     4   9  17  29  50  78 100 123 162 215 253 285
#     4   9  18  32  51  74 102 130 168 211 252 294
#
# _framework density 19.412393000000002
#
# number of rings (size 3 to 8) (size 9 to 14) (size 15 to 20)
#    0.000    2.667    0.000    3.500    0.000    3.333 
#    0.000    0.833    0.000    9.000    0.000    0.000 
#    0.000    0.000    0.000    0.000    0.000    0.000 
#
# Total GULP energy -297385.982729 kJ/mol
# GULP energy per Si atom -12391.082614 kJ/mol
# Density = 1.936821 g / cm^3
# Si number density = 19.412393 Si / 1000 Ang^3
#
#
#
# Elastic Constant Matrix: (Units=GPa)
#
#
# Indices 1 2 3 4 5 6 
#
# 1 41.7736 29.3097 23.7438 0.0000 -10.9923 0.0000
# 2 29.3097 81.5814 28.5075 0.0000 -16.2008 0.0000
# 3 23.7438 28.5075 50.5180 0.0000 -17.6567 0.0000
# 4 0.0000 0.0000 0.0000 23.1662 0.0000 -15.7349
# 5 -10.9923 -16.2008 -17.6567 0.0000 23.0827 0.0000
# 6 0.0000 0.0000 0.0000 -15.7349 0.0000 24.2931
#
#
#
# Elastic Compliance Matrix: (Units=1/GPa)
#
#
# Indices 1 2 3 4 5 6 
#
# 1 0.037505 -0.008853 -0.011685 0.000000 0.002708 0.000000
# 2 -0.008853 0.017914 -0.004132 0.000000 0.005197 0.000000
# 3 -0.011685 -0.004132 0.033659 0.000000 0.017283 0.000000
# 4 0.000000 0.000000 0.000000 0.077074 0.000000 0.049922
# 5 0.002708 0.005197 0.017283 0.000000 0.061480 0.000000
# 6 0.000000 0.000000 0.000000 0.049922 0.000000 0.073499
#
#
# Mechanical properties :
#
#
# Convention : Reuss Voigt Hill
#
# Bulk Modulus (GPa) = 25.16480 37.44390 31.30435
# Shear Modulus (GPa) = 13.74701 20.26253 17.00477
#
# Velocity S-wave (km/s) = 2.66401 3.23428 2.96290
# Velocity P-wave (km/s) = 4.73856 5.76871 5.27882
#
# Compressibility (1/GPa) = 0.03973805
#
# Stress axis : x y z
#
# Youngs Moduli (GPa) = 26.66340 55.82185 29.70988
#
# Poissons Ratio (x) = 0.49421 0.34716
# Poissons Ratio (y) = 0.23606 0.12275
# Poissons Ratio (z) = 0.31156 0.23063
#
# Static dielectric constant tensor:
#      x y z
#    x 3.230840 0.000000 -0.550430 
#    y 0.000000 3.940910 0.000000 
#    z -0.550430 0.000000 3.579380 
# 
# 
# High freq. dielectric constant tensor:
#      x y z
#    x 1.705530 0.000000 -0.048390 
#    y 0.000000 1.771390 0.000000 
#    z -0.048390 0.000000 1.741870 
# 
# From -- ./inp_files/180892.got.cif
#   From: 2010.06.25/outbox.cif.g09.slc.cpg/sg15_91_cif.got.tgz:180892.got - 2010.06.28 07:06:18.
