data_PCOD8152177
_publ_section_title
;
Structure prediction by ZEFSAII (Michael W. Deem and Ramdas Pophale) SiO2 
 PCOD8152177
Probable space group: C 2/C
;
_chemical_formula_sum "Si O2"
_cell_formula_units_Z 48
_cell_length_a 26.860993
_cell_length_b 10.264233
_cell_length_c 9.797439
_cell_angle_alpha 90.000000
_cell_angle_beta 78.251125
_cell_angle_gamma 90.000000
_cell_volume 2644.635181
_symmetry_space_group_name_H-M "C 2/C"
_symmetry_group_IT_number 15
_symmetry_cell_setting 'monoclinic'
loop_
_space_group_symop_operation_xyz
x,y,z
-x,y,1/2-z
-x,-y,-z
x,-y,1/2+z
1/2+x,1/2+y,z
1/2-x,1/2+y,1/2-z
1/2-x,1/2-y,-z
1/2+x,1/2-y,1/2+z
loop_
_atom_site_type_symbol
_atom_site_label
_atom_site_fract_x
_atom_site_fract_y
_atom_site_fract_z
Si Si1 0.656153 0.253203 0.334029
Si Si2 0.780254 0.016247 0.584509
Si Si3 0.941650 0.881822 0.433692
Si Si4 0.662517 0.260175 0.013459
Si Si5 0.445517 0.376334 0.121595
Si Si6 0.788860 0.499460 0.624802
O O1 0.679576 0.371310 0.407057
O O2 0.675272 0.263415 0.167235
O O3 0.594830 0.260453 0.378165
O O4 0.671199 0.117926 0.393917
O O5 0.807573 0.876450 0.577588
O O6 0.732998 0.023179 0.713191
O O7 0.757990 0.038300 0.446259
O O8 0.897892 0.774216 0.481947
O O9 0.940537 0.930470 0.278147
O O10 0.997389 0.822516 0.438547
O O11 0.930683 0.006379 0.531452
O O12 0.680931 0.125530 0.941129
#
# Coordination Sequence:
#
# PCOD8152177 Si02
#       6
#     8   8   8   8   8   8
#     4  11  22  39  59  86 115 150 191 231 285 336
#     4  12  22  39  60  82 112 156 194 232 279 328
#     4   9  18  35  60  84 111 142 183 233 284 330
#     4  11  22  40  58  85 118 149 187 237 285 330
#     4   9  18  35  59  86 110 141 184 234 280 335
#     4  12  24  39  56  82 118 156 190 233 276 335
#
# _framework density 18.14995
#
# number of rings (size 3 to 8) (size 9 to 14) (size 15 to 20)
#    0.000    1.333    5.000    2.000    0.000    0.000 
#    3.000    0.833    0.000    0.000    0.000    0.000 
#    0.000    0.000    0.000    0.000    0.000    0.000 
#
# Total GULP energy -297625.415798 kJ/mol
# GULP energy per Si atom -12401.058992 kJ/mol
# Density = 1.810864 g / cm^3
# Si number density = 18.149950 Si / 1000 Ang^3
#
#
#
# Elastic Constant Matrix: (Units=GPa)
#
#
# Indices 1 2 3 4 5 6 
#
# 1 115.2663 54.1555 28.0750 0.0000 -0.0434 0.0000
# 2 54.1555 100.3407 27.0288 0.0000 5.2469 0.0000
# 3 28.0750 27.0288 49.5079 0.0000 -2.0624 0.0000
# 4 0.0000 0.0000 0.0000 25.2698 0.0000 5.2393
# 5 -0.0434 5.2469 -2.0624 0.0000 25.4837 0.0000
# 6 0.0000 0.0000 0.0000 5.2393 0.0000 19.8983
#
#
#
# Elastic Compliance Matrix: (Units=1/GPa)
#
#
# Indices 1 2 3 4 5 6 
#
# 1 0.012254 -0.005624 -0.003842 0.000000 0.000868 0.000000
# 2 -0.005624 0.014488 -0.004861 0.000000 -0.003386 0.000000
# 3 -0.003842 -0.004861 0.025158 0.000000 0.003030 0.000000
# 4 0.000000 0.000000 0.000000 0.041858 0.000000 -0.011021
# 5 0.000868 -0.003386 0.003030 0.000000 0.040185 0.000000
# 6 0.000000 0.000000 0.000000 -0.011021 0.000000 0.053158
#
#
# Mechanical properties :
#
#
# Convention : Reuss Voigt Hill
#
# Bulk Modulus (GPa) = 43.02138 53.73706 48.37922
# Shear Modulus (GPa) = 22.37087 24.52072 23.44579
#
# Velocity S-wave (km/s) = 3.51459 3.67959 3.59804
# Velocity P-wave (km/s) = 6.34228 6.90826 6.63131
#
# Compressibility (1/GPa) = 0.02324426
#
# Stress axis : x y z
#
# Youngs Moduli (GPa) = 81.60490 69.02228 39.74854
#
# Poissons Ratio (x) = 0.38819 0.15273
# Poissons Ratio (y) = 0.45896 0.19324
# Poissons Ratio (z) = 0.31356 0.33555
#
# Static dielectric constant tensor:
#      x y z
#    x 3.628680 0.000000 0.058100 
#    y 0.000000 3.138370 0.000000 
#    z 0.058100 0.000000 3.498530 
# 
# 
# High freq. dielectric constant tensor:
#      x y z
#    x 1.718350 0.000000 0.002570 
#    y 0.000000 1.678100 0.000000 
#    z 0.002570 0.000000 1.710500 
# 
# From -- ./inp_files/68572.got.cif
#   From: 2010.06.25/outbox.cif.g09.slc.cpg/sg15_35_cif.got.tgz:68572.got - 2010.06.28 07:06:18.
