data_PCOD8152839
_publ_section_title
;
Structure prediction by ZEFSAII (Michael W. Deem and Ramdas Pophale) SiO2 
 PCOD8152839
Probable space group: C 2/C
;
_chemical_formula_sum "Si O2"
_cell_formula_units_Z 48
_cell_length_a 13.088572
_cell_length_b 12.985227
_cell_length_c 25.687825
_cell_angle_alpha 90.000000
_cell_angle_beta 151.264287
_cell_angle_gamma 90.000000
_cell_volume 2098.971930
_symmetry_space_group_name_H-M "C 2/C"
_symmetry_group_IT_number 15
_symmetry_cell_setting 'monoclinic'
loop_
_space_group_symop_operation_xyz
x,y,z
-x,y,1/2-z
-x,-y,-z
x,-y,1/2+z
1/2+x,1/2+y,z
1/2-x,1/2+y,1/2-z
1/2-x,1/2-y,-z
1/2+x,1/2-y,1/2+z
loop_
_atom_site_type_symbol
_atom_site_label
_atom_site_fract_x
_atom_site_fract_y
_atom_site_fract_z
Si Si1 0.881072 0.344888 0.276636
Si Si2 0.306590 0.557546 0.975639
Si Si3 0.229362 0.471280 0.173354
Si Si4 0.411622 0.625148 0.136424
Si Si5 0.485969 0.868123 0.513893
Si Si6 0.988988 0.142222 0.529358
O O1 0.797693 0.383655 0.295486
O O2 0.935746 0.224023 0.300085
O O3 0.712675 0.369597 0.157565
O O4 0.082869 0.412212 0.351163
O O5 0.490095 0.608419 0.021726
O O6 0.322139 0.602842 0.039841
O O7 0.323552 0.433731 0.983628
O O8 0.453767 0.529266 0.280806
O O9 0.036316 0.556654 0.085713
O O10 0.204563 0.416502 0.105665
O O11 0.210160 0.647643 0.083192
O O12 0.401804 0.758135 0.495730
#
# Coordination Sequence:
#
# PCOD8152839 Si02
#       6
#     8   8   8   8   8   8
#     4  12  22  41  66  98 127 175 219 261 329 384
#     4  11  23  38  65 101 131 164 214 276 318 382
#     4  11  24  38  68  97 131 165 223 276 313 379
#     4  12  22  42  71  95 124 176 225 265 318 389
#     4  11  23  44  67  95 127 174 223 266 319 384
#     4  11  23  40  65  97 133 167 217 266 323 381
#
# _framework density 22.868338999999999
#
# number of rings (size 3 to 8) (size 9 to 14) (size 15 to 20)
#    0.000    0.667    6.667    2.500    0.000    0.000 
#    0.000    0.833   11.000    0.000    0.000    0.000 
#    0.000    0.000    0.000    0.000    0.000    0.000 
#
# Total GULP energy -297531.212435 kJ/mol
# GULP energy per Si atom -12397.133851 kJ/mol
# Density = 2.281629 g / cm^3
# Si number density = 22.868339 Si / 1000 Ang^3
#
#
#
# Elastic Constant Matrix: (Units=GPa)
#
#
# Indices 1 2 3 4 5 6 
#
# 1 46.4723 8.0937 10.9385 0.0001 -8.1844 0.0000
# 2 8.0937 128.9761 41.7415 -0.0008 4.3508 -0.0004
# 3 10.9385 41.7415 93.6487 0.0010 -9.0412 -0.0006
# 4 0.0001 -0.0008 0.0010 37.3667 0.0004 0.0821
# 5 -8.1844 4.3508 -9.0412 0.0004 29.6842 0.0000
# 6 0.0000 -0.0004 -0.0006 0.0821 0.0000 30.3691
#
#
#
# Elastic Compliance Matrix: (Units=1/GPa)
#
#
# Indices 1 2 3 4 5 6 
#
# 1 0.023163 -0.001136 -0.001614 0.000000 0.006061 0.000000
# 2 -0.001136 0.009321 -0.004311 0.000000 -0.002992 0.000000
# 3 -0.001614 -0.004311 0.013194 0.000000 0.004205 0.000000
# 4 0.000000 0.000000 0.000000 0.026762 -0.000001 -0.000072
# 5 0.006061 -0.002992 0.004205 -0.000001 0.037079 0.000000
# 6 0.000000 0.000000 0.000000 -0.000072 0.000000 0.032928
#
#
# Mechanical properties :
#
#
# Convention : Reuss Voigt Hill
#
# Bulk Modulus (GPa) = 31.68850 43.40494 37.54672
# Shear Modulus (GPa) = 29.92446 33.37221 31.64834
#
# Velocity S-wave (km/s) = 3.62132 3.82425 3.72417
# Velocity P-wave (km/s) = 5.60110 6.20656 5.91159
#
# Compressibility (1/GPa) = 0.03155719
#
# Stress axis : x y z
#
# Youngs Moduli (GPa) = 43.17152 107.28825 75.79117
#
# Poissons Ratio (x) = 0.12184 0.12234
# Poissons Ratio (y) = 0.04903 0.32671
# Poissons Ratio (z) = 0.06969 0.46249
#
# Static dielectric constant tensor:
#      x y z
#    x 3.910240 0.000000 -0.231870 
#    y 0.000000 4.486730 0.000000 
#    z -0.231870 0.000000 4.225110 
# 
# 
# High freq. dielectric constant tensor:
#      x y z
#    x 1.878550 0.000000 -0.020410 
#    y 0.000000 1.917060 0.000000 
#    z -0.020410 0.000000 1.909190 
# 
# From -- ./inp_files/296192.got.cif
#   From: 2010.06.25/outbox.cif.g09.slc.cpg/sg15_149_cif.got.tgz:296192.got - 2010.06.28 07:06:18.
