data_PCOD8152772
_publ_section_title
;
Structure prediction by ZEFSAII (Michael W. Deem and Ramdas Pophale) SiO2 
 PCOD8152772
Probable space group: C 2/C
;
_chemical_formula_sum "Si O2"
_cell_formula_units_Z 60
_cell_length_a 14.443763
_cell_length_b 20.095882
_cell_length_c 13.784047
_cell_angle_alpha 90.000000
_cell_angle_beta 134.974549
_cell_angle_gamma 90.000000
_cell_volume 2830.362116
_symmetry_space_group_name_H-M "C 2/C"
_symmetry_group_IT_number 15
_symmetry_cell_setting 'monoclinic'
loop_
_space_group_symop_operation_xyz
x,y,z
-x,y,1/2-z
-x,-y,-z
x,-y,1/2+z
1/2+x,1/2+y,z
1/2-x,1/2+y,1/2-z
1/2-x,1/2-y,-z
1/2+x,1/2-y,1/2+z
loop_
_atom_site_type_symbol
_atom_site_label
_atom_site_fract_x
_atom_site_fract_y
_atom_site_fract_z
Si Si1 0.638039 0.269585 0.491871
Si Si2 0.148851 0.805364 0.880700
Si Si3 0.762732 0.854001 0.763414
Si Si4 0.747808 0.956400 0.065446
Si Si5 0.142156 0.990777 0.680353
Si Si6 0.621688 0.444473 0.968629
Si Si7 0.984780 0.359771 0.627805
Si Si8 0.500000 0.364536 0.250000
O O1 0.750000 0.250000 0.500000
O O2 0.703194 0.295560 0.638104
O O3 0.568139 0.202165 0.473041
O O4 0.530703 0.319452 0.367121
O O5 0.211501 0.831649 0.827547
O O6 0.131762 0.867560 0.942712
O O7 0.000000 0.777267 0.750000
O O8 0.250000 0.750000 0.000000
O O9 0.846559 0.917822 0.858960
O O10 0.615837 0.879644 0.670003
O O11 0.868586 0.906141 0.170515
O O12 0.735196 0.994254 0.159081
O O13 0.764380 0.011214 0.993834
O O14 0.612949 0.921360 0.942650
O O15 0.015543 0.981617 0.658295
O O16 0.130307 0.049268 0.592335
O O17 0.000000 0.335945 0.750000
#
# Coordination Sequence:
#
# PCOD8152772 Si02
#       8
#     8   8   8   8   8   8   8   4
#     4  12  23  42  67 100 143 183 225 289 357 436
#     4  12  28  53  75 105 151 201 256 309 364 447
#     4  12  26  46  71 102 144 193 236 296 373 431
#     4  12  23  40  69 100 137 178 230 300 352 420
#     4  11  23  41  76 104 131 186 245 297 370 414
#     4  11  22  46  72 106 141 180 247 314 353 430
#     4  12  25  43  64 105 148 182 225 289 369 432
#     4  12  20  36  64 104 136 172 222 286 356 416
#
# _framework density 21.198701
#
# number of rings (size 3 to 8) (size 9 to 14) (size 15 to 20)
#    0.000    0.267    7.333    1.600    3.733    1.600 
#    0.000    0.667    0.000    0.000    0.000    0.000 
#    0.000    0.000    0.000    0.000    0.000    0.000 
#
# Total GULP energy -371797.652174 kJ/mol
# GULP energy per Si atom -12393.255072 kJ/mol
# Density = 2.115045 g / cm^3
# Si number density = 21.198701 Si / 1000 Ang^3
#
#
#
# Elastic Constant Matrix: (Units=GPa)
#
#
# Indices 1 2 3 4 5 6 
#
# 1 113.6470 40.3076 50.0387 0.0000 -0.1385 0.0000
# 2 40.3076 102.5752 54.2344 0.0000 -10.5000 0.0000
# 3 50.0387 54.2344 99.1583 0.0000 8.0611 0.0000
# 4 0.0000 0.0000 0.0000 39.6271 0.0000 -0.4185
# 5 -0.1385 -10.5000 8.0611 0.0000 32.3490 0.0000
# 6 0.0000 0.0000 0.0000 -0.4185 0.0000 33.2940
#
#
#
# Elastic Compliance Matrix: (Units=1/GPa)
#
#
# Indices 1 2 3 4 5 6 
#
# 1 0.011626 -0.001934 -0.004861 0.000000 0.000633 0.000000
# 2 -0.001934 0.015496 -0.008072 0.000000 0.007033 0.000000
# 3 -0.004861 -0.008072 0.017522 0.000000 -0.007007 0.000000
# 4 0.000000 0.000000 0.000000 0.025239 0.000000 0.000317
# 5 0.000633 0.007033 -0.007007 0.000000 0.034945 0.000000
# 6 0.000000 0.000000 0.000000 0.000317 0.000000 0.030039
#
#
# Mechanical properties :
#
#
# Convention : Reuss Voigt Hill
#
# Bulk Modulus (GPa) = 67.05817 67.17133 67.11475
# Shear Modulus (GPa) = 29.48630 32.44067 30.96348
#
# Velocity S-wave (km/s) = 3.73359 3.91617 3.82597
# Velocity P-wave (km/s) = 7.09141 7.22522 7.15863
#
# Compressibility (1/GPa) = 0.01491243
#
# Stress axis : x y z
#
# Youngs Moduli (GPa) = 86.01449 64.53092 57.07029
#
# Poissons Ratio (x) = 0.12478 0.27740
# Poissons Ratio (y) = 0.16632 0.46066
# Poissons Ratio (z) = 0.41810 0.52088
#
# Static dielectric constant tensor:
#      x y z
#    x 3.895100 0.000000 0.088800 
#    y 0.000000 4.221760 0.000000 
#    z 0.088800 0.000000 4.159360 
# 
# 
# High freq. dielectric constant tensor:
#      x y z
#    x 1.830430 0.000000 -0.001860 
#    y 0.000000 1.836780 0.000000 
#    z -0.001860 0.000000 1.828610 
# 
# From -- ./inp_files/156388.got.cif
#   From: 2010.06.25/outbox.cif.g09.slc.cpg/sg15_79_cif.got.tgz:156388.got - 2010.06.28 07:06:18.
