data_PCOD8152612
_publ_section_title
;
Structure prediction by ZEFSAII (Michael W. Deem and Ramdas Pophale) SiO2 
 PCOD8152612
Probable space group: C 2/C
;
_chemical_formula_sum "Si O2"
_cell_formula_units_Z 44
_cell_length_a 17.602254
_cell_length_b 17.005410
_cell_length_c 9.272315
_cell_angle_alpha 90.000000
_cell_angle_beta 132.070923
_cell_angle_gamma 90.000000
_cell_volume 2060.309085
_symmetry_space_group_name_H-M "C 2/C"
_symmetry_group_IT_number 15
_symmetry_cell_setting 'monoclinic'
loop_
_space_group_symop_operation_xyz
x,y,z
-x,y,1/2-z
-x,-y,-z
x,-y,1/2+z
1/2+x,1/2+y,z
1/2-x,1/2+y,1/2-z
1/2-x,1/2-y,-z
1/2+x,1/2-y,1/2+z
loop_
_atom_site_type_symbol
_atom_site_label
_atom_site_fract_x
_atom_site_fract_y
_atom_site_fract_z
Si Si1 0.294350 0.217949 0.404223
Si Si2 0.929832 0.968417 0.533886
Si Si3 0.602159 0.954529 0.162136
Si Si4 0.245925 0.136792 0.823892
Si Si5 0.000000 0.338753 0.250000
Si Si6 0.263961 0.587042 0.379845
O O1 0.250000 0.250000 0.500000
O O2 0.251824 0.274828 0.228262
O O3 0.419073 0.216067 0.561627
O O4 0.255813 0.131857 0.298386
O O5 0.850505 0.904557 0.374943
O O6 0.000000 0.931253 0.750000
O O7 0.873423 0.046085 0.519271
O O8 0.000000 0.000000 0.500000
O O9 0.648954 0.908136 0.084978
O O10 0.577384 0.891023 0.253545
O O11 0.681983 0.019713 0.313744
O O12 0.500000 0.000000 0.000000
O O13 0.237723 0.144468 0.985150
#
# Coordination Sequence:
#
# PCOD8152612 Si02
#       6
#     8   8   8   8   4   8
#     4  12  27  45  67  99 142 179 227 282 352 420
#     4  11  24  43  69 102 135 181 233 280 338 411
#     4  11  22  43  72 101 135 176 236 283 343 400
#     4  11  25  43  69 101 139 181 225 293 345 411
#     4  12  24  44  68 104 132 190 226 284 348 418
#     4  11  25  44  71 100 138 178 235 290 338 411
#
# _framework density 21.356019
#
# number of rings (size 3 to 8) (size 9 to 14) (size 15 to 20)
#    0.000    0.727    5.455    1.636    6.364    0.000 
#    0.000    0.000    0.000    0.000    0.000    0.000 
#    0.000    0.000    0.000    0.000    0.000    0.000 
#
# Total GULP energy -272691.007031 kJ/mol
# GULP energy per Si atom -12395.045774 kJ/mol
# Density = 2.130741 g / cm^3
# Si number density = 21.356019 Si / 1000 Ang^3
#
#
#
# Elastic Constant Matrix: (Units=GPa)
#
#
# Indices 1 2 3 4 5 6 
#
# 1 124.4862 35.5554 44.7434 0.0000 2.2712 0.0000
# 2 35.5554 75.3196 21.1334 0.0000 2.3889 0.0000
# 3 44.7434 21.1334 99.0961 0.0000 1.8225 0.0000
# 4 0.0000 0.0000 0.0000 31.5060 0.0000 -5.7093
# 5 2.2712 2.3889 1.8225 0.0000 45.0563 0.0000
# 6 0.0000 0.0000 0.0000 -5.7093 0.0000 37.4978
#
#
#
# Elastic Compliance Matrix: (Units=1/GPa)
#
#
# Indices 1 2 3 4 5 6 
#
# 1 0.010558 -0.003874 -0.003938 0.000000 -0.000168 0.000000
# 2 -0.003874 0.015561 -0.001559 0.000000 -0.000567 0.000000
# 3 -0.003938 -0.001559 0.012206 0.000000 -0.000213 0.000000
# 4 0.000000 0.000000 0.000000 0.032641 0.000000 0.004970
# 5 -0.000168 -0.000567 -0.000213 0.000000 0.022242 0.000000
# 6 0.000000 0.000000 0.000000 0.004970 0.000000 0.027425
#
#
# Mechanical properties :
#
#
# Convention : Reuss Voigt Hill
#
# Bulk Modulus (GPa) = 51.06465 55.75181 53.40823
# Shear Modulus (GPa) = 34.27002 35.97667 35.12335
#
# Velocity S-wave (km/s) = 4.01022 4.10886 4.05984
# Velocity P-wave (km/s) = 6.73836 6.97659 6.85851
#
# Compressibility (1/GPa) = 0.01958302
#
# Stress axis : x y z
#
# Youngs Moduli (GPa) = 94.71649 64.26398 81.92968
#
# Poissons Ratio (x) = 0.24894 0.32262
# Poissons Ratio (y) = 0.36691 0.12773
# Poissons Ratio (z) = 0.37298 0.10019
#
# Static dielectric constant tensor:
#      x y z
#    x 4.229570 0.000000 0.179060 
#    y 0.000000 -4.461030 0.000000 
#    z 0.179060 0.000000 3.885540 
# 
# 
# High freq. dielectric constant tensor:
#      x y z
#    x 1.847740 0.000000 0.003850 
#    y 0.000000 1.837610 0.000000 
#    z 0.003850 0.000000 1.840720 
# 
# From -- ./inp_files/39336.got.cif
#   From: 2010.06.25/outbox.cif.g09.slc.cpg/sg15_20_cif.got.tgz:39336.got - 2010.06.28 07:06:18.
