data_PCOD8152627
_publ_section_title
;
Structure prediction by ZEFSAII (Michael W. Deem and Ramdas Pophale) SiO2 
 PCOD8152627
Probable space group: C 2/C
;
_chemical_formula_sum "Si O2"
_cell_formula_units_Z 60
_cell_length_a 17.858324
_cell_length_b 14.746047
_cell_length_c 10.747176
_cell_angle_alpha 90.000000
_cell_angle_beta 106.843633
_cell_angle_gamma 90.000000
_cell_volume 2708.741651
_symmetry_space_group_name_H-M "C 2/C"
_symmetry_group_IT_number 15
_symmetry_cell_setting 'monoclinic'
loop_
_space_group_symop_operation_xyz
x,y,z
-x,y,1/2-z
-x,-y,-z
x,-y,1/2+z
1/2+x,1/2+y,z
1/2-x,1/2+y,1/2-z
1/2-x,1/2-y,-z
1/2+x,1/2-y,1/2+z
loop_
_atom_site_type_symbol
_atom_site_label
_atom_site_fract_x
_atom_site_fract_y
_atom_site_fract_z
Si Si1 0.954424 0.098221 0.097880
Si Si2 0.686044 0.712375 0.381477
Si Si3 0.073215 0.205602 0.991620
Si Si4 0.827731 0.041034 0.479252
Si Si5 0.500000 0.186224 0.250000
Si Si6 0.426753 0.165233 0.790159
Si Si7 0.747646 0.964172 0.683714
Si Si8 0.068131 0.473375 0.628789
O O1 0.886515 0.171499 0.080067
O O2 0.000000 0.079069 0.250000
O O3 0.912657 0.007717 0.025626
O O4 0.010791 0.136150 0.019189
O O5 0.750000 0.750000 0.500000
O O6 0.656568 0.801236 0.297309
O O7 0.722286 0.638734 0.306722
O O8 0.154617 0.149108 0.025207
O O9 0.055734 0.243280 0.847056
O O10 0.072328 0.299008 0.068948
O O11 0.776144 0.004336 0.336113
O O12 0.783833 0.023693 0.589139
O O13 0.448295 0.122009 0.313536
O O14 0.500000 0.208568 0.750000
O O15 0.429133 0.057091 0.774076
O O16 0.654777 0.966776 0.613331
O O17 0.000000 0.500000 0.500000
#
# Coordination Sequence:
#
# PCOD8152627 Si02
#       8
#     8   8   8   8   4   8   8   8
#     4  11  22  43  75 106 146 196 241 286 359 448
#     4  11  24  41  71 107 138 187 246 294 351 430
#     4  12  23  45  69 109 149 179 242 300 361 428
#     4  11  26  47  73 113 151 191 231 305 380 437
#     4  12  30  42  72 110 138 190 248 298 358 418
#     4  12  23  45  76  98 138 190 244 294 350 431
#     4  11  28  49  73 106 154 187 243 300 375 436
#     4  12  29  50  71  99 143 194 248 297 358 434
#
# _framework density 22.150506
#
# number of rings (size 3 to 8) (size 9 to 14) (size 15 to 20)
#    0.000    0.533    6.000    1.200   12.133    0.000 
#    2.400    1.333    0.000    0.000    0.000    0.000 
#    0.000    0.000    0.000    0.000    0.000    0.000 
#
# Total GULP energy -371748.082286 kJ/mol
# GULP energy per Si atom -12391.602743 kJ/mol
# Density = 2.210009 g / cm^3
# Si number density = 22.150506 Si / 1000 Ang^3
#
#
#
# Elastic Constant Matrix: (Units=GPa)
#
#
# Indices 1 2 3 4 5 6 
#
# 1 125.7694 40.9116 55.9350 0.0000 10.8356 0.0000
# 2 40.9116 92.7041 41.9061 0.0000 2.2035 0.0000
# 3 55.9350 41.9061 148.6732 0.0000 8.3027 0.0000
# 4 0.0000 0.0000 0.0000 23.6402 0.0000 14.6596
# 5 10.8356 2.2035 8.3027 0.0000 35.5531 0.0000
# 6 0.0000 0.0000 0.0000 14.6596 0.0000 14.7972
#
#
#
# Elastic Compliance Matrix: (Units=1/GPa)
#
#
# Indices 1 2 3 4 5 6 
#
# 1 0.010505 -0.003269 -0.002901 0.000000 -0.002321 0.000000
# 2 -0.003269 0.013380 -0.002584 0.000000 0.000771 0.000000
# 3 -0.002901 -0.002584 0.008600 0.000000 -0.000964 0.000000
# 4 0.000000 0.000000 0.000000 0.109686 0.000000 -0.108666
# 5 -0.002321 0.000771 -0.000964 0.000000 0.029012 0.000000
# 6 0.000000 0.000000 0.000000 -0.108666 0.000000 0.175236
#
#
# Mechanical properties :
#
#
# Convention : Reuss Voigt Hill
#
# Bulk Modulus (GPa) = 66.77803 71.62801 69.20302
# Shear Modulus (GPa) = 13.55311 30.02436 21.78873
#
# Velocity S-wave (km/s) = 2.47627 3.68567 3.13975
# Velocity P-wave (km/s) = 6.19587 7.10770 6.66739
#
# Compressibility (1/GPa) = 0.01497499
#
# Stress axis : x y z
#
# Youngs Moduli (GPa) = 95.19496 74.73998 116.28069
#
# Poissons Ratio (x) = 0.24435 0.33733
# Poissons Ratio (y) = 0.31122 0.30051
# Poissons Ratio (z) = 0.27616 0.19315
#
# Static dielectric constant tensor:
#      x y z
#    x 4.054340 0.000000 0.217030 
#    y 0.000000 4.045220 0.000000 
#    z 0.217030 0.000000 4.051940 
# 
# 
# High freq. dielectric constant tensor:
#      x y z
#    x 1.870730 0.000000 0.008770 
#    y 0.000000 1.881490 0.000000 
#    z 0.008770 0.000000 1.875110 
# 
# From -- ./inp_files/105769.got.cif
#   From: 2010.06.25/outbox.cif.g09.slc.cpg/sg15_53_cif.got.tgz:105769.got - 2010.06.28 07:06:18.
