data_PCOD8152727
_publ_section_title
;
Structure prediction by ZEFSAII (Michael W. Deem and Ramdas Pophale) SiO2 
 PCOD8152727
Probable space group: C 2/C
;
_chemical_formula_sum "Si O2"
_cell_formula_units_Z 60
_cell_length_a 8.790246
_cell_length_b 11.643478
_cell_length_c 26.655555
_cell_angle_alpha 90.000000
_cell_angle_beta 78.694490
_cell_angle_gamma 90.000000
_cell_volume 2675.232421
_symmetry_space_group_name_H-M "C 2/C"
_symmetry_group_IT_number 15
_symmetry_cell_setting 'monoclinic'
loop_
_space_group_symop_operation_xyz
x,y,z
-x,y,1/2-z
-x,-y,-z
x,-y,1/2+z
1/2+x,1/2+y,z
1/2-x,1/2+y,1/2-z
1/2-x,1/2-y,-z
1/2+x,1/2-y,1/2+z
loop_
_atom_site_type_symbol
_atom_site_label
_atom_site_fract_x
_atom_site_fract_y
_atom_site_fract_z
Si Si1 0.409173 0.522277 0.414622
Si Si2 0.710177 0.747126 0.810639
Si Si3 0.037748 0.563501 0.691179
Si Si4 0.265654 0.950136 0.900907
Si Si5 0.500000 0.620734 0.750000
Si Si6 0.325002 0.640697 0.519923
Si Si7 0.457470 0.270814 0.412584
Si Si8 0.230354 0.986435 0.674028
O O1 0.586243 0.564688 0.397349
O O2 0.364485 0.550381 0.474019
O O3 0.373043 0.388663 0.402795
O O4 0.296602 0.574748 0.379234
O O5 0.870971 0.683994 0.814479
O O6 0.637565 0.692442 0.765719
O O7 0.595437 0.751578 0.865165
O O8 0.742427 0.877353 0.791682
O O9 0.143534 0.468122 0.656989
O O10 0.000000 0.522587 0.750000
O O11 0.877911 0.572192 0.669314
O O12 0.280920 0.064832 0.935067
O O13 0.337546 0.836412 0.923025
O O14 0.571972 0.546609 0.700619
O O15 0.250000 0.750000 0.500000
O O16 0.474740 0.695039 0.537153
#
# Coordination Sequence:
#
# PCOD8152727 Si02
#       8
#     8   8   8   8   4   8   8   8
#     4  11  25  47  69 106 143 186 240 300 363 436
#     4  12  25  46  69 101 145 184 239 299 357 430
#     4  12  25  45  72 105 140 186 242 295 361 432
#     4  11  24  46  75 102 147 188 240 303 362 435
#     4  12  26  46  68 102 142 190 234 304 354 440
#     4  11  25  45  71 104 148 188 243 301 361 434
#     4  11  22  45  70 101 140 191 235 298 362 432
#     4  12  27  44  72 103 142 187 244 294 369 427
#
# _framework density 22.427958
#
# number of rings (size 3 to 8) (size 9 to 14) (size 15 to 20)
#    0.000    0.533    6.667    2.400    1.867    3.733 
#    0.000    0.000    0.000    0.000    0.000    0.000 
#    0.000    0.000    0.000    0.000    0.000    0.000 
#
# Total GULP energy -371744.631026 kJ/mol
# GULP energy per Si atom -12391.487701 kJ/mol
# Density = 2.237691 g / cm^3
# Si number density = 22.427958 Si / 1000 Ang^3
#
#
#
# Elastic Constant Matrix: (Units=GPa)
#
#
# Indices 1 2 3 4 5 6 
#
# 1 117.1372 56.5428 50.3605 0.0000 9.3250 0.0000
# 2 56.5428 135.8654 25.8307 0.0000 1.3814 0.0000
# 3 50.3605 25.8307 117.8569 0.0000 5.2797 0.0000
# 4 0.0000 0.0000 0.0000 26.5708 0.0000 2.3535
# 5 9.3250 1.3814 5.2797 0.0000 33.0116 0.0000
# 6 0.0000 0.0000 0.0000 2.3535 0.0000 37.4547
#
#
#
# Elastic Compliance Matrix: (Units=1/GPa)
#
#
# Indices 1 2 3 4 5 6 
#
# 1 0.012784 -0.004463 -0.004362 0.000000 -0.002727 0.000000
# 2 -0.004463 0.009239 -0.000158 0.000000 0.000899 0.000000
# 3 -0.004362 -0.000158 0.010403 0.000000 -0.000425 0.000000
# 4 0.000000 0.000000 0.000000 0.037846 0.000000 -0.002378
# 5 -0.002727 0.000899 -0.000425 0.000000 0.031093 0.000000
# 6 0.000000 0.000000 0.000000 -0.002378 0.000000 0.026848
#
#
# Mechanical properties :
#
#
# Convention : Reuss Voigt Hill
#
# Bulk Modulus (GPa) = 69.16504 70.70305 69.93405
# Shear Modulus (GPa) = 33.11293 35.28245 34.19769
#
# Velocity S-wave (km/s) = 3.84658 3.97059 3.90908
# Velocity P-wave (km/s) = 7.11575 7.25353 7.18497
#
# Compressibility (1/GPa) = 0.01445817
#
# Stress axis : x y z
#
# Youngs Moduli (GPa) = 78.22323 108.24209 96.13050
#
# Poissons Ratio (x) = 0.48310 0.41935
# Poissons Ratio (y) = 0.34912 0.01519
# Poissons Ratio (z) = 0.34123 0.01710
#
# Static dielectric constant tensor:
#      x y z
#    x 4.131220 0.000000 0.244520 
#    y 0.000000 4.151200 0.000000 
#    z 0.244520 0.000000 3.285190 
# 
# 
# High freq. dielectric constant tensor:
#      x y z
#    x 1.883470 0.000000 0.012290 
#    y 0.000000 1.886240 0.000000 
#    z 0.012290 0.000000 1.889450 
# 
# From -- ./inp_files/307136.got.cif
#   From: 2010.06.25/outbox.cif.g09.slc.cpg/sg15_154_cif.got.tgz:307136.got - 2010.06.28 07:06:18.
