data_PCOD8152488
_publ_section_title
;
Structure prediction by ZEFSAII (Michael W. Deem and Ramdas Pophale) SiO2 
 PCOD8152488
Probable space group: C 2/C
;
_chemical_formula_sum "Si O2"
_cell_formula_units_Z 48
_cell_length_a 16.033031
_cell_length_b 10.275460
_cell_length_c 14.497214
_cell_angle_alpha 90.000000
_cell_angle_beta 87.059046
_cell_angle_gamma 90.000000
_cell_volume 2385.223534
_symmetry_space_group_name_H-M "C 2/C"
_symmetry_group_IT_number 15
_symmetry_cell_setting 'monoclinic'
loop_
_space_group_symop_operation_xyz
x,y,z
-x,y,1/2-z
-x,-y,-z
x,-y,1/2+z
1/2+x,1/2+y,z
1/2-x,1/2+y,1/2-z
1/2-x,1/2-y,-z
1/2+x,1/2-y,1/2+z
loop_
_atom_site_type_symbol
_atom_site_label
_atom_site_fract_x
_atom_site_fract_y
_atom_site_fract_z
Si Si1 0.592842 0.881516 0.224710
Si Si2 0.599133 0.656258 0.749313
Si Si3 0.826342 0.399358 0.658600
Si Si4 0.328769 0.618395 0.231533
Si Si5 0.801477 0.709234 0.408183
Si Si6 0.093221 0.518672 0.530582
O O1 0.500000 0.928667 0.250000
O O2 0.607972 0.739292 0.266532
O O3 0.652152 0.985548 0.270718
O O4 0.602747 0.878507 0.113358
O O5 0.500000 0.670215 0.750000
O O6 0.627959 0.765018 0.820000
O O7 0.619039 0.512837 0.786511
O O8 0.651252 0.675129 0.650539
O O9 0.726287 0.382613 0.671554
O O10 0.846402 0.435296 0.553560
O O11 0.264193 0.633784 0.151500
O O12 0.750000 0.750000 0.500000
O O13 0.878032 0.619970 0.433934
O O14 0.000000 0.500000 0.500000
#
# Coordination Sequence:
#
# PCOD8152488 Si02
#       6
#     8   8   8   8   8   8
#     4  12  23  42  66  94 129 170 215 265 315 382
#     4  11  22  43  64  91 129 168 205 267 323 376
#     4  11  22  42  68  90 126 167 220 258 317 378
#     4  11  24  42  64  92 132 168 208 266 327 379
#     4  11  24  42  67  92 130 171 215 260 328 384
#     4  12  23  39  69  99 122 167 223 267 309 383
#
# _framework density 20.123899999999999
#
# number of rings (size 3 to 8) (size 9 to 14) (size 15 to 20)
#    0.000    0.667    5.000    6.000    0.000    0.667 
#    3.000    0.833    0.000    0.000    0.000    0.000 
#    0.000    0.000    0.000    0.000    0.000    0.000 
#
# Total GULP energy -297575.108869 kJ/mol
# GULP energy per Si atom -12398.962870 kJ/mol
# Density = 2.007810 g / cm^3
# Si number density = 20.123900 Si / 1000 Ang^3
#
#
#
# Elastic Constant Matrix: (Units=GPa)
#
#
# Indices 1 2 3 4 5 6 
#
# 1 63.4972 10.9535 9.5829 0.0000 1.1895 0.0000
# 2 10.9535 125.1090 16.7525 0.0000 19.2951 0.0000
# 3 9.5829 16.7525 121.7430 0.0000 -10.1092 0.0000
# 4 0.0000 0.0000 0.0000 22.2743 0.0000 2.3965
# 5 1.1895 19.2951 -10.1092 0.0000 33.3603 0.0000
# 6 0.0000 0.0000 0.0000 2.3965 0.0000 23.5350
#
#
#
# Elastic Compliance Matrix: (Units=1/GPa)
#
#
# Indices 1 2 3 4 5 6 
#
# 1 0.016134 -0.001232 -0.001117 0.000000 -0.000201 0.000000
# 2 -0.001232 0.009214 -0.001651 0.000000 -0.005786 0.000000
# 3 -0.001117 -0.001651 0.008834 0.000000 0.003672 0.000000
# 4 0.000000 0.000000 0.000000 0.045392 0.000000 -0.004622
# 5 -0.000201 -0.005786 0.003672 0.000000 0.034442 0.000000
# 6 0.000000 0.000000 0.000000 -0.004622 0.000000 0.042961
#
#
# Mechanical properties :
#
#
# Convention : Reuss Voigt Hill
#
# Bulk Modulus (GPa) = 38.19540 42.76967 40.48254
# Shear Modulus (GPa) = 28.78447 34.03794 31.41120
#
# Velocity S-wave (km/s) = 3.78612 4.11715 3.95510
# Velocity P-wave (km/s) = 6.17529 6.62575 6.40448
#
# Compressibility (1/GPa) = 0.02618116
#
# Stress axis : x y z
#
# Youngs Moduli (GPa) = 61.98242 108.52626 113.19750
#
# Poissons Ratio (x) = 0.13369 0.12646
# Poissons Ratio (y) = 0.07636 0.18694
# Poissons Ratio (z) = 0.06924 0.17922
#
# Static dielectric constant tensor:
#      x y z
#    x 3.766380 0.000000 -0.197480 
#    y 0.000000 3.637380 0.000000 
#    z -0.197480 0.000000 3.858570 
# 
# 
# High freq. dielectric constant tensor:
#      x y z
#    x 1.798220 0.000000 -0.006610 
#    y 0.000000 1.786270 0.000000 
#    z -0.006610 0.000000 1.784050 
# 
# From -- ./inp_files/159744.got.cif
#   From: 2010.06.25/outbox.cif.g09.slc.cpg/sg15_80_cif.got.tgz:159744.got - 2010.06.28 07:06:18.
