data_PCOD8152134
_publ_section_title
;
Structure prediction by ZEFSAII (Michael W. Deem and Ramdas Pophale) SiO2 
 PCOD8152134
Probable space group: C 2/C
;
_chemical_formula_sum "Si O2"
_cell_formula_units_Z 64
_cell_length_a 12.556557
_cell_length_b 26.413643
_cell_length_c 13.625863
_cell_angle_alpha 90.000000
_cell_angle_beta 140.058215
_cell_angle_gamma 90.000000
_cell_volume 2901.375720
_symmetry_space_group_name_H-M "C 2/C"
_symmetry_group_IT_number 15
_symmetry_cell_setting 'monoclinic'
loop_
_space_group_symop_operation_xyz
x,y,z
-x,y,1/2-z
-x,-y,-z
x,-y,1/2+z
1/2+x,1/2+y,z
1/2-x,1/2+y,1/2-z
1/2-x,1/2-y,-z
1/2+x,1/2-y,1/2+z
loop_
_atom_site_type_symbol
_atom_site_label
_atom_site_fract_x
_atom_site_fract_y
_atom_site_fract_z
Si Si1 0.899032 0.590893 0.587110
Si Si2 0.488426 0.976302 0.850329
Si Si3 0.093582 0.386049 0.043824
Si Si4 0.072531 0.798021 0.530781
Si Si5 0.956550 0.295532 0.831722
Si Si6 0.456726 0.370605 0.613964
Si Si7 0.029333 0.883061 0.161839
Si Si8 0.614221 0.547128 0.100343
O O1 0.715365 0.601369 0.492186
O O2 0.000000 0.611513 0.750000
O O3 0.933028 0.531793 0.590929
O O4 0.954634 0.621760 0.529738
O O5 0.500000 0.953029 0.750000
O O6 0.592236 0.942546 0.999143
O O7 0.296359 0.974935 0.744949
O O8 0.049821 0.347765 0.924246
O O9 0.274036 0.379950 0.221118
O O10 0.259379 0.799920 0.702183
O O11 0.017627 0.741870 0.461828
O O12 0.958583 0.825356 0.534275
O O13 0.048406 0.827742 0.411299
O O14 0.000000 0.279813 0.750000
O O15 0.500000 0.346482 0.750000
O O16 0.577293 0.417142 0.668306
O O17 0.000000 0.901626 0.250000
O O18 0.917380 0.919179 0.017064
O O19 0.500000 0.500000 0.000000
#
# Coordination Sequence:
#
# PCOD8152134 Si02
#       8
#     8   8   8   8   8   8   8   8
#     4  11  23  41  62  88 127 176 224 270 318 382
#     4  11  22  39  60  90 127 168 215 269 327 391
#     4  12  23  39  64  97 129 170 219 271 329 396
#     4  11  24  44  66  96 129 169 217 267 330 398
#     4  12  24  43  71 102 134 168 208 273 341 400
#     4  11  24  44  65  89 129 178 224 274 326 384
#     4  11  22  38  60  91 128 166 207 263 327 394
#     4  11  22  38  59  89 126 167 215 269 322 383
#
# _framework density 22.058501
#
# number of rings (size 3 to 8) (size 9 to 14) (size 15 to 20)
#    0.000    0.750    0.000   10.500    0.000    1.500 
#    0.000    3.125    0.000    0.000    0.000    0.000 
#    0.000    0.000    0.000    0.000    0.000    0.000 
#
# Total GULP energy -396654.060194 kJ/mol
# GULP energy per Si atom -12395.439381 kJ/mol
# Density = 2.200829 g / cm^3
# Si number density = 22.058501 Si / 1000 Ang^3
#
#
#
# Elastic Constant Matrix: (Units=GPa)
#
#
# Indices 1 2 3 4 5 6 
#
# 1 129.5694 36.6864 26.0802 0.0000 -3.6189 0.0000
# 2 36.6864 79.7861 40.7203 0.0000 4.8367 0.0000
# 3 26.0802 40.7203 106.7409 0.0000 8.6069 0.0000
# 4 0.0000 0.0000 0.0000 28.7610 0.0000 3.5923
# 5 -3.6189 4.8367 8.6069 0.0000 47.6949 0.0000
# 6 0.0000 0.0000 0.0000 3.5923 0.0000 41.9778
#
#
#
# Elastic Compliance Matrix: (Units=1/GPa)
#
#
# Indices 1 2 3 4 5 6 
#
# 1 0.008992 -0.003771 -0.000857 0.000000 0.001219 0.000000
# 2 -0.003771 0.017158 -0.005541 0.000000 -0.001026 0.000000
# 3 -0.000857 -0.005541 0.011824 0.000000 -0.001637 0.000000
# 4 0.000000 0.000000 0.000000 0.035145 0.000000 -0.003008
# 5 0.001219 -0.001026 -0.001637 0.000000 0.021459 0.000000
# 6 0.000000 0.000000 0.000000 -0.003008 0.000000 0.024080
#
#
# Mechanical properties :
#
#
# Convention : Reuss Voigt Hill
#
# Bulk Modulus (GPa) = 56.70513 58.11892 57.41203
# Shear Modulus (GPa) = 34.51275 37.86071 36.18673
#
# Velocity S-wave (km/s) = 3.95979 4.14741 4.05469
# Velocity P-wave (km/s) = 6.83148 7.02421 6.92852
#
# Compressibility (1/GPa) = 0.01763509
#
# Stress axis : x y z
#
# Youngs Moduli (GPa) = 111.20756 58.28195 84.57582
#
# Poissons Ratio (x) = 0.21980 0.07245
# Poissons Ratio (y) = 0.41941 0.46866
# Poissons Ratio (z) = 0.09527 0.32296
#
# Static dielectric constant tensor:
#      x y z
#    x 4.149400 0.000000 -0.092760 
#    y 0.000000 3.616000 0.000000 
#    z -0.092760 0.000000 4.046590 
# 
# 
# High freq. dielectric constant tensor:
#      x y z
#    x 1.872980 0.000000 -0.005120 
#    y 0.000000 1.857510 0.000000 
#    z -0.005120 0.000000 1.886940 
# 
# From -- ./inp_files/148803.got.cif
#   From: 2010.06.25/outbox.cif.g09.slc.cpg/sg15_75_cif.got.tgz:148803.got - 2010.06.28 07:06:18.
