data_PCOD8152060
_publ_section_title
;
Structure prediction by ZEFSAII (Michael W. Deem and Ramdas Pophale) SiO2 
 PCOD8152060
Probable space group: C 2/C
;
_chemical_formula_sum "Si O2"
_cell_formula_units_Z 40
_cell_length_a 18.329440
_cell_length_b 7.492902
_cell_length_c 11.752191
_cell_angle_alpha 90.000000
_cell_angle_beta 90.741998
_cell_angle_gamma 90.000000
_cell_volume 1613.918766
_symmetry_space_group_name_H-M "C 2/C"
_symmetry_group_IT_number 15
_symmetry_cell_setting 'monoclinic'
loop_
_space_group_symop_operation_xyz
x,y,z
-x,y,1/2-z
-x,-y,-z
x,-y,1/2+z
1/2+x,1/2+y,z
1/2-x,1/2+y,1/2-z
1/2-x,1/2-y,-z
1/2+x,1/2-y,1/2+z
loop_
_atom_site_type_symbol
_atom_site_label
_atom_site_fract_x
_atom_site_fract_y
_atom_site_fract_z
Si Si1 0.807031 0.846659 0.823870
Si Si2 0.426310 0.727469 0.997976
Si Si3 0.411498 0.302709 0.010476
Si Si4 0.789386 0.356047 0.101463
Si Si5 0.083798 0.854022 0.245171
O O1 0.771707 0.724595 0.725987
O O2 0.742404 0.945377 0.891534
O O3 0.864431 0.975239 0.763001
O O4 0.850650 0.731343 0.920998
O O5 0.409832 0.518482 0.014426
O O6 0.376029 0.853051 0.076487
O O7 0.510112 0.771011 0.029457
O O8 0.407969 0.772613 0.865195
O O9 0.395825 0.242252 0.140431
O O10 0.750000 0.250000 0.000000
O O11 0.000000 0.924858 0.250000
#
# Coordination Sequence:
#
# PCOD8152060 Si02
#       5
#     8   8   8   8   8
#     4  11  22  34  59  86 124 163 198 252 310 364
#     4   9  17  28  56  83 119 145 189 256 306 341
#     4   9  16  30  52  92 112 141 204 256 291 344
#     4  12  22  39  56  88 129 165 199 250 317 368
#     4   9  15  28  52  86 117 137 190 254 296 332
#
# _framework density 24.784395
#
# number of rings (size 3 to 8) (size 9 to 14) (size 15 to 20)
#    0.000    2.000    6.000    1.200    0.000    0.000 
#    0.000    4.000    0.000    0.000    5.200    8.400 
#    0.000    0.000    0.000    0.000    0.000    0.000 
#
# Total GULP energy -247915.352976 kJ/mol
# GULP energy per Si atom -12395.767649 kJ/mol
# Density = 2.472798 g / cm^3
# Si number density = 24.784395 Si / 1000 Ang^3
#
#
#
# Elastic Constant Matrix: (Units=GPa)
#
#
# Indices 1 2 3 4 5 6 
#
# 1 116.5642 26.6041 56.8332 0.0000 -3.7141 0.0000
# 2 26.6041 12.9635 24.7500 0.0000 2.5800 0.0000
# 3 56.8332 24.7500 177.5751 0.0000 22.3252 0.0000
# 4 0.0000 0.0000 0.0000 17.7242 0.0000 -1.0861
# 5 -3.7141 2.5800 22.3252 0.0000 55.3044 0.0000
# 6 0.0000 0.0000 0.0000 -1.0861 0.0000 15.8332
#
#
#
# Elastic Compliance Matrix: (Units=1/GPa)
#
#
# Indices 1 2 3 4 5 6 
#
# 1 0.016708 -0.032636 -0.001192 0.000000 0.003126 0.000000
# 2 -0.032636 0.168915 -0.012464 0.000000 -0.005040 0.000000
# 3 -0.001192 -0.012464 0.008098 0.000000 -0.002768 0.000000
# 4 0.000000 0.000000 0.000000 0.056658 0.000000 0.003887
# 5 0.003126 -0.005040 -0.002768 0.000000 0.019644 0.000000
# 6 0.000000 0.000000 0.000000 0.003887 0.000000 0.063425
#
#
# Mechanical properties :
#
#
# Convention : Reuss Voigt Hill
#
# Bulk Modulus (GPa) = 9.88749 58.16417 34.02583
# Shear Modulus (GPa) = 10.87559 31.03339 20.95449
#
# Velocity S-wave (km/s) = 2.09705 3.54239 2.91085
# Velocity P-wave (km/s) = 3.14031 6.34432 5.00559
#
# Compressibility (1/GPa) = 0.10113789
#
# Stress axis : x y z
#
# Youngs Moduli (GPa) = 59.85057 5.92013 123.48691
#
# Poissons Ratio (x) = 0.19321 0.14717
# Poissons Ratio (y) = 1.95327 1.53917
# Poissons Ratio (z) = 0.07133 0.07379
#
# Static dielectric constant tensor:
#      x y z
#    x 4.738370 0.000000 0.070510 
#    y 0.000000 3.552560 0.000000 
#    z 0.070510 0.000000 5.196120 
# 
# 
# High freq. dielectric constant tensor:
#      x y z
#    x 2.003390 0.000000 -0.000560 
#    y 0.000000 1.909850 0.000000 
#    z -0.000560 0.000000 2.009110 
# 
# From -- ./inp_files/102764.got.cif
#   From: 2010.06.25/outbox.cif.g09.slc.cpg/sg15_52_cif.got.tgz:102764.got - 2010.06.28 07:06:18.
