data_PCOD8152943
_publ_section_title
;
Structure prediction by ZEFSAII (Michael W. Deem and Ramdas Pophale) SiO2 
 PCOD8152943
Probable space group: C 2/C
;
_chemical_formula_sum "Si O2"
_cell_formula_units_Z 56
_cell_length_a 28.702746
_cell_length_b 14.116622
_cell_length_c 11.613092
_cell_angle_alpha 90.000000
_cell_angle_beta 35.824319
_cell_angle_gamma 90.000000
_cell_volume 2754.114654
_symmetry_space_group_name_H-M "C 2/C"
_symmetry_group_IT_number 15
_symmetry_cell_setting 'monoclinic'
loop_
_space_group_symop_operation_xyz
x,y,z
-x,y,1/2-z
-x,-y,-z
x,-y,1/2+z
1/2+x,1/2+y,z
1/2-x,1/2+y,1/2-z
1/2-x,1/2-y,-z
1/2+x,1/2-y,1/2+z
loop_
_atom_site_type_symbol
_atom_site_label
_atom_site_fract_x
_atom_site_fract_y
_atom_site_fract_z
Si Si1 0.627277 0.261811 0.268295
Si Si2 0.082594 0.619756 0.545690
Si Si3 0.522038 0.262408 0.076206
Si Si4 0.435966 0.052031 0.552226
Si Si5 0.234774 0.332963 0.368350
Si Si6 0.796827 0.212530 0.297202
Si Si7 0.193196 0.452897 0.002317
O O1 0.613069 0.166772 0.368488
O O2 0.544108 0.302802 0.382599
O O3 0.674950 0.333459 0.258886
O O4 0.681133 0.235648 0.052427
O O5 0.073194 0.507318 0.545463
O O6 0.143614 0.623724 0.526858
O O7 0.000000 0.668424 0.750000
O O8 0.500000 0.293900 0.250000
O O9 0.524842 0.149843 0.061555
O O10 0.609402 0.296838 0.868032
O O11 0.500000 0.000000 0.500000
O O12 0.349419 0.053107 0.787884
O O13 0.226965 0.285207 0.258485
O O14 0.202596 0.440784 0.433962
O O15 0.750000 0.250000 0.500000
O O16 0.777369 0.100410 0.325986
#
# Coordination Sequence:
#
# PCOD8152943 Si02
#       7
#     8   8   8   8   8   8   8
#     4  11  23  41  65  95 130 176 221 268 327 400
#     4  12  22  34  62  95 133 163 211 268 338 408
#     4  12  23  41  65  94 135 175 220 273 330 398
#     4  12  21  34  59  97 132 165 206 264 346 406
#     4  11  24  44  66  93 133 179 220 271 338 398
#     4  12  26  44  65 100 135 177 221 279 339 391
#     4  12  24  41  62  95 135 174 218 272 332 398
#
# _framework density 20.333212
#
# number of rings (size 3 to 8) (size 9 to 14) (size 15 to 20)
#    0.000    0.286    8.571    1.286    0.000    0.000 
#    0.000    0.714    0.000    0.857    0.000    0.000 
#    0.000    0.000    0.000    0.000    0.000    0.000 
#
# Total GULP energy -346910.888244 kJ/mol
# GULP energy per Si atom -12389.674580 kJ/mol
# Density = 2.028693 g / cm^3
# Si number density = 20.333212 Si / 1000 Ang^3
#
#
#
# Elastic Constant Matrix: (Units=GPa)
#
#
# Indices 1 2 3 4 5 6 
#
# 1 110.9853 12.8248 53.0731 0.0000 -15.6338 0.0000
# 2 12.8248 40.8635 14.3912 0.0000 -6.3205 0.0000
# 3 53.0731 14.3912 118.4767 0.0000 -8.8736 0.0000
# 4 0.0000 0.0000 0.0000 29.8573 0.0000 -2.0008
# 5 -15.6338 -6.3205 -8.8736 0.0000 47.5716 0.0000
# 6 0.0000 0.0000 0.0000 -2.0008 0.0000 23.0810
#
#
#
# Elastic Compliance Matrix: (Units=1/GPa)
#
#
# Indices 1 2 3 4 5 6 
#
# 1 0.011955 -0.001575 -0.004955 0.000000 0.002796 0.000000
# 2 -0.001575 0.026162 -0.002283 0.000000 0.002533 0.000000
# 3 -0.004955 -0.002283 0.010946 0.000000 0.000110 0.000000
# 4 0.000000 0.000000 0.000000 0.033688 0.000000 0.002920
# 5 0.002796 0.002533 0.000110 0.000000 0.022297 0.000000
# 6 0.000000 0.000000 0.000000 0.002920 0.000000 0.043579
#
#
# Mechanical properties :
#
#
# Convention : Reuss Voigt Hill
#
# Bulk Modulus (GPa) = 31.80875 47.87819 39.84347
# Shear Modulus (GPa) = 28.29168 32.77108 30.53138
#
# Velocity S-wave (km/s) = 3.73420 4.01896 3.87919
# Velocity P-wave (km/s) = 5.85406 6.71818 6.30095
#
# Compressibility (1/GPa) = 0.03143789
#
# Stress axis : x y z
#
# Youngs Moduli (GPa) = 83.64431 38.22395 91.36087
#
# Poissons Ratio (x) = 0.06019 0.45268
# Poissons Ratio (y) = 0.13172 0.20855
# Poissons Ratio (z) = 0.41445 0.08725
#
# Static dielectric constant tensor:
#      x y z
#    x 4.568390 0.000000 0.209860 
#    y 0.000000 3.441430 0.000000 
#    z 0.209860 0.000000 3.991550 
# 
# 
# High freq. dielectric constant tensor:
#      x y z
#    x 1.811290 0.000000 0.000340 
#    y 0.000000 1.756280 0.000000 
#    z 0.000340 0.000000 1.804260 
# 
# From -- ./inp_files/97054.got.cif
#   From: 2010.06.25/outbox.cif.g09.slc.cpg/sg15_49_cif.got.tgz:97054.got - 2010.06.28 07:06:18.
