data_PCOD8152606
_publ_section_title
;
Structure prediction by ZEFSAII (Michael W. Deem and Ramdas Pophale) SiO2 
 PCOD8152606
Probable space group: C 2/C
;
_chemical_formula_sum "Si O2"
_cell_formula_units_Z 40
_cell_length_a 10.820693
_cell_length_b 20.929647
_cell_length_c 10.056505
_cell_angle_alpha 90.000000
_cell_angle_beta 127.613507
_cell_angle_gamma 90.000000
_cell_volume 1804.135568
_symmetry_space_group_name_H-M "C 2/C"
_symmetry_group_IT_number 15
_symmetry_cell_setting 'monoclinic'
loop_
_space_group_symop_operation_xyz
x,y,z
-x,y,1/2-z
-x,-y,-z
x,-y,1/2+z
1/2+x,1/2+y,z
1/2-x,1/2+y,1/2-z
1/2-x,1/2-y,-z
1/2+x,1/2-y,1/2+z
loop_
_atom_site_type_symbol
_atom_site_label
_atom_site_fract_x
_atom_site_fract_y
_atom_site_fract_z
Si Si1 0.654910 0.081032 0.005408
Si Si2 0.162034 0.236327 0.809692
Si Si3 0.336657 0.119988 0.202259
Si Si4 0.675188 0.453990 0.378315
Si Si5 0.699326 0.875447 0.260361
O O1 0.719056 0.088339 0.196551
O O2 0.698499 0.007919 0.998166
O O3 0.473867 0.099118 0.884149
O O4 0.734906 0.124480 0.942186
O O5 0.137738 0.306786 0.733915
O O6 0.263421 0.194901 0.772624
O O7 0.000000 0.203132 0.750000
O O8 0.250000 0.250000 0.000000
O O9 0.500000 0.093888 0.250000
O O10 0.203611 0.104073 0.004032
O O11 0.500000 0.481203 0.250000
O O12 0.693997 0.426552 0.242961
#
# Coordination Sequence:
#
# PCOD8152606 Si02
#       5
#     8   8   8   8   8
#     4  11  25  42  66 103 139 178 225 284 347 405
#     4  11  22  43  71 100 133 179 237 276 329 416
#     4  11  23  42  71  99 130 186 231 271 340 416
#     4  12  25  44  70 100 139 182 232 284 338 410
#     4  11  23  42  70 100 137 182 226 284 343 398
#
# _framework density 22.171282999999999
#
# number of rings (size 3 to 8) (size 9 to 14) (size 15 to 20)
#    0.000    0.800    4.000    3.600    2.800    4.000 
#    0.000    0.000    0.000    0.000    0.000    0.000 
#    0.000    0.000    0.000    0.000    0.000    0.000 
#
# Total GULP energy -247765.901837 kJ/mol
# GULP energy per Si atom -12388.295092 kJ/mol
# Density = 2.212082 g / cm^3
# Si number density = 22.171283 Si / 1000 Ang^3
#
#
#
# Elastic Constant Matrix: (Units=GPa)
#
#
# Indices 1 2 3 4 5 6 
#
# 1 134.1448 62.1953 70.9865 0.0000 -21.8606 0.0000
# 2 62.1953 106.2662 20.3982 0.0000 3.7512 0.0000
# 3 70.9865 20.3982 102.9726 0.0000 -11.8535 0.0000
# 4 0.0000 0.0000 0.0000 22.3435 0.0000 3.3931
# 5 -21.8606 3.7512 -11.8535 0.0000 52.0545 0.0000
# 6 0.0000 0.0000 0.0000 3.3931 0.0000 33.2497
#
#
#
# Elastic Compliance Matrix: (Units=1/GPa)
#
#
# Indices 1 2 3 4 5 6 
#
# 1 0.017515 -0.008591 -0.009709 0.000000 0.005764 0.000000
# 2 -0.008591 0.014067 0.002674 0.000000 -0.004013 0.000000
# 3 -0.009709 0.002674 0.015797 0.000000 -0.000673 0.000000
# 4 0.000000 0.000000 0.000000 0.045460 0.000000 -0.004639
# 5 0.005764 -0.004013 -0.000673 0.000000 0.021767 0.000000
# 6 0.000000 0.000000 0.000000 -0.004639 0.000000 0.030549
#
#
# Mechanical properties :
#
#
# Convention : Reuss Voigt Hill
#
# Bulk Modulus (GPa) = 62.00797 72.28264 67.14531
# Shear Modulus (GPa) = 27.50545 34.18311 30.84428
#
# Velocity S-wave (km/s) = 3.52602 3.93080 3.73390
# Velocity P-wave (km/s) = 6.67874 7.29893 6.99571
#
# Compressibility (1/GPa) = 0.01612696
#
# Stress axis : x y z
#
# Youngs Moduli (GPa) = 57.09505 71.08980 63.30213
#
# Poissons Ratio (x) = 0.61071 0.61459
# Poissons Ratio (y) = 0.49049 -0.16926
# Poissons Ratio (z) = 0.55433 -0.19008
#
# Static dielectric constant tensor:
#      x y z
#    x 4.212160 0.000000 -0.246610 
#    y 0.000000 -2.694530 0.000000 
#    z -0.246610 0.000000 3.922940 
# 
# 
# High freq. dielectric constant tensor:
#      x y z
#    x 1.874900 0.000000 -0.011770 
#    y 0.000000 1.871130 0.000000 
#    z -0.011770 0.000000 1.866900 
# 
# From -- ./inp_files/88637.got.cif
#   From: 2010.06.25/outbox.cif.g09.slc.cpg/sg15_45_cif.got.tgz:88637.got - 2010.06.28 07:06:18.
