data_PCOD8152575
_publ_section_title
;
Structure prediction by ZEFSAII (Michael W. Deem and Ramdas Pophale) SiO2 
 PCOD8152575
Probable space group: C 2/C
;
_chemical_formula_sum "Si O2"
_cell_formula_units_Z 56
_cell_length_a 12.078215
_cell_length_b 11.575752
_cell_length_c 21.442472
_cell_angle_alpha 90.000000
_cell_angle_beta 64.250160
_cell_angle_gamma 90.000000
_cell_volume 2700.267071
_symmetry_space_group_name_H-M "C 2/C"
_symmetry_group_IT_number 15
_symmetry_cell_setting 'monoclinic'
loop_
_space_group_symop_operation_xyz
x,y,z
-x,y,1/2-z
-x,-y,-z
x,-y,1/2+z
1/2+x,1/2+y,z
1/2-x,1/2+y,1/2-z
1/2-x,1/2-y,-z
1/2+x,1/2-y,1/2+z
loop_
_atom_site_type_symbol
_atom_site_label
_atom_site_fract_x
_atom_site_fract_y
_atom_site_fract_z
Si Si1 0.120904 0.774814 0.755723
Si Si2 0.862389 0.312500 0.508048
Si Si3 0.120354 0.714294 0.892116
Si Si4 0.774244 0.037404 0.932537
Si Si5 0.363493 0.547869 0.044848
Si Si6 0.829893 0.163537 0.627123
Si Si7 0.525325 0.477403 0.310012
O O1 0.146075 0.701944 0.812155
O O2 0.227211 0.747120 0.680440
O O3 0.111004 0.910652 0.776106
O O4 0.000000 0.731786 0.750000
O O5 0.750000 0.250000 0.500000
O O6 0.826292 0.438401 0.539757
O O7 0.904592 0.240399 0.558725
O O8 0.980722 0.326968 0.435737
O O9 0.221146 0.640313 0.903976
O O10 0.132727 0.846547 0.908936
O O11 0.801238 0.084442 0.995341
O O12 0.897323 0.982732 0.872533
O O13 0.282394 0.448687 0.099780
O O14 0.500000 0.500000 0.000000
O O15 0.916702 0.120293 0.661072
O O16 0.500000 0.416141 0.250000
#
# Coordination Sequence:
#
# PCOD8152575 Si02
#       7
#     8   8   8   8   8   8   8
#     4  11  24  41  65  93 127 174 223 270 326 401
#     4  12  22  40  68  99 130 174 227 272 323 402
#     4  12  24  42  65 100 140 171 220 282 336 394
#     4  12  24  40  68 102 133 171 221 280 338 399
#     4  12  21  43  69  98 130 179 222 271 340 405
#     4  12  23  40  71  96 128 170 228 273 327 402
#     4  11  22  43  67  93 128 175 222 268 336 404
#
# _framework density 20.738689000000001
#
# number of rings (size 3 to 8) (size 9 to 14) (size 15 to 20)
#    0.000    0.286    5.714    5.143    0.000    0.000 
#    0.000    0.000    3.143    0.000    0.000    0.000 
#    0.000    0.000    0.000    0.000    0.000    0.000 
#
# Total GULP energy -347184.547771 kJ/mol
# GULP energy per Si atom -12399.448135 kJ/mol
# Density = 2.069149 g / cm^3
# Si number density = 20.738689 Si / 1000 Ang^3
#
#
#
# Elastic Constant Matrix: (Units=GPa)
#
#
# Indices 1 2 3 4 5 6 
#
# 1 82.4473 23.0703 28.0661 0.0000 22.0441 0.0000
# 2 23.0703 83.3508 17.1496 0.0000 0.0997 0.0000
# 3 28.0661 17.1496 104.1898 0.0000 20.7885 0.0000
# 4 0.0000 0.0000 0.0000 39.9113 0.0000 7.1798
# 5 22.0441 0.0997 20.7885 0.0000 53.5570 0.0000
# 6 0.0000 0.0000 0.0000 7.1798 0.0000 28.4671
#
#
#
# Elastic Compliance Matrix: (Units=1/GPa)
#
#
# Indices 1 2 3 4 5 6 
#
# 1 0.015468 -0.003767 -0.002469 0.000000 -0.005401 0.000000
# 2 -0.003767 0.013370 -0.001616 0.000000 0.002153 0.000000
# 3 -0.002469 -0.001616 0.011192 0.000000 -0.003325 0.000000
# 4 0.000000 0.000000 0.000000 0.026246 0.000000 -0.006620
# 5 -0.005401 0.002153 -0.003325 0.000000 0.022182 0.000000
# 6 0.000000 0.000000 0.000000 -0.006620 0.000000 0.036798
#
#
# Mechanical properties :
#
#
# Convention : Reuss Voigt Hill
#
# Bulk Modulus (GPa) = 41.10588 45.17330 43.13959
# Shear Modulus (GPa) = 33.54199 37.83387 35.68793
#
# Velocity S-wave (km/s) = 4.02601 4.27583 4.15280
# Velocity P-wave (km/s) = 6.44015 6.79753 6.62125
#
# Compressibility (1/GPa) = 0.02432742
#
# Stress axis : x y z
#
# Youngs Moduli (GPa) = 64.65158 74.79492 89.34721
#
# Poissons Ratio (x) = 0.28173 0.22059
# Poissons Ratio (y) = 0.24353 0.14434
# Poissons Ratio (z) = 0.15962 0.12083
#
# Static dielectric constant tensor:
#      x y z
#    x 3.747090 0.000000 0.179020 
#    y 0.000000 3.719860 0.000000 
#    z 0.179020 0.000000 4.196310 
# 
# 
# High freq. dielectric constant tensor:
#      x y z
#    x 1.800370 0.000000 0.018550 
#    y 0.000000 1.803340 0.000000 
#    z 0.018550 0.000000 1.835450 
# 
# From -- ./inp_files/237555.got.cif
#   From: 2010.06.25/outbox.cif.g09.slc.cpg/sg15_119_cif.got.tgz:237555.got - 2010.06.28 07:06:18.
