data_PCOD8152506
_publ_section_title
;
Structure prediction by ZEFSAII (Michael W. Deem and Ramdas Pophale) SiO2 
 PCOD8152506
Probable space group: C 2/C
;
_chemical_formula_sum "Si O2"
_cell_formula_units_Z 60
_cell_length_a 21.603467
_cell_length_b 8.619350
_cell_length_c 15.756131
_cell_angle_alpha 90.000000
_cell_angle_beta 79.589400
_cell_angle_gamma 90.000000
_cell_volume 2885.617228
_symmetry_space_group_name_H-M "C 2/C"
_symmetry_group_IT_number 15
_symmetry_cell_setting 'monoclinic'
loop_
_space_group_symop_operation_xyz
x,y,z
-x,y,1/2-z
-x,-y,-z
x,-y,1/2+z
1/2+x,1/2+y,z
1/2-x,1/2+y,1/2-z
1/2-x,1/2-y,-z
1/2+x,1/2-y,1/2+z
loop_
_atom_site_type_symbol
_atom_site_label
_atom_site_fract_x
_atom_site_fract_y
_atom_site_fract_z
Si Si1 0.836034 0.124849 0.216312
Si Si2 0.906701 0.977473 0.856980
Si Si3 0.901360 0.681313 0.559046
Si Si4 0.789614 0.217933 0.749696
Si Si5 0.816163 0.774560 0.437061
Si Si6 0.000000 0.218028 0.750000
Si Si7 0.905498 0.649547 0.141439
Si Si8 0.971237 0.165239 0.488242
O O1 0.887317 0.114790 0.277585
O O2 0.870444 0.177864 0.121171
O O3 0.783115 0.250978 0.252941
O O4 0.803141 0.957776 0.218469
O O5 0.938267 0.844096 0.905143
O O6 0.847463 0.052205 0.923935
O O7 0.956472 0.112894 0.821744
O O8 0.864837 0.666598 0.478016
O O9 0.903507 0.523195 0.608759
O O10 0.973951 0.709823 0.522708
O O11 0.805376 0.268825 0.842205
O O12 0.833518 0.327719 0.684260
O O13 0.750000 0.750000 0.500000
O O14 0.954678 0.328804 0.706303
O O15 0.919784 0.780720 0.068414
O O16 0.000000 0.000000 0.500000
#
# Coordination Sequence:
#
# PCOD8152506 Si02
#       8
#     8   8   8   8   8   4   8   8
#     4  11  23  45  69  99 134 182 229 280 337 399
#     4  11  24  41  73 102 130 183 230 275 343 402
#     4  12  25  44  67 101 139 176 228 282 341 407
#     4  11  24  44  69  97 136 177 231 277 341 404
#     4  11  22  42  69  94 131 183 222 271 342 402
#     4  12  20  44  70  98 140 186 220 276 346 408
#     4  12  26  41  68 103 139 178 224 278 343 406
#     4  12  23  44  69  97 135 175 229 279 332 408
#
# _framework density 20.79278
#
# number of rings (size 3 to 8) (size 9 to 14) (size 15 to 20)
#    0.000    0.533    6.667    2.800    1.867    1.067 
#    4.800    0.667    0.000    0.000    0.000    0.000 
#    0.000    0.000    0.000    0.000    0.000    0.000 
#
# Total GULP energy -371872.989469 kJ/mol
# GULP energy per Si atom -12395.766316 kJ/mol
# Density = 2.074545 g / cm^3
# Si number density = 20.792780 Si / 1000 Ang^3
#
#
#
# Elastic Constant Matrix: (Units=GPa)
#
#
# Indices 1 2 3 4 5 6 
#
# 1 79.2779 6.8537 11.5974 0.0000 -8.4117 0.0000
# 2 6.8537 71.5603 32.0516 0.0000 2.4047 0.0000
# 3 11.5974 32.0516 72.3450 0.0000 -18.8095 0.0000
# 4 0.0000 0.0000 0.0000 37.4666 0.0000 -2.7704
# 5 -8.4117 2.4047 -18.8095 0.0000 35.9251 0.0000
# 6 0.0000 0.0000 0.0000 -2.7704 0.0000 33.5105
#
#
#
# Elastic Compliance Matrix: (Units=1/GPa)
#
#
# Indices 1 2 3 4 5 6 
#
# 1 0.013116 -0.000876 -0.001043 0.000000 0.002584 0.000000
# 2 -0.000876 0.018700 -0.009866 0.000000 -0.006622 0.000000
# 3 -0.001043 -0.009866 0.021379 0.000000 0.011610 0.000000
# 4 0.000000 0.000000 0.000000 0.026855 0.000000 0.002220
# 5 0.002584 -0.006622 0.011610 0.000000 0.034963 0.000000
# 6 0.000000 0.000000 0.000000 0.002220 0.000000 0.030025
#
#
# Mechanical properties :
#
#
# Convention : Reuss Voigt Hill
#
# Bulk Modulus (GPa) = 33.75443 36.02097 34.88770
# Shear Modulus (GPa) = 28.01397 32.89247 30.45322
#
# Velocity S-wave (km/s) = 3.67453 3.98165 3.83117
# Velocity P-wave (km/s) = 5.85422 6.20479 6.03205
#
# Compressibility (1/GPa) = 0.02962574
#
# Stress axis : x y z
#
# Youngs Moduli (GPa) = 76.24112 53.47692 46.77398
#
# Poissons Ratio (x) = 0.04685 0.04877
# Poissons Ratio (y) = 0.06679 0.46147
# Poissons Ratio (z) = 0.07950 0.52761
#
# Static dielectric constant tensor:
#      x y z
#    x 3.814330 0.000000 0.087400 
#    y 0.000000 3.386150 0.000000 
#    z 0.087400 0.000000 4.029610 
# 
# 
# High freq. dielectric constant tensor:
#      x y z
#    x 1.833570 0.000000 -0.003970 
#    y 0.000000 1.793130 0.000000 
#    z -0.003970 0.000000 1.825730 
# 
# From -- ./inp_files/171868.got.cif
#   From: 2010.06.25/outbox.cif.g09.slc.cpg/sg15_86_cif.got.tgz:171868.got - 2010.06.28 07:06:18.
