data_PCOD8152404
_publ_section_title
;
Structure prediction by ZEFSAII (Michael W. Deem and Ramdas Pophale) SiO2 
 PCOD8152404
Probable space group: C 2/C
;
_chemical_formula_sum "Si O2"
_cell_formula_units_Z 60
_cell_length_a 26.840940
_cell_length_b 13.066235
_cell_length_c 22.156724
_cell_angle_alpha 90.000000
_cell_angle_beta 161.728648
_cell_angle_gamma 90.000000
_cell_volume 2436.216058
_symmetry_space_group_name_H-M "C 2/C"
_symmetry_group_IT_number 15
_symmetry_cell_setting 'monoclinic'
loop_
_space_group_symop_operation_xyz
x,y,z
-x,y,1/2-z
-x,-y,-z
x,-y,1/2+z
1/2+x,1/2+y,z
1/2-x,1/2+y,1/2-z
1/2-x,1/2-y,-z
1/2+x,1/2-y,1/2+z
loop_
_atom_site_type_symbol
_atom_site_label
_atom_site_fract_x
_atom_site_fract_y
_atom_site_fract_z
Si Si1 0.059953 0.194832 0.881790
Si Si2 0.790793 0.165531 0.726999
Si Si3 0.970966 0.331076 0.486897
Si Si4 0.358814 0.922972 0.707080
Si Si5 0.375496 0.851308 0.247396
Si Si6 0.167353 0.032410 0.826933
Si Si7 0.484227 0.336546 0.660488
Si Si8 0.500000 0.083280 0.250000
O O1 0.000000 0.252397 0.750000
O O2 0.912184 0.141313 0.744901
O O3 0.171381 0.264104 0.050857
O O4 0.172688 0.102707 0.986636
O O5 0.711764 0.157636 0.702105
O O6 0.806167 0.052695 0.714345
O O7 0.965147 0.214881 0.933242
O O8 0.985838 0.360608 0.433846
O O9 0.080646 0.402179 0.655445
O O10 0.462378 0.862092 0.774005
O O11 0.381791 0.042490 0.718669
O O12 0.428866 0.764860 0.262242
O O13 0.198926 0.827589 0.067891
O O14 0.338516 0.017450 0.055894
O O15 0.060166 0.934218 0.714294
O O16 0.500000 0.348308 0.750000
#
# Coordination Sequence:
#
# PCOD8152404 Si02
#       8
#     8   8   8   8   8   8   8   4
#     4  11  22  41  68 100 146 188 230 287 369 431
#     4  11  24  41  70 103 146 191 237 293 355 443
#     4  11  24  46  67 107 147 189 245 296 359 443
#     4  11  24  42  70 102 145 191 240 300 357 431
#     4  12  27  48  75 101 140 198 242 304 370 428
#     4  12  24  45  68 108 147 189 239 301 372 427
#     4  12  28  51  75 107 141 186 252 316 366 429
#     4  12  24  38  74 106 140 184 244 290 356 440
#
# _framework density 24.628357999999999
#
# number of rings (size 3 to 8) (size 9 to 14) (size 15 to 20)
#    0.000    0.533    5.333    2.800    3.733    0.533 
#    0.000    4.000    1.467    0.000    0.000    0.000 
#    0.000    0.000    0.000    0.000    0.000    0.000 
#
# Total GULP energy -371874.000497 kJ/mol
# GULP energy per Si atom -12395.800017 kJ/mol
# Density = 2.457230 g / cm^3
# Si number density = 24.628358 Si / 1000 Ang^3
#
#
#
# Elastic Constant Matrix: (Units=GPa)
#
#
# Indices 1 2 3 4 5 6 
#
# 1 111.3021 35.6652 33.9186 0.0039 4.2534 -0.0021
# 2 35.6652 86.6987 7.5952 -0.0054 1.1005 -0.0066
# 3 33.9186 7.5952 91.4938 -0.0207 11.0448 -0.0036
# 4 0.0039 -0.0054 -0.0207 28.0923 -0.0139 9.9841
# 5 4.2534 1.1005 11.0448 -0.0139 46.6881 -0.0009
# 6 -0.0021 -0.0066 -0.0036 9.9841 -0.0009 41.4311
#
#
#
# Elastic Compliance Matrix: (Units=1/GPa)
#
#
# Indices 1 2 3 4 5 6 
#
# 1 0.011602 -0.004428 -0.003931 -0.000006 -0.000023 0.000001
# 2 -0.004428 0.013309 0.000541 0.000003 -0.000038 0.000001
# 3 -0.003931 0.000541 0.012662 0.000009 -0.002650 -0.000001
# 4 -0.000006 0.000003 0.000009 0.038931 0.000010 -0.009382
# 5 -0.000023 -0.000038 -0.002650 0.000010 0.022049 -0.000002
# 6 0.000001 0.000001 -0.000001 -0.009382 -0.000002 0.026397
#
#
# Mechanical properties :
#
#
# Convention : Reuss Voigt Hill
#
# Bulk Modulus (GPa) = 45.58333 49.31696 47.45014
# Shear Modulus (GPa) = 33.80711 37.39668 35.60190
#
# Velocity S-wave (km/s) = 3.70900 3.90094 3.80618
# Velocity P-wave (km/s) = 6.07379 6.35277 6.21485
#
# Compressibility (1/GPa) = 0.02193785
#
# Stress axis : x y z
#
# Youngs Moduli (GPa) = 86.18996 75.13786 78.97706
#
# Poissons Ratio (x) = 0.33272 0.31045
# Poissons Ratio (y) = 0.38166 -0.04276
# Poissons Ratio (z) = 0.33880 -0.04068
#
# Static dielectric constant tensor:
#      x y z
#    x 4.646690 0.000000 0.267490 
#    y 0.000000 4.285720 0.000000 
#    z 0.267490 0.000000 4.652860 
# 
# 
# High freq. dielectric constant tensor:
#      x y z
#    x 1.998660 0.000000 0.005880 
#    y 0.000000 1.966890 0.000000 
#    z 0.005880 0.000000 1.986130 
# 
# From -- ./inp_files/257877.got.cif
#   From: 2010.06.25/outbox.cif.g09.slc.cpg/sg15_129_cif.got.tgz:257877.got - 2010.06.28 07:06:18.
