data_PCOD8152719
_publ_section_title
;
Structure prediction by ZEFSAII (Michael W. Deem and Ramdas Pophale) SiO2 
 PCOD8152719
Probable space group: C 2/C
;
_chemical_formula_sum "Si O2"
_cell_formula_units_Z 52
_cell_length_a 14.929037
_cell_length_b 13.070258
_cell_length_c 19.354883
_cell_angle_alpha 90.000000
_cell_angle_beta 143.986475
_cell_angle_gamma 90.000000
_cell_volume 2220.579156
_symmetry_space_group_name_H-M "C 2/C"
_symmetry_group_IT_number 15
_symmetry_cell_setting 'monoclinic'
loop_
_space_group_symop_operation_xyz
x,y,z
-x,y,1/2-z
-x,-y,-z
x,-y,1/2+z
1/2+x,1/2+y,z
1/2-x,1/2+y,1/2-z
1/2-x,1/2-y,-z
1/2+x,1/2-y,1/2+z
loop_
_atom_site_type_symbol
_atom_site_label
_atom_site_fract_x
_atom_site_fract_y
_atom_site_fract_z
Si Si1 0.971235 0.760167 0.861713
Si Si2 0.123454 0.074291 0.045207
Si Si3 0.500000 0.143240 0.750000
Si Si4 0.938057 0.690250 0.983143
Si Si5 0.281870 0.084384 0.274668
Si Si6 0.218911 0.932639 0.994779
Si Si7 0.673870 0.542671 0.834287
O O1 0.994617 0.677107 0.938297
O O2 0.826186 0.818619 0.798055
O O3 0.917846 0.712770 0.756103
O O4 0.121076 0.829832 0.945273
O O5 0.060545 0.189729 0.997083
O O6 0.274282 0.053403 0.188295
O O7 0.148543 0.035306 0.983285
O O8 0.000000 0.000000 0.000000
O O9 0.381155 0.078783 0.631868
O O10 0.769228 0.647737 0.894508
O O11 0.050454 0.619346 0.098778
O O12 0.198316 0.002829 0.272670
O O13 0.239335 0.955350 0.926554
O O14 0.500000 0.563947 0.750000
#
# Coordination Sequence:
#
# PCOD8152719 Si02
#       7
#     8   8   4   8   8   8   8
#     4  11  22  45  69 104 138 188 236 298 358 419
#     4  11  24  46  67  98 140 187 232 294 356 420
#     4  12  26  38  74 104 144 176 244 298 354 426
#     4  11  26  43  74 105 133 192 251 285 346 440
#     4  11  23  43  74  99 139 183 243 289 355 428
#     4  12  25  44  67 103 145 187 229 302 364 417
#     4  12  25  47  70 104 150 190 228 302 366 423
#
# _framework density 23.417314000000001
#
# number of rings (size 3 to 8) (size 9 to 14) (size 15 to 20)
#    0.000    0.615    4.615    3.692    4.308    4.308 
#    1.385    0.000    0.000    0.000    0.000    0.000 
#    0.000    0.000    0.000    0.000    0.000    0.000 
#
# Total GULP energy -322131.283892 kJ/mol
# GULP energy per Si atom -12389.664765 kJ/mol
# Density = 2.336402 g / cm^3
# Si number density = 23.417314 Si / 1000 Ang^3
#
#
#
# Elastic Constant Matrix: (Units=GPa)
#
#
# Indices 1 2 3 4 5 6 
#
# 1 52.2329 29.7751 8.5075 0.0000 2.1856 0.0001
# 2 29.7751 75.9086 32.4738 0.0001 20.2825 0.0001
# 3 8.5075 32.4738 91.2465 -0.0004 5.2098 0.0003
# 4 0.0000 0.0001 -0.0004 72.6846 -0.0002 -2.4243
# 5 2.1856 20.2825 5.2098 -0.0002 36.2908 0.0001
# 6 0.0001 0.0001 0.0003 -2.4243 0.0001 18.3570
#
#
#
# Elastic Compliance Matrix: (Units=1/GPa)
#
#
# Indices 1 2 3 4 5 6 
#
# 1 0.025532 -0.012031 0.001618 0.000000 0.004954 0.000000
# 2 -0.012031 0.023879 -0.006711 0.000000 -0.011658 0.000000
# 3 0.001618 -0.006711 0.013096 0.000000 0.001773 0.000000
# 4 0.000000 0.000000 0.000000 0.013819 0.000000 0.001825
# 5 0.004954 -0.011658 0.001773 0.000000 0.033518 0.000000
# 6 0.000000 0.000000 0.000000 0.001825 0.000000 0.054716
#
#
# Mechanical properties :
#
#
# Convention : Reuss Voigt Hill
#
# Bulk Modulus (GPa) = 35.38647 40.10010 37.74329
# Shear Modulus (GPa) = 24.01231 35.37524 29.69378
#
# Velocity S-wave (km/s) = 3.20567 3.89092 3.56480
# Velocity P-wave (km/s) = 5.37083 6.11122 5.75295
#
# Compressibility (1/GPa) = 0.02825938
#
# Stress axis : x y z
#
# Youngs Moduli (GPa) = 39.16590 41.87822 76.36185
#
# Poissons Ratio (x) = 0.50384 -0.12358
# Poissons Ratio (y) = 0.47121 0.51246
# Poissons Ratio (z) = -0.06338 0.28104
#
# Static dielectric constant tensor:
#      x y z
#    x 9.888950 0.000010 -5.086800 
#    y 0.000010 5.029540 -0.000010 
#    z -5.086800 -0.000010 8.606120 
# 
# 
# High freq. dielectric constant tensor:
#      x y z
#    x 1.924830 0.000000 -0.016380 
#    y 0.000000 1.917940 0.000000 
#    z -0.016380 0.000000 1.941900 
# 
# From -- ./inp_files/249124.got.cif
#   From: 2010.06.25/outbox.cif.g09.slc.cpg/sg15_125_cif.got.tgz:249124.got - 2010.06.28 07:06:18.
