data_PCOD8152161
_publ_section_title
;
Structure prediction by ZEFSAII (Michael W. Deem and Ramdas Pophale) SiO2 
 PCOD8152161
Probable space group: C 2/C
;
_chemical_formula_sum "Si O2"
_cell_formula_units_Z 64
_cell_length_a 14.667617
_cell_length_b 15.293372
_cell_length_c 17.678985
_cell_angle_alpha 90.000000
_cell_angle_beta 125.241902
_cell_angle_gamma 90.000000
_cell_volume 3238.880988
_symmetry_space_group_name_H-M "C 2/C"
_symmetry_group_IT_number 15
_symmetry_cell_setting 'monoclinic'
loop_
_space_group_symop_operation_xyz
x,y,z
-x,y,1/2-z
-x,-y,-z
x,-y,1/2+z
1/2+x,1/2+y,z
1/2-x,1/2+y,1/2-z
1/2-x,1/2-y,-z
1/2+x,1/2-y,1/2+z
loop_
_atom_site_type_symbol
_atom_site_label
_atom_site_fract_x
_atom_site_fract_y
_atom_site_fract_z
Si Si1 0.772978 0.344719 0.982154
Si Si2 0.737130 0.165135 0.713656
Si Si3 0.740320 0.841216 0.039005
Si Si4 0.634859 0.507026 0.228245
Si Si5 0.289337 0.158750 0.317274
Si Si6 0.493968 0.106815 0.835740
Si Si7 0.617782 0.501559 0.399999
Si Si8 0.509214 0.057938 0.427862
O O1 0.747475 0.337049 0.882133
O O2 0.689921 0.420692 0.973686
O O3 0.750000 0.250000 0.000000
O O4 0.897994 0.366180 0.065290
O O5 0.752910 0.180646 0.632752
O O6 0.803913 0.079548 0.773229
O O7 0.789607 0.247770 0.779256
O O8 0.608151 0.158162 0.675247
O O9 0.837146 0.905810 0.054070
O O10 0.750000 0.750000 0.000000
O O11 0.626252 0.894411 0.973462
O O12 0.707665 0.590184 0.234959
O O13 0.630673 0.505647 0.316342
O O14 0.510165 0.512217 0.134538
O O15 0.417352 0.131861 0.381164
O O16 0.500000 0.130013 0.750000
O O17 0.483358 0.003145 0.843150
O O18 0.500000 0.000000 0.500000
#
# Coordination Sequence:
#
# PCOD8152161 Si02
#       8
#     8   8   8   8   8   8   8   8
#     4  11  22  39  62  92 126 164 214 270 326 386
#     4  11  23  41  62  95 132 167 216 277 327 391
#     4  11  23  40  66  94 131 174 221 270 334 404
#     4   9  19  38  61  86 124 168 207 253 319 391
#     4  11  22  38  66  91 125 173 212 262 336 392
#     4  12  24  41  68  94 123 167 229 279 320 399
#     4   9  19  38  61  86 123 169 206 254 322 388
#     4  12  20  45  70  88 127 184 223 271 345 396
#
# _framework density 19.759910000000001
#
# number of rings (size 3 to 8) (size 9 to 14) (size 15 to 20)
#    0.000    1.250    5.000    1.500    3.500    1.000 
#    0.000    0.000    0.000    3.750    0.000    0.000 
#    0.000    0.000    0.000    0.000    0.000    0.000 
#
# Total GULP energy -396709.069950 kJ/mol
# GULP energy per Si atom -12397.158436 kJ/mol
# Density = 1.971494 g / cm^3
# Si number density = 19.759910 Si / 1000 Ang^3
#
#
#
# Elastic Constant Matrix: (Units=GPa)
#
#
# Indices 1 2 3 4 5 6 
#
# 1 74.9809 40.4000 43.4462 0.0000 20.4499 0.0000
# 2 40.4000 148.6107 57.6378 0.0000 7.9165 0.0000
# 3 43.4462 57.6378 82.4289 0.0000 19.1373 0.0000
# 4 0.0000 0.0000 0.0000 43.0067 0.0000 -1.2615
# 5 20.4499 7.9165 19.1373 0.0000 37.1315 0.0000
# 6 0.0000 0.0000 0.0000 -1.2615 0.0000 31.1093
#
#
#
# Elastic Compliance Matrix: (Units=1/GPa)
#
#
# Indices 1 2 3 4 5 6 
#
# 1 0.021048 -0.002304 -0.007845 0.000000 -0.007058 0.000000
# 2 -0.002304 0.009564 -0.006014 0.000000 0.002329 0.000000
# 3 -0.007845 -0.006014 0.021777 0.000000 -0.005621 0.000000
# 4 0.000000 0.000000 0.000000 0.023280 0.000000 0.000944
# 5 -0.007058 0.002329 -0.005621 0.000000 0.033219 0.000000
# 6 0.000000 0.000000 0.000000 0.000944 0.000000 0.032183
#
#
# Mechanical properties :
#
#
# Convention : Reuss Voigt Hill
#
# Bulk Modulus (GPa) = 49.83993 65.44318 57.64156
# Shear Modulus (GPa) = 27.76509 33.21861 30.49185
#
# Velocity S-wave (km/s) = 3.75256 4.10458 3.93251
# Velocity P-wave (km/s) = 6.63725 7.46020 7.06073
#
# Compressibility (1/GPa) = 0.02006423
#
# Stress axis : x y z
#
# Youngs Moduli (GPa) = 47.50985 104.56335 45.92097
#
# Poissons Ratio (x) = 0.24086 0.36024
# Poissons Ratio (y) = 0.10944 0.27616
# Poissons Ratio (z) = 0.37270 0.62883
#
# Static dielectric constant tensor:
#      x y z
#    x 3.433040 0.000000 0.248580 
#    y 0.000000 4.152940 0.000000 
#    z 0.248580 0.000000 3.347550 
# 
# 
# High freq. dielectric constant tensor:
#      x y z
#    x 1.763680 0.000000 0.024190 
#    y 0.000000 1.783670 0.000000 
#    z 0.024190 0.000000 1.760270 
# 
# From -- ./inp_files/205757.got.cif
#   From: 2010.06.25/outbox.cif.g09.slc.cpg/sg15_103_cif.got.tgz:205757.got - 2010.06.28 07:06:18.
