data_PCOD8152121
_publ_section_title
;
Structure prediction by ZEFSAII (Michael W. Deem and Ramdas Pophale) SiO2 
 PCOD8152121
Probable space group: C 2/C
;
_chemical_formula_sum "Si O2"
_cell_formula_units_Z 48
_cell_length_a 10.568732
_cell_length_b 22.021979
_cell_length_c 13.235010
_cell_angle_alpha 90.000000
_cell_angle_beta 45.033540
_cell_angle_gamma 90.000000
_cell_volume 2179.428297
_symmetry_space_group_name_H-M "C 2/C"
_symmetry_group_IT_number 15
_symmetry_cell_setting 'monoclinic'
loop_
_space_group_symop_operation_xyz
x,y,z
-x,y,1/2-z
-x,-y,-z
x,-y,1/2+z
1/2+x,1/2+y,z
1/2-x,1/2+y,1/2-z
1/2-x,1/2-y,-z
1/2+x,1/2-y,1/2+z
loop_
_atom_site_type_symbol
_atom_site_label
_atom_site_fract_x
_atom_site_fract_y
_atom_site_fract_z
Si Si1 0.181098 0.413755 0.595849
Si Si2 0.854883 0.876046 0.701216
Si Si3 0.596623 0.273391 0.512296
Si Si4 0.670259 0.130279 0.711419
Si Si5 0.982095 0.351611 0.995347
Si Si6 0.623419 0.471041 0.513294
O O1 0.306098 0.383506 0.610280
O O2 0.277099 0.472226 0.488073
O O3 0.000000 0.437575 0.750000
O O4 0.136605 0.362827 0.537223
O O5 0.681127 0.880149 0.870795
O O6 0.948029 0.810179 0.661397
O O7 0.997516 0.928353 0.654931
O O8 0.750000 0.250000 0.500000
O O9 0.674758 0.319312 0.383872
O O10 0.497439 0.219787 0.508595
O O11 0.500000 0.158562 0.750000
O O12 0.724729 0.068311 0.626944
O O13 0.618881 0.115551 0.855730
O O14 0.500000 0.500000 0.500000
#
# Coordination Sequence:
#
# PCOD8152121 Si02
#       6
#     8   8   8   8   8   8
#     4   9  19  40  63  87 126 163 208 260 311 374
#     4   9  21  39  63  91 123 167 205 252 318 374
#     4  11  22  40  63  89 130 161 203 259 314 378
#     4  11  22  39  61  93 122 162 207 258 312 369
#     4  11  22  37  64  96 123 161 211 258 318 372
#     4   9  19  41  62  81 122 166 204 253 306 362
#
# _framework density 22.024125000000002
#
# number of rings (size 3 to 8) (size 9 to 14) (size 15 to 20)
#    0.000    2.000    1.667    1.500    0.000    0.667 
#    0.000   24.167    0.000    0.000    0.000    0.000 
#    0.000    0.000    0.000    0.000    0.000    0.000 
#
# Total GULP energy -297506.741540 kJ/mol
# GULP energy per Si atom -12396.114231 kJ/mol
# Density = 2.197400 g / cm^3
# Si number density = 22.024125 Si / 1000 Ang^3
#
#
#
# Elastic Constant Matrix: (Units=GPa)
#
#
# Indices 1 2 3 4 5 6 
#
# 1 78.9921 31.6316 16.7390 0.0000 -4.2946 0.0000
# 2 31.6316 119.8677 16.8813 0.0000 -8.8805 0.0000
# 3 16.7390 16.8813 99.5964 0.0000 0.7211 0.0000
# 4 0.0000 0.0000 0.0000 7.3954 0.0000 -17.2604
# 5 -4.2946 -8.8805 0.7211 0.0000 28.5507 0.0000
# 6 0.0000 0.0000 0.0000 -17.2604 0.0000 35.7080
#
#
#
# Elastic Compliance Matrix: (Units=1/GPa)
#
#
# Indices 1 2 3 4 5 6 
#
# 1 0.014510 -0.003483 -0.001857 0.000000 0.001146 0.000000
# 2 -0.003483 0.009595 -0.001059 0.000000 0.002487 0.000000
# 3 -0.001857 -0.001059 0.010538 0.000000 -0.000875 0.000000
# 4 0.000000 0.000000 0.000000 -1.054985 0.000000 -0.509955
# 5 0.001146 0.002487 -0.000875 0.000000 0.035994 0.000000
# 6 0.000000 0.000000 0.000000 -0.509955 0.000000 -0.218495
#
#
# Mechanical properties :
#
#
# Convention : Reuss Voigt Hill
#
# Bulk Modulus (GPa) = 45.77351 47.66223 46.71787
# Shear Modulus (GPa) = -4.22738 29.87777 12.82519
#
# Velocity S-wave (km/s) = -1.38694 3.68719 2.41576
# Velocity P-wave (km/s) = 4.27360 6.30992 5.38882
#
# Compressibility (1/GPa) = 0.02184670
#
# Stress axis : x y z
#
# Youngs Moduli (GPa) = 68.91888 104.22140 94.89099
#
# Poissons Ratio (x) = 0.36296 0.17618
# Poissons Ratio (y) = 0.24001 0.10049
# Poissons Ratio (z) = 0.12796 0.11037
#
# Static dielectric constant tensor:
#      x y z
#    x 3.920790 0.000000 -0.281130 
#    y 0.000000 4.192770 0.000000 
#    z -0.281130 0.000000 4.071300 
# 
# 
# High freq. dielectric constant tensor:
#      x y z
#    x 1.851140 0.000000 -0.021420 
#    y 0.000000 1.868370 0.000000 
#    z -0.021420 0.000000 1.870030 
# 
# From -- ./inp_files/147373.got.cif
#   From: 2010.06.25/outbox.cif.g09.slc.cpg/sg15_74_cif.got.tgz:147373.got - 2010.06.28 07:06:18.
