data_PCOD8152362
_publ_section_title
;
Structure prediction by ZEFSAII (Michael W. Deem and Ramdas Pophale) SiO2 
 PCOD8152362
Probable space group: C 2/C
;
_chemical_formula_sum "Si O2"
_cell_formula_units_Z 48
_cell_length_a 24.273520
_cell_length_b 9.273449
_cell_length_c 10.177165
_cell_angle_alpha 90.000000
_cell_angle_beta 86.372067
_cell_angle_gamma 90.000000
_cell_volume 2286.281294
_symmetry_space_group_name_H-M "C 2/C"
_symmetry_group_IT_number 15
_symmetry_cell_setting 'monoclinic'
loop_
_space_group_symop_operation_xyz
x,y,z
-x,y,1/2-z
-x,-y,-z
x,-y,1/2+z
1/2+x,1/2+y,z
1/2-x,1/2+y,1/2-z
1/2-x,1/2-y,-z
1/2+x,1/2-y,1/2+z
loop_
_atom_site_type_symbol
_atom_site_label
_atom_site_fract_x
_atom_site_fract_y
_atom_site_fract_z
Si Si1 0.150682 0.050211 0.109947
Si Si2 0.530224 0.577190 0.612813
Si Si3 0.296671 0.621951 0.668943
Si Si4 0.513078 0.113557 0.387862
Si Si5 0.832942 0.373000 0.343142
Si Si6 0.862121 0.596374 0.124008
O O1 0.093794 0.964764 0.111529
O O2 0.191472 0.973928 0.205844
O O3 0.139888 0.214407 0.156368
O O4 0.178884 0.044623 0.963150
O O5 0.500000 0.529419 0.750000
O O6 0.500000 0.500000 0.500000
O O7 0.526368 0.748386 0.590787
O O8 0.231953 0.642030 0.664694
O O9 0.321507 0.781064 0.684268
O O10 0.500000 0.039211 0.250000
O O11 0.576569 0.163063 0.386426
O O12 0.500000 0.000000 0.500000
O O13 0.860096 0.458299 0.218843
O O14 0.845600 0.452990 0.479267
#
# Coordination Sequence:
#
# PCOD8152362 Si02
#       6
#     8   8   8   8   8   8
#     4  11  23  40  64  93 125 164 209 257 308 370
#     4  11  23  41  63  92 125 163 206 256 309 366
#     4  11  22  41  62  90 127 164 204 257 311 365
#     4  11  24  42  62  90 124 161 203 254 308 366
#     4  11  23  41  63  92 124 164 207 254 308 369
#     4  11  23  41  62  89 125 162 203 256 309 366
#
# _framework density 20.994792
#
# number of rings (size 3 to 8) (size 9 to 14) (size 15 to 20)
#    0.000    1.000    0.000   10.000    0.000    4.667 
#    0.000    3.333    0.000    0.000    0.000    0.000 
#    0.000    0.000    0.000    0.000    0.000    0.000 
#
# Total GULP energy -297742.350140 kJ/mol
# GULP energy per Si atom -12405.931256 kJ/mol
# Density = 2.094701 g / cm^3
# Si number density = 20.994792 Si / 1000 Ang^3
#
#
#
# Elastic Constant Matrix: (Units=GPa)
#
#
# Indices 1 2 3 4 5 6 
#
# 1 127.9566 52.4029 34.8242 0.0000 4.6976 0.0000
# 2 52.4029 108.1016 67.4045 0.0000 -0.8201 0.0000
# 3 34.8242 67.4045 133.2453 0.0000 20.7077 0.0000
# 4 0.0000 0.0000 0.0000 39.5490 0.0000 9.1842
# 5 4.6976 -0.8201 20.7077 0.0000 31.9923 0.0000
# 6 0.0000 0.0000 0.0000 9.1842 0.0000 32.4414
#
#
#
# Elastic Compliance Matrix: (Units=1/GPa)
#
#
# Indices 1 2 3 4 5 6 
#
# 1 0.009831 -0.004876 0.000157 0.000000 -0.001670 0.000000
# 2 -0.004876 0.016792 -0.008226 0.000000 0.006471 0.000000
# 3 0.000157 -0.008226 0.012966 0.000000 -0.008626 0.000000
# 4 0.000000 0.000000 0.000000 0.027064 0.000000 -0.007662
# 5 -0.001670 0.006471 -0.008626 0.000000 0.037252 0.000000
# 6 0.000000 0.000000 0.000000 -0.007662 0.000000 0.032994
#
#
# Mechanical properties :
#
#
# Convention : Reuss Voigt Hill
#
# Bulk Modulus (GPa) = 72.99974 75.39628 74.19801
# Shear Modulus (GPa) = 29.87643 35.10802 32.49222
#
# Velocity S-wave (km/s) = 3.77641 4.09372 3.93826
# Velocity P-wave (km/s) = 7.33900 7.63771 7.48984
#
# Compressibility (1/GPa) = 0.01369868
#
# Stress axis : x y z
#
# Youngs Moduli (GPa) = 101.72277 59.55050 77.12542
#
# Poissons Ratio (x) = 0.29036 -0.01209
# Poissons Ratio (y) = 0.49599 0.63444
# Poissons Ratio (z) = -0.01595 0.48987
#
# Static dielectric constant tensor:
#      x y z
#    x 3.992160 0.000000 0.187730 
#    y 0.000000 3.717820 0.000000 
#    z 0.187730 0.000000 4.148200 
# 
# 
# High freq. dielectric constant tensor:
#      x y z
#    x 1.838850 0.000000 0.015610 
#    y 0.000000 1.817380 0.000000 
#    z 0.015610 0.000000 1.839520 
# 
# From -- ./inp_files/116359.got.cif
#   From: 2010.06.25/outbox.cif.g09.slc.cpg/sg15_59_cif.got.tgz:116359.got - 2010.06.28 07:06:18.
