data_PCOD8152590
_publ_section_title
;
Structure prediction by ZEFSAII (Michael W. Deem and Ramdas Pophale) SiO2 
 PCOD8152590
Probable space group: C 2/C
;
_chemical_formula_sum "Si O2"
_cell_formula_units_Z 28
_cell_length_a 9.699533
_cell_length_b 20.294326
_cell_length_c 7.855601
_cell_angle_alpha 90.000000
_cell_angle_beta 49.793537
_cell_angle_gamma 90.000000
_cell_volume 1180.975442
_symmetry_space_group_name_H-M "C 2/C"
_symmetry_group_IT_number 15
_symmetry_cell_setting 'monoclinic'
loop_
_space_group_symop_operation_xyz
x,y,z
-x,y,1/2-z
-x,-y,-z
x,-y,1/2+z
1/2+x,1/2+y,z
1/2-x,1/2+y,1/2-z
1/2-x,1/2-y,-z
1/2+x,1/2-y,1/2+z
loop_
_atom_site_type_symbol
_atom_site_label
_atom_site_fract_x
_atom_site_fract_y
_atom_site_fract_z
Si Si1 0.386835 0.056971 0.001503
Si Si2 0.007926 0.684518 0.046302
Si Si3 0.000000 0.919124 0.750000
Si Si4 0.912635 0.827137 0.133077
O O1 0.500000 0.078201 0.750000
O O2 0.369074 0.124878 0.122026
O O3 0.180145 0.035004 0.125203
O O4 0.500000 0.000000 0.000000
O O5 0.000000 0.697986 0.250000
O O6 0.948860 0.755271 0.019745
O O7 0.200181 0.662522 0.822730
O O8 0.016235 0.878128 0.563124
O O9 0.000000 0.838591 0.250000
#
# Coordination Sequence:
#
# PCOD8152590 Si02
#       4
#     8   8   4   8
#     4  12  27  48  70 103 142 191 245 295 353 433
#     4  11  22  43  69 106 149 184 236 299 357 426
#     4  12  26  48  78 106 142 190 240 296 370 422
#     4  11  23  41  73 111 145 186 234 300 363 427
#
# _framework density 23.709212999999998
#
# number of rings (size 3 to 8) (size 9 to 14) (size 15 to 20)
#    0.000    0.571    2.857    7.714    2.000    3.429 
#    2.571    0.000    0.000    0.000    0.000    0.000 
#    0.000    0.000    0.000    0.000    0.000    0.000 
#
# Total GULP energy -173516.487252 kJ/mol
# GULP energy per Si atom -12394.034804 kJ/mol
# Density = 2.365525 g / cm^3
# Si number density = 23.709213 Si / 1000 Ang^3
#
#
#
# Elastic Constant Matrix: (Units=GPa)
#
#
# Indices 1 2 3 4 5 6 
#
# 1 135.5813 62.0073 48.9607 0.0000 -29.4657 0.0000
# 2 62.0073 93.5932 16.2738 0.0000 1.0183 0.0000
# 3 48.9607 16.2738 122.0114 0.0000 -23.6301 0.0000
# 4 0.0000 0.0000 0.0000 12.2014 0.0000 -4.0191
# 5 -29.4657 1.0183 -23.6301 0.0000 56.6367 0.0000
# 6 0.0000 0.0000 0.0000 -4.0191 0.0000 42.8508
#
#
#
# Elastic Compliance Matrix: (Units=1/GPa)
#
#
# Indices 1 2 3 4 5 6 
#
# 1 0.013794 -0.008643 -0.003223 0.000000 0.005987 0.000000
# 2 -0.008643 0.016394 0.000385 0.000000 -0.004631 0.000000
# 3 -0.003223 0.000385 0.009913 0.000000 0.002452 0.000000
# 4 0.000000 0.000000 0.000000 0.084571 0.000000 0.007932
# 5 0.005987 -0.004631 0.002452 0.000000 0.021878 0.000000
# 6 0.000000 0.000000 0.000000 0.007932 0.000000 0.024081
#
#
# Mechanical properties :
#
#
# Convention : Reuss Voigt Hill
#
# Bulk Modulus (GPa) = 58.34877 67.29662 62.82269
# Shear Modulus (GPa) = 25.08718 37.26739 31.17729
#
# Velocity S-wave (km/s) = 3.25640 3.96896 3.63021
# Velocity P-wave (km/s) = 6.22916 7.03202 6.64273
#
# Compressibility (1/GPa) = 0.01713832
#
# Stress axis : x y z
#
# Youngs Moduli (GPa) = 72.49777 60.99664 100.87996
#
# Poissons Ratio (x) = 0.52721 0.32511
# Poissons Ratio (y) = 0.62662 -0.03882
# Poissons Ratio (z) = 0.23364 -0.02347
#
# Static dielectric constant tensor:
#      x y z
#    x 4.770930 0.000000 0.182950 
#    y 0.000000 3.390340 0.000000 
#    z 0.182950 0.000000 4.396430 
# 
# 
# High freq. dielectric constant tensor:
#      x y z
#    x 1.945240 0.000000 -0.006760 
#    y 0.000000 1.926530 0.000000 
#    z -0.006760 0.000000 1.961200 
# 
# From -- ./inp_files/22458.got.cif
#   From: 2010.06.25/outbox.cif.g09.slc.cpg/sg15_12_cif.got.tgz:22458.got - 2010.06.28 07:06:18.
