data_PCOD8152368
_publ_section_title
;
Structure prediction by ZEFSAII (Michael W. Deem and Ramdas Pophale) SiO2 
 PCOD8152368
Probable space group: C 2/C
;
_chemical_formula_sum "Si O2"
_cell_formula_units_Z 40
_cell_length_a 24.477246
_cell_length_b 4.671876
_cell_length_c 16.807453
_cell_angle_alpha 90.000000
_cell_angle_beta 117.203126
_cell_angle_gamma 90.000000
_cell_volume 1709.419710
_symmetry_space_group_name_H-M "C 2/C"
_symmetry_group_IT_number 15
_symmetry_cell_setting 'monoclinic'
loop_
_space_group_symop_operation_xyz
x,y,z
-x,y,1/2-z
-x,-y,-z
x,-y,1/2+z
1/2+x,1/2+y,z
1/2-x,1/2+y,1/2-z
1/2-x,1/2-y,-z
1/2+x,1/2-y,1/2+z
loop_
_atom_site_type_symbol
_atom_site_label
_atom_site_fract_x
_atom_site_fract_y
_atom_site_fract_z
Si Si1 0.207817 0.060676 0.725316
Si Si2 0.081550 0.170665 0.930494
Si Si3 0.606852 0.157151 0.049971
Si Si4 0.394133 0.485157 0.224605
Si Si5 0.542305 0.008833 0.660528
O O1 0.255793 0.295974 0.789285
O O2 0.165993 0.200542 0.628915
O O3 0.169102 0.928549 0.773430
O O4 0.112375 0.015972 0.874817
O O5 0.022899 0.361683 0.866725
O O6 0.127139 0.400922 0.003340
O O7 0.066873 0.904349 0.979281
O O8 0.560023 0.002298 0.079544
O O9 0.451761 0.672245 0.298036
O O10 0.405613 0.158762 0.256378
#
# Coordination Sequence:
#
# PCOD8152368 Si02
#       5
#     8   8   8   8   8
#     4  11  23  45  68  86 120 174 224 269 318 379
#     4  12  23  39  63  99 136 161 203 273 318 369
#     4  11  23  40  64  96 126 168 218 261 316 382
#     4  11  24  41  64  97 128 170 219 254 310 389
#     4  11  22  41  64  92 134 179 205 241 315 401
#
# _framework density 23.399750999999998
#
# number of rings (size 3 to 8) (size 9 to 14) (size 15 to 20)
#    0.000    0.800    0.000   10.200    0.000    1.600 
#    0.000    6.000    0.000    0.000    0.000    0.000 
#    0.000    0.000    0.000    0.000    0.000    0.000 
#
# Total GULP energy -247923.665265 kJ/mol
# GULP energy per Si atom -12396.183263 kJ/mol
# Density = 2.334649 g / cm^3
# Si number density = 23.399751 Si / 1000 Ang^3
#
#
#
# Elastic Constant Matrix: (Units=GPa)
#
#
# Indices 1 2 3 4 5 6 
#
# 1 84.4040 27.2161 48.3898 -0.0008 -12.9941 0.0000
# 2 27.2161 124.0729 54.9110 0.0016 -18.8148 0.0007
# 3 48.3898 54.9110 124.9904 0.0001 -27.0542 0.0000
# 4 -0.0008 0.0016 0.0001 55.7041 -0.0005 13.2809
# 5 -12.9941 -18.8148 -27.0542 -0.0005 18.3289 0.0003
# 6 0.0000 0.0007 0.0000 13.2809 0.0003 37.9359
#
#
#
# Elastic Compliance Matrix: (Units=1/GPa)
#
#
# Indices 1 2 3 4 5 6 
#
# 1 0.015398 -0.000730 -0.005055 0.000000 0.002705 0.000000
# 2 -0.000730 0.010440 -0.003081 0.000000 0.005653 0.000000
# 3 -0.005055 -0.003081 0.014476 0.000000 0.014621 0.000000
# 4 0.000000 0.000000 0.000000 0.019587 0.000001 -0.006857
# 5 0.002705 0.005653 0.014621 0.000001 0.083860 -0.000001
# 6 0.000000 0.000000 0.000000 -0.006857 -0.000001 0.028761
#
#
# Mechanical properties :
#
#
# Convention : Reuss Voigt Hill
#
# Bulk Modulus (GPa) = 44.28169 66.05568 55.16868
# Shear Modulus (GPa) = 25.28058 35.92380 30.60219
#
# Velocity S-wave (km/s) = 3.29048 3.92244 3.62027
# Velocity P-wave (km/s) = 5.77939 6.98603 6.41116
#
# Compressibility (1/GPa) = 0.02258270
#
# Stress axis : x y z
#
# Youngs Moduli (GPa) = 64.94473 95.78105 69.08175
#
# Poissons Ratio (x) = 0.06994 0.34919
# Poissons Ratio (y) = 0.04742 0.21281
# Poissons Ratio (z) = 0.32828 0.29506
#
# Static dielectric constant tensor:
#      x y z
#    x 3.972800 0.000000 -0.085460 
#    y 0.000000 4.548890 0.000000 
#    z -0.085460 0.000000 4.305310 
# 
# 
# High freq. dielectric constant tensor:
#      x y z
#    x 1.887590 0.000000 -0.002820 
#    y 0.000000 1.955470 0.000000 
#    z -0.002820 0.000000 1.924050 
# 
# From -- ./inp_files/170595.got.cif
#   From: 2010.06.25/outbox.cif.g09.slc.cpg/sg15_86_cif.got.tgz:170595.got - 2010.06.28 07:06:18.
