data_PCOD8152391
_publ_section_title
;
Structure prediction by ZEFSAII (Michael W. Deem and Ramdas Pophale) SiO2 
 PCOD8152391
Probable space group: C 2/C
;
_chemical_formula_sum "Si O2"
_cell_formula_units_Z 40
_cell_length_a 13.646810
_cell_length_b 5.016664
_cell_length_c 29.535051
_cell_angle_alpha 90.000000
_cell_angle_beta 60.897886
_cell_angle_gamma 90.000000
_cell_volume 1766.742270
_symmetry_space_group_name_H-M "C 2/C"
_symmetry_group_IT_number 15
_symmetry_cell_setting 'monoclinic'
loop_
_space_group_symop_operation_xyz
x,y,z
-x,y,1/2-z
-x,-y,-z
x,-y,1/2+z
1/2+x,1/2+y,z
1/2-x,1/2+y,1/2-z
1/2-x,1/2-y,-z
1/2+x,1/2-y,1/2+z
loop_
_atom_site_type_symbol
_atom_site_label
_atom_site_fract_x
_atom_site_fract_y
_atom_site_fract_z
Si Si1 0.147069 0.112399 0.807277
Si Si2 0.875784 0.402403 0.777818
Si Si3 0.815094 0.735147 0.938842
Si Si4 0.567852 0.883700 0.376160
Si Si5 0.731660 0.259637 0.108074
O O1 0.130333 0.169245 0.758265
O O2 0.083244 0.321403 0.853253
O O3 0.280605 0.123775 0.788939
O O4 0.099452 0.819509 0.828689
O O5 0.855345 0.265029 0.830929
O O6 0.000000 0.533548 0.750000
O O7 0.755405 0.522710 0.919703
O O8 0.941342 0.646321 0.921014
O O9 0.816454 0.022285 0.915144
O O10 0.750000 0.750000 0.000000
O O11 0.645130 0.838497 0.402470
#
# Coordination Sequence:
#
# PCOD8152391 Si02
#       5
#     8   8   8   8   8
#     4  11  24  41  66 100 134 173 211 255 318 382
#     4  11  22  41  67  95 133 173 212 257 313 385
#     4  12  26  45  69  95 125 168 221 273 326 378
#     4  11  24  45  66  95 137 166 210 271 315 382
#     4  11  25  42  66  98 127 169 216 261 326 382
#
# _framework density 22.640540999999999
#
# number of rings (size 3 to 8) (size 9 to 14) (size 15 to 20)
#    0.000    0.800    0.000    9.000    0.000    3.200 
#    0.000   21.000    0.000    0.000    0.000    0.000 
#    0.000    0.000    0.000    0.000    0.000    0.000 
#
# Total GULP energy -248136.716862 kJ/mol
# GULP energy per Si atom -12406.835843 kJ/mol
# Density = 2.258901 g / cm^3
# Si number density = 22.640541 Si / 1000 Ang^3
#
#
#
# Elastic Constant Matrix: (Units=GPa)
#
#
# Indices 1 2 3 4 5 6 
#
# 1 97.9395 8.6702 62.0839 0.0074 -7.7973 0.0095
# 2 8.6702 63.1693 10.8709 -0.0097 1.8573 -0.0025
# 3 62.0839 10.8709 137.4009 -0.0034 -3.8997 0.0078
# 4 0.0074 -0.0097 -0.0034 15.4751 -0.0017 7.1710
# 5 -7.7973 1.8573 -3.8997 -0.0017 27.5392 -0.0049
# 6 0.0095 -0.0025 0.0078 7.1710 -0.0049 32.6087
#
#
#
# Elastic Compliance Matrix: (Units=1/GPa)
#
#
# Indices 1 2 3 4 5 6 
#
# 1 0.014648 -0.000998 -0.006446 -0.000008 0.003302 0.000000
# 2 -0.000998 0.016161 -0.000870 0.000011 -0.001496 -0.000001
# 3 -0.006446 -0.000870 0.010250 0.000006 -0.000315 -0.000002
# 4 -0.000008 0.000011 0.000006 0.071952 -0.000001 -0.015823
# 5 0.003302 -0.001496 -0.000315 -0.000001 0.037303 0.000005
# 6 0.000000 -0.000001 -0.000002 -0.015823 0.000005 0.034146
#
#
# Mechanical properties :
#
#
# Convention : Reuss Voigt Hill
#
# Bulk Modulus (GPa) = 40.93150 51.30664 46.11907
# Shear Modulus (GPa) = 23.89686 29.58358 26.74022
#
# Velocity S-wave (km/s) = 3.25235 3.61870 3.44041
# Velocity P-wave (km/s) = 5.67643 6.33803 6.01633
#
# Compressibility (1/GPa) = 0.02443106
#
# Stress axis : x y z
#
# Youngs Moduli (GPa) = 68.27063 61.87657 97.55758
#
# Poissons Ratio (x) = 0.06177 0.62883
# Poissons Ratio (y) = 0.06815 0.08488
# Poissons Ratio (z) = 0.44006 0.05384
#
# Static dielectric constant tensor:
#      x y z
#    x 4.337530 0.000230 -0.004470 
#    y 0.000230 4.275610 -0.000140 
#    z -0.004470 -0.000140 3.977650 
# 
# 
# High freq. dielectric constant tensor:
#      x y z
#    x 1.906390 0.000000 -0.000430 
#    y 0.000000 1.896280 0.000000 
#    z -0.000430 0.000000 1.886320 
# 
# From -- ./inp_files/294178.got.cif
#   From: 2010.06.25/outbox.cif.g09.slc.cpg/sg15_148_cif.got.tgz:294178.got - 2010.06.28 07:06:18.
