data_PCOD8152643
_publ_section_title
;
Structure prediction by ZEFSAII (Michael W. Deem and Ramdas Pophale) SiO2 
 PCOD8152643
Probable space group: C 2/C
;
_chemical_formula_sum "Si O2"
_cell_formula_units_Z 44
_cell_length_a 22.781037
_cell_length_b 6.355130
_cell_length_c 14.201938
_cell_angle_alpha 90.000000
_cell_angle_beta 100.192110
_cell_angle_gamma 90.000000
_cell_volume 2023.660803
_symmetry_space_group_name_H-M "C 2/C"
_symmetry_group_IT_number 15
_symmetry_cell_setting 'monoclinic'
loop_
_space_group_symop_operation_xyz
x,y,z
-x,y,1/2-z
-x,-y,-z
x,-y,1/2+z
1/2+x,1/2+y,z
1/2-x,1/2+y,1/2-z
1/2-x,1/2-y,-z
1/2+x,1/2-y,1/2+z
loop_
_atom_site_type_symbol
_atom_site_label
_atom_site_fract_x
_atom_site_fract_y
_atom_site_fract_z
Si Si1 0.881994 0.737905 0.052559
Si Si2 0.492527 0.100649 0.397499
Si Si3 0.107498 0.940081 0.100781
Si Si4 0.000000 0.724475 0.750000
Si Si5 0.122783 0.083111 0.307734
Si Si6 0.682555 0.177248 0.975618
O O1 0.830638 0.569794 0.011213
O O2 0.940561 0.645048 0.120071
O O3 0.853396 0.895434 0.119294
O O4 0.906721 0.854685 0.965617
O O5 0.451607 0.309169 0.387231
O O6 0.500000 0.000000 0.500000
O O7 0.468256 0.920592 0.320424
O O8 0.138962 0.026433 0.204860
O O9 0.150255 0.792982 0.052594
O O10 0.947833 0.875682 0.696708
O O11 0.158239 0.280429 0.362445
O O12 0.750000 0.250000 0.000000
#
# Coordination Sequence:
#
# PCOD8152643 Si02
#       6
#     8   8   8   4   8   8
#     4  11  22  44  67  93 145 175 220 291 345 417
#     4  12  20  37  66  98 138 180 218 278 355 423
#     4  11  24  40  68 103 130 183 235 282 355 431
#     4  12  22  38  66 102 148 176 224 294 354 432
#     4  11  24  42  65 103 133 178 228 279 356 424
#     4  11  26  49  67  95 135 184 236 294 351 408
#
# _framework density 21.742774000000001
#
# number of rings (size 3 to 8) (size 9 to 14) (size 15 to 20)
#    0.000    0.727    3.636    4.909    0.000    2.909 
#    6.545    0.000    0.000    0.000    0.000    0.000 
#    0.000    0.000    0.000    0.000    0.000    0.000 
#
# Total GULP energy -272691.789076 kJ/mol
# GULP energy per Si atom -12395.081322 kJ/mol
# Density = 2.169329 g / cm^3
# Si number density = 21.742774 Si / 1000 Ang^3
#
#
#
# Elastic Constant Matrix: (Units=GPa)
#
#
# Indices 1 2 3 4 5 6 
#
# 1 104.9789 41.0822 13.9762 0.0000 16.1440 0.0000
# 2 41.0822 118.2662 42.2983 0.0000 0.2233 0.0000
# 3 13.9762 42.2983 146.2856 0.0000 -5.4860 0.0000
# 4 0.0000 0.0000 0.0000 37.7012 0.0000 -2.4191
# 5 16.1440 0.2233 -5.4860 0.0000 27.4573 0.0000
# 6 0.0000 0.0000 0.0000 -2.4191 0.0000 32.1027
#
#
#
# Elastic Compliance Matrix: (Units=1/GPa)
#
#
# Indices 1 2 3 4 5 6 
#
# 1 0.012307 -0.004175 -0.000240 0.000000 -0.007250 0.000000
# 2 -0.004175 0.010858 -0.002672 0.000000 0.001833 0.000000
# 3 -0.000240 -0.002672 0.007695 0.000000 0.001701 0.000000
# 4 0.000000 0.000000 0.000000 0.026653 0.000000 0.002008
# 5 -0.007250 0.001833 0.001701 0.000000 0.041008 0.000000
# 6 0.000000 0.000000 0.000000 0.002008 0.000000 0.031301
#
#
# Mechanical properties :
#
#
# Convention : Reuss Voigt Hill
#
# Bulk Modulus (GPa) = 59.93526 62.69381 61.31453
# Shear Modulus (GPa) = 33.43159 37.59718 35.51438
#
# Velocity S-wave (km/s) = 3.92547 4.16285 4.04590
# Velocity P-wave (km/s) = 6.94055 7.21129 7.07721
#
# Compressibility (1/GPa) = 0.01668467
#
# Stress axis : x y z
#
# Youngs Moduli (GPa) = 81.25723 92.09766 129.94985
#
# Poissons Ratio (x) = 0.38453 0.03124
# Poissons Ratio (y) = 0.33927 0.34722
# Poissons Ratio (z) = 0.01953 0.24608
#
# Static dielectric constant tensor:
#      x y z
#    x 6.347470 0.000000 2.384900 
#    y 0.000000 2.559580 0.000000 
#    z 2.384900 0.000000 6.162220 
# 
# 
# High freq. dielectric constant tensor:
#      x y z
#    x 1.814110 0.000000 -0.002270 
#    y 0.000000 1.873940 0.000000 
#    z -0.002270 0.000000 1.865440 
# 
# From -- ./inp_files/170857.got.cif
#   From: 2010.06.25/outbox.cif.g09.slc.cpg/sg15_86_cif.got.tgz:170857.got - 2010.06.28 07:06:18.
