data_PCOD8152674
_publ_section_title
;
Structure prediction by ZEFSAII (Michael W. Deem and Ramdas Pophale) SiO2 
 PCOD8152674
Probable space group: C 2/C
;
_chemical_formula_sum "Si O2"
_cell_formula_units_Z 64
_cell_length_a 25.937165
_cell_length_b 18.777936
_cell_length_c 8.637060
_cell_angle_alpha 90.000000
_cell_angle_beta 137.563521
_cell_angle_gamma 90.000000
_cell_volume 2838.530811
_symmetry_space_group_name_H-M "C 2/C"
_symmetry_group_IT_number 15
_symmetry_cell_setting 'monoclinic'
loop_
_space_group_symop_operation_xyz
x,y,z
-x,y,1/2-z
-x,-y,-z
x,-y,1/2+z
1/2+x,1/2+y,z
1/2-x,1/2+y,1/2-z
1/2-x,1/2-y,-z
1/2+x,1/2-y,1/2+z
loop_
_atom_site_type_symbol
_atom_site_label
_atom_site_fract_x
_atom_site_fract_y
_atom_site_fract_z
Si Si1 0.965767 0.276068 0.345711
Si Si2 0.055292 0.959613 0.233768
Si Si3 0.836191 0.213776 0.876691
Si Si4 0.410277 0.697598 0.725390
Si Si5 0.218232 0.442190 0.500900
Si Si6 0.958536 0.436586 0.321804
Si Si7 0.200779 0.945762 0.131926
Si Si8 0.219813 0.208577 0.281449
O O1 0.968587 0.357434 0.413553
O O2 0.000000 0.266120 0.250000
O O3 0.005120 0.231261 0.572245
O O4 0.881078 0.245129 0.128974
O O5 0.087206 0.886438 0.235269
O O6 0.000000 0.938135 0.250000
O O7 0.126132 0.011155 0.418034
O O8 0.000000 0.000000 0.000000
O O9 0.868606 0.233505 0.780897
O O10 0.756180 0.254565 0.710941
O O11 0.828269 0.130064 0.878432
O O12 0.370223 0.713771 0.468825
O O13 0.131919 0.450684 0.370346
O O14 0.232293 0.436949 0.348467
O O15 0.257668 0.374037 0.666471
O O16 0.261288 0.514194 0.641269
O O17 0.000000 0.436209 0.250000
O O18 0.000000 0.500000 0.500000
O O19 0.250000 0.250000 0.500000
#
# Coordination Sequence:
#
# PCOD8152674 Si02
#       8
#     8   8   8   8   8   8   8   8
#     4   9  21  41  68  97 137 181 227 283 354 429
#     4  12  25  43  66 102 147 187 232 295 356 436
#     4  11  22  44  71 101 140 186 234 296 365 437
#     4  11  24  43  69 105 138 190 243 287 357 446
#     4  12  25  46  70 102 141 185 237 302 363 432
#     4  11  24  47  71  98 134 179 231 295 359 420
#     4  12  25  42  71 103 138 186 238 289 370 429
#     4  12  25  45  69 100 148 189 241 303 362 426
#
# _framework density 22.546876000000001
#
# number of rings (size 3 to 8) (size 9 to 14) (size 15 to 20)
#    0.000    0.750    3.750    4.125    0.000    3.000 
#    2.250    0.000    0.000    0.000    0.000    0.000 
#    0.000    0.000    0.000    0.000    0.000    0.000 
#
# Total GULP energy -396450.796575 kJ/mol
# GULP energy per Si atom -12389.087393 kJ/mol
# Density = 2.249556 g / cm^3
# Si number density = 22.546876 Si / 1000 Ang^3
#
#
#
# Elastic Constant Matrix: (Units=GPa)
#
#
# Indices 1 2 3 4 5 6 
#
# 1 79.6948 -17.0047 1.8741 0.0000 6.9293 0.0000
# 2 -17.0047 137.0449 36.9844 0.0000 -0.1056 0.0000
# 3 1.8741 36.9844 132.5633 0.0000 5.2783 0.0000
# 4 0.0000 0.0000 0.0000 32.6132 0.0000 8.6006
# 5 6.9293 -0.1056 5.2783 0.0000 31.0391 0.0000
# 6 0.0000 0.0000 0.0000 8.6006 0.0000 32.0714
#
#
#
# Elastic Compliance Matrix: (Units=1/GPa)
#
#
# Indices 1 2 3 4 5 6 
#
# 1 0.013190 0.001789 -0.000572 0.000000 -0.002841 0.000000
# 2 0.001789 0.008139 -0.002297 0.000000 0.000019 0.000000
# 3 -0.000572 -0.002297 0.008243 0.000000 -0.001282 0.000000
# 4 0.000000 0.000000 0.000000 0.032996 0.000000 -0.008849
# 5 -0.002841 0.000019 -0.001282 0.000000 0.033070 0.000000
# 6 0.000000 0.000000 0.000000 -0.008849 0.000000 0.033553
#
#
# Mechanical properties :
#
#
# Convention : Reuss Voigt Hill
#
# Bulk Modulus (GPa) = 36.48060 43.66784 40.07422
# Shear Modulus (GPa) = 35.58997 40.97468 38.28233
#
# Velocity S-wave (km/s) = 3.97733 4.26762 4.12503
# Velocity P-wave (km/s) = 6.10796 6.61007 6.36397
#
# Compressibility (1/GPa) = 0.02741183
#
# Stress axis : x y z
#
# Youngs Moduli (GPa) = 75.81458 122.87007 121.30828
#
# Poissons Ratio (x) = -0.21981 0.06944
# Poissons Ratio (y) = -0.13563 0.27861
# Poissons Ratio (z) = 0.04340 0.28219
#
# Static dielectric constant tensor:
#      x y z
#    x 4.147020 0.000000 0.205320 
#    y 0.000000 4.304020 0.000000 
#    z 0.205320 0.000000 4.134240 
# 
# 
# High freq. dielectric constant tensor:
#      x y z
#    x 1.902570 0.000000 0.011830 
#    y 0.000000 1.900500 0.000000 
#    z 0.011830 0.000000 1.883330 
# 
# From -- ./inp_files/70636.got.cif
#   From: 2010.06.25/outbox.cif.g09.slc.cpg/sg15_36_cif.got.tgz:70636.got - 2010.06.28 07:06:18.
