data_PCOD8152773
_publ_section_title
;
Structure prediction by ZEFSAII (Michael W. Deem and Ramdas Pophale) SiO2 
 PCOD8152773
Probable space group: C 2/C
;
_chemical_formula_sum "Si O2"
_cell_formula_units_Z 40
_cell_length_a 15.325618
_cell_length_b 8.817932
_cell_length_c 16.562644
_cell_angle_alpha 90.000000
_cell_angle_beta 49.468625
_cell_angle_gamma 90.000000
_cell_volume 1701.205177
_symmetry_space_group_name_H-M "C 2/C"
_symmetry_group_IT_number 15
_symmetry_cell_setting 'monoclinic'
loop_
_space_group_symop_operation_xyz
x,y,z
-x,y,1/2-z
-x,-y,-z
x,-y,1/2+z
1/2+x,1/2+y,z
1/2-x,1/2+y,1/2-z
1/2-x,1/2-y,-z
1/2+x,1/2-y,1/2+z
loop_
_atom_site_type_symbol
_atom_site_label
_atom_site_fract_x
_atom_site_fract_y
_atom_site_fract_z
Si Si1 0.321078 0.243079 0.615308
Si Si2 0.162069 0.009744 0.258311
Si Si3 0.121902 0.428691 0.712285
Si Si4 0.562809 0.241589 0.395479
Si Si5 0.230352 0.256481 0.106738
O O1 0.345641 0.373995 0.664229
O O2 0.220299 0.313826 0.618159
O O3 0.434523 0.201129 0.498273
O O4 0.277826 0.092965 0.687163
O O5 0.158839 0.105820 0.176821
O O6 0.059116 0.890393 0.338561
O O7 0.113650 0.399813 0.814274
O O8 0.151546 0.601174 0.675633
O O9 0.000000 0.382650 0.750000
O O10 0.646934 0.267283 0.421467
O O11 0.250000 0.250000 0.000000
#
# Coordination Sequence:
#
# PCOD8152773 Si02
#       5
#     8   8   8   8   8
#     4  11  23  45  79 103 145 191 251 289 382 423
#     4  11  22  46  72 109 143 193 237 308 350 446
#     4  11  26  50  72 107 151 189 249 307 358 445
#     4  11  24  49  80 102 147 201 244 301 372 434
#     4  12  26  46  72 111 150 195 248 303 369 432
#
# _framework density 23.512744000000001
#
# number of rings (size 3 to 8) (size 9 to 14) (size 15 to 20)
#    0.000    0.800    6.000    0.600    2.800    4.800 
#    3.600    1.000    0.000    0.000    0.000    0.000 
#    0.000    0.000    0.000    0.000    0.000    0.000 
#
# Total GULP energy -247791.705018 kJ/mol
# GULP energy per Si atom -12389.585251 kJ/mol
# Density = 2.345923 g / cm^3
# Si number density = 23.512744 Si / 1000 Ang^3
#
#
#
# Elastic Constant Matrix: (Units=GPa)
#
#
# Indices 1 2 3 4 5 6 
#
# 1 95.9058 -0.4200 24.9534 0.0000 2.0361 0.0000
# 2 -0.4200 116.7801 45.7213 0.0000 23.7393 0.0000
# 3 24.9534 45.7213 136.7538 0.0000 -2.1823 0.0000
# 4 0.0000 0.0000 0.0000 26.4193 0.0000 6.5388
# 5 2.0361 23.7393 -2.1823 0.0000 39.6760 0.0000
# 6 0.0000 0.0000 0.0000 6.5388 0.0000 20.8418
#
#
#
# Elastic Compliance Matrix: (Units=1/GPa)
#
#
# Indices 1 2 3 4 5 6 
#
# 1 0.011113 0.001321 -0.002493 0.000000 -0.001498 0.000000
# 2 0.001321 0.011732 -0.004280 0.000000 -0.007323 0.000000
# 3 -0.002493 -0.004280 0.009249 0.000000 0.003198 0.000000
# 4 0.000000 0.000000 0.000000 0.041038 0.000000 -0.012875
# 5 -0.001498 -0.007323 0.003198 0.000000 0.029838 0.000000
# 6 0.000000 0.000000 0.000000 -0.012875 0.000000 0.052020
#
#
# Mechanical properties :
#
#
# Convention : Reuss Voigt Hill
#
# Bulk Modulus (GPa) = 47.19454 54.43880 50.81667
# Shear Modulus (GPa) = 28.90845 35.99974 32.45410
#
# Velocity S-wave (km/s) = 3.51020 3.91714 3.71924
# Velocity P-wave (km/s) = 6.04517 6.60771 6.33269
#
# Compressibility (1/GPa) = 0.02118889
#
# Stress axis : x y z
#
# Youngs Moduli (GPa) = 89.98327 85.23495 108.11489
#
# Poissons Ratio (x) = -0.11255 0.26955
# Poissons Ratio (y) = -0.11882 0.46276
# Poissons Ratio (z) = 0.22435 0.36483
#
# Static dielectric constant tensor:
#      x y z
#    x 4.365030 0.000000 -0.159430 
#    y 0.000000 4.665060 0.000000 
#    z -0.159430 0.000000 4.364720 
# 
# 
# High freq. dielectric constant tensor:
#      x y z
#    x 1.902230 0.000000 -0.011290 
#    y 0.000000 1.954650 0.000000 
#    z -0.011290 0.000000 1.932350 
# 
# From -- ./inp_files/208885.got.cif
#   From: 2010.06.25/outbox.cif.g09.slc.cpg/sg15_105_cif.got.tgz:208885.got - 2010.06.28 07:06:18.
