data_PCOD8152799
_publ_section_title
;
Structure prediction by ZEFSAII (Michael W. Deem and Ramdas Pophale) SiO2 
 PCOD8152799
Probable space group: C 2/C
;
_chemical_formula_sum "Si O2"
_cell_formula_units_Z 52
_cell_length_a 8.393361
_cell_length_b 17.233757
_cell_length_c 19.323972
_cell_angle_alpha 90.000000
_cell_angle_beta 126.348538
_cell_angle_gamma 90.000000
_cell_volume 2251.324853
_symmetry_space_group_name_H-M "C 2/C"
_symmetry_group_IT_number 15
_symmetry_cell_setting 'monoclinic'
loop_
_space_group_symop_operation_xyz
x,y,z
-x,y,1/2-z
-x,-y,-z
x,-y,1/2+z
1/2+x,1/2+y,z
1/2-x,1/2+y,1/2-z
1/2-x,1/2-y,-z
1/2+x,1/2-y,1/2+z
loop_
_atom_site_type_symbol
_atom_site_label
_atom_site_fract_x
_atom_site_fract_y
_atom_site_fract_z
Si Si1 0.973812 0.354643 0.055592
Si Si2 0.568790 0.712903 0.990071
Si Si3 0.000000 0.490054 0.250000
Si Si4 0.656975 0.777636 0.344963
Si Si5 0.152981 0.098890 0.373956
Si Si6 0.369763 0.555169 0.417380
Si Si7 0.279031 0.457403 0.199338
O O1 0.004490 0.268730 0.035171
O O2 0.171056 0.404467 0.114627
O O3 0.860332 0.338209 0.097042
O O4 0.838293 0.406979 0.972275
O O5 0.636156 0.633972 0.041643
O O6 0.750000 0.750000 0.000000
O O7 0.389316 0.709993 0.886977
O O8 0.861095 0.533971 0.157303
O O9 0.836250 0.446096 0.256603
O O10 0.500000 0.811078 0.250000
O O11 0.603575 0.687664 0.342758
O O12 0.206385 0.048671 0.319494
O O13 0.966524 0.061598 0.365917
O O14 0.500000 0.500000 0.500000
O O15 0.500000 0.422863 0.250000
#
# Coordination Sequence:
#
# PCOD8152799 Si02
#       7
#     8   8   4   8   8   8   8
#     4  11  24  46  71 100 142 193 242 300 379 437
#     4  11  26  45  67 108 148 187 247 304 376 454
#     4  12  30  46  74 112 146 192 252 312 380 442
#     4  11  24  43  75  98 139 195 241 304 373 441
#     4  11  22  48  71  99 141 194 246 296 370 451
#     4  12  26  46  74 103 149 194 243 309 371 444
#     4  12  27  46  73 108 146 190 254 308 372 450
#
# _framework density 23.09751
#
# number of rings (size 3 to 8) (size 9 to 14) (size 15 to 20)
#    0.000    0.615    4.615    2.769    7.538    1.231 
#    1.385    0.000    0.000    0.000    0.000    0.000 
#    0.000    0.000    0.000    0.000    0.000    0.000 
#
# Total GULP energy -322144.200356 kJ/mol
# GULP energy per Si atom -12390.161552 kJ/mol
# Density = 2.304494 g / cm^3
# Si number density = 23.097510 Si / 1000 Ang^3
#
#
#
# Elastic Constant Matrix: (Units=GPa)
#
#
# Indices 1 2 3 4 5 6 
#
# 1 139.1504 13.3283 57.4247 0.0000 18.1568 0.0000
# 2 13.3283 64.6762 17.6837 0.0000 10.4469 0.0000
# 3 57.4247 17.6837 154.6789 0.0000 29.3993 0.0000
# 4 0.0000 0.0000 0.0000 22.3931 0.0000 14.8420
# 5 18.1568 10.4469 29.3993 0.0000 46.0669 0.0000
# 6 0.0000 0.0000 0.0000 14.8420 0.0000 12.6085
#
#
#
# Elastic Compliance Matrix: (Units=1/GPa)
#
#
# Indices 1 2 3 4 5 6 
#
# 1 0.008617 -0.000771 -0.002844 0.000000 -0.001407 0.000000
# 2 -0.000771 0.016352 -0.001065 0.000000 -0.002724 0.000000
# 3 -0.002844 -0.001065 0.008403 0.000000 -0.004000 0.000000
# 4 0.000000 0.000000 0.000000 0.203164 0.000000 -0.239152
# 5 -0.001407 -0.002724 -0.004000 0.000000 0.025433 0.000000
# 6 0.000000 0.000000 0.000000 -0.239152 0.000000 0.360826
#
#
# Mechanical properties :
#
#
# Convention : Reuss Voigt Hill
#
# Bulk Modulus (GPa) = 41.64607 59.48654 50.56630
# Shear Modulus (GPa) = 7.81056 34.21831 21.01443
#
# Velocity S-wave (km/s) = 1.84090 3.85316 3.01958
# Velocity P-wave (km/s) = 4.75271 6.75324 5.83928
#
# Compressibility (1/GPa) = 0.02401187
#
# Stress axis : x y z
#
# Youngs Moduli (GPa) = 116.04398 61.15502 119.00768
#
# Poissons Ratio (x) = 0.04716 0.33842
# Poissons Ratio (y) = 0.08948 0.12678
# Poissons Ratio (z) = 0.32999 0.06515
#
# Static dielectric constant tensor:
#      x y z
#    x 4.410380 0.000000 0.159110 
#    y 0.000000 4.074220 0.000000 
#    z 0.159110 0.000000 4.674820 
# 
# 
# High freq. dielectric constant tensor:
#      x y z
#    x 1.908610 0.000000 0.015440 
#    y 0.000000 1.914130 0.000000 
#    z 0.015440 0.000000 1.934330 
# 
# From -- ./inp_files/233103.got.cif
#   From: 2010.06.25/outbox.cif.g09.slc.cpg/sg15_117_cif.got.tgz:233103.got - 2010.06.28 07:06:18.
