data_PCOD8152766
_publ_section_title
;
Structure prediction by ZEFSAII (Michael W. Deem and Ramdas Pophale) SiO2 
 PCOD8152766
Probable space group: C 2/C
;
_chemical_formula_sum "Si O2"
_cell_formula_units_Z 40
_cell_length_a 14.984246
_cell_length_b 12.520649
_cell_length_c 10.088869
_cell_angle_alpha 90.000000
_cell_angle_beta 96.127126
_cell_angle_gamma 90.000000
_cell_volume 1881.985218
_symmetry_space_group_name_H-M "C 2/C"
_symmetry_group_IT_number 15
_symmetry_cell_setting 'monoclinic'
loop_
_space_group_symop_operation_xyz
x,y,z
-x,y,1/2-z
-x,-y,-z
x,-y,1/2+z
1/2+x,1/2+y,z
1/2-x,1/2+y,1/2-z
1/2-x,1/2-y,-z
1/2+x,1/2-y,1/2+z
loop_
_atom_site_type_symbol
_atom_site_label
_atom_site_fract_x
_atom_site_fract_y
_atom_site_fract_z
Si Si1 0.468610 0.301150 0.037175
Si Si2 0.637834 0.351308 0.226015
Si Si3 0.595492 0.417190 0.713811
Si Si4 0.810024 0.278005 0.131374
Si Si5 0.476166 0.094050 0.596971
O O1 0.572683 0.329709 0.088239
O O2 0.409194 0.290736 0.159372
O O3 0.417485 0.390178 0.942761
O O4 0.466711 0.194629 0.947061
O O5 0.655971 0.478156 0.242604
O O6 0.738659 0.306922 0.234172
O O7 0.500000 0.455919 0.750000
O O8 0.629296 0.318874 0.807403
O O9 0.871026 0.376511 0.090330
O O10 0.750000 0.250000 0.000000
O O11 0.500000 0.060020 0.750000
O O12 0.500000 0.000000 0.500000
#
# Coordination Sequence:
#
# PCOD8152766 Si02
#       5
#     8   8   8   8   8
#     4  11  22  46  70  99 139 183 240 282 354 425
#     4  11  26  38  75 108 135 182 235 299 347 420
#     4  12  22  44  72  98 137 185 230 281 358 414
#     4  12  25  45  67 105 144 175 235 300 339 414
#     4  12  27  48  75  98 144 197 235 284 364 428
#
# _framework density 21.254152999999999
#
# number of rings (size 3 to 8) (size 9 to 14) (size 15 to 20)
#    0.000    0.400    8.000    0.600    5.600    4.000 
#    0.000    0.000    0.000    0.000    0.000    0.000 
#    0.000    0.000    0.000    0.000    0.000    0.000 
#
# Total GULP energy -247914.265983 kJ/mol
# GULP energy per Si atom -12395.713299 kJ/mol
# Density = 2.120578 g / cm^3
# Si number density = 21.254153 Si / 1000 Ang^3
#
#
#
# Elastic Constant Matrix: (Units=GPa)
#
#
# Indices 1 2 3 4 5 6 
#
# 1 97.6438 21.9328 19.2792 0.0000 -17.5003 0.0000
# 2 21.9328 90.5815 32.8791 0.0000 -14.8262 0.0000
# 3 19.2792 32.8791 125.4038 0.0000 -4.2084 0.0000
# 4 0.0000 0.0000 0.0000 38.7285 0.0000 -11.0165
# 5 -17.5003 -14.8262 -4.2084 0.0000 31.5572 0.0000
# 6 0.0000 0.0000 0.0000 -11.0165 0.0000 20.9631
#
#
#
# Elastic Compliance Matrix: (Units=1/GPa)
#
#
# Indices 1 2 3 4 5 6 
#
# 1 0.011842 -0.001483 -0.001240 0.000000 0.005705 0.000000
# 2 -0.001483 0.013349 -0.003103 0.000000 0.005035 0.000000
# 3 -0.001240 -0.003103 0.008946 0.000000 -0.000953 0.000000
# 4 0.000000 0.000000 0.000000 0.030359 0.000000 0.015954
# 5 0.005705 0.005035 -0.000953 0.000000 0.037091 0.000000
# 6 0.000000 0.000000 0.000000 0.015954 0.000000 0.056087
#
#
# Mechanical properties :
#
#
# Convention : Reuss Voigt Hill
#
# Bulk Modulus (GPa) = 44.47485 51.31238 47.89362
# Shear Modulus (GPa) = 28.27694 34.21898 31.24796
#
# Velocity S-wave (km/s) = 3.65145 4.01682 3.83848
# Velocity P-wave (km/s) = 6.22480 6.76076 6.49831
#
# Compressibility (1/GPa) = 0.02248462
#
# Stress axis : x y z
#
# Youngs Moduli (GPa) = 84.44665 74.90932 111.77560
#
# Poissons Ratio (x) = 0.11112 0.13862
# Poissons Ratio (y) = 0.12527 0.34684
# Poissons Ratio (z) = 0.10473 0.23244
#
# Static dielectric constant tensor:
#      x y z
#    x 5.622450 0.000000 0.024040 
#    y 0.000000 4.227120 0.000000 
#    z 0.024040 0.000000 3.970380 
# 
# 
# High freq. dielectric constant tensor:
#      x y z
#    x 1.830030 0.000000 -0.010100 
#    y 0.000000 1.825630 0.000000 
#    z -0.010100 0.000000 1.850450 
# 
# From -- ./inp_files/94680.got.cif
#   From: 2010.06.25/outbox.cif.g09.slc.cpg/sg15_48_cif.got.tgz:94680.got - 2010.06.28 07:06:18.
