data_PCOD8152737
_publ_section_title
;
Structure prediction by ZEFSAII (Michael W. Deem and Ramdas Pophale) SiO2 
 PCOD8152737
Probable space group: C 2/C
;
_chemical_formula_sum "Si O2"
_cell_formula_units_Z 48
_cell_length_a 15.155803
_cell_length_b 12.041927
_cell_length_c 14.048742
_cell_angle_alpha 90.000000
_cell_angle_beta 123.831644
_cell_angle_gamma 90.000000
_cell_volume 2129.828427
_symmetry_space_group_name_H-M "C 2/C"
_symmetry_group_IT_number 15
_symmetry_cell_setting 'monoclinic'
loop_
_space_group_symop_operation_xyz
x,y,z
-x,y,1/2-z
-x,-y,-z
x,-y,1/2+z
1/2+x,1/2+y,z
1/2-x,1/2+y,1/2-z
1/2-x,1/2-y,-z
1/2+x,1/2-y,1/2+z
loop_
_atom_site_type_symbol
_atom_site_label
_atom_site_fract_x
_atom_site_fract_y
_atom_site_fract_z
Si Si1 0.164782 0.662410 0.122854
Si Si2 0.391518 0.454635 0.132793
Si Si3 0.326446 0.083802 0.906283
Si Si4 0.109143 0.194783 0.423028
Si Si5 0.031084 0.727639 0.377021
Si Si6 0.121561 0.756437 0.716500
O O1 0.125995 0.539556 0.074295
O O2 0.279677 0.659298 0.244277
O O3 0.078858 0.725630 0.133436
O O4 0.183667 0.734340 0.037969
O O5 0.500000 0.491338 0.250000
O O6 0.300053 0.417227 0.151517
O O7 0.351528 0.566196 0.055564
O O8 0.417452 0.350378 0.080449
O O9 0.351304 0.141926 0.820800
O O10 0.384142 0.140891 0.030792
O O11 0.109732 0.258111 0.322589
O O12 0.988110 0.196071 0.392023
O O13 0.000000 0.699897 0.250000
#
# Coordination Sequence:
#
# PCOD8152737 Si02
#       6
#     8   8   8   8   8   8
#     4  12  25  46  69 106 140 178 236 286 339 417
#     4  11  22  45  71  99 140 179 230 288 328 414
#     4  12  25  47  71 103 143 179 228 286 349 411
#     4  11  23  45  71 102 136 182 237 281 341 403
#     4  11  26  45  69 101 142 181 229 286 350 405
#     4  11  23  43  72 100 136 184 227 282 343 405
#
# _framework density 22.537027999999999
#
# number of rings (size 3 to 8) (size 9 to 14) (size 15 to 20)
#    0.000    0.667    5.000    3.500    0.000    2.000 
#    3.000    0.000    0.000    0.000    0.000    0.000 
#    0.000    0.000    0.000    0.000    0.000    0.000 
#
# Total GULP energy -297552.800107 kJ/mol
# GULP energy per Si atom -12398.033338 kJ/mol
# Density = 2.248573 g / cm^3
# Si number density = 22.537028 Si / 1000 Ang^3
#
#
#
# Elastic Constant Matrix: (Units=GPa)
#
#
# Indices 1 2 3 4 5 6 
#
# 1 121.2585 43.9119 22.9171 0.0000 -0.7387 0.0000
# 2 43.9119 180.7921 52.3742 0.0000 -17.5552 0.0000
# 3 22.9171 52.3742 90.3526 0.0000 -1.1771 0.0000
# 4 0.0000 0.0000 0.0000 35.4813 0.0000 -4.6237
# 5 -0.7387 -17.5552 -1.1771 0.0000 38.7091 0.0000
# 6 0.0000 0.0000 0.0000 -4.6237 0.0000 35.0633
#
#
#
# Elastic Compliance Matrix: (Units=1/GPa)
#
#
# Indices 1 2 3 4 5 6 
#
# 1 0.009177 -0.001952 -0.001206 0.000000 -0.000747 0.000000
# 2 -0.001952 0.007405 -0.003755 0.000000 0.003207 0.000000
# 3 -0.001206 -0.003755 0.013533 0.000000 -0.001315 0.000000
# 4 0.000000 0.000000 0.000000 0.028677 0.000000 0.003782
# 5 -0.000747 0.003207 -0.001315 0.000000 0.027234 0.000000
# 6 0.000000 0.000000 0.000000 0.003782 0.000000 0.029019
#
#
# Mechanical properties :
#
#
# Convention : Reuss Voigt Hill
#
# Bulk Modulus (GPa) = 61.39309 70.08995 65.74152
# Shear Modulus (GPa) = 37.23009 40.06407 38.64708
#
# Velocity S-wave (km/s) = 4.06883 4.22085 4.14554
# Velocity P-wave (km/s) = 7.02666 7.41091 7.22134
#
# Compressibility (1/GPa) = 0.01628848
#
# Stress axis : x y z
#
# Youngs Moduli (GPa) = 108.96638 135.05078 73.89206
#
# Poissons Ratio (x) = 0.26365 0.08910
# Poissons Ratio (y) = 0.21273 0.27748
# Poissons Ratio (z) = 0.13139 0.50715
#
# Static dielectric constant tensor:
#      x y z
#    x 4.391660 0.000000 0.222350 
#    y 0.000000 3.984320 0.000000 
#    z 0.222350 0.000000 4.043350 
# 
# 
# High freq. dielectric constant tensor:
#      x y z
#    x 1.919040 0.000000 0.019440 
#    y 0.000000 1.883010 0.000000 
#    z 0.019440 0.000000 1.872940 
# 
# From -- ./inp_files/152760.got.cif
#   From: 2010.06.25/outbox.cif.g09.slc.cpg/sg15_77_cif.got.tgz:152760.got - 2010.06.28 07:06:18.
