data_PCOD8152521
_publ_section_title
;
Structure prediction by ZEFSAII (Michael W. Deem and Ramdas Pophale) SiO2 
 PCOD8152521
Probable space group: C 2/C
;
_chemical_formula_sum "Si O2"
_cell_formula_units_Z 64
_cell_length_a 27.425357
_cell_length_b 16.629882
_cell_length_c 18.671476
_cell_angle_alpha 90.000000
_cell_angle_beta 19.993379
_cell_angle_gamma 90.000000
_cell_volume 2911.614557
_symmetry_space_group_name_H-M "C 2/C"
_symmetry_group_IT_number 15
_symmetry_cell_setting 'monoclinic'
loop_
_space_group_symop_operation_xyz
x,y,z
-x,y,1/2-z
-x,-y,-z
x,-y,1/2+z
1/2+x,1/2+y,z
1/2-x,1/2+y,1/2-z
1/2-x,1/2-y,-z
1/2+x,1/2-y,1/2+z
loop_
_atom_site_type_symbol
_atom_site_label
_atom_site_fract_x
_atom_site_fract_y
_atom_site_fract_z
Si Si1 0.392241 0.325979 0.654839
Si Si2 0.532353 0.039824 0.789888
Si Si3 0.017131 0.664428 0.920977
Si Si4 0.799271 0.799585 0.625947
Si Si5 0.787095 0.134722 0.785937
Si Si6 0.431122 0.457708 0.417712
Si Si7 0.669412 0.946337 0.323747
Si Si8 0.312914 0.487254 0.844261
O O1 0.394345 0.248150 0.704309
O O2 0.311147 0.298094 0.695607
O O3 0.553018 0.346647 0.411698
O O4 0.317976 0.403983 0.792419
O O5 0.500000 0.037132 0.750000
O O6 0.506570 0.130053 0.854988
O O7 0.702588 0.021615 0.562459
O O8 0.443376 0.978250 0.961708
O O9 0.090415 0.596210 0.868022
O O10 0.862678 0.676913 0.168779
O O11 0.818862 0.712241 0.560297
O O12 0.918004 0.860745 0.431267
O O13 0.777517 0.114062 0.714652
O O14 0.740783 0.057214 0.895532
O O15 0.500000 0.491578 0.250000
O O16 0.268374 0.484051 0.654544
O O17 0.529868 0.487634 0.346773
#
# Coordination Sequence:
#
# PCOD8152521 Si02
#       8
#     8   8   8   8   8   8   8   8
#     4  11  22  43  71 100 137 181 232 290 340 409
#     4  12  25  42  68 105 141 189 234 283 346 420
#     4  11  25  42  70 103 140 185 229 284 359 406
#     4  11  23  43  68  99 138 176 228 292 347 407
#     4  11  22  42  71 101 128 187 231 279 348 409
#     4  12  26  45  71 102 137 183 236 288 348 413
#     4  12  23  47  71  97 146 186 228 289 349 419
#     4  12  24  42  70 100 138 180 239 279 339 419
#
# _framework density 21.980931999999999
#
# number of rings (size 3 to 8) (size 9 to 14) (size 15 to 20)
#    0.000    0.500    6.250    3.000    1.750    0.500 
#    2.250    1.250    0.000    0.000    0.000    0.000 
#    0.000    0.000    0.000    0.000    0.000    0.000 
#
# Total GULP energy -396572.044803 kJ/mol
# GULP energy per Si atom -12392.876400 kJ/mol
# Density = 2.193090 g / cm^3
# Si number density = 21.980932 Si / 1000 Ang^3
#
#
#
# Elastic Constant Matrix: (Units=GPa)
#
#
# Indices 1 2 3 4 5 6 
#
# 1 84.6255 44.3734 22.2655 0.0002 -2.6015 -0.0001
# 2 44.3734 153.8495 37.0016 0.0004 3.9434 -0.0007
# 3 22.2655 37.0016 87.3326 0.0014 5.5395 -0.0010
# 4 0.0002 0.0004 0.0014 20.1166 -0.0006 -9.1977
# 5 -2.6015 3.9434 5.5395 -0.0006 32.2646 0.0000
# 6 -0.0001 -0.0007 -0.0010 -9.1977 0.0000 41.1438
#
#
#
# Elastic Compliance Matrix: (Units=1/GPa)
#
#
# Indices 1 2 3 4 5 6 
#
# 1 0.014388 -0.003661 -0.002243 0.000000 0.001993 0.000000
# 2 -0.003661 0.008173 -0.002474 0.000000 -0.000869 0.000000
# 3 -0.002243 -0.002474 0.013207 -0.000001 -0.002146 0.000000
# 4 0.000000 0.000000 -0.000001 0.055370 0.000001 0.012378
# 5 0.001993 -0.000869 -0.002146 0.000001 0.031629 0.000000
# 6 0.000000 0.000000 0.000000 0.012378 0.000000 0.027072
#
#
# Mechanical properties :
#
#
# Convention : Reuss Voigt Hill
#
# Bulk Modulus (GPa) = 52.60344 59.23204 55.91774
# Shear Modulus (GPa) = 28.91282 33.51614 31.21448
#
# Velocity S-wave (km/s) = 3.63072 3.90908 3.77247
# Velocity P-wave (km/s) = 6.44667 6.88332 6.66857
#
# Compressibility (1/GPa) = 0.01901016
#
# Stress axis : x y z
#
# Youngs Moduli (GPa) = 69.50180 122.35060 75.71818
#
# Poissons Ratio (x) = 0.44797 0.16987
# Poissons Ratio (y) = 0.25447 0.18735
# Poissons Ratio (z) = 0.15592 0.30273
#
# Static dielectric constant tensor:
#      x y z
#    x 3.939180 0.000000 -0.263940 
#    y 0.000000 4.274560 0.000000 
#    z -0.263940 0.000000 3.872750 
# 
# 
# High freq. dielectric constant tensor:
#      x y z
#    x 1.864470 0.000000 -0.026820 
#    y 0.000000 1.876620 0.000000 
#    z -0.026820 0.000000 1.851490 
# 
# From -- ./inp_files/259423.got.cif
#   From: 2010.06.25/outbox.cif.g09.slc.cpg/sg15_130_cif.got.tgz:259423.got - 2010.06.28 07:06:18.
