data_PCOD8152636
_publ_section_title
;
Structure prediction by ZEFSAII (Michael W. Deem and Ramdas Pophale) SiO2 
 PCOD8152636
Probable space group: C 2/C
;
_chemical_formula_sum "Si O2"
_cell_formula_units_Z 48
_cell_length_a 10.701089
_cell_length_b 8.938329
_cell_length_c 23.560351
_cell_angle_alpha 90.000000
_cell_angle_beta 97.888751
_cell_angle_gamma 90.000000
_cell_volume 2232.217562
_symmetry_space_group_name_H-M "C 2/C"
_symmetry_group_IT_number 15
_symmetry_cell_setting 'monoclinic'
loop_
_space_group_symop_operation_xyz
x,y,z
-x,y,1/2-z
-x,-y,-z
x,-y,1/2+z
1/2+x,1/2+y,z
1/2-x,1/2+y,1/2-z
1/2-x,1/2-y,-z
1/2+x,1/2-y,1/2+z
loop_
_atom_site_type_symbol
_atom_site_label
_atom_site_fract_x
_atom_site_fract_y
_atom_site_fract_z
Si Si1 0.642798 0.674306 0.031128
Si Si2 0.267890 0.825736 0.859047
Si Si3 0.638590 0.183916 0.262629
Si Si4 0.943901 0.621993 0.690085
Si Si5 0.690020 0.143115 0.642480
Si Si6 0.864791 0.179305 0.971719
O O1 0.669903 0.725422 0.096710
O O2 0.501646 0.724933 0.004820
O O3 0.750000 0.750000 0.000000
O O4 0.655787 0.497252 0.029029
O O5 0.315228 0.836379 0.798053
O O6 0.137777 0.735941 0.851691
O O7 0.242031 0.995707 0.879805
O O8 0.363729 0.741592 0.907302
O O9 0.500000 0.256809 0.250000
O O10 0.730330 0.296264 0.299972
O O11 0.632870 0.025376 0.295265
O O12 0.000000 0.702380 0.750000
O O13 0.057261 0.576814 0.655820
O O14 0.750000 0.250000 0.000000
#
# Coordination Sequence:
#
# PCOD8152636 Si02
#       6
#     8   8   8   8   8   8
#     4  11  27  47  72 101 134 180 234 285 340 408
#     4  12  23  41  71  97 133 181 220 275 339 396
#     4  11  23  43  65  99 138 175 222 274 333 402
#     4  11  22  44  64  96 141 175 223 271 331 404
#     4  12  25  43  68  99 137 179 222 279 339 398
#     4  11  26  49  70 101 138 177 232 286 344 406
#
# _framework density 21.503281999999999
#
# number of rings (size 3 to 8) (size 9 to 14) (size 15 to 20)
#    0.000    0.667    5.000    3.000    2.333    6.000 
#    3.000    0.000    0.000    0.000    0.000    0.000 
#    0.000    0.000    0.000    0.000    0.000    0.000 
#
# Total GULP energy -297566.006288 kJ/mol
# GULP energy per Si atom -12398.583595 kJ/mol
# Density = 2.145434 g / cm^3
# Si number density = 21.503282 Si / 1000 Ang^3
#
#
#
# Elastic Constant Matrix: (Units=GPa)
#
#
# Indices 1 2 3 4 5 6 
#
# 1 127.6818 67.6756 43.3313 0.0000 11.0238 0.0000
# 2 67.6756 123.9078 51.1966 0.0000 11.9902 0.0000
# 3 43.3313 51.1966 105.3748 0.0000 9.9768 0.0000
# 4 0.0000 0.0000 0.0000 36.6536 0.0000 1.2203
# 5 11.0238 11.9902 9.9768 0.0000 30.6508 0.0000
# 6 0.0000 0.0000 0.0000 1.2203 0.0000 25.2338
#
#
#
# Elastic Compliance Matrix: (Units=1/GPa)
#
#
# Indices 1 2 3 4 5 6 
#
# 1 0.011431 -0.005281 -0.002003 0.000000 -0.001393 0.000000
# 2 -0.005281 0.012716 -0.003833 0.000000 -0.001827 0.000000
# 3 -0.002003 -0.003833 0.012346 0.000000 -0.001799 0.000000
# 4 0.000000 0.000000 0.000000 0.027326 0.000000 -0.001322
# 5 -0.001393 -0.001827 -0.001799 0.000000 0.034427 0.000000
# 6 0.000000 0.000000 0.000000 -0.001322 0.000000 0.039693
#
#
# Mechanical properties :
#
#
# Convention : Reuss Voigt Hill
#
# Bulk Modulus (GPa) = 70.13325 75.70793 72.92059
# Shear Modulus (GPa) = 30.31648 31.49170 30.90409
#
# Velocity S-wave (km/s) = 3.75888 3.83104 3.79513
# Velocity P-wave (km/s) = 7.17808 7.40629 7.29308
#
# Compressibility (1/GPa) = 0.01425857
#
# Stress axis : x y z
#
# Youngs Moduli (GPa) = 87.48056 78.64397 80.99620
#
# Poissons Ratio (x) = 0.41532 0.16222
# Poissons Ratio (y) = 0.46199 0.31048
# Poissons Ratio (z) = 0.17521 0.30146
#
# Static dielectric constant tensor:
#      x y z
#    x 4.250090 0.000000 0.279280 
#    y 0.000000 4.106740 0.000000 
#    z 0.279280 0.000000 4.155530 
# 
# 
# High freq. dielectric constant tensor:
#      x y z
#    x 1.849120 0.000000 0.005510 
#    y 0.000000 1.848710 0.000000 
#    z 0.005510 0.000000 1.855750 
# 
# From -- ./inp_files/267790.got.cif
#   From: 2010.06.25/outbox.cif.g09.slc.cpg/sg15_134_cif.got.tgz:267790.got - 2010.06.28 07:06:18.
