data_PCOD8152968
_publ_section_title
;
Structure prediction by ZEFSAII (Michael W. Deem and Ramdas Pophale) SiO2 
 PCOD8152968
Probable space group: C 2/C
;
_chemical_formula_sum "Si O2"
_cell_formula_units_Z 48
_cell_length_a 15.289291
_cell_length_b 10.687468
_cell_length_c 19.705758
_cell_angle_alpha 90.000000
_cell_angle_beta 139.754618
_cell_angle_gamma 90.000000
_cell_volume 2080.318479
_symmetry_space_group_name_H-M "C 2/C"
_symmetry_group_IT_number 15
_symmetry_cell_setting 'monoclinic'
loop_
_space_group_symop_operation_xyz
x,y,z
-x,y,1/2-z
-x,-y,-z
x,-y,1/2+z
1/2+x,1/2+y,z
1/2-x,1/2+y,1/2-z
1/2-x,1/2-y,-z
1/2+x,1/2-y,1/2+z
loop_
_atom_site_type_symbol
_atom_site_label
_atom_site_fract_x
_atom_site_fract_y
_atom_site_fract_z
Si Si1 0.167785 0.944075 0.163571
Si Si2 0.143968 0.226905 0.171614
Si Si3 0.723670 0.910421 0.419524
Si Si4 0.095480 0.200803 0.990729
Si Si5 0.596412 0.856348 0.865157
Si Si6 0.078657 0.167404 0.359361
O O1 0.244493 0.831859 0.247018
O O2 0.207489 0.955756 0.108812
O O3 0.007691 0.916056 0.075742
O O4 0.198118 0.082711 0.212158
O O5 0.020825 0.244679 0.150442
O O6 0.090555 0.253619 0.064032
O O7 0.833304 0.930406 0.545439
O O8 0.680842 0.767016 0.385882
O O9 0.590185 0.992270 0.359598
O O10 0.048139 0.307346 0.909457
O O11 0.246244 0.164893 0.058751
O O12 0.500000 0.797381 0.750000
O O13 0.000000 0.099820 0.250000
#
# Coordination Sequence:
#
# PCOD8152968 Si02
#       6
#     8   8   8   8   8   8
#     4  12  25  46  75 103 146 190 239 292 359 421
#     4  12  25  44  72 106 141 189 240 293 356 422
#     4  11  23  43  72  99 145 194 236 294 358 427
#     4  11  24  44  70 106 142 182 235 299 352 420
#     4  11  24  44  73 101 140 187 236 289 362 425
#     4  11  23  41  68 105 142 190 243 289 354 424
#
# _framework density 23.073388999999999
#
# number of rings (size 3 to 8) (size 9 to 14) (size 15 to 20)
#    0.000    0.667    5.000    3.000    0.000    1.333 
#    0.000    5.833    0.000    0.000    0.000    0.000 
#    0.000    0.000    0.000    0.000    0.000    0.000 
#
# Total GULP energy -297485.130676 kJ/mol
# GULP energy per Si atom -12395.213778 kJ/mol
# Density = 2.302087 g / cm^3
# Si number density = 23.073389 Si / 1000 Ang^3
#
#
#
# Elastic Constant Matrix: (Units=GPa)
#
#
# Indices 1 2 3 4 5 6 
#
# 1 97.3138 30.1296 31.2869 0.0000 -13.3543 0.0000
# 2 30.1296 112.2365 52.9231 0.0000 -6.3150 0.0000
# 3 31.2869 52.9231 133.9641 0.0000 -26.2346 0.0000
# 4 0.0000 0.0000 0.0000 27.9774 0.0000 2.6197
# 5 -13.3543 -6.3150 -26.2346 0.0000 40.8107 0.0000
# 6 0.0000 0.0000 0.0000 2.6197 0.0000 38.7575
#
#
#
# Elastic Compliance Matrix: (Units=1/GPa)
#
#
# Indices 1 2 3 4 5 6 
#
# 1 0.011801 -0.002414 -0.001280 0.000000 0.002665 0.000000
# 2 -0.002414 0.011499 -0.004330 0.000000 -0.001794 0.000000
# 3 -0.001280 -0.004330 0.010595 0.000000 0.005722 0.000000
# 4 0.000000 0.000000 0.000000 0.035971 0.000000 -0.002431
# 5 0.002665 -0.001794 0.005722 0.000000 0.028776 0.000000
# 6 0.000000 0.000000 0.000000 -0.002431 0.000000 0.025966
#
#
# Mechanical properties :
#
#
# Convention : Reuss Voigt Hill
#
# Bulk Modulus (GPa) = 56.03866 63.57708 59.80787
# Shear Modulus (GPa) = 34.10527 36.78743 35.44635
#
# Velocity S-wave (km/s) = 3.84881 3.99728 3.92375
# Velocity P-wave (km/s) = 6.64010 6.99417 6.81944
#
# Compressibility (1/GPa) = 0.01784482
#
# Stress axis : x y z
#
# Youngs Moduli (GPa) = 84.73953 86.96636 94.38513
#
# Poissons Ratio (x) = 0.20995 0.12086
# Poissons Ratio (y) = 0.20458 0.40870
# Poissons Ratio (z) = 0.10851 0.37658
#
# Static dielectric constant tensor:
#      x y z
#    x 4.207270 0.000000 -0.096940 
#    y 0.000000 4.301860 0.000000 
#    z -0.096940 0.000000 4.436340 
# 
# 
# High freq. dielectric constant tensor:
#      x y z
#    x 1.918660 0.000000 -0.000540 
#    y 0.000000 1.899030 0.000000 
#    z -0.000540 0.000000 1.922640 
# 
# From -- ./inp_files/243976.got.cif
#   From: 2010.06.25/outbox.cif.g09.slc.cpg/sg15_122_cif.got.tgz:243976.got - 2010.06.28 07:06:18.
