data_PCOD8152301
_publ_section_title
;
Structure prediction by ZEFSAII (Michael W. Deem and Ramdas Pophale) SiO2 
 PCOD8152301
Probable space group: C 2/C
;
_chemical_formula_sum "Si O2"
_cell_formula_units_Z 64
_cell_length_a 9.584709
_cell_length_b 27.001453
_cell_length_c 12.132408
_cell_angle_alpha 90.000000
_cell_angle_beta 90.168908
_cell_angle_gamma 90.000000
_cell_volume 3139.866523
_symmetry_space_group_name_H-M "C 2/C"
_symmetry_group_IT_number 15
_symmetry_cell_setting 'monoclinic'
loop_
_space_group_symop_operation_xyz
x,y,z
-x,y,1/2-z
-x,-y,-z
x,-y,1/2+z
1/2+x,1/2+y,z
1/2-x,1/2+y,1/2-z
1/2-x,1/2-y,-z
1/2+x,1/2-y,1/2+z
loop_
_atom_site_type_symbol
_atom_site_label
_atom_site_fract_x
_atom_site_fract_y
_atom_site_fract_z
Si Si1 0.743502 0.854105 0.476611
Si Si2 0.501447 0.204753 0.622673
Si Si3 0.995864 0.178464 0.377926
Si Si4 0.835878 0.542138 0.055007
Si Si5 0.248643 0.856697 0.461051
Si Si6 0.336300 0.488796 0.760053
Si Si7 0.131610 0.552577 0.093815
Si Si8 0.156668 0.098129 0.745062
O O1 0.642614 0.809511 0.438395
O O2 0.648570 0.895899 0.530573
O O3 0.816448 0.876404 0.370272
O O4 0.860229 0.835611 0.562097
O O5 0.500000 0.184733 0.750000
O O6 0.519770 0.263025 0.621551
O O7 0.630004 0.183838 0.550907
O O8 0.862366 0.156649 0.443615
O O9 0.000000 0.159449 0.250000
O O10 0.693776 0.531773 0.119075
O O11 0.970404 0.551290 0.135874
O O12 0.817365 0.590236 0.980767
O O13 0.857139 0.493718 0.984953
O O14 0.180575 0.861698 0.340402
O O15 0.500000 0.483182 0.750000
O O16 0.253834 0.450666 0.682637
O O17 0.269581 0.544031 0.742849
O O18 0.000000 0.080298 0.750000
#
# Coordination Sequence:
#
# PCOD8152301 Si02
#       8
#     8   8   8   8   8   8   8   8
#     4  12  23  43  71  98 134 175 224 274 340 394
#     4  11  24  46  73 102 130 170 227 290 339 400
#     4  11  28  47  68  97 137 175 225 283 346 400
#     4  11  24  40  61  94 135 174 215 270 329 401
#     4  12  23  43  71  98 134 175 224 274 340 394
#     4  11  25  39  61  92 135 178 226 261 327 390
#     4  11  24  40  61  94 135 174 215 270 329 401
#     4  11  22  40  66 105 130 175 221 280 320 393
#
# _framework density 20.383030999999999
#
# number of rings (size 3 to 8) (size 9 to 14) (size 15 to 20)
#    0.000    0.750    6.250    1.125    3.500    0.500 
#    2.250    0.625    0.000    0.000    0.000    0.000 
#    0.000    0.000    0.000    0.000    0.000    0.000 
#
# Total GULP energy -396582.433269 kJ/mol
# GULP energy per Si atom -12393.201040 kJ/mol
# Density = 2.033664 g / cm^3
# Si number density = 20.383031 Si / 1000 Ang^3
#
#
#
# Elastic Constant Matrix: (Units=GPa)
#
#
# Indices 1 2 3 4 5 6 
#
# 1 126.8181 32.6445 43.6975 0.0000 -4.5520 0.0000
# 2 32.6445 107.1380 25.9709 0.0000 -8.0186 0.0000
# 3 43.6975 25.9709 88.4101 0.0000 -2.5695 0.0000
# 4 0.0000 0.0000 0.0000 35.7057 0.0000 1.6707
# 5 -4.5520 -8.0186 -2.5695 0.0000 37.4676 0.0000
# 6 0.0000 0.0000 0.0000 1.6707 0.0000 20.9579
#
#
#
# Elastic Compliance Matrix: (Units=1/GPa)
#
#
# Indices 1 2 3 4 5 6 
#
# 1 0.009883 -0.001931 -0.004303 0.000000 0.000492 0.000000
# 2 -0.001931 0.010571 -0.002096 0.000000 0.001884 0.000000
# 3 -0.004303 -0.002096 0.014053 0.000000 -0.000008 0.000000
# 4 0.000000 0.000000 0.000000 0.028112 0.000000 -0.002241
# 5 0.000492 0.001884 -0.000008 0.000000 0.027152 0.000000
# 6 0.000000 0.000000 0.000000 -0.002241 0.000000 0.047893
#
#
# Mechanical properties :
#
#
# Convention : Reuss Voigt Hill
#
# Bulk Modulus (GPa) = 56.03317 58.55467 57.29392
# Shear Modulus (GPa) = 31.19652 33.49644 32.34648
#
# Velocity S-wave (km/s) = 3.91642 4.05822 3.98795
# Velocity P-wave (km/s) = 6.92827 7.12379 7.02671
#
# Compressibility (1/GPa) = 0.01784657
#
# Stress axis : x y z
#
# Youngs Moduli (GPa) = 101.18573 94.59547 71.15794
#
# Poissons Ratio (x) = 0.18269 0.30619
# Poissons Ratio (y) = 0.19542 0.14915
# Poissons Ratio (z) = 0.43541 0.19828
#
# Static dielectric constant tensor:
#      x y z
#    x 3.853130 0.000000 0.090790 
#    y 0.000000 3.690860 0.000000 
#    z 0.090790 0.000000 3.521380 
# 
# 
# High freq. dielectric constant tensor:
#      x y z
#    x 1.807390 0.000000 -0.001640 
#    y 0.000000 1.801050 0.000000 
#    z -0.001640 0.000000 1.797870 
# 
# From -- ./inp_files/82621.got.cif
#   From: 2010.06.25/outbox.cif.g09.slc.cpg/sg15_42_cif.got.tgz:82621.got - 2010.06.28 07:06:18.
