data_PCOD8152683
_publ_section_title
;
Structure prediction by ZEFSAII (Michael W. Deem and Ramdas Pophale) SiO2 
 PCOD8152683
Probable space group: C 2/C
;
_chemical_formula_sum "Si O2"
_cell_formula_units_Z 36
_cell_length_a 7.307270
_cell_length_b 15.677695
_cell_length_c 13.682674
_cell_angle_alpha 90.000000
_cell_angle_beta 116.292880
_cell_angle_gamma 90.000000
_cell_volume 1405.331350
_symmetry_space_group_name_H-M "C 2/C"
_symmetry_group_IT_number 15
_symmetry_cell_setting 'monoclinic'
loop_
_space_group_symop_operation_xyz
x,y,z
-x,y,1/2-z
-x,-y,-z
x,-y,1/2+z
1/2+x,1/2+y,z
1/2-x,1/2+y,1/2-z
1/2-x,1/2-y,-z
1/2+x,1/2-y,1/2+z
loop_
_atom_site_type_symbol
_atom_site_label
_atom_site_fract_x
_atom_site_fract_y
_atom_site_fract_z
Si Si1 0.678808 0.459850 0.669799
Si Si2 0.500000 0.685201 0.250000
Si Si3 0.848351 0.903804 0.046467
Si Si4 0.775689 0.807377 0.413255
Si Si5 0.038698 0.449262 0.109104
O O1 0.567845 0.372500 0.675200
O O2 0.765794 0.443026 0.579008
O O3 0.494238 0.525047 0.626313
O O4 0.859597 0.491167 0.783614
O O5 0.691023 0.748615 0.307499
O O6 0.697334 0.879138 0.100399
O O7 0.985338 0.822965 0.049526
O O8 0.750000 0.750000 0.500000
O O9 0.655741 0.898655 0.391905
O O10 0.000000 0.500000 0.000000
#
# Coordination Sequence:
#
# PCOD8152683 Si02
#       5
#     8   4   8   8   8
#     4  11  22  44  72 110 137 189 244 295 351 442
#     4  12  22  44  72 102 154 184 234 310 372 418
#     4  11  24  45  77 101 144 189 245 292 361 437
#     4  12  26  45  69 106 147 187 232 307 373 416
#     4  12  25  45  75 105 142 191 249 294 359 447
#
# _framework density 25.616734999999998
#
# number of rings (size 3 to 8) (size 9 to 14) (size 15 to 20)
#    0.000    0.444    4.444    5.333    0.000    3.556 
#    0.000    0.000    0.000    0.000    0.000    0.000 
#    0.000    0.000    0.000    0.000    0.000    0.000 
#
# Total GULP energy -223083.509719 kJ/mol
# GULP energy per Si atom -12393.528318 kJ/mol
# Density = 2.555843 g / cm^3
# Si number density = 25.616735 Si / 1000 Ang^3
#
#
#
# Elastic Constant Matrix: (Units=GPa)
#
#
# Indices 1 2 3 4 5 6 
#
# 1 110.3010 2.2878 21.8901 0.0000 -18.7468 0.0000
# 2 2.2878 83.2416 20.6067 0.0000 7.1302 0.0000
# 3 21.8901 20.6067 127.3909 0.0000 17.6786 0.0000
# 4 0.0000 0.0000 0.0000 45.3897 0.0000 -2.1426
# 5 -18.7468 7.1302 17.6786 0.0000 50.0665 0.0000
# 6 0.0000 0.0000 0.0000 -2.1426 0.0000 27.9479
#
#
#
# Elastic Compliance Matrix: (Units=1/GPa)
#
#
# Indices 1 2 3 4 5 6 
#
# 1 0.010356 -0.000091 -0.002423 0.000000 0.004746 0.000000
# 2 -0.000091 0.012575 -0.001856 0.000000 -0.001170 0.000000
# 3 -0.002423 -0.001856 0.009102 0.000000 -0.003857 0.000000
# 4 0.000000 0.000000 0.000000 0.022111 0.000000 0.001695
# 5 0.004746 -0.001170 -0.003857 0.000000 0.023279 0.000000
# 6 0.000000 0.000000 0.000000 0.001695 0.000000 0.035911
#
#
# Mechanical properties :
#
#
# Convention : Reuss Voigt Hill
#
# Bulk Modulus (GPa) = 42.93463 45.61139 44.27301
# Shear Modulus (GPa) = 38.50913 43.09076 40.79994
#
# Velocity S-wave (km/s) = 3.88142 4.10583 3.99520
# Velocity P-wave (km/s) = 6.07322 6.34989 6.21310
#
# Compressibility (1/GPa) = 0.02329122
#
# Stress axis : x y z
#
# Youngs Moduli (GPa) = 96.56620 79.52015 109.86891
#
# Poissons Ratio (x) = 0.00726 0.26625
# Poissons Ratio (y) = 0.00881 0.20394
# Poissons Ratio (z) = 0.23401 0.14760
#
# Static dielectric constant tensor:
#      x y z
#    x 5.608520 0.000000 -0.236400 
#    y 0.000000 5.253400 0.000000 
#    z -0.236400 0.000000 4.661360 
# 
# 
# High freq. dielectric constant tensor:
#      x y z
#    x 2.039870 0.000000 -0.003470 
#    y 0.000000 2.014390 0.000000 
#    z -0.003470 0.000000 2.045650 
# 
# From -- ./inp_files/77004.got.cif
#   From: 2010.06.25/outbox.cif.g09.slc.cpg/sg15_39_cif.got.tgz:77004.got - 2010.06.28 07:06:18.
