data_PCOD8152181
_publ_section_title
;
Structure prediction by ZEFSAII (Michael W. Deem and Ramdas Pophale) SiO2 
 PCOD8152181
Probable space group: C 2/C
;
_chemical_formula_sum "Si O2"
_cell_formula_units_Z 64
_cell_length_a 25.376211
_cell_length_b 7.812690
_cell_length_c 14.159299
_cell_angle_alpha 90.000000
_cell_angle_beta 74.504282
_cell_angle_gamma 90.000000
_cell_volume 2705.133097
_symmetry_space_group_name_H-M "C 2/C"
_symmetry_group_IT_number 15
_symmetry_cell_setting 'monoclinic'
loop_
_space_group_symop_operation_xyz
x,y,z
-x,y,1/2-z
-x,-y,-z
x,-y,1/2+z
1/2+x,1/2+y,z
1/2-x,1/2+y,1/2-z
1/2-x,1/2-y,-z
1/2+x,1/2-y,1/2+z
loop_
_atom_site_type_symbol
_atom_site_label
_atom_site_fract_x
_atom_site_fract_y
_atom_site_fract_z
Si Si1 0.439744 0.331411 0.989232
Si Si2 0.970101 0.330202 0.166048
Si Si3 0.697035 0.316237 0.263210
Si Si4 0.752639 0.082454 0.386987
Si Si5 0.606872 0.922346 0.712805
Si Si6 0.901001 0.016100 0.176619
Si Si7 0.054917 0.885630 0.165022
Si Si8 0.662210 0.809709 0.058567
O O1 0.484500 0.186952 0.938896
O O2 0.449913 0.511365 0.929589
O O3 0.379805 0.258313 0.999015
O O4 0.441568 0.386292 0.098501
O O5 0.942227 0.517025 0.191498
O O6 0.920038 0.209874 0.156195
O O7 0.000000 0.270784 0.250000
O O8 0.735690 0.229875 0.321128
O O9 0.736611 0.397050 0.164288
O O10 0.654646 0.174740 0.244868
O O11 0.661884 0.476369 0.324581
O O12 0.704461 0.061081 0.487071
O O13 0.807316 0.147058 0.411790
O O14 0.577882 0.808795 0.644006
O O15 0.630166 0.093330 0.656058
O O16 0.900977 0.976051 0.287949
O O17 0.000000 0.891146 0.250000
#
# Coordination Sequence:
#
# PCOD8152181 Si02
#       8
#     8   8   8   8   8   8   8   8
#     4  12  22  42  69 102 138 184 226 276 338 422
#     4  12  21  40  70  99 139 187 219 266 348 410
#     4  11  24  45  67  99 133 177 230 291 354 405
#     4  11  24  45  72  94 133 177 233 295 350 403
#     4  11  24  42  66  98 139 176 222 284 342 408
#     4  11  22  41  67  99 136 177 230 277 338 418
#     4  11  22  39  60  95 136 180 223 267 328 404
#     4  11  23  43  69 100 132 178 232 286 342 413
#
# _framework density 23.658726000000001
#
# number of rings (size 3 to 8) (size 9 to 14) (size 15 to 20)
#    0.000    0.750    5.000    3.750    0.000    0.500 
#    4.500    2.500    0.000    0.000    0.000    0.000 
#    0.000    0.000    0.000    0.000    0.000    0.000 
#
# Total GULP energy -396582.639928 kJ/mol
# GULP energy per Si atom -12393.207498 kJ/mol
# Density = 2.360488 g / cm^3
# Si number density = 23.658726 Si / 1000 Ang^3
#
#
#
# Elastic Constant Matrix: (Units=GPa)
#
#
# Indices 1 2 3 4 5 6 
#
# 1 83.5991 37.9519 0.2484 0.0000 -8.9537 0.0000
# 2 37.9519 69.8222 0.9644 0.0000 -3.4183 0.0000
# 3 0.2484 0.9644 43.3488 0.0000 -5.3093 0.0000
# 4 0.0000 0.0000 0.0000 29.4957 0.0000 -3.8415
# 5 -8.9537 -3.4183 -5.3093 0.0000 29.5301 0.0000
# 6 0.0000 0.0000 0.0000 -3.8415 0.0000 50.2122
#
#
#
# Elastic Compliance Matrix: (Units=1/GPa)
#
#
# Indices 1 2 3 4 5 6 
#
# 1 0.016340 -0.008691 0.000596 0.000000 0.004056 0.000000
# 2 -0.008691 0.019027 -0.000436 0.000000 -0.000511 0.000000
# 3 0.000596 -0.000436 0.023611 0.000000 0.004375 0.000000
# 4 0.000000 0.000000 0.000000 0.034244 0.000000 0.002620
# 5 0.004056 -0.000511 0.004375 0.000000 0.035821 0.000000
# 6 0.000000 0.000000 0.000000 0.002620 0.000000 0.020116
#
#
# Mechanical properties :
#
#
# Convention : Reuss Voigt Hill
#
# Bulk Modulus (GPa) = 23.85711 30.56662 27.21187
# Shear Modulus (GPa) = 27.74793 32.35464 30.05129
#
# Velocity S-wave (km/s) = 3.42839 3.70206 3.56785
# Velocity P-wave (km/s) = 5.07716 5.58762 5.33850
#
# Compressibility (1/GPa) = 0.04191622
#
# Stress axis : x y z
#
# Youngs Moduli (GPa) = 61.19916 52.55616 42.35333
#
# Poissons Ratio (x) = 0.45678 -0.02526
# Poissons Ratio (y) = 0.53190 0.01847
# Poissons Ratio (z) = -0.03650 0.02292
#
# Static dielectric constant tensor:
#      x y z
#    x 4.604960 0.000000 -0.078850 
#    y 0.000000 4.222560 0.000000 
#    z -0.078850 0.000000 4.327730 
# 
# 
# High freq. dielectric constant tensor:
#      x y z
#    x 1.951700 0.000000 -0.013240 
#    y 0.000000 1.922140 0.000000 
#    z -0.013240 0.000000 1.923090 
# 
# From -- ./inp_files/176587.got.cif
#   From: 2010.06.25/outbox.cif.g09.slc.cpg/sg15_89_cif.got.tgz:176587.got - 2010.06.28 07:06:18.
