data_PCOD8152300
_publ_section_title
;
Structure prediction by ZEFSAII (Michael W. Deem and Ramdas Pophale) SiO2 
 PCOD8152300
Probable space group: C 2/C
;
_chemical_formula_sum "Si O2"
_cell_formula_units_Z 32
_cell_length_a 17.281811
_cell_length_b 9.696001
_cell_length_c 8.620386
_cell_angle_alpha 90.000000
_cell_angle_beta 101.466474
_cell_angle_gamma 90.000000
_cell_volume 1415.640396
_symmetry_space_group_name_H-M "C 2/C"
_symmetry_group_IT_number 15
_symmetry_cell_setting 'monoclinic'
loop_
_space_group_symop_operation_xyz
x,y,z
-x,y,1/2-z
-x,-y,-z
x,-y,1/2+z
1/2+x,1/2+y,z
1/2-x,1/2+y,1/2-z
1/2-x,1/2-y,-z
1/2+x,1/2-y,1/2+z
loop_
_atom_site_type_symbol
_atom_site_label
_atom_site_fract_x
_atom_site_fract_y
_atom_site_fract_z
Si Si1 0.335675 0.681856 0.045797
Si Si2 0.849306 0.352082 0.592311
Si Si3 0.174342 0.894588 0.613306
Si Si4 0.082107 0.427098 0.569758
O O1 0.356740 0.633098 0.226788
O O2 0.250000 0.750000 0.000000
O O3 0.339502 0.553311 0.930707
O O4 0.404439 0.787121 0.021906
O O5 0.870936 0.203096 0.528532
O O6 0.765705 0.350017 0.644638
O O7 0.914075 0.394643 0.746010
O O8 0.849255 0.464712 0.453497
O O9 0.000000 0.500000 0.500000
#
# Coordination Sequence:
#
# PCOD8152300 Si02
#       4
#     8   8   8   8
#     4  12  23  41  68 103 142 179 240 302 353 416
#     4  11  22  40  66 101 141 183 239 297 352 418
#     4  11  23  39  70 105 137 182 243 305 353 403
#     4  12  25  42  66 100 143 191 230 282 363 438
#
# _framework density 22.604610000000001
#
# number of rings (size 3 to 8) (size 9 to 14) (size 15 to 20)
#    0.000    0.500    5.000    3.750    3.500    0.000 
#    0.000    1.250    0.000    3.000    0.000    0.000 
#    0.000    0.000    0.000    0.000    0.000    0.000 
#
# Total GULP energy -198452.621640 kJ/mol
# GULP energy per Si atom -12403.288852 kJ/mol
# Density = 2.255316 g / cm^3
# Si number density = 22.604610 Si / 1000 Ang^3
#
#
#
# Elastic Constant Matrix: (Units=GPa)
#
#
# Indices 1 2 3 4 5 6 
#
# 1 55.7247 44.5484 45.8057 0.0000 3.4230 0.0000
# 2 44.5484 197.7407 75.0173 0.0000 -4.4444 0.0000
# 3 45.8057 75.0173 152.1667 0.0000 2.7859 0.0000
# 4 0.0000 0.0000 0.0000 52.6345 0.0000 -6.1807
# 5 3.4230 -4.4444 2.7859 0.0000 27.2403 0.0000
# 6 0.0000 0.0000 0.0000 -6.1807 0.0000 40.6173
#
#
#
# Elastic Compliance Matrix: (Units=1/GPa)
#
#
# Indices 1 2 3 4 5 6 
#
# 1 0.025966 -0.003666 -0.005950 0.000000 -0.003253 0.000000
# 2 -0.003666 0.006787 -0.002275 0.000000 0.001801 0.000000
# 3 -0.005950 -0.002275 0.009495 0.000000 -0.000595 0.000000
# 4 0.000000 0.000000 0.000000 0.019345 0.000000 0.002944
# 5 -0.003253 0.001801 -0.000595 0.000000 0.037474 0.000000
# 6 0.000000 0.000000 0.000000 0.002944 0.000000 0.025068
#
#
# Mechanical properties :
#
#
# Convention : Reuss Voigt Hill
#
# Bulk Modulus (GPa) = 54.15130 81.81943 67.98536
# Shear Modulus (GPa) = 32.45245 40.11582 36.28414
#
# Velocity S-wave (km/s) = 3.79312 4.21726 4.01080
# Velocity P-wave (km/s) = 6.57203 7.74520 7.18261
#
# Compressibility (1/GPa) = 0.01846678
#
# Stress axis : x y z
#
# Youngs Moduli (GPa) = 38.51132 147.34867 105.31531
#
# Poissons Ratio (x) = 0.54016 0.62659
# Poissons Ratio (y) = 0.14118 0.23962
# Poissons Ratio (z) = 0.22913 0.33525
#
# Static dielectric constant tensor:
#      x y z
#    x 3.712160 0.000000 -0.297890 
#    y 0.000000 4.364880 0.000000 
#    z -0.297890 0.000000 4.283000 
# 
# 
# High freq. dielectric constant tensor:
#      x y z
#    x 1.853930 0.000000 -0.020420 
#    y 0.000000 1.910010 0.000000 
#    z -0.020420 0.000000 1.906780 
# 
# From -- ./inp_files/53397.got.cif
#   From: 2010.06.25/outbox.cif.g09.slc.cpg/sg15_27_cif.got.tgz:53397.got - 2010.06.28 07:06:18.
