data_PCOD8152930
_publ_section_title
;
Structure prediction by ZEFSAII (Michael W. Deem and Ramdas Pophale) SiO2 
 PCOD8152930
Probable space group: C 2/C
;
_chemical_formula_sum "Si O2"
_cell_formula_units_Z 40
_cell_length_a 27.040734
_cell_length_b 9.084504
_cell_length_c 8.733589
_cell_angle_alpha 90.000000
_cell_angle_beta 123.678882
_cell_angle_gamma 90.000000
_cell_volume 1785.330139
_symmetry_space_group_name_H-M "C 2/C"
_symmetry_group_IT_number 15
_symmetry_cell_setting 'monoclinic'
loop_
_space_group_symop_operation_xyz
x,y,z
-x,y,1/2-z
-x,-y,-z
x,-y,1/2+z
1/2+x,1/2+y,z
1/2-x,1/2+y,1/2-z
1/2-x,1/2-y,-z
1/2+x,1/2-y,1/2+z
loop_
_atom_site_type_symbol
_atom_site_label
_atom_site_fract_x
_atom_site_fract_y
_atom_site_fract_z
Si Si1 0.648757 0.643846 0.150911
Si Si2 0.360867 0.800493 0.841833
Si Si3 0.662383 0.928735 0.362446
Si Si4 0.044722 0.947233 0.952404
Si Si5 0.289814 0.575955 0.547129
O O1 0.649089 0.811496 0.205989
O O2 0.660683 0.544239 0.320985
O O3 0.585500 0.588188 0.973897
O O4 0.699651 0.620172 0.110883
O O5 0.299669 0.719980 0.674872
O O6 0.378239 0.930857 0.752861
O O7 0.350038 0.863934 0.992369
O O8 0.415059 0.689426 0.928085
O O9 0.728709 0.990477 0.463747
O O10 0.000000 0.886438 0.750000
O O11 0.000000 0.000000 0.000000
#
# Coordination Sequence:
#
# PCOD8152930 Si02
#       5
#     8   8   8   8   8
#     4  11  23  41  66  97 128 173 224 265 318 392
#     4  11  25  43  65  99 132 175 223 264 326 396
#     4  12  24  42  66 100 141 172 210 273 323 386
#     4  11  23  45  69  89 121 168 222 276 327 386
#     4  11  23  41  63  95 138 180 211 252 322 402
#
# _framework density 22.404819
#
# number of rings (size 3 to 8) (size 9 to 14) (size 15 to 20)
#    0.000    0.800    0.000    9.600    0.000    4.800 
#    0.000    5.000    0.000    0.000    0.000    0.000 
#    0.000    0.000    0.000    0.000    0.000    0.000 
#
# Total GULP energy -247872.991625 kJ/mol
# GULP energy per Si atom -12393.649581 kJ/mol
# Density = 2.235382 g / cm^3
# Si number density = 22.404819 Si / 1000 Ang^3
#
#
#
# Elastic Constant Matrix: (Units=GPa)
#
#
# Indices 1 2 3 4 5 6 
#
# 1 120.0428 59.1369 48.1359 0.0000 -10.1304 0.0000
# 2 59.1369 178.9582 71.4993 0.0000 5.2352 0.0000
# 3 48.1359 71.4993 120.4115 0.0000 -6.3063 0.0000
# 4 0.0000 0.0000 0.0000 41.5854 0.0000 -8.1454
# 5 -10.1304 5.2352 -6.3063 0.0000 27.2574 0.0000
# 6 0.0000 0.0000 0.0000 -8.1454 0.0000 33.3634
#
#
#
# Elastic Compliance Matrix: (Units=1/GPa)
#
#
# Indices 1 2 3 4 5 6 
#
# 1 0.011056 -0.002740 -0.002581 0.000000 0.004038 0.000000
# 2 -0.002740 0.008169 -0.003939 0.000000 -0.003499 0.000000
# 3 -0.002581 -0.003939 0.011808 0.000000 0.002529 0.000000
# 4 0.000000 0.000000 0.000000 0.025255 0.000000 0.006166
# 5 0.004038 -0.003499 0.002529 0.000000 0.039445 0.000000
# 6 0.000000 0.000000 0.000000 0.006166 0.000000 0.031478
#
#
# Mechanical properties :
#
#
# Convention : Reuss Voigt Hill
#
# Bulk Modulus (GPa) = 79.91619 86.32853 83.12236
# Shear Modulus (GPa) = 33.35487 36.48392 34.91940
#
# Velocity S-wave (km/s) = 3.86260 4.03972 3.95215
# Velocity P-wave (km/s) = 7.45919 7.77007 7.61622
#
# Compressibility (1/GPa) = 0.01251311
#
# Stress axis : x y z
#
# Youngs Moduli (GPa) = 90.44727 122.40719 84.68917
#
# Poissons Ratio (x) = 0.33545 0.21859
# Poissons Ratio (y) = 0.24786 0.33356
# Poissons Ratio (z) = 0.23345 0.48212
#
# Static dielectric constant tensor:
#      x y z
#    x 3.787220 0.000000 0.083390 
#    y 0.000000 4.995240 0.000000 
#    z 0.083390 0.000000 4.522460 
# 
# 
# High freq. dielectric constant tensor:
#      x y z
#    x 1.859200 0.000000 -0.006320 
#    y 0.000000 1.904210 0.000000 
#    z -0.006320 0.000000 1.901320 
# 
# From -- ./inp_files/64535.got.cif
#   From: 2010.06.25/outbox.cif.g09.slc.cpg/sg15_33_cif.got.tgz:64535.got - 2010.06.28 07:06:18.
