data_PCOD8152251
_publ_section_title
;
Structure prediction by ZEFSAII (Michael W. Deem and Ramdas Pophale) SiO2 
 PCOD8152251
Probable space group: C 2/C
;
_chemical_formula_sum "Si O2"
_cell_formula_units_Z 64
_cell_length_a 23.723524
_cell_length_b 12.023389
_cell_length_c 11.404707
_cell_angle_alpha 90.000000
_cell_angle_beta 64.905845
_cell_angle_gamma 90.000000
_cell_volume 2945.997905
_symmetry_space_group_name_H-M "C 2/C"
_symmetry_group_IT_number 15
_symmetry_cell_setting 'monoclinic'
loop_
_space_group_symop_operation_xyz
x,y,z
-x,y,1/2-z
-x,-y,-z
x,-y,1/2+z
1/2+x,1/2+y,z
1/2-x,1/2+y,1/2-z
1/2-x,1/2-y,-z
1/2+x,1/2-y,1/2+z
loop_
_atom_site_type_symbol
_atom_site_label
_atom_site_fract_x
_atom_site_fract_y
_atom_site_fract_z
Si Si1 0.071382 0.189940 0.666826
Si Si2 0.569452 0.837193 0.224094
Si Si3 0.832489 0.030573 0.807752
Si Si4 0.248447 0.320763 0.232428
Si Si5 0.348562 0.845807 0.560939
Si Si6 0.887458 0.583477 0.266238
Si Si7 0.628761 0.311349 0.865104
Si Si8 0.726439 0.024408 0.546177
O O1 0.111852 0.116248 0.720764
O O2 0.080383 0.319598 0.687652
O O3 0.091160 0.163259 0.516584
O O4 0.000000 0.156123 0.750000
O O5 0.500000 0.809408 0.250000
O O6 0.610601 0.794278 0.079310
O O7 0.586293 0.770461 0.326011
O O8 0.578415 0.969056 0.232733
O O9 0.772842 0.082090 0.794215
O O10 0.858978 0.924892 0.715990
O O11 0.799951 0.000298 0.962140
O O12 0.194480 0.246908 0.339878
O O13 0.218967 0.371098 0.140168
O O14 0.309317 0.251222 0.152236
O O15 0.393348 0.896564 0.621812
O O16 0.303127 0.941231 0.552431
O O17 0.813632 0.578072 0.365777
#
# Coordination Sequence:
#
# PCOD8152251 Si02
#       8
#     8   8   8   8   8   8   8   8
#     4  12  30  50  68 101 143 192 243 292 352 427
#     4  11  27  44  72 105 140 197 241 290 344 428
#     4  12  26  43  73 105 139 191 231 294 360 426
#     4  12  22  42  69 105 143 176 232 290 366 420
#     4  11  22  40  69 101 143 184 224 287 358 416
#     4  11  24  44  70 106 141 189 230 297 358 421
#     4  12  27  47  75 105 141 188 236 300 356 425
#     4  11  22  39  69 109 140 178 229 290 356 425
#
# _framework density 21.724388999999999
#
# number of rings (size 3 to 8) (size 9 to 14) (size 15 to 20)
#    0.000    0.500    5.000    3.750    7.000    2.500 
#    0.000    0.000    0.000    0.000    0.000    0.000 
#    0.000    0.000    0.000    0.000    0.000    0.000 
#
# Total GULP energy -396895.607516 kJ/mol
# GULP energy per Si atom -12402.987735 kJ/mol
# Density = 2.167494 g / cm^3
# Si number density = 21.724389 Si / 1000 Ang^3
#
#
#
# Elastic Constant Matrix: (Units=GPa)
#
#
# Indices 1 2 3 4 5 6 
#
# 1 111.3557 39.0827 39.7329 0.0000 -14.8412 0.0000
# 2 39.0827 100.5773 26.1611 0.0000 -4.0944 0.0000
# 3 39.7329 26.1611 110.2153 0.0000 -8.5531 0.0000
# 4 0.0000 0.0000 0.0000 19.7105 0.0000 0.9729
# 5 -14.8412 -4.0944 -8.5531 0.0000 35.4589 0.0000
# 6 0.0000 0.0000 0.0000 0.9729 0.0000 27.3513
#
#
#
# Elastic Compliance Matrix: (Units=1/GPa)
#
#
# Indices 1 2 3 4 5 6 
#
# 1 0.011882 -0.003650 -0.003122 0.000000 0.003798 0.000000
# 2 -0.003650 0.011732 -0.001511 0.000000 -0.000537 0.000000
# 3 -0.003122 -0.001511 0.010641 0.000000 0.001086 0.000000
# 4 0.000000 0.000000 0.000000 0.050824 0.000000 -0.001808
# 5 0.003798 -0.000537 0.001086 0.000000 0.029991 0.000000
# 6 0.000000 0.000000 0.000000 -0.001808 0.000000 0.036626
#
#
# Mechanical properties :
#
#
# Convention : Reuss Voigt Hill
#
# Bulk Modulus (GPa) = 56.53144 59.12240 57.82692
# Shear Modulus (GPa) = 28.70956 30.98225 29.84590
#
# Velocity S-wave (km/s) = 3.63924 3.78054 3.71056
# Velocity P-wave (km/s) = 6.61342 6.80665 6.71073
#
# Compressibility (1/GPa) = 0.01768927
#
# Stress axis : x y z
#
# Youngs Moduli (GPa) = 84.16353 85.23650 93.97177
#
# Poissons Ratio (x) = 0.31114 0.29339
# Poissons Ratio (y) = 0.30722 0.14195
# Poissons Ratio (z) = 0.26277 0.12875
#
# Static dielectric constant tensor:
#      x y z
#    x 3.913340 0.000000 0.030810 
#    y 0.000000 3.857480 0.000000 
#    z 0.030810 0.000000 4.068420 
# 
# 
# High freq. dielectric constant tensor:
#      x y z
#    x 1.850880 0.000000 0.003390 
#    y 0.000000 1.852750 0.000000 
#    z 0.003390 0.000000 1.862500 
# 
# From -- ./inp_files/117981.got.cif
#   From: 2010.06.25/outbox.cif.g09.slc.cpg/sg15_59_cif.got.tgz:117981.got - 2010.06.28 07:06:18.
