data_PCOD8152919
_publ_section_title
;
Structure prediction by ZEFSAII (Michael W. Deem and Ramdas Pophale) SiO2 
 PCOD8152919
Probable space group: C 2/C
;
_chemical_formula_sum "Si O2"
_cell_formula_units_Z 48
_cell_length_a 13.451057
_cell_length_b 14.033901
_cell_length_c 29.386728
_cell_angle_alpha 90.000000
_cell_angle_beta 156.030438
_cell_angle_gamma 90.000000
_cell_volume 2253.620514
_symmetry_space_group_name_H-M "C 2/C"
_symmetry_group_IT_number 15
_symmetry_cell_setting 'monoclinic'
loop_
_space_group_symop_operation_xyz
x,y,z
-x,y,1/2-z
-x,-y,-z
x,-y,1/2+z
1/2+x,1/2+y,z
1/2-x,1/2+y,1/2-z
1/2-x,1/2-y,-z
1/2+x,1/2-y,1/2+z
loop_
_atom_site_type_symbol
_atom_site_label
_atom_site_fract_x
_atom_site_fract_y
_atom_site_fract_z
Si Si1 0.937579 0.114730 0.275393
Si Si2 0.617143 0.192597 0.983260
Si Si3 0.385359 0.001337 0.653330
Si Si4 0.036827 0.229531 0.617043
Si Si5 0.264449 0.926924 0.275550
Si Si6 0.990896 0.154140 0.500222
O O1 0.702496 0.176471 0.193363
O O2 0.000000 0.139122 0.250000
O O3 0.175492 0.137550 0.403446
O O4 0.900079 0.002426 0.266538
O O5 0.434253 0.117770 0.884935
O O6 0.750000 0.250000 0.000000
O O7 0.463911 0.259433 0.953581
O O8 0.500000 0.020492 0.750000
O O9 0.588933 0.012278 0.700333
O O10 0.177142 0.079009 0.555789
O O11 0.273824 0.894937 0.603923
O O12 0.101591 0.153423 0.683132
O O13 0.750000 0.250000 0.500000
O O14 0.098382 0.187506 0.593325
#
# Coordination Sequence:
#
# PCOD8152919 Si02
#       6
#     8   8   8   8   8   8
#     4  12  28  49  76 103 146 197 237 295 367 431
#     4  12  25  45  75 104 141 188 245 293 361 426
#     4  11  23  40  72 106 141 175 237 299 357 411
#     4  12  26  47  72 107 149 192 240 295 363 428
#     4  12  28  45  74 109 145 186 246 300 350 433
#     4  11  24  42  70 104 138 185 232 297 354 420
#
# _framework density 21.299060999999998
#
# number of rings (size 3 to 8) (size 9 to 14) (size 15 to 20)
#    0.000    0.333    6.667    1.000    7.000    3.333 
#    0.000    0.000    0.000    0.000    0.000    0.000 
#    0.000    0.000    0.000    0.000    0.000    0.000 
#
# Total GULP energy -297722.339820 kJ/mol
# GULP energy per Si atom -12405.097492 kJ/mol
# Density = 2.125058 g / cm^3
# Si number density = 21.299061 Si / 1000 Ang^3
#
#
#
# Elastic Constant Matrix: (Units=GPa)
#
#
# Indices 1 2 3 4 5 6 
#
# 1 62.1237 45.3477 58.8215 -0.0039 -7.7039 -0.0049
# 2 45.3477 141.0363 79.1883 0.0008 -3.6593 -0.0016
# 3 58.8215 79.1883 154.7990 -0.0006 -10.6587 -0.0121
# 4 -0.0039 0.0008 -0.0006 34.1993 -0.0010 0.7720
# 5 -7.7039 -3.6593 -10.6587 -0.0010 36.3369 -0.0007
# 6 -0.0049 -0.0016 -0.0121 0.7720 -0.0007 34.1096
#
#
#
# Elastic Compliance Matrix: (Units=1/GPa)
#
#
# Indices 1 2 3 4 5 6 
#
# 1 0.027010 -0.004153 -0.007934 0.000003 0.002981 0.000001
# 2 -0.004153 0.010595 -0.003908 -0.000001 -0.000960 -0.000001
# 3 -0.007934 -0.003908 0.011565 -0.000001 0.001317 0.000003
# 4 0.000003 -0.000001 -0.000001 0.029255 0.000001 -0.000662
# 5 0.002981 -0.000960 0.001317 0.000001 0.028442 0.000001
# 6 0.000001 -0.000001 0.000003 -0.000662 0.000001 0.029332
#
#
# Mechanical properties :
#
#
# Convention : Reuss Voigt Hill
#
# Bulk Modulus (GPa) = 58.20565 80.51933 69.36249
# Shear Modulus (GPa) = 28.74975 32.56927 30.65951
#
# Velocity S-wave (km/s) = 3.67797 3.91467 3.79816
# Velocity P-wave (km/s) = 6.73971 7.63669 7.20218
#
# Compressibility (1/GPa) = 0.01718046
#
# Stress axis : x y z
#
# Youngs Moduli (GPa) = 37.02348 94.38481 86.47072
#
# Poissons Ratio (x) = 0.39193 0.68605
# Poissons Ratio (y) = 0.15374 0.33793
# Poissons Ratio (z) = 0.29374 0.36886
#
# Static dielectric constant tensor:
#      x y z
#    x 3.863750 -0.000020 -0.110390 
#    y -0.000020 3.998540 -0.000010 
#    z -0.110390 -0.000010 3.820740 
# 
# 
# High freq. dielectric constant tensor:
#      x y z
#    x 1.839300 0.000000 -0.009350 
#    y 0.000000 1.844130 0.000000 
#    z -0.009350 0.000000 1.844860 
# 
# From -- ./inp_files/314127.got.cif
#   From: 2010.06.25/outbox.cif.g09.slc.cpg/sg15_158_cif.got.tgz:314127.got - 2010.06.28 07:06:18.
