data_PCOD8152142
_publ_section_title
;
Structure prediction by ZEFSAII (Michael W. Deem and Ramdas Pophale) SiO2 
 PCOD8152142
Probable space group: C 2/C
;
_chemical_formula_sum "Si O2"
_cell_formula_units_Z 36
_cell_length_a 19.836847
_cell_length_b 7.977217
_cell_length_c 13.083866
_cell_angle_alpha 90.000000
_cell_angle_beta 123.005539
_cell_angle_gamma 90.000000
_cell_volume 1736.298026
_symmetry_space_group_name_H-M "C 2/C"
_symmetry_group_IT_number 15
_symmetry_cell_setting 'monoclinic'
loop_
_space_group_symop_operation_xyz
x,y,z
-x,y,1/2-z
-x,-y,-z
x,-y,1/2+z
1/2+x,1/2+y,z
1/2-x,1/2+y,1/2-z
1/2-x,1/2-y,-z
1/2+x,1/2-y,1/2+z
loop_
_atom_site_type_symbol
_atom_site_label
_atom_site_fract_x
_atom_site_fract_y
_atom_site_fract_z
Si Si1 0.178011 0.084925 0.045028
Si Si2 0.546440 0.339471 0.920411
Si Si3 0.350009 0.174063 0.147705
Si Si4 0.400622 0.455210 0.332275
Si Si5 0.500000 0.042127 0.750000
O O1 0.273351 0.056967 0.109065
O O2 0.156265 0.081933 0.148327
O O3 0.153496 0.262844 0.973061
O O4 0.127242 0.935104 0.947562
O O5 0.465051 0.438602 0.818850
O O6 0.541252 0.152927 0.872388
O O7 0.549097 0.336076 0.046851
O O8 0.346111 0.339750 0.215402
O O9 0.430570 0.073513 0.239200
#
# Coordination Sequence:
#
# PCOD8152142 Si02
#       5
#     8   8   8   8   4
#     4   9  21  42  59  85 115 162 186 242 290 354
#     4   9  20  40  59  84 116 159 190 231 298 339
#     4  11  22  38  61  90 119 149 199 242 289 333
#     4   9  20  42  62  81 114 167 188 232 293 360
#     4  12  24  34  60  94 116 152 196 250 276 350
#
# _framework density 20.733768000000001
#
# number of rings (size 3 to 8) (size 9 to 14) (size 15 to 20)
#    1.333    0.889    0.000    2.667    0.000    3.556 
#    8.000    0.000    0.000    0.000    0.000    0.000 
#    0.000    0.000    0.000    0.000    0.000    0.000 
#
# Total GULP energy -223056.820842 kJ/mol
# GULP energy per Si atom -12392.045602 kJ/mol
# Density = 2.068658 g / cm^3
# Si number density = 20.733768 Si / 1000 Ang^3
#
#
#
# Elastic Constant Matrix: (Units=GPa)
#
#
# Indices 1 2 3 4 5 6 
#
# 1 158.3004 66.6968 42.8463 0.0000 27.1141 0.0000
# 2 66.6968 78.6178 29.9741 0.0000 5.2777 0.0000
# 3 42.8463 29.9741 49.7320 0.0000 13.9810 0.0000
# 4 0.0000 0.0000 0.0000 34.8715 0.0000 4.8949
# 5 27.1141 5.2777 13.9810 0.0000 33.7925 0.0000
# 6 0.0000 0.0000 0.0000 4.8949 0.0000 36.6170
#
#
#
# Elastic Compliance Matrix: (Units=1/GPa)
#
#
# Indices 1 2 3 4 5 6 
#
# 1 0.011927 -0.008410 -0.003266 0.000000 -0.006905 0.000000
# 2 -0.008410 0.022536 -0.008198 0.000000 0.006620 0.000000
# 3 -0.003266 -0.008198 0.030289 0.000000 -0.008631 0.000000
# 4 0.000000 0.000000 0.000000 0.029225 0.000000 -0.003907
# 5 -0.006905 0.006620 -0.008631 0.000000 0.037670 0.000000
# 6 0.000000 0.000000 0.000000 -0.003907 0.000000 0.027832
#
#
# Mechanical properties :
#
#
# Convention : Reuss Voigt Hill
#
# Bulk Modulus (GPa) = 39.99335 62.85384 51.42360
# Shear Modulus (GPa) = 24.08930 30.86507 27.47718
#
# Velocity S-wave (km/s) = 3.41227 3.86247 3.64433
# Velocity P-wave (km/s) = 5.90387 7.09028 6.52410
#
# Compressibility (1/GPa) = 0.02500415
#
# Stress axis : x y z
#
# Youngs Moduli (GPa) = 83.84220 44.37392 33.01553
#
# Poissons Ratio (x) = 0.37318 0.10782
# Poissons Ratio (y) = 0.70511 0.27067
# Poissons Ratio (z) = 0.27380 0.36378
#
# Static dielectric constant tensor:
#      x y z
#    x 3.634770 0.000000 0.047500 
#    y 0.000000 3.364800 0.000000 
#    z 0.047500 0.000000 3.590040 
# 
# 
# High freq. dielectric constant tensor:
#      x y z
#    x 1.807960 0.000000 0.005130 
#    y 0.000000 1.778050 0.000000 
#    z 0.005130 0.000000 1.810950 
# 
# From -- ./inp_files/165501.got.cif
#   From: 2010.06.25/outbox.cif.g09.slc.cpg/sg15_83_cif.got.tgz:165501.got - 2010.06.28 07:06:18.
