data_PCOD8152292
_publ_section_title
;
Structure prediction by ZEFSAII (Michael W. Deem and Ramdas Pophale) SiO2 
 PCOD8152292
Probable space group: C 2/C
;
_chemical_formula_sum "Si O2"
_cell_formula_units_Z 56
_cell_length_a 11.572291
_cell_length_b 11.338089
_cell_length_c 26.167996
_cell_angle_alpha 90.000000
_cell_angle_beta 54.550929
_cell_angle_gamma 90.000000
_cell_volume 2796.989288
_symmetry_space_group_name_H-M "C 2/C"
_symmetry_group_IT_number 15
_symmetry_cell_setting 'monoclinic'
loop_
_space_group_symop_operation_xyz
x,y,z
-x,y,1/2-z
-x,-y,-z
x,-y,1/2+z
1/2+x,1/2+y,z
1/2-x,1/2+y,1/2-z
1/2-x,1/2-y,-z
1/2+x,1/2-y,1/2+z
loop_
_atom_site_type_symbol
_atom_site_label
_atom_site_fract_x
_atom_site_fract_y
_atom_site_fract_z
Si Si1 0.524852 0.736931 0.074667
Si Si2 0.625582 0.052799 0.933799
Si Si3 0.775938 0.881702 0.825341
Si Si4 0.689231 0.624899 0.526195
Si Si5 0.371790 0.630758 0.627716
Si Si6 0.563245 0.573255 0.314727
Si Si7 0.230086 0.092899 0.952197
O O1 0.412955 0.817044 0.074203
O O2 0.434758 0.664294 0.139049
O O3 0.639758 0.818804 0.072975
O O4 0.593764 0.648117 0.016041
O O5 0.769148 0.067538 0.929879
O O6 0.653756 0.967897 0.878239
O O7 0.500000 0.000000 0.000000
O O8 0.714468 0.750366 0.840613
O O9 0.810494 0.905538 0.757537
O O10 0.912803 0.908105 0.825346
O O11 0.750000 0.750000 0.500000
O O12 0.524341 0.649924 0.564071
O O13 0.755349 0.536376 0.467760
O O14 0.395528 0.555247 0.673154
O O15 0.286354 0.568449 0.603805
#
# Coordination Sequence:
#
# PCOD8152292 Si02
#       7
#     8   8   8   8   8   8   8
#     4  11  22  40  66  95 132 176 223 269 336 406
#     4  12  23  41  67  98 137 172 221 285 342 394
#     4  11  25  47  68  95 134 181 227 280 336 409
#     4  12  24  38  61 103 138 170 213 280 345 397
#     4  12  24  43  69  97 133 173 225 276 338 398
#     4  11  25  46  68  94 132 183 232 271 336 411
#     4  11  22  40  65  96 134 172 220 275 336 401
#
# _framework density 20.021529000000001
#
# number of rings (size 3 to 8) (size 9 to 14) (size 15 to 20)
#    0.000    0.571    5.714    3.000    4.000    0.000 
#    0.000    0.000    0.000    1.714    0.000    0.000 
#    0.000    0.000    0.000    0.000    0.000    0.000 
#
# Total GULP energy -347046.873991 kJ/mol
# GULP energy per Si atom -12394.531214 kJ/mol
# Density = 1.997596 g / cm^3
# Si number density = 20.021529 Si / 1000 Ang^3
#
#
#
# Elastic Constant Matrix: (Units=GPa)
#
#
# Indices 1 2 3 4 5 6 
#
# 1 58.4282 19.4798 -6.5049 0.0000 5.9442 0.0000
# 2 19.4798 137.1427 34.0606 0.0000 3.9922 0.0000
# 3 -6.5049 34.0606 68.7123 0.0000 -7.2125 0.0000
# 4 0.0000 0.0000 0.0000 28.0946 0.0000 5.9823
# 5 5.9442 3.9922 -7.2125 0.0000 24.2627 0.0000
# 6 0.0000 0.0000 0.0000 5.9823 0.0000 34.2437
#
#
#
# Elastic Compliance Matrix: (Units=1/GPa)
#
#
# Indices 1 2 3 4 5 6 
#
# 1 0.018908 -0.003372 0.003131 0.000000 -0.003147 0.000000
# 2 -0.003372 0.009089 -0.005052 0.000000 -0.002171 0.000000
# 3 0.003131 -0.005052 0.017920 0.000000 0.005391 0.000000
# 4 0.000000 0.000000 0.000000 0.036969 0.000000 -0.006458
# 5 -0.003147 -0.002171 0.005391 0.000000 0.043946 0.000000
# 6 0.000000 0.000000 0.000000 -0.006458 0.000000 0.030331
#
#
# Mechanical properties :
#
#
# Convention : Reuss Voigt Hill
#
# Bulk Modulus (GPa) = 28.30403 39.81712 34.06058
# Shear Modulus (GPa) = 27.85114 31.80337 29.82725
#
# Velocity S-wave (km/s) = 3.73374 3.98987 3.86393
# Velocity P-wave (km/s) = 5.72322 6.41527 6.07910
#
# Compressibility (1/GPa) = 0.03533066
#
# Stress axis : x y z
#
# Youngs Moduli (GPa) = 52.88804 110.02815 55.80307
#
# Poissons Ratio (x) = 0.37098 -0.17472
# Poissons Ratio (y) = 0.17832 0.28193
# Poissons Ratio (z) = -0.16559 0.55590
#
# Static dielectric constant tensor:
#      x y z
#    x 3.287570 0.000000 0.152120 
#    y 0.000000 3.713780 0.000000 
#    z 0.152120 0.000000 3.737270 
# 
# 
# High freq. dielectric constant tensor:
#      x y z
#    x 1.782970 0.000000 0.009760 
#    y 0.000000 1.792140 0.000000 
#    z 0.009760 0.000000 1.776330 
# 
# From -- ./inp_files/268495.got.cif
#   From: 2010.06.25/outbox.cif.g09.slc.cpg/sg15_135_cif.got.tgz:268495.got - 2010.06.28 07:06:18.
