data_PCOD8152531
_publ_section_title
;
Structure prediction by ZEFSAII (Michael W. Deem and Ramdas Pophale) SiO2 
 PCOD8152531
Probable space group: C 2/C
;
_chemical_formula_sum "Si O2"
_cell_formula_units_Z 48
_cell_length_a 17.601987
_cell_length_b 14.591611
_cell_length_c 17.130871
_cell_angle_alpha 90.000000
_cell_angle_beta 31.300520
_cell_angle_gamma 90.000000
_cell_volume 2285.874565
_symmetry_space_group_name_H-M "C 2/C"
_symmetry_group_IT_number 15
_symmetry_cell_setting 'monoclinic'
loop_
_space_group_symop_operation_xyz
x,y,z
-x,y,1/2-z
-x,-y,-z
x,-y,1/2+z
1/2+x,1/2+y,z
1/2-x,1/2+y,1/2-z
1/2-x,1/2-y,-z
1/2+x,1/2-y,1/2+z
loop_
_atom_site_type_symbol
_atom_site_label
_atom_site_fract_x
_atom_site_fract_y
_atom_site_fract_z
Si Si1 0.002667 0.662086 0.408759
Si Si2 0.612145 0.467337 0.091601
Si Si3 0.407102 0.015956 0.909081
Si Si4 0.513236 0.657182 0.329152
Si Si5 0.647869 0.814272 0.946072
Si Si6 0.240456 0.210770 0.421587
O O1 0.092644 0.663643 0.408576
O O2 0.955519 0.559382 0.429421
O O3 0.857830 0.723470 0.545430
O O4 0.098101 0.705951 0.255372
O O5 0.500000 0.418956 0.250000
O O6 0.532484 0.551049 0.116554
O O7 0.672017 0.391638 0.979389
O O8 0.738287 0.508190 0.035448
O O9 0.500000 0.005514 0.750000
O O10 0.429752 0.114674 0.927368
O O11 0.500000 0.684046 0.250000
O O12 0.400299 0.714678 0.481293
O O13 0.677775 0.676794 0.211817
O O14 0.250000 0.250000 0.500000
#
# Coordination Sequence:
#
# PCOD8152531 Si02
#       6
#     8   8   8   8   8   8
#     4  12  26  43  65 103 137 173 217 283 340 393
#     4  11  22  42  71  99 123 168 234 273 314 383
#     4  12  23  44  70  98 128 177 231 265 327 407
#     4  11  24  44  68  98 127 180 230 270 322 409
#     4  12  26  44  66  98 141 173 216 281 346 384
#     4  12  23  44  70  99 132 176 228 268 325 403
#
# _framework density 20.998526999999999
#
# number of rings (size 3 to 8) (size 9 to 14) (size 15 to 20)
#    0.000    0.333    6.667    4.000    2.333    0.000 
#    0.000    3.333    0.000    0.000    0.000    0.000 
#    0.000    0.000    0.000    0.000    0.000    0.000 
#
# Total GULP energy -297707.446902 kJ/mol
# GULP energy per Si atom -12404.476954 kJ/mol
# Density = 2.095073 g / cm^3
# Si number density = 20.998527 Si / 1000 Ang^3
#
#
#
# Elastic Constant Matrix: (Units=GPa)
#
#
# Indices 1 2 3 4 5 6 
#
# 1 104.3477 21.1350 6.4301 -0.0013 -15.0115 0.0013
# 2 21.1350 106.1673 21.5802 0.0010 -1.8060 0.0001
# 3 6.4301 21.5802 66.0604 0.0004 -15.1824 0.0007
# 4 -0.0013 0.0010 0.0004 43.8736 -0.0008 -12.5098
# 5 -15.0115 -1.8060 -15.1824 -0.0008 35.3011 0.0001
# 6 0.0013 0.0001 0.0007 -12.5098 0.0001 27.3152
#
#
#
# Elastic Compliance Matrix: (Units=1/GPa)
#
#
# Indices 1 2 3 4 5 6 
#
# 1 0.010665 -0.002199 0.000773 0.000000 0.004755 0.000000
# 2 -0.002199 0.010575 -0.003696 0.000000 -0.001984 0.000000
# 3 0.000773 -0.003696 0.018090 0.000000 0.007920 -0.000001
# 4 0.000000 0.000000 0.000000 0.026216 0.000001 0.012006
# 5 0.004755 -0.001984 0.007920 0.000001 0.033655 0.000000
# 6 0.000000 0.000000 -0.000001 0.012006 0.000000 0.042108
#
#
# Mechanical properties :
#
#
# Convention : Reuss Voigt Hill
#
# Bulk Modulus (GPa) = 34.38206 41.65179 38.01692
# Shear Modulus (GPa) = 31.00796 36.46001 33.73398
#
# Velocity S-wave (km/s) = 3.84692 4.17143 4.01246
# Velocity P-wave (km/s) = 6.01172 6.56352 6.29367
#
# Compressibility (1/GPa) = 0.02908494
#
# Stress axis : x y z
#
# Youngs Moduli (GPa) = 93.76210 94.56687 55.27889
#
# Poissons Ratio (x) = 0.20800 -0.04275
# Poissons Ratio (y) = 0.20623 0.20433
# Poissons Ratio (z) = -0.07250 0.34955
#
# Static dielectric constant tensor:
#      x y z
#    x 3.584920 0.000000 -0.109260 
#    y 0.000000 3.979300 0.000000 
#    z -0.109260 0.000000 3.780780 
# 
# 
# High freq. dielectric constant tensor:
#      x y z
#    x 1.813310 0.000000 -0.016830 
#    y 0.000000 1.834120 0.000000 
#    z -0.016830 0.000000 1.834090 
# 
# From -- ./inp_files/211307.got.cif
#   From: 2010.06.25/outbox.cif.g09.slc.cpg/sg15_106_cif.got.tgz:211307.got - 2010.06.28 07:06:18.
