data_PCOD8152759
_publ_section_title
;
Structure prediction by ZEFSAII (Michael W. Deem and Ramdas Pophale) SiO2 
 PCOD8152759
Probable space group: C 2/C
;
_chemical_formula_sum "Si O2"
_cell_formula_units_Z 44
_cell_length_a 22.894447
_cell_length_b 7.549322
_cell_length_c 12.737100
_cell_angle_alpha 90.000000
_cell_angle_beta 118.004639
_cell_angle_gamma 90.000000
_cell_volume 1943.680576
_symmetry_space_group_name_H-M "C 2/C"
_symmetry_group_IT_number 15
_symmetry_cell_setting 'monoclinic'
loop_
_space_group_symop_operation_xyz
x,y,z
-x,y,1/2-z
-x,-y,-z
x,-y,1/2+z
1/2+x,1/2+y,z
1/2-x,1/2+y,1/2-z
1/2-x,1/2-y,-z
1/2+x,1/2-y,1/2+z
loop_
_atom_site_type_symbol
_atom_site_label
_atom_site_fract_x
_atom_site_fract_y
_atom_site_fract_z
Si Si1 0.904952 0.898005 0.293240
Si Si2 0.955984 0.340761 0.001061
Si Si3 0.223828 0.931644 0.201114
Si Si4 0.801414 0.357115 0.608880
Si Si5 0.000000 0.847852 0.750000
Si Si6 0.188573 0.422534 0.570723
O O1 0.961032 0.813887 0.416968
O O2 0.850408 0.987438 0.325085
O O3 0.868214 0.749834 0.191740
O O4 0.939163 0.034665 0.242239
O O5 0.974569 0.272927 0.132802
O O6 0.882150 0.415728 0.933919
O O7 0.000000 0.500000 0.000000
O O8 0.224491 0.767027 0.120939
O O9 0.263701 0.094751 0.183970
O O10 0.267265 0.913972 0.344797
O O11 0.750000 0.250000 0.500000
O O12 0.820957 0.535211 0.560677
#
# Coordination Sequence:
#
# PCOD8152759 Si02
#       6
#     8   8   8   8   4   8
#     4  11  27  48  72 107 149 189 249 303 366 440
#     4  11  28  50  71 107 142 201 254 304 361 439
#     4  11  22  46  67 107 143 179 237 301 364 429
#     4  12  24  42  70 108 140 187 228 301 369 436
#     4  12  30  50  76 104 146 210 248 304 366 440
#     4  11  24  42  73 105 146 184 240 300 371 434
#
# _framework density 22.637463
#
# number of rings (size 3 to 8) (size 9 to 14) (size 15 to 20)
#    0.000    0.727    5.455    1.091   10.182    4.364 
#    0.000    0.000    0.000    0.000    0.000    0.000 
#    0.000    0.000    0.000    0.000    0.000    0.000 
#
# Total GULP energy -272628.846579 kJ/mol
# GULP energy per Si atom -12392.220299 kJ/mol
# Density = 2.258594 g / cm^3
# Si number density = 22.637463 Si / 1000 Ang^3
#
#
#
# Elastic Constant Matrix: (Units=GPa)
#
#
# Indices 1 2 3 4 5 6 
#
# 1 104.9592 59.1970 33.2276 0.0000 -3.4270 0.0000
# 2 59.1970 91.1898 52.1610 0.0000 -0.5591 0.0000
# 3 33.2276 52.1610 135.5765 0.0000 -0.4104 0.0000
# 4 0.0000 0.0000 0.0000 56.3955 0.0000 -0.7003
# 5 -3.4270 -0.5591 -0.4104 0.0000 39.7437 0.0000
# 6 0.0000 0.0000 0.0000 -0.7003 0.0000 45.2836
#
#
#
# Elastic Compliance Matrix: (Units=1/GPa)
#
#
# Indices 1 2 3 4 5 6 
#
# 1 0.015085 -0.009838 0.000091 0.000000 0.001163 0.000000
# 2 -0.009838 0.020477 -0.005469 0.000000 -0.000617 0.000000
# 3 0.000091 -0.005469 0.009458 0.000000 0.000029 0.000000
# 4 0.000000 0.000000 0.000000 0.017735 0.000000 0.000274
# 5 0.001163 -0.000617 0.000029 0.000000 0.025253 0.000000
# 6 0.000000 0.000000 0.000000 0.000274 0.000000 0.022087
#
#
# Mechanical properties :
#
#
# Convention : Reuss Voigt Hill
#
# Bulk Modulus (GPa) = 68.54520 68.98855 68.76688
# Shear Modulus (GPa) = 34.39039 40.76056 37.57548
#
# Velocity S-wave (km/s) = 3.90190 4.24793 4.07858
# Velocity P-wave (km/s) = 7.11653 7.38928 7.25418
#
# Compressibility (1/GPa) = 0.01458891
#
# Stress axis : x y z
#
# Youngs Moduli (GPa) = 66.29053 48.83530 105.73375
#
# Poissons Ratio (x) = 0.48043 -0.00966
# Poissons Ratio (y) = 0.65215 0.57826
# Poissons Ratio (z) = -0.00606 0.26708
#
# Static dielectric constant tensor:
#      x y z
#    x 4.114230 0.000000 -0.319690 
#    y 0.000000 3.956600 0.000000 
#    z -0.319690 0.000000 4.848560 
# 
# 
# High freq. dielectric constant tensor:
#      x y z
#    x 1.891600 0.000000 -0.009620 
#    y 0.000000 1.889920 0.000000 
#    z -0.009620 0.000000 1.917120 
# 
# From -- ./inp_files/116865.got.cif
#   From: 2010.06.25/outbox.cif.g09.slc.cpg/sg15_59_cif.got.tgz:116865.got - 2010.06.28 07:06:18.
