data_PCOD8152169
_publ_section_title
;
Structure prediction by ZEFSAII (Michael W. Deem and Ramdas Pophale) SiO2 
 PCOD8152169
Probable space group: C 2/C
;
_chemical_formula_sum "Si O2"
_cell_formula_units_Z 48
_cell_length_a 21.967122
_cell_length_b 11.472753
_cell_length_c 8.731750
_cell_angle_alpha 90.000000
_cell_angle_beta 117.937609
_cell_angle_gamma 90.000000
_cell_volume 1944.142745
_symmetry_space_group_name_H-M "C 2/C"
_symmetry_group_IT_number 15
_symmetry_cell_setting 'monoclinic'
loop_
_space_group_symop_operation_xyz
x,y,z
-x,y,1/2-z
-x,-y,-z
x,-y,1/2+z
1/2+x,1/2+y,z
1/2-x,1/2+y,1/2-z
1/2-x,1/2-y,-z
1/2+x,1/2-y,1/2+z
loop_
_atom_site_type_symbol
_atom_site_label
_atom_site_fract_x
_atom_site_fract_y
_atom_site_fract_z
Si Si1 0.304348 0.492206 0.556903
Si Si2 0.395106 0.571532 0.428553
Si Si3 0.162662 0.413485 0.022091
Si Si4 0.755030 0.213068 0.831349
Si Si5 0.024730 0.836404 0.951640
Si Si6 0.625078 0.860970 0.654573
O O1 0.359052 0.587240 0.553513
O O2 0.338302 0.410050 0.727227
O O3 0.234896 0.548818 0.532848
O O4 0.289331 0.415464 0.385222
O O5 0.424406 0.440364 0.443522
O O6 0.457501 0.662979 0.483171
O O7 0.180867 0.305157 0.158361
O O8 0.124066 0.514301 0.069872
O O9 0.114313 0.374697 0.824541
O O10 0.801340 0.300566 0.789032
O O11 0.750000 0.250000 0.000000
O O12 0.000000 0.854825 0.750000
O O13 0.062166 0.712855 0.013309
#
# Coordination Sequence:
#
# PCOD8152169 Si02
#       6
#     8   8   8   8   8   8
#     4  12  20  40  67 101 144 177 223 308 366 434
#     4  11  22  38  68 101 137 180 233 301 369 428
#     4  12  24  42  70 108 146 190 238 301 369 453
#     4  12  23  40  65 107 148 186 228 291 381 447
#     4  11  23  43  66  95 139 194 244 296 358 434
#     4  12  23  44  69 102 148 190 246 296 374 437
#
# _framework density 24.689546
#
# number of rings (size 3 to 8) (size 9 to 14) (size 15 to 20)
#    0.000    0.333    8.333    0.500    0.000    0.000 
#    0.000    0.833    7.333    0.000    0.000    0.000 
#    0.000    0.167    0.000    0.000    0.000    0.000 
#
# Total GULP energy -297621.651228 kJ/mol
# GULP energy per Si atom -12400.902134 kJ/mol
# Density = 2.463335 g / cm^3
# Si number density = 24.689546 Si / 1000 Ang^3
#
#
#
# Elastic Constant Matrix: (Units=GPa)
#
#
# Indices 1 2 3 4 5 6 
#
# 1 60.6804 -11.2078 -5.3691 0.0000 -7.6123 0.0000
# 2 -11.2078 51.4518 18.7778 0.0000 -8.9763 0.0000
# 3 -5.3691 18.7778 119.5922 0.0000 -12.2316 0.0000
# 4 0.0000 0.0000 0.0000 42.6851 0.0000 -1.0918
# 5 -7.6123 -8.9763 -12.2316 0.0000 32.6579 0.0000
# 6 0.0000 0.0000 0.0000 -1.0918 0.0000 30.3337
#
#
#
# Elastic Compliance Matrix: (Units=1/GPa)
#
#
# Indices 1 2 3 4 5 6 
#
# 1 0.018133 0.004714 0.000664 0.000000 0.005771 0.000000
# 2 0.004714 0.022539 -0.002684 0.000000 0.006289 0.000000
# 3 0.000664 -0.002684 0.009102 0.000000 0.002826 0.000000
# 4 0.000000 0.000000 0.000000 0.023449 0.000000 0.000844
# 5 0.005771 0.006289 0.002826 0.000000 0.034753 0.000000
# 6 0.000000 0.000000 0.000000 0.000844 0.000000 0.032997
#
#
# Mechanical properties :
#
#
# Convention : Reuss Voigt Hill
#
# Bulk Modulus (GPa) = 18.12790 26.23627 22.18208
# Shear Modulus (GPa) = 32.47333 36.43689 34.45511
#
# Velocity S-wave (km/s) = 3.63059 3.84578 3.73974
# Velocity P-wave (km/s) = 4.99332 5.51086 5.25846
#
# Compressibility (1/GPa) = 0.05516359
#
# Stress axis : x y z
#
# Youngs Moduli (GPa) = 55.14714 44.36678 109.86515
#
# Poissons Ratio (x) = -0.20917 -0.07296
# Poissons Ratio (y) = -0.25999 0.29490
# Poissons Ratio (z) = -0.03662 0.11909
#
# Static dielectric constant tensor:
#      x y z
#    x 4.434850 0.000000 0.042440 
#    y 0.000000 4.683170 0.000000 
#    z 0.042440 0.000000 4.847290 
# 
# 
# High freq. dielectric constant tensor:
#      x y z
#    x 1.966120 0.000000 -0.009620 
#    y 0.000000 1.973500 0.000000 
#    z -0.009620 0.000000 2.000520 
# 
# From -- ./inp_files/60902.got.cif
#   From: 2010.06.25/outbox.cif.g09.slc.cpg/sg15_31_cif.got.tgz:60902.got - 2010.06.28 07:06:18.
