data_PCOD8152074
_publ_section_title
;
Structure prediction by ZEFSAII (Michael W. Deem and Ramdas Pophale) SiO2 
 PCOD8152074
Probable space group: C 2/C
;
_chemical_formula_sum "Si O2"
_cell_formula_units_Z 52
_cell_length_a 9.402154
_cell_length_b 16.048385
_cell_length_c 17.886870
_cell_angle_alpha 90.000000
_cell_angle_beta 71.521930
_cell_angle_gamma 90.000000
_cell_volume 2559.795154
_symmetry_space_group_name_H-M "C 2/C"
_symmetry_group_IT_number 15
_symmetry_cell_setting 'monoclinic'
loop_
_space_group_symop_operation_xyz
x,y,z
-x,y,1/2-z
-x,-y,-z
x,-y,1/2+z
1/2+x,1/2+y,z
1/2-x,1/2+y,1/2-z
1/2-x,1/2-y,-z
1/2+x,1/2-y,1/2+z
loop_
_atom_site_type_symbol
_atom_site_label
_atom_site_fract_x
_atom_site_fract_y
_atom_site_fract_z
Si Si1 0.298236 0.809773 0.652017
Si Si2 0.055217 0.632603 0.516443
Si Si3 0.434936 0.458214 0.834804
Si Si4 0.635055 0.857383 0.170625
Si Si5 0.271839 0.467636 0.632455
Si Si6 0.722471 0.041350 0.974836
Si Si7 0.500000 0.872993 0.750000
O O1 0.379384 0.804358 0.557115
O O2 0.173468 0.882350 0.670076
O O3 0.219853 0.723622 0.685825
O O4 0.419465 0.821082 0.697852
O O5 0.075810 0.664949 0.597174
O O6 0.131181 0.543900 0.492046
O O7 0.878236 0.619810 0.532394
O O8 0.500000 0.501262 0.750000
O O9 0.579903 0.427260 0.856529
O O10 0.353206 0.531976 0.892466
O O11 0.500000 0.879020 0.250000
O O12 0.754400 0.932925 0.147020
O O13 0.293007 0.441691 0.543306
O O14 0.120736 0.430119 0.689863
#
# Coordination Sequence:
#
# PCOD8152074 Si02
#       7
#     8   8   8   8   8   8   4
#     4  11  23  43  63  91 123 164 206 254 312 361
#     4   9  19  37  64  89 123 163 206 245 307 371
#     4  11  22  35  64  90 123 160 209 253 300 363
#     4  11  24  38  62  93 126 160 201 258 312 366
#     4  11  22  40  62  93 125 160 209 252 305 363
#     4   9  19  35  61  94 123 160 202 258 298 358
#     4  12  22  40  66  88 120 168 208 252 302 380
#
# _framework density 20.314125000000001
#
# number of rings (size 3 to 8) (size 9 to 14) (size 15 to 20)
#    0.000    1.538    3.846    1.385    4.308    0.000 
#    1.385    0.000    0.000    2.769    0.000    0.000 
#    0.000    0.000    0.000    0.000    0.000    0.000 
#
# Total GULP energy -322314.268022 kJ/mol
# GULP energy per Si atom -12396.702616 kJ/mol
# Density = 2.026789 g / cm^3
# Si number density = 20.314125 Si / 1000 Ang^3
#
#
#
# Elastic Constant Matrix: (Units=GPa)
#
#
# Indices 1 2 3 4 5 6 
#
# 1 135.7065 23.5438 52.9140 0.0000 11.9540 0.0000
# 2 23.5438 31.4845 11.4131 0.0000 2.4961 0.0000
# 3 52.9140 11.4131 152.4668 0.0000 0.8807 0.0000
# 4 0.0000 0.0000 0.0000 7.7557 0.0000 4.3179
# 5 11.9540 2.4961 0.8807 0.0000 42.5491 0.0000
# 6 0.0000 0.0000 0.0000 4.3179 0.0000 20.1231
#
#
#
# Elastic Compliance Matrix: (Units=1/GPa)
#
#
# Indices 1 2 3 4 5 6 
#
# 1 0.009764 -0.006058 -0.002922 0.000000 -0.002327 0.000000
# 2 -0.006058 0.036555 -0.000631 0.000000 -0.000429 0.000000
# 3 -0.002922 -0.000631 0.007616 0.000000 0.000700 0.000000
# 4 0.000000 0.000000 0.000000 0.146431 0.000000 -0.031421
# 5 -0.002327 -0.000429 0.000700 0.000000 0.024167 0.000000
# 6 0.000000 0.000000 0.000000 -0.031421 0.000000 0.056436
#
#
# Mechanical properties :
#
#
# Convention : Reuss Voigt Hill
#
# Bulk Modulus (GPa) = 28.80796 55.04441 41.92618
# Shear Modulus (GPa) = 16.03787 29.53802 22.78794
#
# Velocity S-wave (km/s) = 2.81284 3.81735 3.35293
# Velocity P-wave (km/s) = 4.97609 6.82532 5.97271
#
# Compressibility (1/GPa) = 0.03471263
#
# Stress axis : x y z
#
# Youngs Moduli (GPa) = 102.41649 27.35630 131.30205
#
# Poissons Ratio (x) = 0.16572 0.38363
# Poissons Ratio (y) = 0.62042 0.08292
# Poissons Ratio (z) = 0.29923 0.01728
#
# Static dielectric constant tensor:
#      x y z
#    x 3.937140 0.000000 0.050290 
#    y 0.000000 3.220050 0.000000 
#    z 0.050290 0.000000 4.075250 
# 
# 
# High freq. dielectric constant tensor:
#      x y z
#    x 1.801460 0.000000 0.001760 
#    y 0.000000 1.751180 0.000000 
#    z 0.001760 0.000000 1.817130 
# 
# From -- ./inp_files/190320.got.cif
#   From: 2010.06.25/outbox.cif.g09.slc.cpg/sg15_96_cif.got.tgz:190320.got - 2010.06.28 07:06:18.
