data_PCOD8152304
_publ_section_title
;
Structure prediction by ZEFSAII (Michael W. Deem and Ramdas Pophale) SiO2 
 PCOD8152304
Probable space group: C 2/C
;
_chemical_formula_sum "Si O2"
_cell_formula_units_Z 56
_cell_length_a 29.899128
_cell_length_b 14.563595
_cell_length_c 11.695477
_cell_angle_alpha 90.000000
_cell_angle_beta 28.954237
_cell_angle_gamma 90.000000
_cell_volume 2465.414298
_symmetry_space_group_name_H-M "C 2/C"
_symmetry_group_IT_number 15
_symmetry_cell_setting 'monoclinic'
loop_
_space_group_symop_operation_xyz
x,y,z
-x,y,1/2-z
-x,-y,-z
x,-y,1/2+z
1/2+x,1/2+y,z
1/2-x,1/2+y,1/2-z
1/2-x,1/2-y,-z
1/2+x,1/2-y,1/2+z
loop_
_atom_site_type_symbol
_atom_site_label
_atom_site_fract_x
_atom_site_fract_y
_atom_site_fract_z
Si Si1 0.206862 0.662351 0.415932
Si Si2 0.961980 0.818947 0.044648
Si Si3 0.093888 0.878067 0.095166
Si Si4 0.135292 0.075862 0.923188
Si Si5 0.333975 0.346871 0.913313
Si Si6 0.415145 0.865002 0.520156
Si Si7 0.792649 0.506540 0.930133
O O1 0.193671 0.740965 0.539873
O O2 0.163996 0.676389 0.385753
O O3 0.163222 0.568394 0.567005
O O4 0.317790 0.658939 0.168966
O O5 0.950226 0.712194 0.032418
O O6 0.062071 0.850866 0.868432
O O7 0.894323 0.844681 0.300086
O O8 0.946878 0.881654 0.967635
O O9 0.000000 0.837836 0.250000
O O10 0.097279 0.987639 0.075944
O O11 0.221772 0.064321 0.644670
O O12 0.167362 0.147042 0.946256
O O13 0.266062 0.423729 0.017315
O O14 0.500000 0.897274 0.250000
O O15 0.372570 0.952636 0.682696
#
# Coordination Sequence:
#
# PCOD8152304 Si02
#       7
#     8   8   8   8   8   8   8
#     4  11  24  46  69  97 138 185 234 296 350 428
#     4  12  23  42  74 100 143 189 231 297 365 419
#     4  11  25  42  67 106 140 175 240 291 355 430
#     4  11  22  40  67 101 135 178 228 291 351 430
#     4  12  23  43  67  99 140 183 231 296 353 417
#     4  12  25  48  71 104 141 191 245 287 352 442
#     4  11  26  42  69  99 139 185 234 293 362 413
#
# _framework density 22.714234999999999
#
# number of rings (size 3 to 8) (size 9 to 14) (size 15 to 20)
#    0.000    0.571    2.857    6.857    2.000    3.429 
#    0.000    0.714    0.000    0.000    0.000    0.000 
#    0.000    0.000    0.000    0.000    0.000    0.000 
#
# Total GULP energy -347050.507803 kJ/mol
# GULP energy per Si atom -12394.660993 kJ/mol
# Density = 2.266254 g / cm^3
# Si number density = 22.714235 Si / 1000 Ang^3
#
#
#
# Elastic Constant Matrix: (Units=GPa)
#
#
# Indices 1 2 3 4 5 6 
#
# 1 69.9577 10.4492 16.4311 0.0000 5.3713 0.0000
# 2 10.4492 96.3437 56.9961 0.0000 8.8558 0.0000
# 3 16.4311 56.9961 125.2385 0.0000 7.8946 0.0000
# 4 0.0000 0.0000 0.0000 32.7578 0.0000 -9.8850
# 5 5.3713 8.8558 7.8946 0.0000 37.6265 0.0000
# 6 0.0000 0.0000 0.0000 -9.8850 0.0000 22.0698
#
#
#
# Elastic Compliance Matrix: (Units=1/GPa)
#
#
# Indices 1 2 3 4 5 6 
#
# 1 0.014877 -0.000503 -0.001618 0.000000 -0.001666 0.000000
# 2 -0.000503 0.014373 -0.006350 0.000000 -0.001979 0.000000
# 3 -0.001618 -0.006350 0.011125 0.000000 -0.000609 0.000000
# 4 0.000000 0.000000 0.000000 0.035298 0.000000 0.015810
# 5 -0.001666 -0.001979 -0.000609 0.000000 0.027408 0.000000
# 6 0.000000 0.000000 0.000000 0.015810 0.000000 0.052392
#
#
# Mechanical properties :
#
#
# Convention : Reuss Voigt Hill
#
# Bulk Modulus (GPa) = 42.67546 51.03253 46.85399
# Shear Modulus (GPa) = 27.74275 32.33505 30.03890
#
# Velocity S-wave (km/s) = 3.49862 3.77710 3.64052
# Velocity P-wave (km/s) = 5.92868 6.44500 6.19222
#
# Compressibility (1/GPa) = 0.02343267
#
# Stress axis : x y z
#
# Youngs Moduli (GPa) = 67.21597 69.57613 89.88432
#
# Poissons Ratio (x) = 0.03502 0.14542
# Poissons Ratio (y) = 0.03383 0.57079
# Poissons Ratio (z) = 0.10874 0.44183
#
# Static dielectric constant tensor:
#      x y z
#    x 4.270480 0.000000 0.041190 
#    y 0.000000 4.074390 0.000000 
#    z 0.041190 0.000000 4.024980 
# 
# 
# High freq. dielectric constant tensor:
#      x y z
#    x 1.907700 0.000000 0.006460 
#    y 0.000000 1.891260 0.000000 
#    z 0.006460 0.000000 1.896810 
# 
# From -- ./inp_files/126999.got.cif
#   From: 2010.06.25/outbox.cif.g09.slc.cpg/sg15_64_cif.got.tgz:126999.got - 2010.06.28 07:06:18.
