data_PCOD8152886
_publ_section_title
;
Structure prediction by ZEFSAII (Michael W. Deem and Ramdas Pophale) SiO2 
 PCOD8152886
Probable space group: C 2/C
;
_chemical_formula_sum "Si O2"
_cell_formula_units_Z 32
_cell_length_a 10.873093
_cell_length_b 10.883102
_cell_length_c 13.635680
_cell_angle_alpha 90.000000
_cell_angle_beta 91.219754
_cell_angle_gamma 90.000000
_cell_volume 1613.185026
_symmetry_space_group_name_H-M "C 2/C"
_symmetry_group_IT_number 15
_symmetry_cell_setting 'monoclinic'
loop_
_space_group_symop_operation_xyz
x,y,z
-x,y,1/2-z
-x,-y,-z
x,-y,1/2+z
1/2+x,1/2+y,z
1/2-x,1/2+y,1/2-z
1/2-x,1/2-y,-z
1/2+x,1/2-y,1/2+z
loop_
_atom_site_type_symbol
_atom_site_label
_atom_site_fract_x
_atom_site_fract_y
_atom_site_fract_z
Si Si1 0.500000 0.695556 0.250000
Si Si2 0.601539 0.897338 0.613758
Si Si3 0.000000 0.194490 0.750000
Si Si4 0.194536 0.003669 0.243303
Si Si5 0.396986 0.898284 0.110210
O O1 0.603690 0.609699 0.201425
O O2 0.435246 0.774223 0.164848
O O3 0.539476 0.777170 0.658825
O O4 0.726194 0.938199 0.668226
O O5 0.632915 0.866420 0.502318
O O6 0.509159 0.009469 0.623119
O O7 0.884232 0.110681 0.715535
O O8 0.276277 0.958865 0.154277
#
# Coordination Sequence:
#
# PCOD8152886 Si02
#       5
#     4   8   4   8   8
#     4  11  23  40  64  92 123 161 204 248 300 361
#     4  11  23  41  65  91 123 162 203 250 304 360
#     4  11  23  40  64  92 123 161 204 248 300 361
#     4  11  23  40  64  92 123 161 204 248 300 361
#     4  11  23  41  65  91 123 162 203 250 304 360
#
# _framework density 19.836532999999999
#
# number of rings (size 3 to 8) (size 9 to 14) (size 15 to 20)
#    0.000    1.000    5.000    1.500    0.000    6.000 
#    0.000   10.000    0.000    0.000    0.000    0.000 
#    0.000    0.000    0.000    0.000    0.000    0.000 
#
# Total GULP energy -198442.061953 kJ/mol
# GULP energy per Si atom -12402.628872 kJ/mol
# Density = 1.979138 g / cm^3
# Si number density = 19.836533 Si / 1000 Ang^3
#
#
#
# Elastic Constant Matrix: (Units=GPa)
#
#
# Indices 1 2 3 4 5 6 
#
# 1 94.2045 33.6625 58.0359 0.0000 -19.6712 0.0000
# 2 33.6625 104.2896 61.2124 0.0000 -16.9661 0.0000
# 3 58.0359 61.2124 139.5360 0.0000 -16.2558 0.0000
# 4 0.0000 0.0000 0.0000 3.2594 0.0000 -2.5856
# 5 -19.6712 -16.9661 -16.2558 0.0000 11.2601 0.0000
# 6 0.0000 0.0000 0.0000 -2.5856 0.0000 48.8080
#
#
#
# Elastic Compliance Matrix: (Units=1/GPa)
#
#
# Indices 1 2 3 4 5 6 
#
# 1 0.019288 0.001539 -0.005412 0.000000 0.028202 0.000000
# 2 0.001539 0.015024 -0.005146 0.000000 0.017896 0.000000
# 3 -0.005412 -0.005146 0.011625 0.000000 -0.000425 0.000000
# 4 0.000000 0.000000 0.000000 0.320264 0.000000 0.016966
# 5 0.028202 0.017896 -0.000425 0.000000 0.164429 0.000000
# 6 0.000000 0.000000 0.000000 0.016966 0.000000 0.021387
#
#
# Mechanical properties :
#
#
# Convention : Reuss Voigt Hill
#
# Bulk Modulus (GPa) = 35.84310 71.53907 53.69109
# Shear Modulus (GPa) = 8.63028 25.00679 16.81853
#
# Velocity S-wave (km/s) = 2.08810 3.55441 2.91496
# Velocity P-wave (km/s) = 4.89101 7.27926 6.20120
#
# Compressibility (1/GPa) = 0.02789937
#
# Stress axis : x y z
#
# Youngs Moduli (GPa) = 51.84457 66.56141 86.01834
#
# Poissons Ratio (x) = -0.10241 0.46552
# Poissons Ratio (y) = -0.07976 0.44263
# Poissons Ratio (z) = 0.28058 0.34251
#
# Static dielectric constant tensor:
#      x y z
#    x 3.921250 0.000000 -0.067480 
#    y 0.000000 3.906610 0.000000 
#    z -0.067480 0.000000 3.569710 
# 
# 
# High freq. dielectric constant tensor:
#      x y z
#    x 1.795110 0.000000 -0.004320 
#    y 0.000000 1.795270 0.000000 
#    z -0.004320 0.000000 1.753920 
# 
# From -- ./inp_files/131806.got.cif
#   From: 2010.06.25/outbox.cif.g09.slc.cpg/sg15_66_cif.got.tgz:131806.got - 2010.06.28 07:06:18.
