data_PCOD8152285
_publ_section_title
;
Structure prediction by ZEFSAII (Michael W. Deem and Ramdas Pophale) SiO2 
 PCOD8152285
Probable space group: C 2/C
;
_chemical_formula_sum "Si O2"
_cell_formula_units_Z 40
_cell_length_a 11.728563
_cell_length_b 17.880001
_cell_length_c 7.914058
_cell_angle_alpha 90.000000
_cell_angle_beta 82.848041
_cell_angle_gamma 90.000000
_cell_volume 1646.718273
_symmetry_space_group_name_H-M "C 2/C"
_symmetry_group_IT_number 15
_symmetry_cell_setting 'monoclinic'
loop_
_space_group_symop_operation_xyz
x,y,z
-x,y,1/2-z
-x,-y,-z
x,-y,1/2+z
1/2+x,1/2+y,z
1/2-x,1/2+y,1/2-z
1/2-x,1/2-y,-z
1/2+x,1/2-y,1/2+z
loop_
_atom_site_type_symbol
_atom_site_label
_atom_site_fract_x
_atom_site_fract_y
_atom_site_fract_z
Si Si1 0.075111 0.558068 0.591762
Si Si2 0.669869 0.610779 0.409693
Si Si3 0.878278 0.322299 0.680641
Si Si4 0.200322 0.039182 0.772135
Si Si5 0.444534 0.336148 0.080983
O O1 0.135106 0.617994 0.463149
O O2 0.173874 0.516374 0.680447
O O3 0.000000 0.599121 0.750000
O O4 0.000000 0.500000 0.500000
O O5 0.772095 0.666231 0.329482
O O6 0.703613 0.575866 0.586320
O O7 0.640803 0.542600 0.286062
O O8 0.552591 0.660164 0.432072
O O9 0.874194 0.241421 0.589910
O O10 0.000000 0.332713 0.750000
O O11 0.143015 0.094641 0.921423
O O12 0.500000 0.348616 0.250000
#
# Coordination Sequence:
#
# PCOD8152285 Si02
#       5
#     8   8   8   8   8
#     4  12  24  39  61  92 128 166 210 261 319 382
#     4  11  22  41  67  94 127 166 213 266 318 379
#     4  11  23  41  64  92 127 169 213 261 322 381
#     4  11  22  40  65  93 126 165 212 263 316 375
#     4   9  23  41  63  93 126 169 213 259 319 383
#
# _framework density 24.290735999999999
#
# number of rings (size 3 to 8) (size 9 to 14) (size 15 to 20)
#    0.000    1.200    0.000    7.200    0.000    9.600 
#    0.000    5.000    0.000    0.000    0.000    0.000 
#    0.000    0.000    0.000    0.000    0.000    0.000 
#
# Total GULP energy -247840.491979 kJ/mol
# GULP energy per Si atom -12392.024599 kJ/mol
# Density = 2.423545 g / cm^3
# Si number density = 24.290736 Si / 1000 Ang^3
#
#
#
# Elastic Constant Matrix: (Units=GPa)
#
#
# Indices 1 2 3 4 5 6 
#
# 1 94.7456 51.3235 54.0619 0.0000 -40.8052 0.0000
# 2 51.3235 148.1117 44.1646 0.0000 -32.0011 0.0000
# 3 54.0619 44.1646 103.2531 0.0000 -35.8048 0.0000
# 4 0.0000 0.0000 0.0000 29.9179 0.0000 -12.8338
# 5 -40.8052 -32.0011 -35.8048 0.0000 57.3920 0.0000
# 6 0.0000 0.0000 0.0000 -12.8338 0.0000 40.1233
#
#
#
# Elastic Compliance Matrix: (Units=1/GPa)
#
#
# Indices 1 2 3 4 5 6 
#
# 1 0.019097 -0.003107 -0.005822 0.000000 0.008213 0.000000
# 2 -0.003107 0.008634 -0.001484 0.000000 0.001679 0.000000
# 3 -0.005822 -0.001484 0.014860 0.000000 0.004304 0.000000
# 4 0.000000 0.000000 0.000000 0.038740 0.000000 0.012392
# 5 0.008213 0.001679 0.004304 0.000000 0.026885 0.000000
# 6 0.000000 0.000000 0.000000 0.012392 0.000000 0.028887
#
#
# Mechanical properties :
#
#
# Convention : Reuss Voigt Hill
#
# Bulk Modulus (GPa) = 45.94361 71.69005 58.81683
# Shear Modulus (GPa) = 30.26939 38.59066 34.43002
#
# Velocity S-wave (km/s) = 3.53388 3.99017 3.76894
# Velocity P-wave (km/s) = 5.96710 7.12784 6.57314
#
# Compressibility (1/GPa) = 0.02176581
#
# Stress axis : x y z
#
# Youngs Moduli (GPa) = 52.36470 115.82761 67.29290
#
# Poissons Ratio (x) = 0.35986 0.39177
# Poissons Ratio (y) = 0.16269 0.09985
# Poissons Ratio (z) = 0.30486 0.17186
#
# Static dielectric constant tensor:
#      x y z
#    x 4.723680 0.000000 -0.599340 
#    y 0.000000 5.289530 0.000000 
#    z -0.599340 0.000000 4.709400 
# 
# 
# High freq. dielectric constant tensor:
#      x y z
#    x 1.973760 0.000000 -0.017560 
#    y 0.000000 1.955230 0.000000 
#    z -0.017560 0.000000 1.968920 
# 
# From -- ./inp_files/29053.got.cif
#   From: 2010.06.25/outbox.cif.g09.slc.cpg/sg15_15_cif.got.tgz:29053.got - 2010.06.28 07:06:18.
