data_PCOD8152048
_publ_section_title
;
Structure prediction by ZEFSAII (Michael W. Deem and Ramdas Pophale) SiO2 
 PCOD8152048
Probable space group: C 2/C
;
_chemical_formula_sum "Si O2"
_cell_formula_units_Z 28
_cell_length_a 6.687547
_cell_length_b 12.819154
_cell_length_c 15.786954
_cell_angle_alpha 90.000000
_cell_angle_beta 62.286829
_cell_angle_gamma 90.000000
_cell_volume 1198.142622
_symmetry_space_group_name_H-M "C 2/C"
_symmetry_group_IT_number 15
_symmetry_cell_setting 'monoclinic'
loop_
_space_group_symop_operation_xyz
x,y,z
-x,y,1/2-z
-x,-y,-z
x,-y,1/2+z
1/2+x,1/2+y,z
1/2-x,1/2+y,1/2-z
1/2-x,1/2-y,-z
1/2+x,1/2-y,1/2+z
loop_
_atom_site_type_symbol
_atom_site_label
_atom_site_fract_x
_atom_site_fract_y
_atom_site_fract_z
Si Si1 0.337652 0.931310 0.474954
Si Si2 0.500000 0.435714 0.250000
Si Si3 0.665507 0.560074 0.358733
Si Si4 0.212686 0.722282 0.909075
O O1 0.456139 0.817710 0.443747
O O2 0.093613 0.923855 0.564182
O O3 0.500000 0.000000 0.500000
O O4 0.310358 0.983774 0.388917
O O5 0.680454 0.510716 0.261790
O O6 0.615797 0.368077 0.153497
O O7 0.768125 0.676400 0.341226
O O8 0.250000 0.750000 0.000000
#
# Coordination Sequence:
#
# PCOD8152048 Si02
#       4
#     8   4   8   8
#     4  11  21  46  75 100 137 182 241 302 361 437
#     4  12  28  44  66 114 144 186 254 296 358 436
#     4  11  25  44  70 103 142 186 237 304 366 426
#     4  12  25  46  76 104 144 197 243 296 371 436
#
# _framework density 23.369506000000001
#
# number of rings (size 3 to 8) (size 9 to 14) (size 15 to 20)
#    0.000    0.571    5.714    2.571    0.000    8.000 
#    0.000    0.000    0.000    0.000    0.000    0.000 
#    0.000    0.000    0.000    0.000    0.000    0.000 
#
# Total GULP energy -173576.472102 kJ/mol
# GULP energy per Si atom -12398.319436 kJ/mol
# Density = 2.331632 g / cm^3
# Si number density = 23.369506 Si / 1000 Ang^3
#
#
#
# Elastic Constant Matrix: (Units=GPa)
#
#
# Indices 1 2 3 4 5 6 
#
# 1 125.4114 51.7990 39.8110 0.0000 26.9774 0.0000
# 2 51.7990 158.2731 55.0322 0.0000 33.5066 0.0000
# 3 39.8110 55.0322 85.4853 0.0000 26.7935 0.0000
# 4 0.0000 0.0000 0.0000 39.1800 0.0000 3.0291
# 5 26.9774 33.5066 26.7935 0.0000 52.7295 0.0000
# 6 0.0000 0.0000 0.0000 3.0291 0.0000 51.8482
#
#
#
# Elastic Compliance Matrix: (Units=1/GPa)
#
#
# Indices 1 2 3 4 5 6 
#
# 1 0.010162 -0.001813 -0.002732 0.000000 -0.002659 0.000000
# 2 -0.001813 0.008879 -0.004037 0.000000 -0.002663 0.000000
# 3 -0.002732 -0.004037 0.017041 0.000000 -0.004696 0.000000
# 4 0.000000 0.000000 0.000000 0.025639 0.000000 -0.001498
# 5 -0.002659 -0.002663 -0.004696 0.000000 0.024404 0.000000
# 6 0.000000 0.000000 0.000000 -0.001498 0.000000 0.019375
#
#
# Mechanical properties :
#
#
# Convention : Reuss Voigt Hill
#
# Bulk Modulus (GPa) = 52.85974 73.60605 63.23289
# Shear Modulus (GPa) = 38.76918 43.58670 41.17794
#
# Velocity S-wave (km/s) = 4.07746 4.32338 4.20222
# Velocity P-wave (km/s) = 6.69595 7.51579 7.11768
#
# Compressibility (1/GPa) = 0.01891799
#
# Stress axis : x y z
#
# Youngs Moduli (GPa) = 98.40856 112.62531 58.68234
#
# Poissons Ratio (x) = 0.20418 0.16032
# Poissons Ratio (y) = 0.17841 0.23690
# Poissons Ratio (z) = 0.26885 0.45466
#
# Static dielectric constant tensor:
#      x y z
#    x 4.684030 0.000000 -0.042970 
#    y 0.000000 5.050290 0.000000 
#    z -0.042970 0.000000 3.954710 
# 
# 
# High freq. dielectric constant tensor:
#      x y z
#    x 1.937400 0.000000 0.004780 
#    y 0.000000 1.943370 0.000000 
#    z 0.004780 0.000000 1.907340 
# 
# From -- ./inp_files/183649.got.cif
#   From: 2010.06.25/outbox.cif.g09.slc.cpg/sg15_92_cif.got.tgz:183649.got - 2010.06.28 07:06:18.
