data_PCOD8152070
_publ_section_title
;
Structure prediction by ZEFSAII (Michael W. Deem and Ramdas Pophale) SiO2 
 PCOD8152070
Probable space group: C 2/C
;
_chemical_formula_sum "Si O2"
_cell_formula_units_Z 48
_cell_length_a 20.778598
_cell_length_b 11.318381
_cell_length_c 9.395797
_cell_angle_alpha 90.000000
_cell_angle_beta 100.170434
_cell_angle_gamma 90.000000
_cell_volume 2174.982972
_symmetry_space_group_name_H-M "C 2/C"
_symmetry_group_IT_number 15
_symmetry_cell_setting 'monoclinic'
loop_
_space_group_symop_operation_xyz
x,y,z
-x,y,1/2-z
-x,-y,-z
x,-y,1/2+z
1/2+x,1/2+y,z
1/2-x,1/2+y,1/2-z
1/2-x,1/2-y,-z
1/2+x,1/2-y,1/2+z
loop_
_atom_site_type_symbol
_atom_site_label
_atom_site_fract_x
_atom_site_fract_y
_atom_site_fract_z
Si Si1 0.606328 0.036299 0.607177
Si Si2 0.106509 0.976887 0.735806
Si Si3 0.489487 0.830433 0.971210
Si Si4 0.175611 0.878810 0.014275
Si Si5 0.000000 0.791305 0.750000
Si Si6 0.674165 0.118640 0.920372
Si Si7 0.500000 0.357862 0.250000
O O1 0.566229 0.135195 0.504358
O O2 0.633665 0.093751 0.761400
O O3 0.553898 0.932552 0.617720
O O4 0.663709 0.986749 0.529419
O O5 0.056489 0.866592 0.689797
O O6 0.131260 0.043899 0.604233
O O7 0.168168 0.935546 0.853988
O O8 0.063391 0.065274 0.814859
O O9 0.479185 0.714916 0.877219
O O10 0.465949 0.795983 0.121578
O O11 0.250137 0.882455 0.094195
O O12 0.153915 0.741314 0.991458
#
# Coordination Sequence:
#
# PCOD8152070 Si02
#       7
#     8   8   8   8   4   8   4
#     4  11  22  39  63  89 121 159 201 248 304 361
#     4  11  22  39  63  90 122 159 200 246 303 362
#     4  11  22  37  61  92 123 156 196 249 306 361
#     4  11  24  42  63  88 122 163 206 251 297 353
#     4  11  22  39  64  94 126 157 194 249 308 362
#     4  11  24  42  63  88 122 163 206 251 297 353
#     4  11  22  35  58  90 122 155 196 249 302 360
#
# _framework density 22.069140000000001
#
# number of rings (size 3 to 8) (size 9 to 14) (size 15 to 20)
#    0.000    1.000    0.000    8.000    0.000    5.333 
#    0.000    0.000    0.000   10.000    0.000    0.000 
#    0.000    0.000    0.000    0.000    0.000    0.000 
#
# Total GULP energy -297453.422269 kJ/mol
# GULP energy per Si atom -12393.892595 kJ/mol
# Density = 2.201891 g / cm^3
# Si number density = 22.069140 Si / 1000 Ang^3
#
#
#
# Elastic Constant Matrix: (Units=GPa)
#
#
# Indices 1 2 3 4 5 6 
#
# 1 89.7684 33.5994 35.5708 0.0000 13.0577 0.0000
# 2 33.5994 100.5471 36.6762 0.0000 6.3614 0.0000
# 3 35.5708 36.6762 102.2162 0.0000 15.4971 0.0000
# 4 0.0000 0.0000 0.0000 37.5040 0.0000 -17.4469
# 5 13.0577 6.3614 15.4971 0.0000 38.1721 0.0000
# 6 0.0000 0.0000 0.0000 -17.4469 0.0000 21.8051
#
#
#
# Elastic Compliance Matrix: (Units=1/GPa)
#
#
# Indices 1 2 3 4 5 6 
#
# 1 0.014112 -0.003338 -0.003267 0.000000 -0.002945 0.000000
# 2 -0.003338 0.012235 -0.003295 0.000000 0.000441 0.000000
# 3 -0.003267 -0.003295 0.012627 0.000000 -0.003460 0.000000
# 4 0.000000 0.000000 0.000000 0.042473 0.000000 0.033984
# 5 -0.002945 0.000441 -0.003460 0.000000 0.028536 0.000000
# 6 0.000000 0.000000 0.000000 0.033984 0.000000 0.073052
#
#
# Mechanical properties :
#
#
# Convention : Reuss Voigt Hill
#
# Bulk Modulus (GPa) = 52.15364 56.02491 54.08927
# Shear Modulus (GPa) = 23.89754 31.94192 27.91973
#
# Velocity S-wave (km/s) = 3.29424 3.80854 3.56069
# Velocity P-wave (km/s) = 6.17678 6.69187 6.43948
#
# Compressibility (1/GPa) = 0.01917412
#
# Stress axis : x y z
#
# Youngs Moduli (GPa) = 70.86221 81.73193 79.19577
#
# Poissons Ratio (x) = 0.27280 0.25872
# Poissons Ratio (y) = 0.23652 0.26098
# Poissons Ratio (z) = 0.23149 0.26934
#
# Static dielectric constant tensor:
#      x y z
#    x 3.880990 0.000000 0.189930 
#    y 0.000000 4.228990 0.000000 
#    z 0.189930 0.000000 3.843620 
# 
# 
# High freq. dielectric constant tensor:
#      x y z
#    x 1.867450 0.000000 0.013400 
#    y 0.000000 1.883300 0.000000 
#    z 0.013400 0.000000 1.862410 
# 
# From -- ./inp_files/60860.got.cif
#   From: 2010.06.25/outbox.cif.g09.slc.cpg/sg15_31_cif.got.tgz:60860.got - 2010.06.28 07:06:18.
