data_PCOD8152970
_publ_section_title
;
Structure prediction by ZEFSAII (Michael W. Deem and Ramdas Pophale) SiO2 
 PCOD8152970
Probable space group: C 2/C
;
_chemical_formula_sum "Si O2"
_cell_formula_units_Z 48
_cell_length_a 27.364778
_cell_length_b 18.014878
_cell_length_c 13.950863
_cell_angle_alpha 90.000000
_cell_angle_beta 20.333134
_cell_angle_gamma 90.000000
_cell_volume 2389.745249
_symmetry_space_group_name_H-M "C 2/C"
_symmetry_group_IT_number 15
_symmetry_cell_setting 'monoclinic'
loop_
_space_group_symop_operation_xyz
x,y,z
-x,y,1/2-z
-x,-y,-z
x,-y,1/2+z
1/2+x,1/2+y,z
1/2-x,1/2+y,1/2-z
1/2-x,1/2-y,-z
1/2+x,1/2-y,1/2+z
loop_
_atom_site_type_symbol
_atom_site_label
_atom_site_fract_x
_atom_site_fract_y
_atom_site_fract_z
Si Si1 0.725199 0.372425 0.796497
Si Si2 0.500000 0.798158 0.250000
Si Si3 0.187659 0.053221 0.565094
Si Si4 0.866404 0.688748 0.308172
Si Si5 0.117646 0.080663 0.299354
Si Si6 0.500000 0.750779 0.750000
Si Si7 0.408850 0.262986 0.730149
O O1 0.719845 0.409374 0.702359
O O2 0.885148 0.347060 0.517786
O O3 0.690382 0.429854 0.946570
O O4 0.620132 0.302274 0.986239
O O5 0.575597 0.744409 0.185310
O O6 0.292807 0.108684 0.428500
O O7 0.216918 0.967751 0.543143
O O8 0.026599 0.049512 0.893839
O O9 0.750000 0.750000 0.500000
O O10 0.927755 0.696959 0.302837
O O11 0.995471 0.701917 0.999123
O O12 0.056655 0.153779 0.361649
O O13 0.250000 0.250000 0.000000
#
# Coordination Sequence:
#
# PCOD8152970 Si02
#       7
#     8   4   8   8   8   4   8
#     4  12  20  42  65  93 125 179 213 270 341 393
#     4  12  24  36  68  96 128 168 222 272 334 390
#     4  11  23  41  68  94 132 173 221 275 331 402
#     4  12  20  39  67  97 125 170 226 270 321 393
#     4  11  23  42  65  98 132 170 222 277 332 396
#     4  12  20  36  70  96 124 170 228 270 318 398
#     4  12  22  41  63  97 129 166 218 274 321 387
#
# _framework density 20.085823000000001
#
# number of rings (size 3 to 8) (size 9 to 14) (size 15 to 20)
#    0.000    0.333   10.000    0.000    0.000    0.000 
#    6.000    4.167    0.000    0.000    0.000    0.000 
#    0.000    0.000    0.000    0.000    0.000    0.000 
#
# Total GULP energy -297374.304025 kJ/mol
# GULP energy per Si atom -12390.596001 kJ/mol
# Density = 2.004011 g / cm^3
# Si number density = 20.085823 Si / 1000 Ang^3
#
#
#
# Elastic Constant Matrix: (Units=GPa)
#
#
# Indices 1 2 3 4 5 6 
#
# 1 159.4213 48.5835 28.3198 -0.0010 -11.0853 0.0007
# 2 48.5835 85.2772 20.7620 -0.0006 5.1822 0.0002
# 3 28.3198 20.7620 102.1361 -0.0007 -6.2970 0.0002
# 4 -0.0010 -0.0006 -0.0007 32.8486 0.0002 3.3959
# 5 -11.0853 5.1822 -6.2970 0.0002 33.2278 -0.0001
# 6 0.0007 0.0002 0.0002 3.3959 -0.0001 23.4803
#
#
#
# Elastic Compliance Matrix: (Units=1/GPa)
#
#
# Indices 1 2 3 4 5 6 
#
# 1 0.008070 -0.004518 -0.001123 0.000000 0.003184 0.000000
# 2 -0.004518 0.015063 -0.002071 0.000000 -0.004249 0.000000
# 3 -0.001123 -0.002071 0.010644 0.000000 0.001966 0.000000
# 4 0.000000 0.000000 0.000000 0.030905 0.000000 -0.004470
# 5 0.003184 -0.004249 0.001966 0.000000 0.032193 0.000000
# 6 0.000000 0.000000 0.000000 -0.004470 0.000000 0.043235
#
#
# Mechanical properties :
#
#
# Convention : Reuss Voigt Hill
#
# Bulk Modulus (GPa) = 54.48562 60.24057 57.36309
# Shear Modulus (GPa) = 30.93053 34.52263 32.72658
#
# Velocity S-wave (km/s) = 3.92844 4.15029 4.04088
# Velocity P-wave (km/s) = 6.91101 7.28170 7.09878
#
# Compressibility (1/GPa) = 0.01835347
#
# Stress axis : x y z
#
# Youngs Moduli (GPa) = 123.90927 66.38858 93.94554
#
# Poissons Ratio (x) = 0.29994 0.10550
# Poissons Ratio (y) = 0.55981 0.19458
# Poissons Ratio (z) = 0.13915 0.13750
#
# Static dielectric constant tensor:
#      x y z
#    x 3.826880 0.000000 -0.037880 
#    y 0.000000 4.205300 -0.000010 
#    z -0.037880 -0.000010 3.828820 
# 
# 
# High freq. dielectric constant tensor:
#      x y z
#    x 1.799090 0.000000 -0.004640 
#    y 0.000000 1.757620 0.000000 
#    z -0.004640 0.000000 1.794280 
# 
# From -- ./inp_files/178935.got.cif
#   From: 2010.06.25/outbox.cif.g09.slc.cpg/sg15_90_cif.got.tgz:178935.got - 2010.06.28 07:06:18.
