data_PCOD8152644
_publ_section_title
;
Structure prediction by ZEFSAII (Michael W. Deem and Ramdas Pophale) SiO2 
 PCOD8152644
Probable space group: C 2/C
;
_chemical_formula_sum "Si O2"
_cell_formula_units_Z 64
_cell_length_a 27.791199
_cell_length_b 11.849891
_cell_length_c 15.009323
_cell_angle_alpha 90.000000
_cell_angle_beta 38.176975
_cell_angle_gamma 90.000000
_cell_volume 3055.176077
_symmetry_space_group_name_H-M "C 2/C"
_symmetry_group_IT_number 15
_symmetry_cell_setting 'monoclinic'
loop_
_space_group_symop_operation_xyz
x,y,z
-x,y,1/2-z
-x,-y,-z
x,-y,1/2+z
1/2+x,1/2+y,z
1/2-x,1/2+y,1/2-z
1/2-x,1/2-y,-z
1/2+x,1/2-y,1/2+z
loop_
_atom_site_type_symbol
_atom_site_label
_atom_site_fract_x
_atom_site_fract_y
_atom_site_fract_z
Si Si1 0.324910 0.199528 0.505248
Si Si2 0.671561 0.754762 0.302228
Si Si3 0.543059 0.313803 0.515865
Si Si4 0.116889 0.097885 0.234820
Si Si5 0.347061 0.347646 0.308249
Si Si6 0.655346 0.267742 0.504550
Si Si7 0.091109 0.468503 0.139060
Si Si8 0.448092 0.904562 0.118416
O O1 0.332469 0.268658 0.586357
O O2 0.364481 0.271507 0.369174
O O3 0.234437 0.182112 0.617431
O O4 0.368744 0.081675 0.453684
O O5 0.649933 0.640415 0.281637
O O6 0.611100 0.854526 0.367645
O O7 0.757012 0.794465 0.150118
O O8 0.476711 0.409387 0.622008
O O9 0.584806 0.325863 0.360751
O O10 0.600911 0.333081 0.513836
O O11 0.503401 0.191297 0.579421
O O12 0.141251 0.187611 0.124388
O O13 0.153153 0.977189 0.159952
O O14 0.635941 0.135030 0.527124
O O15 0.102217 0.459740 0.229201
O O16 0.000000 0.468916 0.250000
O O17 0.500000 0.000000 0.000000
#
# Coordination Sequence:
#
# PCOD8152644 Si02
#       8
#     8   8   8   8   8   8   8   8
#     4  11  26  45  64 101 139 175 225 280 348 405
#     4  11  24  42  67 101 137 174 230 276 340 405
#     4  11  22  44  67  97 133 176 226 273 334 402
#     4  11  24  43  70  97 134 176 232 276 333 406
#     4  11  25  47  66  95 138 182 221 280 339 406
#     4  12  22  43  68 103 135 174 228 281 335 403
#     4  12  22  42  70  99 138 174 225 286 338 401
#     4  11  23  40  67 101 134 177 221 276 338 399
#
# _framework density 20.948056000000001
#
# number of rings (size 3 to 8) (size 9 to 14) (size 15 to 20)
#    0.000    0.750    5.000    3.375    1.750    2.000 
#    2.250    3.750    0.000    0.000    0.000    0.000 
#    0.000    0.000    0.000    0.000    0.000    0.000 
#
# Total GULP energy -396976.216399 kJ/mol
# GULP energy per Si atom -12405.506762 kJ/mol
# Density = 2.090038 g / cm^3
# Si number density = 20.948056 Si / 1000 Ang^3
#
#
#
# Elastic Constant Matrix: (Units=GPa)
#
#
# Indices 1 2 3 4 5 6 
#
# 1 124.1401 34.1528 36.5231 0.0000 5.8999 0.0000
# 2 34.1528 87.6550 13.4415 0.0000 10.8528 0.0000
# 3 36.5231 13.4415 89.0167 0.0000 13.7958 0.0000
# 4 0.0000 0.0000 0.0000 30.9093 0.0000 -0.9278
# 5 5.8999 10.8528 13.7958 0.0000 37.6480 0.0000
# 6 0.0000 0.0000 0.0000 -0.9278 0.0000 20.2759
#
#
#
# Elastic Compliance Matrix: (Units=1/GPa)
#
#
# Indices 1 2 3 4 5 6 
#
# 1 0.010064 -0.003446 -0.003730 0.000000 0.000783 0.000000
# 2 -0.003446 0.013162 -0.000073 0.000000 -0.003227 0.000000
# 3 -0.003730 -0.000073 0.013445 0.000000 -0.004321 0.000000
# 4 0.000000 0.000000 0.000000 0.032397 0.000000 0.001482
# 5 0.000783 -0.003227 -0.004321 0.000000 0.028953 0.000000
# 6 0.000000 0.000000 0.000000 0.001482 0.000000 0.049388
#
#
# Mechanical properties :
#
#
# Convention : Reuss Voigt Hill
#
# Bulk Modulus (GPa) = 45.10291 52.11631 48.60961
# Shear Modulus (GPa) = 29.53376 32.21293 30.87335
#
# Velocity S-wave (km/s) = 3.75888 3.92567 3.84318
# Velocity P-wave (km/s) = 6.35740 6.74394 6.55352
#
# Compressibility (1/GPa) = 0.02217152
#
# Stress axis : x y z
#
# Youngs Moduli (GPa) = 99.36717 75.97710 74.37680
#
# Poissons Ratio (x) = 0.26182 0.27743
# Poissons Ratio (y) = 0.34242 0.00546
# Poissons Ratio (z) = 0.37065 0.00558
#
# Static dielectric constant tensor:
#      x y z
#    x 3.929500 0.000000 -0.007790 
#    y 0.000000 3.661510 0.000000 
#    z -0.007790 0.000000 4.007750 
# 
# 
# High freq. dielectric constant tensor:
#      x y z
#    x 1.832000 0.000000 -0.000240 
#    y 0.000000 1.808470 0.000000 
#    z -0.000240 0.000000 1.833630 
# 
# From -- ./inp_files/177831.got.cif
#   From: 2010.06.25/outbox.cif.g09.slc.cpg/sg15_89_cif.got.tgz:177831.got - 2010.06.28 07:06:18.
