data_PCOD8152481
_publ_section_title
;
Structure prediction by ZEFSAII (Michael W. Deem and Ramdas Pophale) SiO2 
 PCOD8152481
Probable space group: C 2/C
;
_chemical_formula_sum "Si O2"
_cell_formula_units_Z 40
_cell_length_a 19.877841
_cell_length_b 13.336821
_cell_length_c 14.347871
_cell_angle_alpha 90.000000
_cell_angle_beta 28.070450
_cell_angle_gamma 90.000000
_cell_volume 1789.868451
_symmetry_space_group_name_H-M "C 2/C"
_symmetry_group_IT_number 15
_symmetry_cell_setting 'monoclinic'
loop_
_space_group_symop_operation_xyz
x,y,z
-x,y,1/2-z
-x,-y,-z
x,-y,1/2+z
1/2+x,1/2+y,z
1/2-x,1/2+y,1/2-z
1/2-x,1/2-y,-z
1/2+x,1/2-y,1/2+z
loop_
_atom_site_type_symbol
_atom_site_label
_atom_site_fract_x
_atom_site_fract_y
_atom_site_fract_z
Si Si1 0.233500 0.585540 0.510759
Si Si2 0.820536 0.572253 0.289190
Si Si3 0.074344 0.244947 0.312387
Si Si4 0.740108 0.263773 0.236992
Si Si5 0.631114 0.035860 0.963192
O O1 0.283787 0.496530 0.519536
O O2 0.117431 0.652509 0.708223
O O3 0.371054 0.650095 0.313694
O O4 0.156462 0.540586 0.515386
O O5 0.756705 0.682782 0.350648
O O6 0.841234 0.524633 0.163764
O O7 0.970098 0.578345 0.162469
O O8 0.131488 0.243769 0.348023
O O9 0.903882 0.239512 0.525513
O O10 0.758924 0.371235 0.164895
#
# Coordination Sequence:
#
# PCOD8152481 Si02
#       5
#     8   8   8   8   8
#     4  11  24  42  69 101 130 183 230 276 330 407
#     4  11  22  42  67 101 134 181 224 274 342 408
#     4  11  25  42  72 103 134 179 234 285 325 401
#     4  12  23  46  68 103 139 178 222 285 343 397
#     4  11  23  41  69  99 138 179 223 279 339 405
#
# _framework density 22.348009999999999
#
# number of rings (size 3 to 8) (size 9 to 14) (size 15 to 20)
#    0.000    0.800    6.000    1.800    2.800    4.000 
#    0.000    0.000    0.000    0.000    0.000    0.000 
#    0.000    0.000    0.000    0.000    0.000    0.000 
#
# Total GULP energy -248077.529092 kJ/mol
# GULP energy per Si atom -12403.876455 kJ/mol
# Density = 2.229715 g / cm^3
# Si number density = 22.348010 Si / 1000 Ang^3
#
#
#
# Elastic Constant Matrix: (Units=GPa)
#
#
# Indices 1 2 3 4 5 6 
#
# 1 93.1039 36.8796 9.4370 0.0000 12.7014 0.0000
# 2 36.8796 136.7308 38.7494 0.0000 6.4402 0.0000
# 3 9.4370 38.7494 42.9961 0.0000 5.2809 0.0000
# 4 0.0000 0.0000 0.0000 25.5605 0.0000 13.2868
# 5 12.7014 6.4402 5.2809 0.0000 21.5106 0.0000
# 6 0.0000 0.0000 0.0000 13.2868 0.0000 54.8880
#
#
#
# Elastic Compliance Matrix: (Units=1/GPa)
#
#
# Indices 1 2 3 4 5 6 
#
# 1 0.012947 -0.003495 0.001153 0.000000 -0.006882 0.000000
# 2 -0.003495 0.010779 -0.009078 0.000000 0.001065 0.000000
# 3 0.001153 -0.009078 0.031898 0.000000 -0.005794 0.000000
# 4 0.000000 0.000000 0.000000 0.044755 0.000000 -0.010834
# 5 -0.006882 0.001065 -0.005794 0.000000 0.051656 0.000000
# 6 0.000000 0.000000 0.000000 -0.010834 0.000000 0.020841
#
#
# Mechanical properties :
#
#
# Convention : Reuss Voigt Hill
#
# Bulk Modulus (GPa) = 30.50232 49.21808 39.86020
# Shear Modulus (GPa) = 24.19640 32.90947 28.55293
#
# Velocity S-wave (km/s) = 3.29402 3.84160 3.57830
# Velocity P-wave (km/s) = 5.30527 6.46130 5.91161
#
# Compressibility (1/GPa) = 0.03278440
#
# Stress axis : x y z
#
# Youngs Moduli (GPa) = 77.23846 92.77488 31.35012
#
# Poissons Ratio (x) = 0.32423 -0.03615
# Poissons Ratio (y) = 0.26993 0.28459
# Poissons Ratio (z) = -0.08907 0.84220
#
# Static dielectric constant tensor:
#      x y z
#    x 4.126500 0.000000 0.162560 
#    y 0.000000 4.461550 0.000000 
#    z 0.162560 0.000000 3.851830 
# 
# 
# High freq. dielectric constant tensor:
#      x y z
#    x 1.884980 0.000000 0.009470 
#    y 0.000000 1.895410 0.000000 
#    z 0.009470 0.000000 1.853050 
# 
# From -- ./inp_files/153728.got.cif
#   From: 2010.06.25/outbox.cif.g09.slc.cpg/sg15_77_cif.got.tgz:153728.got - 2010.06.28 07:06:18.
