data_PCOD8152952
_publ_section_title
;
Structure prediction by ZEFSAII (Michael W. Deem and Ramdas Pophale) SiO2 
 PCOD8152952
Probable space group: C 2/C
;
_chemical_formula_sum "Si O2"
_cell_formula_units_Z 48
_cell_length_a 16.801259
_cell_length_b 9.184053
_cell_length_c 25.475350
_cell_angle_alpha 90.000000
_cell_angle_beta 34.676410
_cell_angle_gamma 90.000000
_cell_volume 2236.472609
_symmetry_space_group_name_H-M "C 2/C"
_symmetry_group_IT_number 15
_symmetry_cell_setting 'monoclinic'
loop_
_space_group_symop_operation_xyz
x,y,z
-x,y,1/2-z
-x,-y,-z
x,-y,1/2+z
1/2+x,1/2+y,z
1/2-x,1/2+y,1/2-z
1/2-x,1/2-y,-z
1/2+x,1/2-y,1/2+z
loop_
_atom_site_type_symbol
_atom_site_label
_atom_site_fract_x
_atom_site_fract_y
_atom_site_fract_z
Si Si1 0.081214 0.404703 0.830801
Si Si2 0.712470 0.593679 0.186757
Si Si3 0.028027 0.898380 0.142518
Si Si4 0.603897 0.429139 0.985110
Si Si5 0.855954 0.585175 0.801545
Si Si6 0.175886 0.396276 0.461166
O O1 0.205499 0.378526 0.804261
O O2 0.140523 0.526975 0.759770
O O3 0.053370 0.254776 0.814851
O O4 0.937832 0.459306 0.936031
O O5 0.565659 0.511317 0.274414
O O6 0.680702 0.746113 0.177102
O O7 0.812736 0.504913 0.093495
O O8 0.176161 0.874232 0.090375
O O9 0.050932 0.964000 0.072273
O O10 0.752739 0.499708 0.895454
O O11 0.615477 0.255532 0.971682
O O12 0.500000 0.500000 0.000000
O O13 0.000000 0.552204 0.750000
#
# Coordination Sequence:
#
# PCOD8152952 Si02
#       6
#     8   8   8   8   8   8
#     4  11  23  42  65  90 121 164 210 256 306 366
#     4  12  25  41  62  94 129 164 204 255 313 371
#     4  11  23  43  65  90 123 169 213 251 306 381
#     4  11  23  41  66  95 123 160 210 261 307 365
#     4  12  24  40  62  94 127 161 204 260 313 362
#     4  11  23  43  66  91 124 168 210 253 310 377
#
# _framework density 21.462367
#
# number of rings (size 3 to 8) (size 9 to 14) (size 15 to 20)
#    0.000    0.667    0.000   11.000    0.000    2.667 
#    0.000    3.333    0.000    0.000    0.000    0.000 
#    0.000    0.000    0.000    0.000    0.000    0.000 
#
# Total GULP energy -297753.303080 kJ/mol
# GULP energy per Si atom -12406.387628 kJ/mol
# Density = 2.141352 g / cm^3
# Si number density = 21.462367 Si / 1000 Ang^3
#
#
#
# Elastic Constant Matrix: (Units=GPa)
#
#
# Indices 1 2 3 4 5 6 
#
# 1 72.9983 9.4243 -6.4217 0.0001 -10.0605 0.0019
# 2 9.4243 94.4021 43.2460 0.0005 23.0397 -0.0040
# 3 -6.4217 43.2460 98.6603 -0.0001 11.3903 -0.0016
# 4 0.0001 0.0005 -0.0001 20.6524 0.0002 -17.0334
# 5 -10.0605 23.0397 11.3903 0.0002 46.5522 0.0008
# 6 0.0019 -0.0040 -0.0016 -17.0334 0.0008 29.0596
#
#
#
# Elastic Compliance Matrix: (Units=1/GPa)
#
#
# Indices 1 2 3 4 5 6 
#
# 1 0.014941 -0.003493 0.001988 -0.000002 0.004472 -0.000003
# 2 -0.003493 0.015470 -0.006213 0.000003 -0.006891 0.000004
# 3 0.001988 -0.006213 0.012950 0.000000 0.000336 0.000000
# 4 -0.000002 0.000003 0.000000 0.093736 -0.000003 0.054944
# 5 0.004472 -0.006891 0.000336 -0.000003 0.025776 -0.000004
# 6 -0.000003 0.000004 0.000000 0.054944 -0.000004 0.066617
#
#
# Mechanical properties :
#
#
# Convention : Reuss Voigt Hill
#
# Bulk Modulus (GPa) = 35.81249 39.83977 37.82613
# Shear Modulus (GPa) = 19.66684 33.90697 26.78690
#
# Velocity S-wave (km/s) = 3.03040 3.97902 3.53666
# Velocity P-wave (km/s) = 5.38208 6.30183 5.86003
#
# Compressibility (1/GPa) = 0.02792322
#
# Stress axis : x y z
#
# Youngs Moduli (GPa) = 66.92958 64.64280 77.22249
#
# Poissons Ratio (x) = 0.22582 -0.15348
# Poissons Ratio (y) = 0.23381 0.47976
# Poissons Ratio (z) = -0.13302 0.40160
#
# Static dielectric constant tensor:
#      x y z
#    x 3.795820 0.000070 -0.094660 
#    y 0.000070 3.327380 0.000020 
#    z -0.094660 0.000020 4.170630 
# 
# 
# High freq. dielectric constant tensor:
#      x y z
#    x 1.854430 0.000000 -0.005370 
#    y 0.000000 1.840950 0.000000 
#    z -0.005370 0.000000 1.862950 
# 
# From -- ./inp_files/315612.got.cif
#   From: 2010.06.25/outbox.cif.g09.slc.cpg/sg15_158_cif.got.tgz:315612.got - 2010.06.28 07:06:18.
