data_PCOD8152593
_publ_section_title
;
Structure prediction by ZEFSAII (Michael W. Deem and Ramdas Pophale) SiO2 
 PCOD8152593
Probable space group: C 2/C
;
_chemical_formula_sum "Si O2"
_cell_formula_units_Z 32
_cell_length_a 15.644849
_cell_length_b 6.521430
_cell_length_c 26.413504
_cell_angle_alpha 90.000000
_cell_angle_beta 148.206980
_cell_angle_gamma 90.000000
_cell_volume 1419.806218
_symmetry_space_group_name_H-M "C 2/C"
_symmetry_group_IT_number 15
_symmetry_cell_setting 'monoclinic'
loop_
_space_group_symop_operation_xyz
x,y,z
-x,y,1/2-z
-x,-y,-z
x,-y,1/2+z
1/2+x,1/2+y,z
1/2-x,1/2+y,1/2-z
1/2-x,1/2-y,-z
1/2+x,1/2-y,1/2+z
loop_
_atom_site_type_symbol
_atom_site_label
_atom_site_fract_x
_atom_site_fract_y
_atom_site_fract_z
Si Si1 0.658382 0.135270 0.171268
Si Si2 0.190045 0.113547 0.842978
Si Si3 0.864459 0.912334 0.872094
Si Si4 0.360820 0.865363 0.015461
O O1 0.771263 0.179932 0.276053
O O2 0.613685 0.346395 0.120816
O O3 0.757423 0.008101 0.180251
O O4 0.493231 0.021634 0.106437
O O5 0.266581 0.342097 0.873603
O O6 0.000000 0.135679 0.750000
O O7 0.249259 0.000092 0.922840
O O8 0.042315 0.810443 0.966048
O O9 0.250000 0.750000 0.000000
#
# Coordination Sequence:
#
# PCOD8152593 Si02
#       4
#     8   8   8   8
#     4  11  22  43  72  95 138 180 225 287 345 406
#     4  11  25  43  66 101 140 178 232 281 340 411
#     4  11  22  43  69  98 135 181 225 282 348 403
#     4  11  25  43  68 102 139 178 230 283 341 414
#
# _framework density 22.538288999999999
#
# number of rings (size 3 to 8) (size 9 to 14) (size 15 to 20)
#    0.000    1.000    5.000    4.500    0.000    6.000 
#    0.000    0.000    0.000    0.000    0.000    0.000 
#    0.000    0.000    0.000    0.000    0.000    0.000 
#
# Total GULP energy -198341.044178 kJ/mol
# GULP energy per Si atom -12396.315261 kJ/mol
# Density = 2.248699 g / cm^3
# Si number density = 22.538289 Si / 1000 Ang^3
#
#
#
# Elastic Constant Matrix: (Units=GPa)
#
#
# Indices 1 2 3 4 5 6 
#
# 1 137.3104 53.6976 65.0351 0.0004 26.5595 0.0000
# 2 53.6976 143.7541 24.5701 0.0010 23.9597 -0.0018
# 3 65.0351 24.5701 90.6585 0.0001 25.5743 -0.0001
# 4 0.0004 0.0010 0.0001 3.0401 -0.0001 -14.8668
# 5 26.5595 23.9597 25.5743 -0.0001 48.7960 0.0003
# 6 0.0000 -0.0018 -0.0001 -14.8668 0.0003 38.0971
#
#
#
# Elastic Compliance Matrix: (Units=1/GPa)
#
#
# Indices 1 2 3 4 5 6 
#
# 1 0.012374 -0.003111 -0.007704 0.000001 -0.001170 0.000000
# 2 -0.003111 0.008467 0.000741 0.000001 -0.002853 0.000001
# 3 -0.007704 0.000741 0.017926 -0.000001 -0.005566 0.000000
# 4 0.000001 0.000001 -0.000001 -0.362131 0.000000 -0.141316
# 5 -0.001170 -0.002853 -0.005566 0.000000 0.025449 -0.000001
# 6 0.000000 0.000001 0.000000 -0.141316 -0.000001 -0.028897
#
#
# Mechanical properties :
#
#
# Convention : Reuss Voigt Hill
#
# Bulk Modulus (GPa) = 53.70044 73.14762 63.42403
# Shear Modulus (GPa) = -16.64118 33.21464 8.28673
#
# Velocity S-wave (km/s) = -2.72021 3.84304 1.91956
# Velocity P-wave (km/s) = 3.74326 7.22615 5.75453
#
# Compressibility (1/GPa) = 0.01862182
#
# Stress axis : x y z
#
# Youngs Moduli (GPa) = 80.81235 118.10557 55.78486
#
# Poissons Ratio (x) = 0.36737 0.42975
# Poissons Ratio (y) = 0.25137 -0.04136
# Poissons Ratio (z) = 0.62256 -0.08757
#
# Static dielectric constant tensor:
#      x y z
#    x 4.002230 0.000000 0.129090 
#    y 0.000000 4.543800 0.000000 
#    z 0.129090 0.000000 4.143290 
# 
# 
# High freq. dielectric constant tensor:
#      x y z
#    x 1.875010 0.000000 0.005370 
#    y 0.000000 1.911090 0.000000 
#    z 0.005370 0.000000 1.896930 
# 
# From -- ./inp_files/315167.got.cif
#   From: 2010.06.25/outbox.cif.g09.slc.cpg/sg15_158_cif.got.tgz:315167.got - 2010.06.28 07:06:18.
