data_PCOD8152293
_publ_section_title
;
Structure prediction by ZEFSAII (Michael W. Deem and Ramdas Pophale) SiO2 
 PCOD8152293
Probable space group: C 2/C
;
_chemical_formula_sum "Si O2"
_cell_formula_units_Z 64
_cell_length_a 19.703582
_cell_length_b 11.562672
_cell_length_c 19.846636
_cell_angle_alpha 90.000000
_cell_angle_beta 138.510653
_cell_angle_gamma 90.000000
_cell_volume 2995.460393
_symmetry_space_group_name_H-M "C 2/C"
_symmetry_group_IT_number 15
_symmetry_cell_setting 'monoclinic'
loop_
_space_group_symop_operation_xyz
x,y,z
-x,y,1/2-z
-x,-y,-z
x,-y,1/2+z
1/2+x,1/2+y,z
1/2-x,1/2+y,1/2-z
1/2-x,1/2-y,-z
1/2+x,1/2-y,1/2+z
loop_
_atom_site_type_symbol
_atom_site_label
_atom_site_fract_x
_atom_site_fract_y
_atom_site_fract_z
Si Si1 0.333781 0.434502 0.240942
Si Si2 0.144062 0.163333 0.180600
Si Si3 0.487661 0.817821 0.005904
Si Si4 0.301737 0.672539 0.848140
Si Si5 0.802490 0.945953 0.925001
Si Si6 0.036679 0.133324 0.847489
Si Si7 0.127589 0.532801 0.518722
Si Si8 0.894536 0.616873 0.140476
O O1 0.393555 0.552802 0.305135
O O2 0.267506 0.395903 0.255836
O O3 0.423394 0.341293 0.293796
O O4 0.248731 0.448206 0.120311
O O5 0.059900 0.264324 0.117268
O O6 0.234910 0.211090 0.296246
O O7 0.172350 0.126385 0.124397
O O8 0.556603 0.865181 0.995958
O O9 0.420102 0.710404 0.930177
O O10 0.412955 0.912502 0.982441
O O11 0.286810 0.583401 0.899002
O O12 0.697287 0.893748 0.874798
O O13 0.892150 0.938316 0.048130
O O14 0.097347 0.250175 0.876366
O O15 0.000000 0.068440 0.750000
O O16 0.122206 0.532585 0.434719
O O17 0.000000 0.572885 0.250000
#
# Coordination Sequence:
#
# PCOD8152293 Si02
#       8
#     8   8   8   8   8   8   8   8
#     4  11  22  40  65  98 130 166 217 271 331 386
#     4  11  23  39  67  96 129 171 212 276 326 390
#     4  11  23  39  66  95 132 171 221 266 329 383
#     4  11  23  39  66  97 128 172 215 272 328 389
#     4  11  25  43  64  97 134 168 222 273 327 396
#     4  11  24  41  68  94 131 173 211 273 328 389
#     4  11  23  39  65  96 131 171 220 273 323 399
#     4  11  26  40  64  95 130 173 215 269 331 389
#
# _framework density 21.365663999999999
#
# number of rings (size 3 to 8) (size 9 to 14) (size 15 to 20)
#    0.000    1.000    2.500    4.125    7.000    2.000 
#    0.000    0.625    2.750    0.000    0.000    0.000 
#    0.000    0.000    0.000    0.000    0.000    0.000 
#
# Total GULP energy -396525.286424 kJ/mol
# GULP energy per Si atom -12391.415201 kJ/mol
# Density = 2.131704 g / cm^3
# Si number density = 21.365664 Si / 1000 Ang^3
#
#
#
# Elastic Constant Matrix: (Units=GPa)
#
#
# Indices 1 2 3 4 5 6 
#
# 1 73.7955 28.3202 49.6015 0.0000 8.8243 0.0000
# 2 28.3202 83.0470 28.8851 0.0000 1.0976 0.0000
# 3 49.6015 28.8851 147.5026 0.0000 0.5995 0.0000
# 4 0.0000 0.0000 0.0000 37.9234 0.0000 4.6001
# 5 8.8243 1.0976 0.5995 0.0000 39.7057 0.0000
# 6 0.0000 0.0000 0.0000 4.6001 0.0000 20.2655
#
#
#
# Elastic Compliance Matrix: (Units=1/GPa)
#
#
# Indices 1 2 3 4 5 6 
#
# 1 0.019658 -0.004674 -0.005678 0.000000 -0.004154 0.000000
# 2 -0.004674 0.014037 -0.001180 0.000000 0.000668 0.000000
# 3 -0.005678 -0.001180 0.008915 0.000000 0.001160 0.000000
# 4 0.000000 0.000000 0.000000 0.027116 0.000000 -0.006155
# 5 -0.004154 0.000668 0.001160 0.000000 0.026072 0.000000
# 6 0.000000 0.000000 0.000000 -0.006155 0.000000 0.050742
#
#
# Mechanical properties :
#
#
# Convention : Reuss Voigt Hill
#
# Bulk Modulus (GPa) = 51.16081 57.55098 54.35589
# Shear Modulus (GPa) = 28.38984 32.74815 30.56899
#
# Velocity S-wave (km/s) = 3.64917 3.91928 3.78663
# Velocity P-wave (km/s) = 6.46162 6.89026 6.67938
#
# Compressibility (1/GPa) = 0.01954621
#
# Stress axis : x y z
#
# Youngs Moduli (GPa) = 50.86988 71.24172 112.16590
#
# Poissons Ratio (x) = 0.33296 0.63692
# Poissons Ratio (y) = 0.23775 0.13234
# Poissons Ratio (z) = 0.28886 0.08405
#
# Static dielectric constant tensor:
#      x y z
#    x 3.701850 0.000000 -0.043440 
#    y 0.000000 3.810470 0.000000 
#    z -0.043440 0.000000 4.049090 
# 
# 
# High freq. dielectric constant tensor:
#      x y z
#    x 1.819330 0.000000 0.007870 
#    y 0.000000 1.830150 0.000000 
#    z 0.007870 0.000000 1.862380 
# 
# From -- ./inp_files/252599.got.cif
#   From: 2010.06.25/outbox.cif.g09.slc.cpg/sg15_127_cif.got.tgz:252599.got - 2010.06.28 07:06:18.
