data_PCOD8152014
_publ_section_title
;
Structure prediction by ZEFSAII (Michael W. Deem and Ramdas Pophale) SiO2 
 PCOD8152014
Probable space group: C 2/C
;
_chemical_formula_sum "Si O2"
_cell_formula_units_Z 48
_cell_length_a 9.593315
_cell_length_b 16.004012
_cell_length_c 14.568358
_cell_angle_alpha 90.000000
_cell_angle_beta 87.574901
_cell_angle_gamma 90.000000
_cell_volume 2234.699057
_symmetry_space_group_name_H-M "C 2/C"
_symmetry_group_IT_number 15
_symmetry_cell_setting 'monoclinic'
loop_
_space_group_symop_operation_xyz
x,y,z
-x,y,1/2-z
-x,-y,-z
x,-y,1/2+z
1/2+x,1/2+y,z
1/2-x,1/2+y,1/2-z
1/2-x,1/2-y,-z
1/2+x,1/2-y,1/2+z
loop_
_atom_site_type_symbol
_atom_site_label
_atom_site_fract_x
_atom_site_fract_y
_atom_site_fract_z
Si Si1 0.047480 0.358521 0.849612
Si Si2 0.490810 0.381732 0.855307
Si Si3 0.721310 0.240800 0.608056
Si Si4 0.715561 0.913013 0.569881
Si Si5 0.756312 0.003069 0.882591
Si Si6 0.346525 0.066893 0.797263
O O1 0.142193 0.275896 0.843290
O O2 0.135221 0.434431 0.889003
O O3 0.000000 0.384710 0.750000
O O4 0.908419 0.344644 0.915144
O O5 0.500000 0.406579 0.750000
O O6 0.417514 0.292247 0.865383
O O7 0.641537 0.374938 0.896606
O O8 0.401456 0.456680 0.902776
O O9 0.750000 0.250000 0.500000
O O10 0.699464 0.147597 0.643914
O O11 0.729754 0.929711 0.462065
O O12 0.664138 0.992909 0.629003
O O13 0.759810 0.050092 0.784160
O O14 0.500000 0.077052 0.750000
#
# Coordination Sequence:
#
# PCOD8152014 Si02
#       6
#     8   8   8   8   8   8
#     4  11  21  45  68  95 131 179 218 266 337 400
#     4  11  22  45  67  93 136 176 212 270 348 395
#     4  11  27  46  66  94 138 181 219 274 338 395
#     4  12  22  41  74  99 130 170 228 275 330 398
#     4  11  22  38  71 102 128 170 224 277 324 396
#     4  12  23  42  69 104 130 172 230 278 323 398
#
# _framework density 21.479400999999999
#
# number of rings (size 3 to 8) (size 9 to 14) (size 15 to 20)
#    0.000    0.667    5.000    4.500    2.333    0.000 
#    6.000    0.833    0.000    0.000    0.000    0.000 
#    0.000    0.000    0.000    0.000    0.000    0.000 
#
# Total GULP energy -297626.162567 kJ/mol
# GULP energy per Si atom -12401.090107 kJ/mol
# Density = 2.143051 g / cm^3
# Si number density = 21.479401 Si / 1000 Ang^3
#
#
#
# Elastic Constant Matrix: (Units=GPa)
#
#
# Indices 1 2 3 4 5 6 
#
# 1 144.8076 37.1854 9.7037 0.0000 0.9885 0.0000
# 2 37.1854 69.0567 7.9341 0.0000 -1.5114 0.0000
# 3 9.7037 7.9341 86.7460 0.0000 -0.8874 0.0000
# 4 0.0000 0.0000 0.0000 44.3275 0.0000 -14.5555
# 5 0.9885 -1.5114 -0.8874 0.0000 31.2441 0.0000
# 6 0.0000 0.0000 0.0000 -14.5555 0.0000 23.0629
#
#
#
# Elastic Compliance Matrix: (Units=1/GPa)
#
#
# Indices 1 2 3 4 5 6 
#
# 1 0.008043 -0.004282 -0.000513 0.000000 -0.000476 0.000000
# 2 -0.004282 0.016929 -0.001060 0.000000 0.000924 0.000000
# 3 -0.000513 -0.001060 0.011685 0.000000 0.000297 0.000000
# 4 0.000000 0.000000 0.000000 0.028457 0.000000 0.017960
# 5 -0.000476 0.000924 0.000297 0.000000 0.032074 0.000000
# 6 0.000000 0.000000 0.000000 0.017960 0.000000 0.054694
#
#
# Mechanical properties :
#
#
# Convention : Reuss Voigt Hill
#
# Bulk Modulus (GPa) = 40.08551 45.58408 42.83480
# Shear Modulus (GPa) = 29.08524 36.11269 32.59896
#
# Velocity S-wave (km/s) = 3.68380 4.10478 3.89997
# Velocity P-wave (km/s) = 6.06603 6.61316 6.34549
#
# Compressibility (1/GPa) = 0.02494667
#
# Stress axis : x y z
#
# Youngs Moduli (GPa) = 124.33108 59.07073 85.57792
#
# Poissons Ratio (x) = 0.25297 0.04389
# Poissons Ratio (y) = 0.53245 0.09070
# Poissons Ratio (z) = 0.06377 0.06261
#
# Static dielectric constant tensor:
#      x y z
#    x 4.241580 0.000000 -0.103440 
#    y 0.000000 3.896280 0.000000 
#    z -0.103440 0.000000 3.942720 
# 
# 
# High freq. dielectric constant tensor:
#      x y z
#    x 1.858320 0.000000 -0.004990 
#    y 0.000000 1.821120 0.000000 
#    z -0.004990 0.000000 1.852890 
# 
# From -- ./inp_files/134796.got.cif
#   From: 2010.06.25/outbox.cif.g09.slc.cpg/sg15_68_cif.got.tgz:134796.got - 2010.06.28 07:06:18.
