data_PCOD8152938
_publ_section_title
;
Structure prediction by ZEFSAII (Michael W. Deem and Ramdas Pophale) SiO2 
 PCOD8152938
Probable space group: C 2/C
;
_chemical_formula_sum "Si O2"
_cell_formula_units_Z 44
_cell_length_a 25.969234
_cell_length_b 13.076304
_cell_length_c 15.416153
_cell_angle_alpha 90.000000
_cell_angle_beta 24.094899
_cell_angle_gamma 90.000000
_cell_volume 2137.201605
_symmetry_space_group_name_H-M "C 2/C"
_symmetry_group_IT_number 15
_symmetry_cell_setting 'monoclinic'
loop_
_space_group_symop_operation_xyz
x,y,z
-x,y,1/2-z
-x,-y,-z
x,-y,1/2+z
1/2+x,1/2+y,z
1/2-x,1/2+y,1/2-z
1/2-x,1/2-y,-z
1/2+x,1/2-y,1/2+z
loop_
_atom_site_type_symbol
_atom_site_label
_atom_site_fract_x
_atom_site_fract_y
_atom_site_fract_z
Si Si1 0.553198 0.103271 0.377118
Si Si2 0.167611 0.168377 0.179072
Si Si3 0.000000 0.122839 0.750000
Si Si4 0.684842 0.442742 0.108605
Si Si5 0.394094 0.697177 0.609882
Si Si6 0.649063 0.763451 0.393516
O O1 0.581619 0.183402 0.409287
O O2 0.447557 0.144650 0.474006
O O3 0.500000 0.000000 0.500000
O O4 0.681187 0.097439 0.127381
O O5 0.169468 0.196001 0.277084
O O6 0.023635 0.160774 0.365716
O O7 0.220311 0.054764 0.088591
O O8 0.250000 0.250000 0.000000
O O9 0.081866 0.053222 0.689555
O O10 0.100318 0.192793 0.545773
O O11 0.630118 0.367528 0.265687
O O12 0.280306 0.683439 0.718097
#
# Coordination Sequence:
#
# PCOD8152938 Si02
#       6
#     8   8   4   8   8   8
#     4  11  23  41  65 100 138 180 222 291 349 413
#     4  11  26  46  64 101 144 182 224 291 354 428
#     4  12  22  40  76 104 126 178 236 294 342 408
#     4  12  23  42  72 100 138 178 238 285 349 417
#     4  11  23  43  69  96 138 180 234 286 342 417
#     4  11  24  43  69  99 136 177 235 281 348 413
#
# _framework density 20.587669000000002
#
# number of rings (size 3 to 8) (size 9 to 14) (size 15 to 20)
#    0.000    0.727    5.455    4.364    0.000    5.091 
#    0.000    1.818    0.000    0.000    0.000    0.000 
#    0.000    0.000    0.000    0.000    0.000    0.000 
#
# Total GULP energy -272809.499955 kJ/mol
# GULP energy per Si atom -12400.431816 kJ/mol
# Density = 2.054081 g / cm^3
# Si number density = 20.587669 Si / 1000 Ang^3
#
#
#
# Elastic Constant Matrix: (Units=GPa)
#
#
# Indices 1 2 3 4 5 6 
#
# 1 110.7996 22.0789 33.8206 0.0000 -27.2791 0.0000
# 2 22.0789 103.5682 2.2419 0.0000 1.3515 0.0000
# 3 33.8206 2.2419 97.0758 0.0000 -18.4334 0.0000
# 4 0.0000 0.0000 0.0000 34.7140 0.0000 -2.8218
# 5 -27.2791 1.3515 -18.4334 0.0000 45.0387 0.0000
# 6 0.0000 0.0000 0.0000 -2.8218 0.0000 15.0765
#
#
#
# Elastic Compliance Matrix: (Units=1/GPa)
#
#
# Indices 1 2 3 4 5 6 
#
# 1 0.011935 -0.002560 -0.002940 0.000000 0.006102 0.000000
# 2 -0.002560 0.010217 0.000329 0.000000 -0.001723 0.000000
# 3 -0.002940 0.000329 0.011903 0.000000 0.003081 0.000000
# 4 0.000000 0.000000 0.000000 0.029252 0.000000 0.005475
# 5 0.006102 -0.001723 0.003081 0.000000 0.027212 0.000000
# 6 0.000000 0.000000 0.000000 0.005475 0.000000 0.067353
#
#
# Mechanical properties :
#
#
# Convention : Reuss Voigt Hill
#
# Bulk Modulus (GPa) = 42.17343 47.52516 44.84930
# Shear Modulus (GPa) = 28.38983 35.85266 32.12125
#
# Velocity S-wave (km/s) = 3.71748 4.17761 3.95424
# Velocity P-wave (km/s) = 6.24143 6.81207 6.53299
#
# Compressibility (1/GPa) = 0.02371161
#
# Stress axis : x y z
#
# Youngs Moduli (GPa) = 83.78394 97.87931 84.01212
#
# Poissons Ratio (x) = 0.25061 0.24702
# Poissons Ratio (y) = 0.21452 -0.02764
# Poissons Ratio (z) = 0.24635 -0.03220
#
# Static dielectric constant tensor:
#      x y z
#    x 3.745110 0.000000 -0.066600 
#    y 0.000000 3.751090 0.000000 
#    z -0.066600 0.000000 5.076800 
# 
# 
# High freq. dielectric constant tensor:
#      x y z
#    x 1.797520 0.000000 -0.007660 
#    y 0.000000 1.808970 0.000000 
#    z -0.007660 0.000000 1.829370 
# 
# From -- ./inp_files/142205.got.cif
#   From: 2010.06.25/outbox.cif.g09.slc.cpg/sg15_72_cif.got.tgz:142205.got - 2010.06.28 07:06:18.
