data_PCOD8152942
_publ_section_title
;
Structure prediction by ZEFSAII (Michael W. Deem and Ramdas Pophale) SiO2 
 PCOD8152942
Probable space group: C 2/C
;
_chemical_formula_sum "Si O2"
_cell_formula_units_Z 40
_cell_length_a 11.570889
_cell_length_b 13.209927
_cell_length_c 27.057177
_cell_angle_alpha 90.000000
_cell_angle_beta 154.795242
_cell_angle_gamma 90.000000
_cell_volume 1761.208596
_symmetry_space_group_name_H-M "C 2/C"
_symmetry_group_IT_number 15
_symmetry_cell_setting 'monoclinic'
loop_
_space_group_symop_operation_xyz
x,y,z
-x,y,1/2-z
-x,-y,-z
x,-y,1/2+z
1/2+x,1/2+y,z
1/2-x,1/2+y,1/2-z
1/2-x,1/2-y,-z
1/2+x,1/2-y,1/2+z
loop_
_atom_site_type_symbol
_atom_site_label
_atom_site_fract_x
_atom_site_fract_y
_atom_site_fract_z
Si Si1 0.482323 0.097503 0.907549
Si Si2 0.260409 0.884037 0.819680
Si Si3 0.430736 0.214712 0.981042
Si Si4 0.680706 0.794333 0.763239
Si Si5 0.526551 0.591794 0.471803
O O1 0.527180 0.123539 0.982461
O O2 0.375423 0.197832 0.839825
O O3 0.274080 0.005119 0.824756
O O4 0.754949 0.063020 0.985240
O O5 0.249485 0.851478 0.759420
O O6 0.000000 0.848417 0.750000
O O7 0.521733 0.828372 0.945625
O O8 0.615658 0.313148 0.040613
O O9 0.121780 0.249506 0.851489
O O10 0.752258 0.873271 0.835848
O O11 0.500000 0.500000 0.500000
#
# Coordination Sequence:
#
# PCOD8152942 Si02
#       5
#     8   8   8   8   8
#     4  11  23  41  65  94 130 175 222 280 343 404
#     4  12  24  41  66  98 132 177 230 280 335 407
#     4  11  23  43  66  94 132 175 223 281 342 406
#     4  11  24  43  65  96 135 175 222 283 342 404
#     4  11  23  42  65  94 130 174 221 276 342 409
#
# _framework density 22.711677999999999
#
# number of rings (size 3 to 8) (size 9 to 14) (size 15 to 20)
#    0.000    0.800    0.000   10.800    0.000    3.200 
#    0.000    4.000    0.000    0.000    0.000    0.000 
#    0.000    0.000    0.000    0.000    0.000    0.000 
#
# Total GULP energy -247856.877661 kJ/mol
# GULP energy per Si atom -12392.843883 kJ/mol
# Density = 2.265998 g / cm^3
# Si number density = 22.711678 Si / 1000 Ang^3
#
#
#
# Elastic Constant Matrix: (Units=GPa)
#
#
# Indices 1 2 3 4 5 6 
#
# 1 118.8698 57.9537 38.1452 -0.0011 -7.0867 0.0004
# 2 57.9537 129.6651 51.4206 0.0005 -33.9958 0.0000
# 3 38.1452 51.4206 103.5342 -0.0027 -13.5819 0.0001
# 4 -0.0011 0.0005 -0.0027 36.5139 0.0015 -9.6164
# 5 -7.0867 -33.9958 -13.5819 0.0015 51.3415 0.0000
# 6 0.0004 0.0000 0.0001 -9.6164 0.0000 42.5039
#
#
#
# Elastic Compliance Matrix: (Units=1/GPa)
#
#
# Indices 1 2 3 4 5 6 
#
# 1 0.011281 -0.004792 -0.002060 0.000000 -0.002161 0.000000
# 2 -0.004792 0.013253 -0.003887 -0.000001 0.007086 0.000000
# 3 -0.002060 -0.003887 0.012404 0.000001 0.000423 0.000000
# 4 0.000000 -0.000001 0.000001 0.029122 -0.000001 0.006589
# 5 -0.002161 0.007086 0.000423 -0.000001 0.023983 0.000000
# 6 0.000000 0.000000 0.000000 0.006589 0.000000 0.025018
#
#
# Mechanical properties :
#
#
# Convention : Reuss Voigt Hill
#
# Bulk Modulus (GPa) = 64.68244 71.90089 68.29167
# Shear Modulus (GPa) = 35.28794 39.70850 37.49822
#
# Velocity S-wave (km/s) = 3.94602 4.18589 4.06773
# Velocity P-wave (km/s) = 7.02162 7.42220 7.22469
#
# Compressibility (1/GPa) = 0.01546015
#
# Stress axis : x y z
#
# Youngs Moduli (GPa) = 88.64589 75.45420 80.62107
#
# Poissons Ratio (x) = 0.36154 0.16607
# Poissons Ratio (y) = 0.42475 0.31340
# Poissons Ratio (z) = 0.18260 0.29331
#
# Static dielectric constant tensor:
#      x y z
#    x 4.308880 0.000010 -0.002900 
#    y 0.000010 4.123930 -0.000010 
#    z -0.002900 -0.000010 4.128700 
# 
# 
# High freq. dielectric constant tensor:
#      x y z
#    x 1.916380 0.000000 -0.003880 
#    y 0.000000 1.901540 0.000000 
#    z -0.003880 0.000000 1.883930 
# 
# From -- ./inp_files/292410.got.cif
#   From: 2010.06.25/outbox.cif.g09.slc.cpg/sg15_147_cif.got.tgz:292410.got - 2010.06.28 07:06:18.
