data_PCOD8152816
_publ_section_title
;
Structure prediction by ZEFSAII (Michael W. Deem and Ramdas Pophale) SiO2 
 PCOD8152816
Probable space group: C 2/C
;
_chemical_formula_sum "Si O2"
_cell_formula_units_Z 40
_cell_length_a 16.340101
_cell_length_b 11.211500
_cell_length_c 11.524998
_cell_angle_alpha 90.000000
_cell_angle_beta 90.906439
_cell_angle_gamma 90.000000
_cell_volume 2111.081335
_symmetry_space_group_name_H-M "C 2/C"
_symmetry_group_IT_number 15
_symmetry_cell_setting 'monoclinic'
loop_
_space_group_symop_operation_xyz
x,y,z
-x,y,1/2-z
-x,-y,-z
x,-y,1/2+z
1/2+x,1/2+y,z
1/2-x,1/2+y,1/2-z
1/2-x,1/2-y,-z
1/2+x,1/2-y,1/2+z
loop_
_atom_site_type_symbol
_atom_site_label
_atom_site_fract_x
_atom_site_fract_y
_atom_site_fract_z
Si Si1 0.814285 0.688138 0.918316
Si Si2 0.233671 0.563510 0.035624
Si Si3 0.527142 0.658856 0.121020
Si Si4 0.264485 0.715181 0.829547
Si Si5 0.399189 0.417067 0.441815
O O1 0.826092 0.550335 0.958151
O O2 0.901085 0.753709 0.920154
O O3 0.775088 0.684049 0.791664
O O4 0.750000 0.750000 0.000000
O O5 0.231949 0.641685 0.153687
O O6 0.208130 0.651999 0.928566
O O7 0.327858 0.520924 0.018351
O O8 0.500000 0.696256 0.250000
O O9 0.552261 0.520136 0.123363
O O10 0.454304 0.667826 0.025468
O O11 0.357464 0.665129 0.841458
#
# Coordination Sequence:
#
# PCOD8152816 Si02
#       5
#     8   8   8   8   8
#     4  12  23  37  64  98 121 159 220 257 302 383
#     4   9  20  39  63  88 121 165 208 253 309 369
#     4  11  23  36  61  91 127 157 208 268 316 359
#     4   9  21  37  64  87 127 163 210 253 315 374
#     4   9  20  38  58  87 121 164 201 254 313 366
#
# _framework density 18.947635999999999
#
# number of rings (size 3 to 8) (size 9 to 14) (size 15 to 20)
#    1.200    0.800    2.000    1.200    8.400    0.000 
#    0.000    1.000    0.000    0.000    0.000    0.000 
#    0.000    0.000    0.000    0.000    0.000    0.000 
#
# Total GULP energy -247824.326022 kJ/mol
# GULP energy per Si atom -12391.216301 kJ/mol
# Density = 1.890451 g / cm^3
# Si number density = 18.947636 Si / 1000 Ang^3
#
#
#
# Elastic Constant Matrix: (Units=GPa)
#
#
# Indices 1 2 3 4 5 6 
#
# 1 88.6912 17.2975 22.2362 0.0000 4.1841 0.0000
# 2 17.2975 102.6782 25.5944 0.0000 -6.4891 0.0000
# 3 22.2362 25.5944 65.1875 0.0000 1.5864 0.0000
# 4 0.0000 0.0000 0.0000 23.7003 0.0000 -8.1371
# 5 4.1841 -6.4891 1.5864 0.0000 32.8906 0.0000
# 6 0.0000 0.0000 0.0000 -8.1371 0.0000 38.4794
#
#
#
# Elastic Compliance Matrix: (Units=1/GPa)
#
#
# Indices 1 2 3 4 5 6 
#
# 1 0.012541 -0.001288 -0.003731 0.000000 -0.001669 0.000000
# 2 -0.001288 0.011111 -0.003985 0.000000 0.002548 0.000000
# 3 -0.003731 -0.003985 0.018207 0.000000 -0.001190 0.000000
# 4 0.000000 0.000000 0.000000 0.045497 0.000000 0.009621
# 5 -0.001669 0.002548 -0.001190 0.000000 0.031176 0.000000
# 6 0.000000 0.000000 0.000000 0.009621 0.000000 0.028022
#
#
# Mechanical properties :
#
#
# Convention : Reuss Voigt Hill
#
# Bulk Modulus (GPa) = 41.93031 42.97925 42.45478
# Shear Modulus (GPa) = 28.98355 31.77599 30.37977
#
# Velocity S-wave (km/s) = 3.91534 4.09961 4.00853
# Velocity P-wave (km/s) = 6.52820 6.71874 6.62416
#
# Compressibility (1/GPa) = 0.02384909
#
# Stress axis : x y z
#
# Youngs Moduli (GPa) = 79.74139 90.00494 54.92476
#
# Poissons Ratio (x) = 0.11593 0.20494
# Poissons Ratio (y) = 0.10271 0.21887
# Poissons Ratio (z) = 0.29754 0.35867
#
# Static dielectric constant tensor:
#      x y z
#    x 3.339240 0.000000 0.049350 
#    y 0.000000 4.698760 0.000000 
#    z 0.049350 0.000000 3.185030 
# 
# 
# High freq. dielectric constant tensor:
#      x y z
#    x 1.718290 0.000000 0.005790 
#    y 0.000000 1.733140 0.000000 
#    z 0.005790 0.000000 1.728850 
# 
# From -- ./inp_files/94854.got.cif
#   From: 2010.06.25/outbox.cif.g09.slc.cpg/sg15_48_cif.got.tgz:94854.got - 2010.06.28 07:06:18.
