data_PCOD8152687
_publ_section_title
;
Structure prediction by ZEFSAII (Michael W. Deem and Ramdas Pophale) SiO2 
 PCOD8152687
Probable space group: C 2/C
;
_chemical_formula_sum "Si O2"
_cell_formula_units_Z 44
_cell_length_a 8.699667
_cell_length_b 18.286724
_cell_length_c 13.633670
_cell_angle_alpha 90.000000
_cell_angle_beta 111.133881
_cell_angle_gamma 90.000000
_cell_volume 2023.075769
_symmetry_space_group_name_H-M "C 2/C"
_symmetry_group_IT_number 15
_symmetry_cell_setting 'monoclinic'
loop_
_space_group_symop_operation_xyz
x,y,z
-x,y,1/2-z
-x,-y,-z
x,-y,1/2+z
1/2+x,1/2+y,z
1/2-x,1/2+y,1/2-z
1/2-x,1/2-y,-z
1/2+x,1/2-y,1/2+z
loop_
_atom_site_type_symbol
_atom_site_label
_atom_site_fract_x
_atom_site_fract_y
_atom_site_fract_z
Si Si1 0.000000 0.614742 0.250000
Si Si2 0.734432 0.273503 0.607228
Si Si3 0.745329 0.489207 0.776824
Si Si4 0.833950 0.145709 0.765523
Si Si5 0.373625 0.688101 0.992885
Si Si6 0.060450 0.040487 0.416537
O O1 0.873056 0.666249 0.162752
O O2 0.908524 0.560723 0.305949
O O3 0.750000 0.250000 0.500000
O O4 0.739230 0.203341 0.677840
O O5 0.553144 0.303585 0.580995
O O6 0.771979 0.571656 0.740172
O O7 0.604925 0.445053 0.684420
O O8 0.690808 0.502426 0.877718
O O9 0.877316 0.186743 0.876301
O O10 0.000000 0.120032 0.750000
O O11 0.250000 0.750000 0.000000
O O12 0.327876 0.609837 0.027121
O O13 0.000000 0.000000 0.500000
#
# Coordination Sequence:
#
# PCOD8152687 Si02
#       6
#     4   8   8   8   8   8
#     4  12  26  46  72 110 146 188 250 300 358 438
#     4  12  26  45  71 101 146 194 239 295 368 436
#     4  11  25  42  74 103 141 192 241 295 360 439
#     4  12  23  47  74 103 146 192 236 295 371 429
#     4  12  27  43  74 107 142 184 243 305 360 424
#     4  11  22  44  72  99 138 189 240 291 364 428
#
# _framework density 21.749061000000001
#
# number of rings (size 3 to 8) (size 9 to 14) (size 15 to 20)
#    0.000    0.364    8.182    0.000    5.091    2.182 
#    0.000    1.818    0.000    0.000    0.000    0.000 
#    0.000    0.000    0.000    0.000    0.000    0.000 
#
# Total GULP energy -272668.516471 kJ/mol
# GULP energy per Si atom -12394.023476 kJ/mol
# Density = 2.169956 g / cm^3
# Si number density = 21.749061 Si / 1000 Ang^3
#
#
#
# Elastic Constant Matrix: (Units=GPa)
#
#
# Indices 1 2 3 4 5 6 
#
# 1 123.3126 60.4593 55.6298 0.0000 -3.7768 0.0000
# 2 60.4593 157.8581 70.3497 0.0000 0.2077 0.0000
# 3 55.6298 70.3497 130.5338 0.0000 -6.2695 0.0000
# 4 0.0000 0.0000 0.0000 36.1173 0.0000 -0.6648
# 5 -3.7768 0.2077 -6.2695 0.0000 34.8898 0.0000
# 6 0.0000 0.0000 0.0000 -0.6648 0.0000 39.1350
#
#
#
# Elastic Compliance Matrix: (Units=1/GPa)
#
#
# Indices 1 2 3 4 5 6 
#
# 1 0.010900 -0.002789 -0.003112 0.000000 0.000637 0.000000
# 2 -0.002789 0.009077 -0.003753 0.000000 -0.001030 0.000000
# 3 -0.003112 -0.003753 0.011090 0.000000 0.001678 0.000000
# 4 0.000000 0.000000 0.000000 0.027696 0.000000 0.000471
# 5 0.000637 -0.001030 0.001678 0.000000 0.029038 0.000000
# 6 0.000000 0.000000 0.000000 0.000471 0.000000 0.025561
#
#
# Mechanical properties :
#
#
# Convention : Reuss Voigt Hill
#
# Bulk Modulus (GPa) = 85.03152 87.17577 86.10364
# Shear Modulus (GPa) = 36.60625 37.04613 36.82619
#
# Velocity S-wave (km/s) = 4.10703 4.13164 4.11935
# Velocity P-wave (km/s) = 7.85314 7.93285 7.89310
#
# Compressibility (1/GPa) = 0.01176034
#
# Stress axis : x y z
#
# Youngs Moduli (GPa) = 91.74223 110.17238 90.17068
#
# Poissons Ratio (x) = 0.30725 0.28058
# Poissons Ratio (y) = 0.25585 0.33839
# Poissons Ratio (z) = 0.28547 0.41345
#
# Static dielectric constant tensor:
#      x y z
#    x 4.206950 0.000000 0.368000 
#    y 0.000000 4.118200 0.000000 
#    z 0.368000 0.000000 4.714870 
# 
# 
# High freq. dielectric constant tensor:
#      x y z
#    x 1.840610 0.000000 -0.010840 
#    y 0.000000 1.870460 0.000000 
#    z -0.010840 0.000000 1.859460 
# 
# From -- ./inp_files/134310.got.cif
#   From: 2010.06.25/outbox.cif.g09.slc.cpg/sg15_68_cif.got.tgz:134310.got - 2010.06.28 07:06:18.
