data_PCOD8152083
_publ_section_title
;
Structure prediction by ZEFSAII (Michael W. Deem and Ramdas Pophale) SiO2 
 PCOD8152083
Probable space group: C 2/C
;
_chemical_formula_sum "Si O2"
_cell_formula_units_Z 32
_cell_length_a 8.929839
_cell_length_b 16.532423
_cell_length_c 11.263816
_cell_angle_alpha 90.000000
_cell_angle_beta 99.243116
_cell_angle_gamma 90.000000
_cell_volume 1641.306667
_symmetry_space_group_name_H-M "C 2/C"
_symmetry_group_IT_number 15
_symmetry_cell_setting 'monoclinic'
loop_
_space_group_symop_operation_xyz
x,y,z
-x,y,1/2-z
-x,-y,-z
x,-y,1/2+z
1/2+x,1/2+y,z
1/2-x,1/2+y,1/2-z
1/2-x,1/2-y,-z
1/2+x,1/2-y,1/2+z
loop_
_atom_site_type_symbol
_atom_site_label
_atom_site_fract_x
_atom_site_fract_y
_atom_site_fract_z
Si Si1 0.374753 0.603168 0.417753
Si Si2 0.801689 0.942670 0.511863
Si Si3 0.855972 0.641478 0.305782
Si Si4 0.443076 0.678953 0.870772
O O1 0.268174 0.532970 0.460919
O O2 0.534281 0.560648 0.399264
O O3 0.291390 0.644945 0.297259
O O4 0.412764 0.672247 0.520831
O O5 0.670338 0.918539 0.587395
O O6 0.808488 0.880029 0.400822
O O7 0.882395 0.730245 0.361195
O O8 0.000000 0.610174 0.250000
O O9 0.500000 0.649647 0.750000
#
# Coordination Sequence:
#
# PCOD8152083 Si02
#       4
#     8   8   8   8
#     4   9  21  36  65  81 113 159 203 234 279 351
#     4   9  20  38  62  83 114 155 207 232 281 348
#     4  11  22  36  58  88 127 147 186 249 302 337
#     4   9  20  35  60  87 113 150 200 239 278 343
#
# _framework density 19.496661
#
# number of rings (size 3 to 8) (size 9 to 14) (size 15 to 20)
#    1.500    1.000    0.000    1.500    3.500    5.000 
#    0.000    0.000    5.500    0.000    0.000    0.000 
#    0.000    0.000    0.000    0.000    0.000    0.000 
#
# Total GULP energy -198254.913693 kJ/mol
# GULP energy per Si atom -12390.932106 kJ/mol
# Density = 1.945229 g / cm^3
# Si number density = 19.496661 Si / 1000 Ang^3
#
#
#
# Elastic Constant Matrix: (Units=GPa)
#
#
# Indices 1 2 3 4 5 6 
#
# 1 58.9558 33.6737 25.7722 0.0000 -21.7591 0.0000
# 2 33.6737 125.1348 51.3441 0.0000 -5.6218 0.0000
# 3 25.7722 51.3441 86.1676 0.0000 -14.8724 0.0000
# 4 0.0000 0.0000 0.0000 22.4391 0.0000 2.0552
# 5 -21.7591 -5.6218 -14.8724 0.0000 32.0519 0.0000
# 6 0.0000 0.0000 0.0000 2.0552 0.0000 27.5650
#
#
#
# Elastic Compliance Matrix: (Units=1/GPa)
#
#
# Indices 1 2 3 4 5 6 
#
# 1 0.027216 -0.005843 -0.001790 0.000000 0.016621 0.000000
# 2 -0.005843 0.011872 -0.006144 0.000000 -0.004735 0.000000
# 3 -0.001790 -0.006144 0.016747 0.000000 0.005478 0.000000
# 4 0.000000 0.000000 0.000000 0.044871 0.000000 -0.003345
# 5 0.016621 -0.004735 0.005478 0.000000 0.044194 0.000000
# 6 0.000000 0.000000 0.000000 -0.003345 0.000000 0.036527
#
#
# Mechanical properties :
#
#
# Convention : Reuss Voigt Hill
#
# Bulk Modulus (GPa) = 35.35833 54.64871 45.00352
# Shear Modulus (GPa) = 22.89304 27.04239 24.96772
#
# Velocity S-wave (km/s) = 3.43038 3.72832 3.58245
# Velocity P-wave (km/s) = 5.81936 6.82821 6.34387
#
# Compressibility (1/GPa) = 0.02828188
#
# Stress axis : x y z
#
# Youngs Moduli (GPa) = 36.74353 84.23382 59.71235
#
# Poissons Ratio (x) = 0.49214 0.10688
# Poissons Ratio (y) = 0.21468 0.36685
# Poissons Ratio (z) = 0.06577 0.51750
#
# Static dielectric constant tensor:
#      x y z
#    x 3.310420 0.000000 -0.130570 
#    y 0.000000 3.328260 0.000000 
#    z -0.130570 0.000000 3.429420 
# 
# 
# High freq. dielectric constant tensor:
#      x y z
#    x 1.730630 0.000000 -0.015610 
#    y 0.000000 1.751470 0.000000 
#    z -0.015610 0.000000 1.756350 
# 
# From -- ./inp_files/76135.got.cif
#   From: 2010.06.25/outbox.cif.g09.slc.cpg/sg15_39_cif.got.tgz:76135.got - 2010.06.28 07:06:18.
