data_PCOD8152445
_publ_section_title
;
Structure prediction by ZEFSAII (Michael W. Deem and Ramdas Pophale) SiO2 
 PCOD8152445
Probable space group: C 2/C
;
_chemical_formula_sum "Si O2"
_cell_formula_units_Z 44
_cell_length_a 13.459329
_cell_length_b 22.875178
_cell_length_c 9.590947
_cell_angle_alpha 90.000000
_cell_angle_beta 134.133650
_cell_angle_gamma 90.000000
_cell_volume 2119.351029
_symmetry_space_group_name_H-M "C 2/C"
_symmetry_group_IT_number 15
_symmetry_cell_setting 'monoclinic'
loop_
_space_group_symop_operation_xyz
x,y,z
-x,y,1/2-z
-x,-y,-z
x,-y,1/2+z
1/2+x,1/2+y,z
1/2-x,1/2+y,1/2-z
1/2-x,1/2-y,-z
1/2+x,1/2-y,1/2+z
loop_
_atom_site_type_symbol
_atom_site_label
_atom_site_fract_x
_atom_site_fract_y
_atom_site_fract_z
Si Si1 0.000000 0.341518 0.750000
Si Si2 0.638593 0.350335 0.715658
Si Si3 0.399092 0.944611 0.279639
Si Si4 0.328421 0.652783 0.939520
Si Si5 0.145828 0.428469 0.718605
Si Si6 0.688704 0.237018 0.591066
O O1 0.870496 0.381027 0.674101
O O2 0.948636 0.302197 0.568933
O O3 0.480687 0.372725 0.555862
O O4 0.737577 0.405332 0.774427
O O5 0.649359 0.298516 0.616909
O O6 0.677199 0.324888 0.905818
O O7 0.500000 0.931957 0.250000
O O8 0.278530 0.898872 0.179713
O O9 0.492817 0.937192 0.506916
O O10 0.319657 0.007130 0.188676
O O11 0.294063 0.704944 0.799087
O O12 0.750000 0.250000 0.500000
#
# Coordination Sequence:
#
# PCOD8152445 Si02
#       6
#     4   8   8   8   8   8
#     4  12  22  40  64  98 130 170 224 276 330 386
#     4  11  25  44  65  98 139 174 219 272 333 398
#     4  11  22  41  71  95 129 173 231 272 325 389
#     4  11  25  44  66  98 136 178 220 270 336 394
#     4  11  23  41  68  99 130 172 223 277 325 392
#     4  12  24  42  67  94 133 177 219 271 331 396
#
# _framework density 20.761073
#
# number of rings (size 3 to 8) (size 9 to 14) (size 15 to 20)
#    0.000    0.727    6.364    1.636    0.000    0.727 
#    3.273    0.000    0.000    0.000    0.000    0.000 
#    0.000    0.000    0.000    0.000    0.000    0.000 
#
# Total GULP energy -272762.884289 kJ/mol
# GULP energy per Si atom -12398.312922 kJ/mol
# Density = 2.071382 g / cm^3
# Si number density = 20.761073 Si / 1000 Ang^3
#
#
#
# Elastic Constant Matrix: (Units=GPa)
#
#
# Indices 1 2 3 4 5 6 
#
# 1 126.9186 52.7614 29.8872 0.0000 3.1419 0.0000
# 2 52.7614 108.1686 19.7318 0.0000 9.9336 0.0000
# 3 29.8872 19.7318 65.3868 0.0000 5.7389 0.0000
# 4 0.0000 0.0000 0.0000 24.7725 0.0000 -3.6646
# 5 3.1419 9.9336 5.7389 0.0000 32.2695 0.0000
# 6 0.0000 0.0000 0.0000 -3.6646 0.0000 32.0642
#
#
#
# Elastic Compliance Matrix: (Units=1/GPa)
#
#
# Indices 1 2 3 4 5 6 
#
# 1 0.010610 -0.004622 -0.003544 0.000000 0.001020 0.000000
# 2 -0.004622 0.012004 -0.001244 0.000000 -0.003024 0.000000
# 3 -0.003544 -0.001244 0.017498 0.000000 -0.002384 0.000000
# 4 0.000000 0.000000 0.000000 0.041062 0.000000 0.004693
# 5 0.001020 -0.003024 -0.002384 0.000000 0.032245 0.000000
# 6 0.000000 0.000000 0.000000 0.004693 0.000000 0.031724
#
#
# Mechanical properties :
#
#
# Convention : Reuss Voigt Hill
#
# Bulk Modulus (GPa) = 46.96911 56.13720 51.55315
# Shear Modulus (GPa) = 29.22931 31.02748 30.12839
#
# Velocity S-wave (km/s) = 3.75626 3.87007 3.81359
# Velocity P-wave (km/s) = 6.44091 6.86063 6.65408
#
# Compressibility (1/GPa) = 0.02129059
#
# Stress axis : x y z
#
# Youngs Moduli (GPa) = 94.25064 83.30440 57.14826
#
# Poissons Ratio (x) = 0.38507 0.20255
# Poissons Ratio (y) = 0.43566 0.07111
# Poissons Ratio (z) = 0.33405 0.10365
#
# Static dielectric constant tensor:
#      x y z
#    x 3.910110 0.000000 -0.136760 
#    y 0.000000 3.959790 0.000000 
#    z -0.136760 0.000000 4.008440 
# 
# 
# High freq. dielectric constant tensor:
#      x y z
#    x 1.817920 0.000000 -0.008930 
#    y 0.000000 1.814850 0.000000 
#    z -0.008930 0.000000 1.811660 
# 
# From -- ./inp_files/34485.got.cif
#   From: 2010.06.25/outbox.cif.g09.slc.cpg/sg15_18_cif.got.tgz:34485.got - 2010.06.28 07:06:18.
