data_PCOD8152876
_publ_section_title
;
Structure prediction by ZEFSAII (Michael W. Deem and Ramdas Pophale) SiO2 
 PCOD8152876
Probable space group: C 2/C
;
_chemical_formula_sum "Si O2"
_cell_formula_units_Z 32
_cell_length_a 16.430844
_cell_length_b 9.301485
_cell_length_c 18.663486
_cell_angle_alpha 90.000000
_cell_angle_beta 28.312892
_cell_angle_gamma 90.000000
_cell_volume 1352.837141
_symmetry_space_group_name_H-M "C 2/C"
_symmetry_group_IT_number 15
_symmetry_cell_setting 'monoclinic'
loop_
_space_group_symop_operation_xyz
x,y,z
-x,y,1/2-z
-x,-y,-z
x,-y,1/2+z
1/2+x,1/2+y,z
1/2-x,1/2+y,1/2-z
1/2-x,1/2-y,-z
1/2+x,1/2-y,1/2+z
loop_
_atom_site_type_symbol
_atom_site_label
_atom_site_fract_x
_atom_site_fract_y
_atom_site_fract_z
Si Si1 0.066364 0.935586 0.777183
Si Si2 0.026463 0.204198 0.567286
Si Si3 0.838965 0.204198 0.567281
Si Si4 0.120737 0.435581 0.722811
O O1 0.251156 0.859578 0.630178
O O2 0.000000 0.972312 0.750000
O O3 0.087863 0.083678 0.803898
O O4 0.929690 0.831052 0.921854
O O5 0.982396 0.203175 0.517602
O O6 0.988478 0.359579 0.630182
O O7 0.226592 0.168949 0.421862
O O8 0.695660 0.083678 0.696096
O O9 0.000000 0.472295 0.750000
#
# Coordination Sequence:
#
# PCOD8152876 Si02
#       4
#     8   8   8   8
#     4  11  23  40  62  90 123 160 201 249 299 356
#     4  11  23  42  63  90 123 160 201 249 300 358
#     4  11  23  42  63  90 123 160 201 249 300 358
#     4  11  23  40  62  90 123 160 201 249 299 356
#
# _framework density 23.653991999999999
#
# number of rings (size 3 to 8) (size 9 to 14) (size 15 to 20)
#    0.000    1.000    0.000    9.000    0.000    6.000 
#    0.000    5.000    0.000    0.000    0.000    0.000 
#    0.000    0.000    0.000    0.000    0.000    0.000 
#
# Total GULP energy -198525.088944 kJ/mol
# GULP energy per Si atom -12407.818059 kJ/mol
# Density = 2.360015 g / cm^3
# Si number density = 23.653992 Si / 1000 Ang^3
#
#
#
# Elastic Constant Matrix: (Units=GPa)
#
#
# Indices 1 2 3 4 5 6 
#
# 1 121.2651 -4.0200 10.0527 -0.0004 -1.1340 0.0003
# 2 -4.0200 29.7354 -6.1550 -0.0011 -0.0755 0.0009
# 3 10.0527 -6.1550 29.0441 -0.0003 -2.0491 0.0003
# 4 -0.0004 -0.0011 -0.0003 51.4507 0.0002 1.4641
# 5 -1.1340 -0.0755 -2.0491 0.0002 39.1663 -0.0001
# 6 0.0003 0.0009 0.0003 1.4641 -0.0001 9.0328
#
#
#
# Elastic Compliance Matrix: (Units=1/GPa)
#
#
# Indices 1 2 3 4 5 6 
#
# 1 0.008499 0.000567 -0.002815 0.000000 0.000100 0.000000
# 2 0.000567 0.035219 0.007300 0.000001 0.000466 -0.000004
# 3 -0.002815 0.007300 0.037084 0.000000 0.001873 -0.000002
# 4 0.000000 0.000001 0.000000 0.019526 0.000000 -0.003165
# 5 0.000100 0.000466 0.001873 0.000000 0.025634 0.000000
# 6 0.000000 -0.000004 -0.000002 -0.003165 0.000000 0.111220
#
#
# Mechanical properties :
#
#
# Convention : Reuss Voigt Hill
#
# Bulk Modulus (GPa) = 11.00030 19.97778 15.48904
# Shear Modulus (GPa) = 19.42651 31.94109 25.68380
#
# Velocity S-wave (km/s) = 2.86890 3.67869 3.29874
# Velocity P-wave (km/s) = 3.95408 5.14858 4.59035
#
# Compressibility (1/GPa) = 0.09090661
#
# Stress axis : x y z
#
# Youngs Moduli (GPa) = 117.65467 28.39393 26.96595
#
# Poissons Ratio (x) = -0.01609 0.07590
# Poissons Ratio (y) = -0.06668 -0.19686
# Poissons Ratio (z) = 0.33116 -0.20728
#
# Static dielectric constant tensor:
#      x y z
#    x 4.125810 0.000000 0.003460 
#    y 0.000000 4.292650 0.000000 
#    z 0.003460 0.000000 4.226560 
# 
# 
# High freq. dielectric constant tensor:
#      x y z
#    x 1.940520 0.000000 -0.000090 
#    y 0.000000 1.939780 0.000000 
#    z -0.000090 0.000000 1.937940 
# 
# From -- ./inp_files/36537.got.cif
#   From: 2010.06.25/outbox.cif.g09.slc.cpg/sg15_19_cif.got.tgz:36537.got - 2010.06.28 07:06:18.
