data_PCOD8152150
_publ_section_title
;
Structure prediction by ZEFSAII (Michael W. Deem and Ramdas Pophale) SiO2 
 PCOD8152150
Probable space group: C 2/C
;
_chemical_formula_sum "Si O2"
_cell_formula_units_Z 56
_cell_length_a 17.693733
_cell_length_b 25.873448
_cell_length_c 8.880173
_cell_angle_alpha 90.000000
_cell_angle_beta 41.157333
_cell_angle_gamma 90.000000
_cell_volume 2675.507745
_symmetry_space_group_name_H-M "C 2/C"
_symmetry_group_IT_number 15
_symmetry_cell_setting 'monoclinic'
loop_
_space_group_symop_operation_xyz
x,y,z
-x,y,1/2-z
-x,-y,-z
x,-y,1/2+z
1/2+x,1/2+y,z
1/2-x,1/2+y,1/2-z
1/2-x,1/2-y,-z
1/2+x,1/2-y,1/2+z
loop_
_atom_site_type_symbol
_atom_site_label
_atom_site_fract_x
_atom_site_fract_y
_atom_site_fract_z
Si Si1 0.482856 0.840524 0.607107
Si Si2 0.707184 0.206093 0.297474
Si Si3 0.136867 0.531140 0.547611
Si Si4 0.616743 0.650507 0.658446
Si Si5 0.188384 0.432400 0.647481
Si Si6 0.703442 0.865787 0.091578
Si Si7 0.383152 0.687361 0.506625
O O1 0.500000 0.819847 0.750000
O O2 0.406105 0.799039 0.634745
O O3 0.422573 0.896198 0.699280
O O4 0.604159 0.843593 0.344920
O O5 0.703946 0.163304 0.431915
O O6 0.705189 0.264084 0.364519
O O7 0.819962 0.196728 0.026837
O O8 0.180073 0.474889 0.530298
O O9 0.189673 0.539519 0.305030
O O10 0.186070 0.573654 0.588867
O O11 0.000000 0.534856 0.750000
O O12 0.500000 0.635386 0.750000
O O13 0.695675 0.599855 0.547634
O O14 0.588803 0.669004 0.867961
O O15 0.822928 0.858015 0.000833
O O16 0.500000 0.703944 0.250000
#
# Coordination Sequence:
#
# PCOD8152150 Si02
#       7
#     8   8   8   8   8   8   8
#     4  11  22  38  63  98 139 173 217 273 332 396
#     4  11  23  45  67  97 132 176 223 274 330 386
#     4  12  23  41  68 102 133 173 213 278 337 397
#     4  11  25  48  68  94 137 177 218 275 329 394
#     4  11  25  41  67  98 135 169 222 271 340 392
#     4  12  22  41  65  96 136 174 218 276 335 390
#     4  12  27  42  69  99 131 176 228 271 326 399
#
# _framework density 20.930607999999999
#
# number of rings (size 3 to 8) (size 9 to 14) (size 15 to 20)
#    0.000    0.571    4.286    5.571    4.000    1.714 
#    0.000    1.429    0.000    0.000    0.000    0.000 
#    0.000    0.000    0.000    0.000    0.000    0.000 
#
# Total GULP energy -347390.179575 kJ/mol
# GULP energy per Si atom -12406.792128 kJ/mol
# Density = 2.088297 g / cm^3
# Si number density = 20.930608 Si / 1000 Ang^3
#
#
#
# Elastic Constant Matrix: (Units=GPa)
#
#
# Indices 1 2 3 4 5 6 
#
# 1 110.9836 34.4129 40.3743 0.0000 3.3131 0.0000
# 2 34.4129 103.1051 28.7468 0.0000 -8.5527 0.0000
# 3 40.3743 28.7468 119.6525 0.0000 14.5508 0.0000
# 4 0.0000 0.0000 0.0000 23.3467 0.0000 8.8192
# 5 3.3131 -8.5527 14.5508 0.0000 36.0822 0.0000
# 6 0.0000 0.0000 0.0000 8.8192 0.0000 30.4036
#
#
#
# Elastic Compliance Matrix: (Units=1/GPa)
#
#
# Indices 1 2 3 4 5 6 
#
# 1 0.010996 -0.002888 -0.002955 0.000000 -0.000502 0.000000
# 2 -0.002888 0.011632 -0.002301 0.000000 0.003950 0.000000
# 3 -0.002955 -0.002301 0.010453 0.000000 -0.004489 0.000000
# 4 0.000000 0.000000 0.000000 0.048104 0.000000 -0.013953
# 5 -0.000502 0.003950 -0.004489 0.000000 0.030507 0.000000
# 6 0.000000 0.000000 0.000000 -0.013953 0.000000 0.036938
#
#
# Mechanical properties :
#
#
# Convention : Reuss Voigt Hill
#
# Bulk Modulus (GPa) = 59.54608 60.08988 59.81798
# Shear Modulus (GPa) = 29.32282 33.31363 31.31823
#
# Velocity S-wave (km/s) = 3.74699 3.99384 3.87239
# Velocity P-wave (km/s) = 6.87248 7.07383 6.97388
#
# Compressibility (1/GPa) = 0.01679372
#
# Stress axis : x y z
#
# Youngs Moduli (GPa) = 90.94308 85.97184 95.66202
#
# Poissons Ratio (x) = 0.24826 0.28273
# Poissons Ratio (y) = 0.26262 0.22007
# Poissons Ratio (z) = 0.26878 0.19778
#
# Static dielectric constant tensor:
#      x y z
#    x 4.194590 0.000000 0.280340 
#    y 0.000000 3.756150 0.000000 
#    z 0.280340 0.000000 3.872380 
# 
# 
# High freq. dielectric constant tensor:
#      x y z
#    x 1.829360 0.000000 0.015990 
#    y 0.000000 1.815170 0.000000 
#    z 0.015990 0.000000 1.826340 
# 
# From -- ./inp_files/34166.got.cif
#   From: 2010.06.25/outbox.cif.g09.slc.cpg/sg15_18_cif.got.tgz:34166.got - 2010.06.28 07:06:18.
