data_PCOD8152443
_publ_section_title
;
Structure prediction by ZEFSAII (Michael W. Deem and Ramdas Pophale) SiO2 
 PCOD8152443
Probable space group: C 2/C
;
_chemical_formula_sum "Si O2"
_cell_formula_units_Z 44
_cell_length_a 12.987129
_cell_length_b 9.281746
_cell_length_c 26.736517
_cell_angle_alpha 90.000000
_cell_angle_beta 144.033803
_cell_angle_gamma 90.000000
_cell_volume 1892.838109
_symmetry_space_group_name_H-M "C 2/C"
_symmetry_group_IT_number 15
_symmetry_cell_setting 'monoclinic'
loop_
_space_group_symop_operation_xyz
x,y,z
-x,y,1/2-z
-x,-y,-z
x,-y,1/2+z
1/2+x,1/2+y,z
1/2-x,1/2+y,1/2-z
1/2-x,1/2-y,-z
1/2+x,1/2-y,1/2+z
loop_
_atom_site_type_symbol
_atom_site_label
_atom_site_fract_x
_atom_site_fract_y
_atom_site_fract_z
Si Si1 0.538524 0.220828 0.638110
Si Si2 0.723425 0.077039 0.207483
Si Si3 0.500000 0.477547 0.250000
Si Si4 0.018704 0.783769 0.439110
Si Si5 0.819919 0.915745 0.084592
Si Si6 0.322940 0.768915 0.958569
O O1 0.643725 0.361755 0.698315
O O2 0.488103 0.251456 0.560802
O O3 0.356420 0.191225 0.595799
O O4 0.661445 0.083602 0.696664
O O5 0.554438 0.174777 0.131891
O O6 0.833058 0.076240 0.198437
O O7 0.455226 0.383005 0.183212
O O8 0.876631 0.806966 0.427107
O O9 0.077324 0.923558 0.429108
O O10 0.188074 0.717063 0.532121
O O11 0.713932 0.060155 0.055384
#
# Coordination Sequence:
#
# PCOD8152443 Si02
#       6
#     8   8   4   8   8   8
#     4  11  25  40  72  99 141 182 237 285 363 417
#     4  12  22  41  69 102 133 183 234 296 344 431
#     4  12  22  40  74  94 134 182 240 278 354 426
#     4  11  23  40  74  99 137 180 240 287 349 428
#     4  11  22  41  71 106 129 183 242 288 344 438
#     4  11  22  47  69  98 139 195 224 292 364 430
#
# _framework density 23.245518000000001
#
# number of rings (size 3 to 8) (size 9 to 14) (size 15 to 20)
#    0.000    0.727    5.455    2.727    0.000    0.000 
#    0.000    3.636   16.000    1.091    0.000    0.000 
#    0.000    0.000    0.000    0.000    0.000    0.000 
#
# Total GULP energy -272636.115064 kJ/mol
# GULP energy per Si atom -12392.550685 kJ/mol
# Density = 2.319261 g / cm^3
# Si number density = 23.245518 Si / 1000 Ang^3
#
#
#
# Elastic Constant Matrix: (Units=GPa)
#
#
# Indices 1 2 3 4 5 6 
#
# 1 132.3901 28.1209 46.5398 0.0000 -13.7337 0.0000
# 2 28.1209 59.3482 42.5121 0.0000 -3.9352 0.0000
# 3 46.5398 42.5121 158.7026 0.0000 -10.8453 0.0000
# 4 0.0000 0.0000 0.0000 39.9571 0.0000 2.6439
# 5 -13.7337 -3.9352 -10.8453 0.0000 36.8744 0.0000
# 6 0.0000 0.0000 0.0000 2.6439 0.0000 31.7127
#
#
#
# Elastic Compliance Matrix: (Units=1/GPa)
#
#
# Indices 1 2 3 4 5 6 
#
# 1 0.009030 -0.002893 -0.001699 0.000000 0.002555 0.000000
# 2 -0.002893 0.021790 -0.005004 0.000000 -0.000224 0.000000
# 3 -0.001699 -0.005004 0.008225 0.000000 0.001252 0.000000
# 4 0.000000 0.000000 0.000000 0.025166 0.000000 -0.002098
# 5 0.002555 -0.000224 0.001252 0.000000 0.028415 0.000000
# 6 0.000000 0.000000 0.000000 -0.002098 0.000000 0.031708
#
#
# Mechanical properties :
#
#
# Convention : Reuss Voigt Hill
#
# Bulk Modulus (GPa) = 50.36545 64.97627 57.67086
# Shear Modulus (GPa) = 33.30170 37.26004 35.28087
#
# Velocity S-wave (km/s) = 3.78909 4.00796 3.90006
# Velocity P-wave (km/s) = 6.39192 7.03073 6.71892
#
# Compressibility (1/GPa) = 0.01985488
#
# Stress axis : x y z
#
# Youngs Moduli (GPa) = 110.74193 45.89292 121.57703
#
# Poissons Ratio (x) = 0.13275 0.20652
# Poissons Ratio (y) = 0.32032 0.60837
# Poissons Ratio (z) = 0.18811 0.22965
#
# Static dielectric constant tensor:
#      x y z
#    x 4.400700 0.000000 0.044200 
#    y 0.000000 3.785100 0.000000 
#    z 0.044200 0.000000 4.459290 
# 
# 
# High freq. dielectric constant tensor:
#      x y z
#    x 1.921680 0.000000 0.008710 
#    y 0.000000 1.880130 0.000000 
#    z 0.008710 0.000000 1.946120 
# 
# From -- ./inp_files/269344.got.cif
#   From: 2010.06.25/outbox.cif.g09.slc.cpg/sg15_135_cif.got.tgz:269344.got - 2010.06.28 07:06:18.
