data_PCOD8152271
_publ_section_title
;
Structure prediction by ZEFSAII (Michael W. Deem and Ramdas Pophale) SiO2 
 PCOD8152271
Probable space group: C 2/C
;
_chemical_formula_sum "Si O2"
_cell_formula_units_Z 48
_cell_length_a 14.686740
_cell_length_b 26.785205
_cell_length_c 11.201255
_cell_angle_alpha 90.000000
_cell_angle_beta 150.279305
_cell_angle_gamma 90.000000
_cell_volume 2184.587254
_symmetry_space_group_name_H-M "C 2/C"
_symmetry_group_IT_number 15
_symmetry_cell_setting 'monoclinic'
loop_
_space_group_symop_operation_xyz
x,y,z
-x,y,1/2-z
-x,-y,-z
x,-y,1/2+z
1/2+x,1/2+y,z
1/2-x,1/2+y,1/2-z
1/2-x,1/2-y,-z
1/2+x,1/2-y,1/2+z
loop_
_atom_site_type_symbol
_atom_site_label
_atom_site_fract_x
_atom_site_fract_y
_atom_site_fract_z
Si Si1 0.400119 0.939809 0.246081
Si Si2 0.665913 0.304231 0.284220
Si Si3 0.265968 0.094618 0.241590
Si Si4 0.301330 0.951399 0.543244
Si Si5 0.246457 0.697044 0.358172
Si Si6 0.630655 0.595251 0.627268
O O1 0.500000 0.909200 0.250000
O O2 0.567317 0.942698 0.532752
O O3 0.219089 0.915805 0.098725
O O4 0.330221 0.991241 0.111056
O O5 0.800655 0.304419 0.553441
O O6 0.687835 0.251218 0.239727
O O7 0.714652 0.350593 0.255406
O O8 0.460193 0.312234 0.089683
O O9 0.196515 0.077014 0.031413
O O10 0.347007 0.151376 0.321015
O O11 0.092177 0.093308 0.134710
O O12 0.500000 0.925946 0.750000
O O13 0.187756 0.946098 0.291139
#
# Coordination Sequence:
#
# PCOD8152271 Si02
#       6
#     8   8   8   8   8   8
#     4  11  27  44  60  88 125 166 225 260 301 371
#     4   9  18  32  55  95 127 150 192 244 317 386
#     4  11  22  41  64  92 128 165 206 255 316 379
#     4  11  22  40  63  90 125 160 207 261 316 378
#     4   9  18  31  56  94 127 152 189 245 315 384
#     4  11  23  42  65  92 126 166 205 260 322 369
#
# _framework density 21.972114000000001
#
# number of rings (size 3 to 8) (size 9 to 14) (size 15 to 20)
#    0.000    1.667    3.333    1.000    4.667    1.333 
#    6.000    0.000    0.000    1.000    0.000    0.000 
#    0.000    0.000    0.000    0.000    0.000    0.000 
#
# Total GULP energy -297352.739425 kJ/mol
# GULP energy per Si atom -12389.697476 kJ/mol
# Density = 2.192210 g / cm^3
# Si number density = 21.972114 Si / 1000 Ang^3
#
#
#
# Elastic Constant Matrix: (Units=GPa)
#
#
# Indices 1 2 3 4 5 6 
#
# 1 127.0069 39.9074 -2.9162 0.0000 18.0750 0.0000
# 2 39.9074 147.9687 21.0059 0.0000 -2.1407 0.0000
# 3 -2.9162 21.0059 28.5465 0.0000 9.0038 0.0000
# 4 0.0000 0.0000 0.0000 16.4384 0.0000 7.5130
# 5 18.0750 -2.1407 9.0038 0.0000 29.6371 0.0000
# 6 0.0000 0.0000 0.0000 7.5130 0.0000 23.9275
#
#
#
# Elastic Compliance Matrix: (Units=1/GPa)
#
#
# Indices 1 2 3 4 5 6 
#
# 1 0.010496 -0.003908 0.006698 0.000000 -0.008718 0.000000
# 2 -0.003908 0.009168 -0.008965 0.000000 0.005769 0.000000
# 3 0.006698 -0.008965 0.048447 0.000000 -0.019451 0.000000
# 4 0.000000 0.000000 0.000000 0.071026 0.000000 -0.022302
# 5 -0.008718 0.005769 -0.019451 0.000000 0.045384 0.000000
# 6 0.000000 0.000000 0.000000 -0.022302 0.000000 0.048796
#
#
# Mechanical properties :
#
#
# Convention : Reuss Voigt Hill
#
# Bulk Modulus (GPa) = 17.93399 46.61292 32.27346
# Shear Modulus (GPa) = 18.92115 30.36892 24.64503
#
# Velocity S-wave (km/s) = 2.93771 3.72177 3.35274
# Velocity P-wave (km/s) = 4.43697 6.30313 5.45051
#
# Compressibility (1/GPa) = 0.05576003
#
# Stress axis : x y z
#
# Youngs Moduli (GPa) = 95.27461 109.07155 20.64124
#
# Poissons Ratio (x) = 0.42622 -0.13825
# Poissons Ratio (y) = 0.37231 0.18505
# Poissons Ratio (z) = -0.63810 0.97786
#
# Static dielectric constant tensor:
#      x y z
#    x 4.231250 0.000000 0.172700 
#    y 0.000000 4.107510 0.000000 
#    z 0.172700 0.000000 3.642090 
# 
# 
# High freq. dielectric constant tensor:
#      x y z
#    x 1.856890 0.000000 0.030770 
#    y 0.000000 1.860260 0.000000 
#    z 0.030770 0.000000 1.833950 
# 
# From -- ./inp_files/101405.got.cif
#   From: 2010.06.25/outbox.cif.g09.slc.cpg/sg15_51_cif.got.tgz:101405.got - 2010.06.28 07:06:18.
