data_PCOD8152917
_publ_section_title
;
Structure prediction by ZEFSAII (Michael W. Deem and Ramdas Pophale) SiO2 
 PCOD8152917
Probable space group: C 2/C
;
_chemical_formula_sum "Si O2"
_cell_formula_units_Z 36
_cell_length_a 9.994917
_cell_length_b 11.785425
_cell_length_c 13.422202
_cell_angle_alpha 90.000000
_cell_angle_beta 116.224706
_cell_angle_gamma 90.000000
_cell_volume 1418.317729
_symmetry_space_group_name_H-M "C 2/C"
_symmetry_group_IT_number 15
_symmetry_cell_setting 'monoclinic'
loop_
_space_group_symop_operation_xyz
x,y,z
-x,y,1/2-z
-x,-y,-z
x,-y,1/2+z
1/2+x,1/2+y,z
1/2-x,1/2+y,1/2-z
1/2-x,1/2-y,-z
1/2+x,1/2-y,1/2+z
loop_
_atom_site_type_symbol
_atom_site_label
_atom_site_fract_x
_atom_site_fract_y
_atom_site_fract_z
Si Si1 0.072450 0.882590 0.136790
Si Si2 0.844926 0.926751 0.555331
Si Si3 0.000000 0.238934 0.250000
Si Si4 0.955800 0.631386 0.424767
Si Si5 0.852907 0.588761 0.832603
O O1 0.051684 0.746818 0.139770
O O2 0.173584 0.931343 0.262321
O O3 0.161105 0.903071 0.063514
O O4 0.913947 0.946783 0.090528
O O5 0.682457 0.907942 0.548780
O O6 0.951078 0.834089 0.639896
O O7 0.872393 0.319188 0.251811
O O8 0.950405 0.526539 0.344497
O O9 0.102433 0.636220 0.542969
#
# Coordination Sequence:
#
# PCOD8152917 Si02
#       5
#     8   8   4   8   8
#     4  11  23  41  70 103 131 184 235 287 342 431
#     4  11  23  40  71  97 132 179 238 276 354 411
#     4  12  20  42  68  96 130 186 220 288 332 426
#     4  11  23  45  63 102 140 180 226 298 339 420
#     4  11  24  38  68  96 140 179 230 287 354 402
#
# _framework density 25.382183000000001
#
# number of rings (size 3 to 8) (size 9 to 14) (size 15 to 20)
#    0.000    0.889    4.444    3.333    0.000    0.000 
#    0.000    7.778    0.000    0.000    0.000    0.000 
#    0.000    0.000    0.000    0.000    0.000    0.000 
#
# Total GULP energy -222995.053747 kJ/mol
# GULP energy per Si atom -12388.614097 kJ/mol
# Density = 2.532441 g / cm^3
# Si number density = 25.382183 Si / 1000 Ang^3
#
#
#
# Elastic Constant Matrix: (Units=GPa)
#
#
# Indices 1 2 3 4 5 6 
#
# 1 39.6438 11.4096 18.6199 0.0000 -11.4469 0.0000
# 2 11.4096 186.2211 52.8581 0.0000 7.6807 0.0000
# 3 18.6199 52.8581 154.1105 0.0000 25.3903 0.0000
# 4 0.0000 0.0000 0.0000 -49.0924 0.0000 72.1233
# 5 -11.4469 7.6807 25.3903 0.0000 38.1499 0.0000
# 6 0.0000 0.0000 0.0000 72.1233 0.0000 -26.9465
#
#
#
# Elastic Compliance Matrix: (Units=1/GPa)
#
#
# Indices 1 2 3 4 5 6 
#
# 1 0.032189 -0.000878 -0.005850 0.000000 0.013728 0.000000
# 2 -0.000878 0.005974 -0.001911 0.000000 -0.000194 0.000000
# 3 -0.005850 -0.001911 0.009072 0.000000 -0.007408 0.000000
# 4 0.000000 0.000000 0.000000 0.006947 0.000000 0.018594
# 5 0.013728 -0.000194 -0.007408 0.000000 0.035301 0.000000
# 6 0.000000 0.000000 0.000000 0.018594 0.000000 0.012656
#
#
# Mechanical properties :
#
#
# Convention : Reuss Voigt Hill
#
# Bulk Modulus (GPa) = 33.38106 60.63897 47.01001
# Shear Modulus (GPa) = 38.63934 12.22807 25.43371
#
# Velocity S-wave (km/s) = 3.90590 2.19728 3.16892
# Velocity P-wave (km/s) = 5.78976 5.51177 5.65248
#
# Compressibility (1/GPa) = 0.02995711
#
# Stress axis : x y z
#
# Youngs Moduli (GPa) = 31.06675 167.38670 110.23457
#
# Poissons Ratio (x) = 0.14696 0.64485
# Poissons Ratio (y) = 0.02728 0.21066
# Poissons Ratio (z) = 0.18173 0.31987
#
# Static dielectric constant tensor:
#      x y z
#    x 4.222300 0.000000 0.172150 
#    y 0.000000 5.022200 0.000000 
#    z 0.172150 0.000000 4.640870 
# 
# 
# High freq. dielectric constant tensor:
#      x y z
#    x 1.989290 0.000000 0.012920 
#    y 0.000000 2.028830 0.000000 
#    z 0.012920 0.000000 2.028570 
# 
# From -- ./inp_files/141650.got.cif
#   From: 2010.06.25/outbox.cif.g09.slc.cpg/sg15_71_cif.got.tgz:141650.got - 2010.06.28 07:06:18.
