data_PCOD8152532
_publ_section_title
;
Structure prediction by ZEFSAII (Michael W. Deem and Ramdas Pophale) SiO2 
 PCOD8152532
Probable space group: C 2/C
;
_chemical_formula_sum "Si O2"
_cell_formula_units_Z 64
_cell_length_a 17.581369
_cell_length_b 9.372067
_cell_length_c 28.746164
_cell_angle_alpha 90.000000
_cell_angle_beta 37.705982
_cell_angle_gamma 90.000000
_cell_volume 2896.958663
_symmetry_space_group_name_H-M "C 2/C"
_symmetry_group_IT_number 15
_symmetry_cell_setting 'monoclinic'
loop_
_space_group_symop_operation_xyz
x,y,z
-x,y,1/2-z
-x,-y,-z
x,-y,1/2+z
1/2+x,1/2+y,z
1/2-x,1/2+y,1/2-z
1/2-x,1/2-y,-z
1/2+x,1/2-y,1/2+z
loop_
_atom_site_type_symbol
_atom_site_label
_atom_site_fract_x
_atom_site_fract_y
_atom_site_fract_z
Si Si1 0.199898 0.441527 0.848228
Si Si2 0.778663 0.353564 0.944344
Si Si3 0.122811 0.196632 0.941669
Si Si4 0.852885 0.139468 0.468829
Si Si5 0.279431 0.539109 0.165285
Si Si6 0.071010 0.972139 0.320135
Si Si7 0.642457 0.778639 0.427388
Si Si8 0.552380 0.140057 0.326528
O O1 0.219117 0.306566 0.872356
O O2 0.339086 0.476911 0.764606
O O3 0.142603 0.558074 0.911181
O O4 0.107695 0.405067 0.849892
O O5 0.753725 0.264017 0.909033
O O6 0.916142 0.420264 0.883160
O O7 0.750000 0.250000 0.000000
O O8 0.694703 0.491110 0.988677
O O9 0.185479 0.043947 0.899363
O O10 0.097644 0.217367 0.008712
O O11 0.986910 0.231331 0.985167
O O12 0.750000 0.250000 0.500000
O O13 0.960777 0.091571 0.379669
O O14 0.348195 0.455821 0.172616
O O15 0.336730 0.695992 0.131365
O O16 0.134816 0.563284 0.246846
O O17 0.031028 0.810248 0.329307
#
# Coordination Sequence:
#
# PCOD8152532 Si02
#       8
#     8   8   8   8   8   8   8   8
#     4  11  26  42  74 107 136 186 243 295 350 426
#     4  12  26  43  69  98 142 184 231 287 364 426
#     4  12  24  45  69 100 141 179 243 292 339 427
#     4  12  28  45  70 102 138 189 233 293 365 424
#     4  11  22  42  71  99 130 184 233 281 354 418
#     4  11  22  47  70 100 142 184 230 293 366 417
#     4  12  24  43  70 105 134 188 237 288 347 431
#     4  11  24  43  71 104 142 180 236 297 355 425
#
# _framework density 22.092134000000001
#
# number of rings (size 3 to 8) (size 9 to 14) (size 15 to 20)
#    0.000    0.500    6.250    2.250    3.500    1.500 
#    0.000    3.125    0.000    0.000    0.000    0.000 
#    0.000    0.000    0.000    0.000    0.000    0.000 
#
# Total GULP energy -396495.252807 kJ/mol
# GULP energy per Si atom -12390.476650 kJ/mol
# Density = 2.204185 g / cm^3
# Si number density = 22.092134 Si / 1000 Ang^3
#
#
#
# Elastic Constant Matrix: (Units=GPa)
#
#
# Indices 1 2 3 4 5 6 
#
# 1 67.3023 30.9383 37.4659 0.0003 -5.1939 -0.0040
# 2 30.9383 80.9787 36.0965 0.0000 0.6873 -0.0077
# 3 37.4659 36.0965 140.4604 0.0001 -10.4556 0.0012
# 4 0.0003 0.0000 0.0001 45.7938 -0.0002 4.9449
# 5 -5.1939 0.6873 -10.4556 -0.0002 29.2262 0.0000
# 6 -0.0040 -0.0077 0.0012 4.9449 0.0000 34.8853
#
#
#
# Elastic Compliance Matrix: (Units=1/GPa)
#
#
# Indices 1 2 3 4 5 6 
#
# 1 0.019777 -0.005990 -0.003559 0.000000 0.002382 0.000001
# 2 -0.005990 0.015839 -0.002650 0.000000 -0.002385 0.000003
# 3 -0.003559 -0.002650 0.008945 0.000000 0.002630 -0.000001
# 4 0.000000 0.000000 0.000000 0.022176 0.000000 -0.003143
# 5 0.002382 -0.002385 0.002630 0.000000 0.035636 0.000000
# 6 0.000001 0.000003 -0.000001 -0.003143 0.000000 0.029111
#
#
# Mechanical properties :
#
#
# Convention : Reuss Voigt Hill
#
# Bulk Modulus (GPa) = 49.59335 55.30476 52.44905
# Shear Modulus (GPa) = 30.74975 34.26378 32.50677
#
# Velocity S-wave (km/s) = 3.73485 3.94248 3.84007
# Velocity P-wave (km/s) = 6.41061 6.76847 6.59197
#
# Compressibility (1/GPa) = 0.02016399
#
# Stress axis : x y z
#
# Youngs Moduli (GPa) = 50.56488 63.13561 111.78819
#
# Poissons Ratio (x) = 0.37817 0.39780
# Poissons Ratio (y) = 0.30287 0.29627
# Poissons Ratio (z) = 0.17994 0.16733
#
# Static dielectric constant tensor:
#      x y z
#    x 3.642850 0.000040 -0.166480 
#    y 0.000040 3.659850 0.000000 
#    z -0.166480 0.000000 4.182730 
# 
# 
# High freq. dielectric constant tensor:
#      x y z
#    x 1.846980 0.000000 0.002820 
#    y 0.000000 1.877100 0.000000 
#    z 0.002820 0.000000 1.885130 
# 
# From -- ./inp_files/315662.got.cif
#   From: 2010.06.25/outbox.cif.g09.slc.cpg/sg15_158_cif.got.tgz:315662.got - 2010.06.28 07:06:18.
