data_PCOD8152130
_publ_section_title
;
Structure prediction by ZEFSAII (Michael W. Deem and Ramdas Pophale) SiO2 
 PCOD8152130
Probable space group: C 2/C
;
_chemical_formula_sum "Si O2"
_cell_formula_units_Z 64
_cell_length_a 9.432931
_cell_length_b 19.098046
_cell_length_c 24.223383
_cell_angle_alpha 90.000000
_cell_angle_beta 52.772787
_cell_angle_gamma 90.000000
_cell_volume 3474.688173
_symmetry_space_group_name_H-M "C 2/C"
_symmetry_group_IT_number 15
_symmetry_cell_setting 'monoclinic'
loop_
_space_group_symop_operation_xyz
x,y,z
-x,y,1/2-z
-x,-y,-z
x,-y,1/2+z
1/2+x,1/2+y,z
1/2-x,1/2+y,1/2-z
1/2-x,1/2-y,-z
1/2+x,1/2-y,1/2+z
loop_
_atom_site_type_symbol
_atom_site_label
_atom_site_fract_x
_atom_site_fract_y
_atom_site_fract_z
Si Si1 0.114224 0.435566 0.775588
Si Si2 0.579613 0.169479 0.790631
Si Si3 0.560022 0.932844 0.574444
Si Si4 0.201163 0.063650 0.578131
Si Si5 0.754408 0.600384 0.072112
Si Si6 0.486790 0.097665 0.921145
Si Si7 0.877725 0.066167 0.725547
Si Si8 0.930910 0.165634 0.206086
O O1 0.235339 0.503091 0.761006
O O2 0.242023 0.369166 0.737113
O O3 0.000000 0.454766 0.750000
O O4 0.960681 0.414663 0.856315
O O5 0.500000 0.147287 0.750000
O O6 0.465729 0.136303 0.867497
O O7 0.777628 0.139809 0.750821
O O8 0.590160 0.252027 0.794351
O O9 0.744519 0.913584 0.497988
O O10 0.403210 0.887104 0.583588
O O11 0.536029 0.015435 0.578155
O O12 0.321364 0.107732 0.593663
O O13 0.993546 0.072536 0.641986
O O14 0.234299 0.982135 0.575517
O O15 0.572320 0.639885 0.127676
O O16 0.828357 0.628894 0.996297
O O17 0.000000 0.054934 0.750000
O O18 0.000000 0.142516 0.250000
#
# Coordination Sequence:
#
# PCOD8152130 Si02
#       8
#     8   8   8   8   8   8   8   8
#     4  12  23  36  58  87 116 145 184 241 291 327
#     4  11  24  37  53  85 120 149 189 236 286 324
#     4   9  17  32  57  85 115 138 179 242 288 326
#     4   9  17  31  58  89 105 141 192 231 279 340
#     4   9  16  32  59  85 110 140 196 227 273 344
#     4   9  17  32  55  87 113 145 179 238 281 329
#     4  12  20  36  62  84 109 150 195 228 277 348
#     4  11  22  38  58  81 111 158 195 228 275 343
#
# _framework density 18.41892
#
# number of rings (size 3 to 8) (size 9 to 14) (size 15 to 20)
#    0.000    1.750    5.000    3.000    0.000    1.000 
#    0.000    1.875    0.000    0.750    0.000    0.000 
#    0.000    0.000    0.000    0.000    0.000    0.000 
#
# Total GULP energy -396423.382135 kJ/mol
# GULP energy per Si atom -12388.230692 kJ/mol
# Density = 1.837700 g / cm^3
# Si number density = 18.418920 Si / 1000 Ang^3
#
#
#
# Elastic Constant Matrix: (Units=GPa)
#
#
# Indices 1 2 3 4 5 6 
#
# 1 81.6712 32.7592 48.3447 0.0013 10.7415 -0.0001
# 2 32.7592 63.3310 32.4372 0.0009 4.3658 -0.0002
# 3 48.3447 32.4372 186.4138 0.0098 -1.5142 -0.0024
# 4 0.0013 0.0009 0.0098 4.4558 -0.0024 1.9620
# 5 10.7415 4.3658 -1.5142 -0.0024 23.6369 0.0002
# 6 -0.0001 -0.0002 -0.0024 1.9620 0.0002 20.9745
#
#
#
# Elastic Compliance Matrix: (Units=1/GPa)
#
#
# Indices 1 2 3 4 5 6 
#
# 1 0.018105 -0.007068 -0.003524 0.000000 -0.007148 0.000000
# 2 -0.007068 0.020371 -0.001717 0.000001 -0.000661 0.000000
# 3 -0.003524 -0.001717 0.006596 -0.000013 0.002341 0.000002
# 4 0.000000 0.000001 -0.000013 0.234070 0.000022 -0.021896
# 5 -0.007148 -0.000661 0.002341 0.000022 0.045827 -0.000002
# 6 0.000000 0.000000 0.000002 -0.021896 -0.000002 0.049725
#
#
# Mechanical properties :
#
#
# Convention : Reuss Voigt Hill
#
# Bulk Modulus (GPa) = 48.88729 62.05536 55.47133
# Shear Modulus (GPa) = 12.31136 24.33842 18.32489
#
# Velocity S-wave (km/s) = 2.58816 3.63902 3.15762
# Velocity P-wave (km/s) = 5.96079 7.17084 6.59363
#
# Compressibility (1/GPa) = 0.02045521
#
# Stress axis : x y z
#
# Youngs Moduli (GPa) = 55.23328 49.08944 151.60631
#
# Poissons Ratio (x) = 0.34695 0.53420
# Poissons Ratio (y) = 0.39037 0.26033
# Poissons Ratio (z) = 0.19462 0.08429
#
# Static dielectric constant tensor:
#      x y z
#    x 4.473540 0.000000 -3.185330 
#    y 0.000000 3.076220 0.000000 
#    z -3.185330 0.000000 11.793460 
# 
# 
# High freq. dielectric constant tensor:
#      x y z
#    x 1.681790 0.000000 -0.003940 
#    y 0.000000 1.681330 0.000000 
#    z -0.003940 0.000000 1.745310 
# 
# From -- ./inp_files/265913.got.cif
#   From: 2010.06.25/outbox.cif.g09.slc.cpg/sg15_133_cif.got.tgz:265913.got - 2010.06.28 07:06:18.
