data_PCOD8152059
_publ_section_title
;
Structure prediction by ZEFSAII (Michael W. Deem and Ramdas Pophale) SiO2 
 PCOD8152059
Probable space group: C 2/C
;
_chemical_formula_sum "Si O2"
_cell_formula_units_Z 48
_cell_length_a 14.466856
_cell_length_b 21.758431
_cell_length_c 14.333164
_cell_angle_alpha 90.000000
_cell_angle_beta 29.373238
_cell_angle_gamma 90.000000
_cell_volume 2212.992566
_symmetry_space_group_name_H-M "C 2/C"
_symmetry_group_IT_number 15
_symmetry_cell_setting 'monoclinic'
loop_
_space_group_symop_operation_xyz
x,y,z
-x,y,1/2-z
-x,-y,-z
x,-y,1/2+z
1/2+x,1/2+y,z
1/2-x,1/2+y,1/2-z
1/2-x,1/2-y,-z
1/2+x,1/2-y,1/2+z
loop_
_atom_site_type_symbol
_atom_site_label
_atom_site_fract_x
_atom_site_fract_y
_atom_site_fract_z
Si Si1 0.067879 0.325697 0.505965
Si Si2 0.261800 0.288109 0.586620
Si Si3 0.074800 0.498305 0.283498
Si Si4 0.165882 0.417961 0.872064
Si Si5 0.944552 0.104134 0.695773
Si Si6 0.524904 0.529365 0.117877
O O1 0.172753 0.261349 0.391495
O O2 0.226418 0.377399 0.383189
O O3 0.925570 0.349357 0.549367
O O4 0.943524 0.314252 0.708835
O O5 0.250000 0.250000 0.500000
O O6 0.414761 0.342101 0.459038
O O7 0.114678 0.555947 0.314783
O O8 0.000000 0.523762 0.250000
O O9 0.918028 0.455826 0.468225
O O10 0.261320 0.457277 0.101216
O O11 0.391465 0.418791 0.687217
O O12 0.000000 0.086017 0.750000
O O13 0.967644 0.038044 0.624453
O O14 0.500000 0.534562 0.250000
#
# Coordination Sequence:
#
# PCOD8152059 Si02
#       6
#     8   8   8   8   8   8
#     4  12  24  38  59  87 128 167 209 265 317 383
#     4  12  23  39  59  89 129 170 218 260 323 396
#     4  11  22  40  64  92 135 172 218 271 324 392
#     4  11  25  41  63  97 132 173 225 272 327 398
#     4  11  22  34  57  89 126 172 213 254 312 389
#     4  11  23  42  65  96 135 177 222 267 334 389
#
# _framework density 21.690086000000001
#
# number of rings (size 3 to 8) (size 9 to 14) (size 15 to 20)
#    0.000    0.667    5.000    4.000    2.333    2.667 
#    0.000    0.000    0.000    0.000    0.000    3.500 
#    0.000    0.000    0.000    0.000    0.000    0.000 
#
# Total GULP energy -297396.506650 kJ/mol
# GULP energy per Si atom -12391.521110 kJ/mol
# Density = 2.164072 g / cm^3
# Si number density = 21.690086 Si / 1000 Ang^3
#
#
#
# Elastic Constant Matrix: (Units=GPa)
#
#
# Indices 1 2 3 4 5 6 
#
# 1 82.0037 24.6942 20.1391 -0.0239 -11.7866 0.0350
# 2 24.6942 56.6671 -16.5742 0.0014 -10.3973 0.0255
# 3 20.1391 -16.5742 95.3004 0.0133 -21.5719 -0.0124
# 4 -0.0239 0.0014 0.0133 16.8608 0.0316 -9.4867
# 5 -11.7866 -10.3973 -21.5719 0.0316 40.1958 -0.0145
# 6 0.0350 0.0255 -0.0124 -9.4867 -0.0145 19.8131
#
#
#
# Elastic Compliance Matrix: (Units=1/GPa)
#
#
# Indices 1 2 3 4 5 6 
#
# 1 0.015882 -0.008351 -0.004830 0.000021 -0.000095 -0.000010
# 2 -0.008351 0.025175 0.008039 -0.000054 0.008377 -0.000032
# 3 -0.004830 0.008039 0.014868 -0.000038 0.008643 -0.000004
# 4 0.000021 -0.000054 -0.000038 0.081179 -0.000078 0.038869
# 5 -0.000095 0.008377 0.008643 -0.000078 0.031655 -0.000019
# 6 -0.000010 -0.000032 -0.000004 0.038869 -0.000019 0.069083
#
#
# Mechanical properties :
#
#
# Convention : Reuss Voigt Hill
#
# Bulk Modulus (GPa) = 21.91019 32.27660 27.09339
# Shear Modulus (GPa) = 18.98689 29.08810 24.03750
#
# Velocity S-wave (km/s) = 2.96188 3.66605 3.33261
# Velocity P-wave (km/s) = 4.67123 5.73001 5.22749
#
# Compressibility (1/GPa) = 0.04564087
#
# Stress axis : x y z
#
# Youngs Moduli (GPa) = 62.96457 39.72246 67.25704
#
# Poissons Ratio (x) = 0.33173 0.32486
# Poissons Ratio (y) = 0.52583 -0.54070
# Poissons Ratio (z) = 0.30413 -0.31934
#
# Static dielectric constant tensor:
#      x y z
#    x 3.803270 -0.000020 -0.305250 
#    y -0.000020 4.015430 0.000140 
#    z -0.305250 0.000140 4.278570 
# 
# 
# High freq. dielectric constant tensor:
#      x y z
#    x 1.824110 -0.000010 -0.026940 
#    y -0.000010 1.823230 0.000020 
#    z -0.026940 0.000020 1.879060 
# 
# From -- ./inp_files/156750.got.cif
#   From: 2010.06.25/outbox.cif.g09.slc.cpg/sg15_79_cif.got.tgz:156750.got - 2010.06.28 07:06:18.
