data_PCOD8152675
_publ_section_title
;
Structure prediction by ZEFSAII (Michael W. Deem and Ramdas Pophale) SiO2 
 PCOD8152675
Probable space group: C 2/C
;
_chemical_formula_sum "Si O2"
_cell_formula_units_Z 44
_cell_length_a 23.029338
_cell_length_b 10.674580
_cell_length_c 11.043787
_cell_angle_alpha 90.000000
_cell_angle_beta 45.995492
_cell_angle_gamma 90.000000
_cell_volume 1952.771203
_symmetry_space_group_name_H-M "C 2/C"
_symmetry_group_IT_number 15
_symmetry_cell_setting 'monoclinic'
loop_
_space_group_symop_operation_xyz
x,y,z
-x,y,1/2-z
-x,-y,-z
x,-y,1/2+z
1/2+x,1/2+y,z
1/2-x,1/2+y,1/2-z
1/2-x,1/2-y,-z
1/2+x,1/2-y,1/2+z
loop_
_atom_site_type_symbol
_atom_site_label
_atom_site_fract_x
_atom_site_fract_y
_atom_site_fract_z
Si Si1 0.305449 0.649746 0.983452
Si Si2 0.500000 0.712990 0.250000
Si Si3 0.875783 0.594798 0.997085
Si Si4 0.420841 0.479530 0.693193
Si Si5 0.165099 0.539775 0.704858
Si Si6 0.801428 0.195024 0.248873
O O1 0.388702 0.611271 0.795237
O O2 0.250000 0.750000 0.000000
O O3 0.253012 0.523849 0.078636
O O4 0.331577 0.718126 0.068768
O O5 0.446793 0.803995 0.411598
O O6 0.560651 0.624938 0.234530
O O7 0.883755 0.507625 0.105460
O O8 0.793205 0.671060 0.115144
O O9 0.880977 0.519813 0.858811
O O10 0.500000 0.500000 0.500000
O O11 0.346360 0.431046 0.722877
O O12 0.177475 0.688415 0.697100
#
# Coordination Sequence:
#
# PCOD8152675 Si02
#       6
#     8   4   8   8   8   8
#     4  11  25  42  73 109 143 185 245 300 361 443
#     4  12  26  46  66 106 146 194 236 302 376 430
#     4  11  24  42  74 101 147 188 242 299 365 442
#     4  12  26  45  72 105 145 185 244 307 373 435
#     4  11  22  44  71 105 138 191 241 294 354 441
#     4  11  23  44  73 100 142 193 238 297 367 445
#
# _framework density 22.532081000000002
#
# number of rings (size 3 to 8) (size 9 to 14) (size 15 to 20)
#    0.000    0.727    3.636    3.818    7.636    0.727 
#    0.000    0.000    0.000    0.000    0.000    0.000 
#    0.000    0.000    0.000    0.000    0.000    0.000 
#
# Total GULP energy -272708.102816 kJ/mol
# GULP energy per Si atom -12395.822855 kJ/mol
# Density = 2.248080 g / cm^3
# Si number density = 22.532081 Si / 1000 Ang^3
#
#
#
# Elastic Constant Matrix: (Units=GPa)
#
#
# Indices 1 2 3 4 5 6 
#
# 1 81.0575 20.8394 40.1394 0.0000 24.2243 0.0000
# 2 20.8394 85.9665 54.6326 0.0000 2.7747 0.0000
# 3 40.1394 54.6326 140.3686 0.0000 8.4822 0.0000
# 4 0.0000 0.0000 0.0000 40.4124 0.0000 -5.5884
# 5 24.2243 2.7747 8.4822 0.0000 51.2541 0.0000
# 6 0.0000 0.0000 0.0000 -5.5884 0.0000 38.8221
#
#
#
# Elastic Compliance Matrix: (Units=1/GPa)
#
#
# Indices 1 2 3 4 5 6 
#
# 1 0.016735 -0.001408 -0.003802 0.000000 -0.007204 0.000000
# 2 -0.001408 0.015575 -0.005706 0.000000 0.000766 0.000000
# 3 -0.003802 -0.005706 0.010409 0.000000 0.000383 0.000000
# 4 0.000000 0.000000 0.000000 0.025247 0.000000 0.003634
# 5 -0.007204 0.000766 0.000383 0.000000 0.022810 0.000000
# 6 0.000000 0.000000 0.000000 0.003634 0.000000 0.026282
#
#
# Mechanical properties :
#
#
# Convention : Reuss Voigt Hill
#
# Bulk Modulus (GPa) = 47.87628 59.84616 53.86122
# Shear Modulus (GPa) = 34.28143 38.88315 36.58229
#
# Velocity S-wave (km/s) = 3.90481 4.15864 4.03372
# Velocity P-wave (km/s) = 6.45168 7.04820 6.75653
#
# Compressibility (1/GPa) = 0.02088717
#
# Stress axis : x y z
#
# Youngs Moduli (GPa) = 59.75656 64.20556 96.07214
#
# Poissons Ratio (x) = 0.09039 0.36527
# Poissons Ratio (y) = 0.08413 0.54815
# Poissons Ratio (z) = 0.22720 0.36633
#
# Static dielectric constant tensor:
#      x y z
#    x 4.487540 0.000000 0.412570 
#    y 0.000000 4.029980 0.000000 
#    z 0.412570 0.000000 4.086510 
# 
# 
# High freq. dielectric constant tensor:
#      x y z
#    x 1.888650 0.000000 0.016100 
#    y 0.000000 1.882010 0.000000 
#    z 0.016100 0.000000 1.893970 
# 
# From -- ./inp_files/104374.got.cif
#   From: 2010.06.25/outbox.cif.g09.slc.cpg/sg15_53_cif.got.tgz:104374.got - 2010.06.28 07:06:18.
