data_PCOD8152452
_publ_section_title
;
Structure prediction by ZEFSAII (Michael W. Deem and Ramdas Pophale) SiO2 
 PCOD8152452
Probable space group: C 2/C
;
_chemical_formula_sum "Si O2"
_cell_formula_units_Z 48
_cell_length_a 14.007627
_cell_length_b 17.682373
_cell_length_c 14.088134
_cell_angle_alpha 90.000000
_cell_angle_beta 39.737149
_cell_angle_gamma 90.000000
_cell_volume 2230.696901
_symmetry_space_group_name_H-M "C 2/C"
_symmetry_group_IT_number 15
_symmetry_cell_setting 'monoclinic'
loop_
_space_group_symop_operation_xyz
x,y,z
-x,y,1/2-z
-x,-y,-z
x,-y,1/2+z
1/2+x,1/2+y,z
1/2-x,1/2+y,1/2-z
1/2-x,1/2-y,-z
1/2+x,1/2-y,1/2+z
loop_
_atom_site_type_symbol
_atom_site_label
_atom_site_fract_x
_atom_site_fract_y
_atom_site_fract_z
Si Si1 0.926687 0.325488 0.036151
Si Si2 0.214752 0.419797 0.839838
Si Si3 0.218487 0.077950 0.806090
Si Si4 0.661540 0.955239 0.091470
Si Si5 0.340395 0.132305 0.408579
Si Si6 0.581962 0.655345 0.456829
O O1 0.831613 0.353414 0.198827
O O2 0.980122 0.239735 0.012874
O O3 0.816367 0.329043 0.029350
O O4 0.067563 0.380223 0.909464
O O5 0.221855 0.505869 0.797904
O O6 0.357024 0.375345 0.690229
O O7 0.211632 0.414133 0.956215
O O8 0.218217 0.062603 0.918910
O O9 0.050543 0.100697 0.905809
O O10 0.500000 0.925990 0.250000
O O11 0.657535 0.043495 0.075644
O O12 0.500000 0.161886 0.250000
O O13 0.209517 0.156478 0.438565
#
# Coordination Sequence:
#
# PCOD8152452 Si02
#       6
#     8   8   8   8   8   8
#     4  12  24  46  71 101 139 188 227 280 354 417
#     4  12  23  46  73  96 139 187 229 281 343 414
#     4  12  25  44  71 103 137 181 235 288 333 409
#     4  11  22  42  73 104 125 180 249 278 325 416
#     4  11  22  41  73 100 139 179 227 286 347 417
#     4  12  27  44  66 109 146 173 227 295 350 400
#
# _framework density 21.517938999999998
#
# number of rings (size 3 to 8) (size 9 to 14) (size 15 to 20)
#    0.000    0.333    6.667    3.500    0.000    1.333 
#    0.000    5.000    0.000    0.000    0.000    0.000 
#    0.000    0.000    0.000    0.000    0.000    0.000 
#
# Total GULP energy -297683.319801 kJ/mol
# GULP energy per Si atom -12403.471658 kJ/mol
# Density = 2.146896 g / cm^3
# Si number density = 21.517939 Si / 1000 Ang^3
#
#
#
# Elastic Constant Matrix: (Units=GPa)
#
#
# Indices 1 2 3 4 5 6 
#
# 1 90.2088 36.5826 36.0632 -0.0002 4.4772 0.0004
# 2 36.5826 106.6287 55.0035 -0.0011 -3.0941 0.0011
# 3 36.0632 55.0035 110.4315 0.0006 -1.2022 0.0004
# 4 -0.0002 -0.0011 0.0006 32.4271 -0.0001 1.6140
# 5 4.4772 -3.0941 -1.2022 -0.0001 50.2691 0.0000
# 6 0.0004 0.0011 0.0004 1.6140 0.0000 15.9959
#
#
#
# Elastic Compliance Matrix: (Units=1/GPa)
#
#
# Indices 1 2 3 4 5 6 
#
# 1 0.013612 -0.003246 -0.002845 0.000000 -0.001480 0.000000
# 2 -0.003246 0.013415 -0.005611 0.000001 0.000981 -0.000001
# 3 -0.002845 -0.005611 0.012781 0.000000 0.000214 0.000000
# 4 0.000000 0.000001 0.000000 0.030994 0.000000 -0.003127
# 5 -0.001480 0.000981 0.000214 0.000000 0.020090 0.000000
# 6 0.000000 -0.000001 0.000000 -0.003127 0.000000 0.062831
#
#
# Mechanical properties :
#
#
# Convention : Reuss Voigt Hill
#
# Bulk Modulus (GPa) = 60.95496 62.50750 61.73123
# Shear Modulus (GPa) = 27.38290 31.71309 29.54799
#
# Velocity S-wave (km/s) = 3.57117 3.84317 3.70966
# Velocity P-wave (km/s) = 6.73746 6.98608 6.86290
#
# Compressibility (1/GPa) = 0.01640555
#
# Stress axis : x y z
#
# Youngs Moduli (GPa) = 73.46262 74.54514 78.23836
#
# Poissons Ratio (x) = 0.24195 0.22258
# Poissons Ratio (y) = 0.23843 0.43899
# Poissons Ratio (z) = 0.20899 0.41827
#
# Static dielectric constant tensor:
#      x y z
#    x 3.806740 0.000000 0.077490 
#    y 0.000000 3.866290 0.000000 
#    z 0.077490 0.000000 3.998170 
# 
# 
# High freq. dielectric constant tensor:
#      x y z
#    x 1.835720 0.000000 0.005920 
#    y 0.000000 1.840250 0.000000 
#    z 0.005920 0.000000 1.851590 
# 
# From -- ./inp_files/155063.got.cif
#   From: 2010.06.25/outbox.cif.g09.slc.cpg/sg15_78_cif.got.tgz:155063.got - 2010.06.28 07:06:18.
