data_PCOD8152076
_publ_section_title
;
Structure prediction by ZEFSAII (Michael W. Deem and Ramdas Pophale) SiO2 
 PCOD8152076
Probable space group: C 2/C
;
_chemical_formula_sum "Si O2"
_cell_formula_units_Z 48
_cell_length_a 15.460522
_cell_length_b 8.155179
_cell_length_c 20.031602
_cell_angle_alpha 90.000000
_cell_angle_beta 60.629116
_cell_angle_gamma 90.000000
_cell_volume 2201.011780
_symmetry_space_group_name_H-M "C 2/C"
_symmetry_group_IT_number 15
_symmetry_cell_setting 'monoclinic'
loop_
_space_group_symop_operation_xyz
x,y,z
-x,y,1/2-z
-x,-y,-z
x,-y,1/2+z
1/2+x,1/2+y,z
1/2-x,1/2+y,1/2-z
1/2-x,1/2-y,-z
1/2+x,1/2-y,1/2+z
loop_
_atom_site_type_symbol
_atom_site_label
_atom_site_fract_x
_atom_site_fract_y
_atom_site_fract_z
Si Si1 0.926445 0.145412 0.887914
Si Si2 0.718021 0.976618 0.940054
Si Si3 0.622013 0.523127 0.316798
Si Si4 0.369413 0.692234 0.053127
Si Si5 0.161412 0.524357 0.105273
Si Si6 0.778545 0.719485 0.817362
O O1 0.831886 0.037143 0.902897
O O2 0.920104 0.331322 0.861970
O O3 0.939673 0.157887 0.963246
O O4 0.026638 0.065822 0.820761
O O5 0.650537 0.114414 0.930026
O O6 0.711500 0.814841 0.897211
O O7 0.668273 0.935264 0.030525
O O8 0.584814 0.618368 0.396913
O O9 0.707602 0.389853 0.297808
O O10 0.660760 0.654337 0.249669
O O11 0.266056 0.608359 0.076777
O O12 0.142851 0.393647 0.171424
#
# Coordination Sequence:
#
# PCOD8152076 Si02
#       6
#     8   8   8   8   8   8
#     4   9  18  36  61  84 105 143 197 242 273 322
#     4   9  17  35  60  84 110 145 186 231 282 339
#     4  11  22  36  54  81 117 155 187 230 283 337
#     4   8  16  34  60  85 111 143 182 230 288 341
#     4   8  17  35  60  84 109 144 189 234 279 333
#     4  11  22  36  53  79 117 158 186 222 285 343
#
# _framework density 21.808153000000001
#
# number of rings (size 3 to 8) (size 9 to 14) (size 15 to 20)
#    0.000    2.667    0.000    4.000    0.000    0.667 
#    0.000    8.333    0.000    0.000    0.000    0.000 
#    0.000    0.000    0.000    0.000    0.000    0.000 
#
# Total GULP energy -297525.478732 kJ/mol
# GULP energy per Si atom -12396.894947 kJ/mol
# Density = 2.175852 g / cm^3
# Si number density = 21.808153 Si / 1000 Ang^3
#
#
#
# Elastic Constant Matrix: (Units=GPa)
#
#
# Indices 1 2 3 4 5 6 
#
# 1 64.2632 53.1117 40.0187 0.0000 -6.1275 0.0001
# 2 53.1117 136.8740 68.0964 0.0001 5.7045 0.0003
# 3 40.0187 68.0964 67.9059 0.0000 3.8943 0.0000
# 4 0.0000 0.0001 0.0000 53.1473 0.0000 9.1984
# 5 -6.1275 5.7045 3.8943 0.0000 22.2979 0.0000
# 6 0.0001 0.0003 0.0000 9.1984 0.0000 29.2095
#
#
#
# Elastic Compliance Matrix: (Units=1/GPa)
#
#
# Indices 1 2 3 4 5 6 
#
# 1 0.028788 -0.005749 -0.011857 0.000000 0.011453 0.000000
# 2 -0.005749 0.015759 -0.012216 0.000000 -0.003478 0.000000
# 3 -0.011857 -0.012216 0.034316 0.000000 -0.006126 0.000000
# 4 0.000000 0.000000 0.000000 0.019900 0.000000 -0.006267
# 5 0.011453 -0.003478 -0.006126 0.000000 0.049954 0.000000
# 6 0.000000 0.000000 0.000000 -0.006267 0.000000 0.036209
#
#
# Mechanical properties :
#
#
# Convention : Reuss Voigt Hill
#
# Bulk Modulus (GPa) = 52.03295 65.72189 58.87742
# Shear Modulus (GPa) = 19.92203 28.11869 24.02036
#
# Velocity S-wave (km/s) = 3.02572 3.59467 3.32239
# Velocity P-wave (km/s) = 6.00981 6.88699 6.46330
#
# Compressibility (1/GPa) = 0.01921859
#
# Stress axis : x y z
#
# Youngs Moduli (GPa) = 34.73622 63.45417 29.14099
#
# Poissons Ratio (x) = 0.36479 0.34554
# Poissons Ratio (y) = 0.19970 0.35599
# Poissons Ratio (z) = 0.41188 0.77517
#
# Static dielectric constant tensor:
#      x y z
#    x 3.796250 0.000000 0.644060 
#    y 0.000000 4.434300 0.000000 
#    z 0.644060 0.000000 4.276300 
# 
# 
# High freq. dielectric constant tensor:
#      x y z
#    x 1.826210 0.000000 0.021090 
#    y 0.000000 1.867720 0.000000 
#    z 0.021090 0.000000 1.847190 
# 
# From -- ./inp_files/246851.got.cif
#   From: 2010.06.25/outbox.cif.g09.slc.cpg/sg15_124_cif.got.tgz:246851.got - 2010.06.28 07:06:18.
