data_PCOD8152870
_publ_section_title
;
Structure prediction by ZEFSAII (Michael W. Deem and Ramdas Pophale) SiO2 
 PCOD8152870
Probable space group: C 2/C
;
_chemical_formula_sum "Si O2"
_cell_formula_units_Z 56
_cell_length_a 25.586810
_cell_length_b 17.245293
_cell_length_c 9.176275
_cell_angle_alpha 90.000000
_cell_angle_beta 141.524153
_cell_angle_gamma 90.000000
_cell_volume 2519.256865
_symmetry_space_group_name_H-M "C 2/C"
_symmetry_group_IT_number 15
_symmetry_cell_setting 'monoclinic'
loop_
_space_group_symop_operation_xyz
x,y,z
-x,y,1/2-z
-x,-y,-z
x,-y,1/2+z
1/2+x,1/2+y,z
1/2-x,1/2+y,1/2-z
1/2-x,1/2-y,-z
1/2+x,1/2-y,1/2+z
loop_
_atom_site_type_symbol
_atom_site_label
_atom_site_fract_x
_atom_site_fract_y
_atom_site_fract_z
Si Si1 0.403205 0.316618 0.071981
Si Si2 0.584386 0.146321 0.342481
Si Si3 0.630942 0.542886 0.812373
Si Si4 0.590860 0.589920 0.406951
Si Si5 0.197740 0.534893 0.754781
Si Si6 0.792272 0.167400 0.064103
Si Si7 0.454095 0.061693 0.499759
O O1 0.500000 0.310883 0.250000
O O2 0.371637 0.228998 0.034294
O O3 0.387448 0.370147 0.176019
O O4 0.356848 0.352127 0.832442
O O5 0.500000 0.130518 0.250000
O O6 0.652756 0.077929 0.519674
O O7 0.555228 0.141828 0.110007
O O8 0.634035 0.549911 0.644110
O O9 0.566112 0.478303 0.735227
O O10 0.714540 0.509307 0.076512
O O11 0.500000 0.628042 0.250000
O O12 0.655131 0.653670 0.473888
O O13 0.138937 0.468577 0.683994
O O14 0.216337 0.605293 0.909116
O O15 0.750000 0.250000 0.000000
O O16 0.500000 0.000000 0.500000
O O17 0.500000 0.079668 0.750000
#
# Coordination Sequence:
#
# PCOD8152870 Si02
#       7
#     8   8   8   8   8   8   8
#     4  11  24  45  69  97 140 189 232 289 363 430
#     4  11  23  44  67  96 133 180 234 289 349 429
#     4  11  24  40  68 103 136 182 235 298 360 424
#     4  11  23  43  70 101 139 186 248 296 349 435
#     4  11  23  39  68  96 136 174 236 286 352 414
#     4  11  24  42  69 101 138 189 235 296 369 426
#     4  12  23  40  68  98 131 177 235 285 347 423
#
# _framework density 22.228777999999998
#
# number of rings (size 3 to 8) (size 9 to 14) (size 15 to 20)
#    0.000    0.857    4.286    3.429    6.000    0.000 
#    0.000    7.857    0.000    0.857    0.000    0.000 
#    0.000    0.000    0.000    0.000    0.000    0.000 
#
# Total GULP energy -346867.612579 kJ/mol
# GULP energy per Si atom -12388.129021 kJ/mol
# Density = 2.217818 g / cm^3
# Si number density = 22.228778 Si / 1000 Ang^3
#
#
#
# Elastic Constant Matrix: (Units=GPa)
#
#
# Indices 1 2 3 4 5 6 
#
# 1 93.7671 51.7663 39.9286 0.0000 -19.2468 0.0000
# 2 51.7663 104.2151 28.7056 0.0000 -7.7171 0.0000
# 3 39.9286 28.7056 112.7538 0.0000 -20.9279 0.0000
# 4 0.0000 0.0000 0.0000 41.3576 0.0000 12.1601
# 5 -19.2468 -7.7171 -20.9279 0.0000 40.3823 0.0000
# 6 0.0000 0.0000 0.0000 12.1601 0.0000 69.1668
#
#
#
# Elastic Compliance Matrix: (Units=1/GPa)
#
#
# Indices 1 2 3 4 5 6 
#
# 1 0.017076 -0.007206 -0.003272 0.000000 0.005066 0.000000
# 2 -0.007206 0.013376 -0.001125 0.000000 -0.001461 0.000000
# 3 -0.003272 -0.001125 0.011047 0.000000 0.003951 0.000000
# 4 0.000000 0.000000 0.000000 0.025497 0.000000 -0.004483
# 5 0.005066 -0.001461 0.003951 0.000000 0.028946 0.000000
# 6 0.000000 0.000000 0.000000 -0.004483 0.000000 0.015246
#
#
# Mechanical properties :
#
#
# Convention : Reuss Voigt Hill
#
# Bulk Modulus (GPa) = 54.66267 61.28188 57.97228
# Shear Modulus (GPa) = 35.58903 42.87038 39.22970
#
# Velocity S-wave (km/s) = 4.00563 4.39634 4.20553
# Velocity P-wave (km/s) = 6.78512 7.30746 7.05113
#
# Compressibility (1/GPa) = 0.01829402
#
# Stress axis : x y z
#
# Youngs Moduli (GPa) = 58.56172 74.75829 90.51957
#
# Poissons Ratio (x) = 0.53868 0.29621
# Poissons Ratio (y) = 0.42197 0.10183
# Poissons Ratio (z) = 0.19163 0.08410
#
# Static dielectric constant tensor:
#      x y z
#    x 4.867480 0.000000 -0.595250 
#    y 0.000000 4.161930 0.000000 
#    z -0.595250 0.000000 4.803900 
# 
# 
# High freq. dielectric constant tensor:
#      x y z
#    x 1.862220 0.000000 0.006360 
#    y 0.000000 1.864730 0.000000 
#    z 0.006360 0.000000 1.897040 
# 
# From -- ./inp_files/67189.got.cif
#   From: 2010.06.25/outbox.cif.g09.slc.cpg/sg15_34_cif.got.tgz:67189.got - 2010.06.28 07:06:18.
