data_PCOD8152262
_publ_section_title
;
Structure prediction by ZEFSAII (Michael W. Deem and Ramdas Pophale) SiO2 
 PCOD8152262
Probable space group: C 2/C
;
_chemical_formula_sum "Si O2"
_cell_formula_units_Z 48
_cell_length_a 13.436129
_cell_length_b 9.212627
_cell_length_c 18.303380
_cell_angle_alpha 90.000000
_cell_angle_beta 86.572233
_cell_angle_gamma 90.000000
_cell_volume 2261.576522
_symmetry_space_group_name_H-M "C 2/C"
_symmetry_group_IT_number 15
_symmetry_cell_setting 'monoclinic'
loop_
_space_group_symop_operation_xyz
x,y,z
-x,y,1/2-z
-x,-y,-z
x,-y,1/2+z
1/2+x,1/2+y,z
1/2-x,1/2+y,1/2-z
1/2-x,1/2-y,-z
1/2+x,1/2-y,1/2+z
loop_
_atom_site_type_symbol
_atom_site_label
_atom_site_fract_x
_atom_site_fract_y
_atom_site_fract_z
Si Si1 0.476161 0.805762 0.042900
Si Si2 0.809325 0.479981 0.824983
Si Si3 0.193937 0.882299 0.965558
Si Si4 0.012972 0.598375 0.383525
Si Si5 0.713626 0.790317 0.809915
Si Si6 0.678274 0.340864 0.554533
O O1 0.401423 0.680610 0.072499
O O2 0.583223 0.762201 0.069017
O O3 0.438720 0.955796 0.080692
O O4 0.470686 0.809686 0.954118
O O5 0.766823 0.459530 0.906927
O O6 0.764329 0.632583 0.799837
O O7 0.770254 0.362843 0.769057
O O8 0.928960 0.457347 0.829438
O O9 0.250000 0.750000 0.000000
O O10 0.153461 0.002092 0.023585
O O11 0.096051 0.696677 0.338155
O O12 0.774214 0.875046 0.869279
O O13 0.750000 0.250000 0.500000
#
# Coordination Sequence:
#
# PCOD8152262 Si02
#       6
#     8   8   8   8   8   8
#     4  11  22  39  73 109 135 175 241 295 349 421
#     4  12  27  48  68 105 141 191 235 286 362 426
#     4  12  24  41  70 104 141 181 238 296 352 418
#     4  11  22  45  73 101 137 185 233 292 357 417
#     4  12  27  45  73 100 145 188 236 291 356 430
#     4  12  22  45  70 100 140 184 234 294 348 418
#
# _framework density 21.224131
#
# number of rings (size 3 to 8) (size 9 to 14) (size 15 to 20)
#    0.000    0.333    6.667    2.000    4.667    0.000 
#    0.000    2.500    0.000    0.000    0.000    0.000 
#    0.000    0.000    0.000    0.000    0.000    0.000 
#
# Total GULP energy -297479.048933 kJ/mol
# GULP energy per Si atom -12394.960372 kJ/mol
# Density = 2.117582 g / cm^3
# Si number density = 21.224131 Si / 1000 Ang^3
#
#
#
# Elastic Constant Matrix: (Units=GPa)
#
#
# Indices 1 2 3 4 5 6 
#
# 1 116.3708 30.8470 11.4641 0.0000 15.3473 0.0000
# 2 30.8470 100.5764 21.4984 0.0000 11.8200 0.0000
# 3 11.4641 21.4984 79.3569 0.0000 20.8415 0.0000
# 4 0.0000 0.0000 0.0000 40.6025 0.0000 4.4423
# 5 15.3473 11.8200 20.8415 0.0000 25.1013 0.0000
# 6 0.0000 0.0000 0.0000 4.4423 0.0000 41.5398
#
#
#
# Elastic Compliance Matrix: (Units=1/GPa)
#
#
# Indices 1 2 3 4 5 6 
#
# 1 0.009918 -0.002550 0.000685 0.000000 -0.005432 0.000000
# 2 -0.002550 0.011430 -0.002205 0.000000 -0.001993 0.000000
# 3 0.000685 -0.002205 0.016545 0.000000 -0.013117 0.000000
# 4 0.000000 0.000000 0.000000 0.024921 0.000000 -0.002665
# 5 -0.005432 -0.001993 -0.013117 0.000000 0.054989 0.000000
# 6 0.000000 0.000000 0.000000 -0.002665 0.000000 0.024358
#
#
# Mechanical properties :
#
#
# Convention : Reuss Voigt Hill
#
# Bulk Modulus (GPa) = 33.61047 47.10255 40.35651
# Shear Modulus (GPa) = 31.20729 36.94835 34.07782
#
# Velocity S-wave (km/s) = 3.83870 4.17689 4.01136
# Velocity P-wave (km/s) = 5.95968 6.74559 6.36478
#
# Compressibility (1/GPa) = 0.02975263
#
# Stress axis : x y z
#
# Youngs Moduli (GPa) = 100.82646 87.48743 60.44225
#
# Poissons Ratio (x) = 0.22308 -0.04137
# Poissons Ratio (y) = 0.25709 0.13326
# Poissons Ratio (z) = -0.06902 0.19289
#
# Static dielectric constant tensor:
#      x y z
#    x 3.225290 0.000000 -0.040920 
#    y 0.000000 5.184140 0.000000 
#    z -0.040920 0.000000 3.702620 
# 
# 
# High freq. dielectric constant tensor:
#      x y z
#    x 1.839100 0.000000 0.010520 
#    y 0.000000 1.837550 0.000000 
#    z 0.010520 0.000000 1.822970 
# 
# From -- ./inp_files/203022.got.cif
#   From: 2010.06.25/outbox.cif.g09.slc.cpg/sg15_102_cif.got.tgz:203022.got - 2010.06.28 07:06:18.
