data_PCOD8152971
_publ_section_title
;
Structure prediction by ZEFSAII (Michael W. Deem and Ramdas Pophale) SiO2 
 PCOD8152971
Probable space group: C 2/C
;
_chemical_formula_sum "Si O2"
_cell_formula_units_Z 40
_cell_length_a 10.761798
_cell_length_b 8.620056
_cell_length_c 18.570660
_cell_angle_alpha 90.000000
_cell_angle_beta 84.850531
_cell_angle_gamma 90.000000
_cell_volume 1715.796897
_symmetry_space_group_name_H-M "C 2/C"
_symmetry_group_IT_number 15
_symmetry_cell_setting 'monoclinic'
loop_
_space_group_symop_operation_xyz
x,y,z
-x,y,1/2-z
-x,-y,-z
x,-y,1/2+z
1/2+x,1/2+y,z
1/2-x,1/2+y,1/2-z
1/2-x,1/2-y,-z
1/2+x,1/2-y,1/2+z
loop_
_atom_site_type_symbol
_atom_site_label
_atom_site_fract_x
_atom_site_fract_y
_atom_site_fract_z
Si Si1 0.266979 0.322731 0.922073
Si Si2 0.971635 0.178410 0.171588
Si Si3 0.372001 0.179772 0.299135
Si Si4 0.759696 0.319853 0.078785
Si Si5 0.699355 0.600291 0.810712
O O1 0.405406 0.320247 0.883095
O O2 0.218377 0.497612 0.926308
O O3 0.178646 0.213991 0.878930
O O4 0.250000 0.250000 0.000000
O O5 0.869413 0.255895 0.124459
O O6 0.000000 0.253673 0.250000
O O7 0.924742 0.003443 0.190792
O O8 0.500000 0.178586 0.250000
O O9 0.371486 0.264955 0.377095
O O10 0.276453 0.286525 0.258150
O O11 0.323067 0.004956 0.310618
O O12 0.750000 0.250000 0.000000
#
# Coordination Sequence:
#
# PCOD8152971 Si02
#       5
#     8   8   8   8   8
#     4  12  26  44  69 103 142 185 232 286 350 415
#     4  11  25  47  72 100 138 184 233 289 348 412
#     4  11  23  41  68  96 129 175 227 279 335 402
#     4  11  25  47  72 103 143 185 233 288 350 414
#     4  11  24  41  66 100 135 177 229 284 341 409
#
# _framework density 23.312781000000001
#
# number of rings (size 3 to 8) (size 9 to 14) (size 15 to 20)
#    0.000    0.800    0.000    9.000    0.000   11.200 
#    0.000    1.000    0.000    0.000    0.000    0.000 
#    0.000    0.000    0.000    0.000    0.000    0.000 
#
# Total GULP energy -247792.045333 kJ/mol
# GULP energy per Si atom -12389.602267 kJ/mol
# Density = 2.325972 g / cm^3
# Si number density = 23.312781 Si / 1000 Ang^3
#
#
#
# Elastic Constant Matrix: (Units=GPa)
#
#
# Indices 1 2 3 4 5 6 
#
# 1 84.5859 18.1057 59.3776 0.0000 -1.4649 0.0000
# 2 18.1057 174.3864 80.8792 0.0000 9.2815 0.0000
# 3 59.3776 80.8792 228.4734 0.0000 -3.6646 0.0000
# 4 0.0000 0.0000 0.0000 48.1466 0.0000 1.2426
# 5 -1.4649 9.2815 -3.6646 0.0000 40.4422 0.0000
# 6 0.0000 0.0000 0.0000 1.2426 0.0000 21.7668
#
#
#
# Elastic Compliance Matrix: (Units=1/GPa)
#
#
# Indices 1 2 3 4 5 6 
#
# 1 0.014473 0.000281 -0.003859 0.000000 0.000110 0.000000
# 2 0.000281 0.006999 -0.002580 0.000000 -0.001830 0.000000
# 3 -0.003859 -0.002580 0.006310 0.000000 0.001024 0.000000
# 4 0.000000 0.000000 0.000000 0.020801 0.000000 -0.001187
# 5 0.000110 -0.001830 0.001024 0.000000 0.025243 0.000000
# 6 0.000000 0.000000 0.000000 -0.001187 0.000000 0.046009
#
#
# Mechanical properties :
#
#
# Convention : Reuss Voigt Hill
#
# Bulk Modulus (GPa) = 64.65851 89.35229 77.00540
# Shear Modulus (GPa) = 36.41482 44.00998 40.21240
#
# Velocity S-wave (km/s) = 3.95652 4.34960 4.15771
# Velocity P-wave (km/s) = 6.97621 7.97723 7.49345
#
# Compressibility (1/GPa) = 0.01546587
#
# Stress axis : x y z
#
# Youngs Moduli (GPa) = 69.09381 142.87236 158.48720
#
# Poissons Ratio (x) = -0.04020 0.61164
# Poissons Ratio (y) = -0.01944 0.40893
# Poissons Ratio (z) = 0.26665 0.36864
#
# Static dielectric constant tensor:
#      x y z
#    x 4.035390 0.000000 -0.069240 
#    y 0.000000 4.145390 0.000000 
#    z -0.069240 0.000000 3.673860 
# 
# 
# High freq. dielectric constant tensor:
#      x y z
#    x 1.914830 0.000000 -0.012170 
#    y 0.000000 1.941320 0.000000 
#    z -0.012170 0.000000 1.940730 
# 
# From -- ./inp_files/195180.got.cif
#   From: 2010.06.25/outbox.cif.g09.slc.cpg/sg15_98_cif.got.tgz:195180.got - 2010.06.28 07:06:18.
