data_PCOD8152291
_publ_section_title
;
Structure prediction by ZEFSAII (Michael W. Deem and Ramdas Pophale) SiO2 
 PCOD8152291
Probable space group: C 2/C
;
_chemical_formula_sum "Si O2"
_cell_formula_units_Z 64
_cell_length_a 12.078485
_cell_length_b 26.599432
_cell_length_c 13.302965
_cell_angle_alpha 90.000000
_cell_angle_beta 136.135179
_cell_angle_gamma 90.000000
_cell_volume 2961.699521
_symmetry_space_group_name_H-M "C 2/C"
_symmetry_group_IT_number 15
_symmetry_cell_setting 'monoclinic'
loop_
_space_group_symop_operation_xyz
x,y,z
-x,y,1/2-z
-x,-y,-z
x,-y,1/2+z
1/2+x,1/2+y,z
1/2-x,1/2+y,1/2-z
1/2-x,1/2-y,-z
1/2+x,1/2-y,1/2+z
loop_
_atom_site_type_symbol
_atom_site_label
_atom_site_fract_x
_atom_site_fract_y
_atom_site_fract_z
Si Si1 0.874278 0.580070 0.579089
Si Si2 0.656389 0.968011 0.917412
Si Si3 0.060016 0.385865 0.004777
Si Si4 0.044504 0.790732 0.508725
Si Si5 0.915614 0.296476 0.798862
Si Si6 0.446691 0.366555 0.602908
Si Si7 0.096327 0.871667 0.218514
Si Si8 0.547378 0.556914 0.017705
O O1 0.796515 0.524375 0.516839
O O2 0.736874 0.618275 0.519517
O O3 0.000000 0.581146 0.750000
O O4 0.951777 0.598529 0.526768
O O5 0.500000 0.971859 0.750000
O O6 0.625592 0.936454 0.997117
O O7 0.788284 0.940178 0.935808
O O8 0.956690 0.353596 0.857611
O O9 0.220184 0.355404 0.142431
O O10 0.229874 0.788619 0.657458
O O11 0.976168 0.736315 0.433843
O O12 0.955759 0.814443 0.546958
O O13 0.009472 0.824957 0.388707
O O14 0.000000 0.281778 0.750000
O O15 0.500000 0.355503 0.750000
O O16 0.559948 0.410956 0.629652
O O17 0.000000 0.893125 0.250000
O O18 0.096637 0.916542 0.137337
O O19 0.500000 0.500000 0.000000
#
# Coordination Sequence:
#
# PCOD8152291 Si02
#       8
#     8   8   8   8   8   8   8   8
#     4  11  24  45  63  95 140 187 228 281 332 408
#     4  11  25  40  64  99 138 180 234 288 344 400
#     4  12  25  42  69 101 136 181 227 286 349 405
#     4  11  25  45  70 101 134 175 224 281 352 417
#     4  12  25  45  73 105 139 173 224 291 358 415
#     4  11  25  44  69  96 137 181 234 280 338 413
#     4  11  22  40  65  96 133 170 221 275 338 408
#     4  11  23  41  64  96 136 183 233 283 341 402
#
# _framework density 21.609213
#
# number of rings (size 3 to 8) (size 9 to 14) (size 15 to 20)
#    0.000    0.750    2.500    5.250    8.750    1.500 
#    0.000    3.125    0.000    0.000    0.000    0.000 
#    0.000    0.000    0.000    0.000    0.000    0.000 
#
# Total GULP energy -396845.414095 kJ/mol
# GULP energy per Si atom -12401.419190 kJ/mol
# Density = 2.156003 g / cm^3
# Si number density = 21.609213 Si / 1000 Ang^3
#
#
#
# Elastic Constant Matrix: (Units=GPa)
#
#
# Indices 1 2 3 4 5 6 
#
# 1 162.7852 46.0817 42.0991 0.0000 2.2675 0.0000
# 2 46.0817 81.2014 33.8841 0.0000 -5.7690 0.0000
# 3 42.0991 33.8841 118.0747 0.0000 10.8348 0.0000
# 4 0.0000 0.0000 0.0000 20.3693 0.0000 7.9179
# 5 2.2675 -5.7690 10.8348 0.0000 42.2607 0.0000
# 6 0.0000 0.0000 0.0000 7.9179 0.0000 11.5663
#
#
#
# Elastic Compliance Matrix: (Units=1/GPa)
#
#
# Indices 1 2 3 4 5 6 
#
# 1 0.007609 -0.003681 -0.001611 0.000000 -0.000498 0.000000
# 2 -0.003681 0.016155 -0.003630 0.000000 0.003333 0.000000
# 3 -0.001611 -0.003630 0.010367 0.000000 -0.003067 0.000000
# 4 0.000000 0.000000 0.000000 0.066894 0.000000 -0.045793
# 5 -0.000498 0.003333 -0.003067 0.000000 0.024931 0.000000
# 6 0.000000 0.000000 0.000000 -0.045793 0.000000 0.117806
#
#
# Mechanical properties :
#
#
# Convention : Reuss Voigt Hill
#
# Bulk Modulus (GPa) = 61.39586 67.35457 64.37521
# Shear Modulus (GPa) = 18.72427 30.83905 24.78166
#
# Velocity S-wave (km/s) = 2.94682 3.78183 3.39013
# Velocity P-wave (km/s) = 6.32866 7.09272 6.72155
#
# Compressibility (1/GPa) = 0.01628774
#
# Stress axis : x y z
#
# Youngs Moduli (GPa) = 131.42970 61.89857 96.46429
#
# Poissons Ratio (x) = 0.22786 0.15538
# Poissons Ratio (y) = 0.48381 0.35012
# Poissons Ratio (z) = 0.21170 0.22466
#
# Static dielectric constant tensor:
#      x y z
#    x 4.242230 0.000000 0.074250 
#    y 0.000000 4.051300 0.000000 
#    z 0.074250 0.000000 4.044210 
# 
# 
# High freq. dielectric constant tensor:
#      x y z
#    x 1.857300 0.000000 -0.001130 
#    y 0.000000 1.844980 0.000000 
#    z -0.001130 0.000000 1.857440 
# 
# From -- ./inp_files/148804.got.cif
#   From: 2010.06.25/outbox.cif.g09.slc.cpg/sg15_75_cif.got.tgz:148804.got - 2010.06.28 07:06:18.
