data_PCOD8152184
_publ_section_title
;
Structure prediction by ZEFSAII (Michael W. Deem and Ramdas Pophale) SiO2 
 PCOD8152184
Probable space group: C 2/C
;
_chemical_formula_sum "Si O2"
_cell_formula_units_Z 48
_cell_length_a 13.337067
_cell_length_b 27.778107
_cell_length_c 8.855798
_cell_angle_alpha 90.000000
_cell_angle_beta 131.422819
_cell_angle_gamma 90.000000
_cell_volume 2460.161995
_symmetry_space_group_name_H-M "C 2/C"
_symmetry_group_IT_number 15
_symmetry_cell_setting 'monoclinic'
loop_
_space_group_symop_operation_xyz
x,y,z
-x,y,1/2-z
-x,-y,-z
x,-y,1/2+z
1/2+x,1/2+y,z
1/2-x,1/2+y,1/2-z
1/2-x,1/2-y,-z
1/2+x,1/2-y,1/2+z
loop_
_atom_site_type_symbol
_atom_site_label
_atom_site_fract_x
_atom_site_fract_y
_atom_site_fract_z
Si Si1 0.516342 0.309190 0.593895
Si Si2 0.481385 0.196886 0.904240
Si Si3 0.235862 0.849598 0.308008
Si Si4 0.227963 0.349246 0.802063
Si Si5 0.849839 0.451764 0.422398
Si Si6 0.848159 0.547098 0.273726
O O1 0.500000 0.325820 0.750000
O O2 0.487385 0.252994 0.547410
O O3 0.416028 0.338783 0.388046
O O4 0.666145 0.320141 0.690618
O O5 0.500000 0.180258 0.750000
O O6 0.331011 0.185711 0.807220
O O7 0.580229 0.168225 0.112364
O O8 0.253430 0.839579 0.502406
O O9 0.265400 0.904846 0.293882
O O10 0.240162 0.406006 0.775042
O O11 0.783484 0.499226 0.281806
O O12 0.850997 0.460562 0.599711
O O13 0.001370 0.444995 0.513021
#
# Coordination Sequence:
#
# PCOD8152184 Si02
#       6
#     8   8   8   8   8   8
#     4  11  25  41  56  83 120 155 194 237 288 345
#     4  11  23  39  60  85 116 153 194 241 286 337
#     4  11  22  39  61  87 117 151 194 239 285 340
#     4  11  22  39  61  87 117 151 194 239 285 340
#     4   9  18  34  56  85 115 143 184 235 282 335
#     4   9  18  34  56  85 115 143 184 235 282 335
#
# _framework density 19.510909999999999
#
# number of rings (size 3 to 8) (size 9 to 14) (size 15 to 20)
#    0.000    1.667    1.667    3.000    0.000    9.333 
#    0.000    0.833    0.000    0.000    0.000    0.000 
#    0.000    0.000    0.000    0.000    0.000    0.000 
#
# Total GULP energy -297701.499585 kJ/mol
# GULP energy per Si atom -12404.229149 kJ/mol
# Density = 1.946650 g / cm^3
# Si number density = 19.510910 Si / 1000 Ang^3
#
#
#
# Elastic Constant Matrix: (Units=GPa)
#
#
# Indices 1 2 3 4 5 6 
#
# 1 71.7969 21.7722 5.3017 0.0000 -7.5170 0.0000
# 2 21.7722 99.8875 34.9782 0.0000 -14.5589 0.0000
# 3 5.3017 34.9782 72.0970 0.0000 -5.5939 0.0000
# 4 0.0000 0.0000 0.0000 26.4171 0.0000 -5.9886
# 5 -7.5170 -14.5589 -5.5939 0.0000 26.4734 0.0000
# 6 0.0000 0.0000 0.0000 -5.9886 0.0000 25.8778
#
#
#
# Elastic Compliance Matrix: (Units=1/GPa)
#
#
# Indices 1 2 3 4 5 6 
#
# 1 0.015110 -0.003112 0.000609 0.000000 0.002708 0.000000
# 2 -0.003112 0.013539 -0.005928 0.000000 0.005310 0.000000
# 3 0.000609 -0.005928 0.016736 0.000000 0.000449 0.000000
# 4 0.000000 0.000000 0.000000 0.039950 0.000000 0.009245
# 5 0.002708 0.005310 0.000449 0.000000 0.041558 0.000000
# 6 0.000000 0.000000 0.000000 0.009245 0.000000 0.040783
#
#
# Mechanical properties :
#
#
# Convention : Reuss Voigt Hill
#
# Bulk Modulus (GPa) = 35.05863 40.87617 37.96740
# Shear Modulus (GPa) = 25.76704 27.86895 26.81800
#
# Velocity S-wave (km/s) = 3.63801 3.78349 3.71146
# Velocity P-wave (km/s) = 5.97115 6.33106 6.15373
#
# Compressibility (1/GPa) = 0.02852365
#
# Stress axis : x y z
#
# Youngs Moduli (GPa) = 66.17934 73.85917 59.75068
#
# Poissons Ratio (x) = 0.22986 -0.03638
# Poissons Ratio (y) = 0.20596 0.35419
# Poissons Ratio (z) = -0.04029 0.43782
#
# Static dielectric constant tensor:
#      x y z
#    x 3.434140 0.000000 -0.098620 
#    y 0.000000 3.681280 0.000000 
#    z -0.098620 0.000000 3.457110 
# 
# 
# High freq. dielectric constant tensor:
#      x y z
#    x 1.750010 0.000000 -0.013280 
#    y 0.000000 1.771420 0.000000 
#    z -0.013280 0.000000 1.754890 
# 
# From -- ./inp_files/43946.got.cif
#   From: 2010.06.25/outbox.cif.g09.slc.cpg/sg15_22_cif.got.tgz:43946.got - 2010.06.28 07:06:18.
