data_PCOD8152360
_publ_section_title
;
Structure prediction by ZEFSAII (Michael W. Deem and Ramdas Pophale) SiO2 
 PCOD8152360
Probable space group: C 2/C
;
_chemical_formula_sum "Si O2"
_cell_formula_units_Z 64
_cell_length_a 23.772193
_cell_length_b 18.737454
_cell_length_c 19.704298
_cell_angle_alpha 90.000000
_cell_angle_beta 159.342565
_cell_angle_gamma 90.000000
_cell_volume 3096.310536
_symmetry_space_group_name_H-M "C 2/C"
_symmetry_group_IT_number 15
_symmetry_cell_setting 'monoclinic'
loop_
_space_group_symop_operation_xyz
x,y,z
-x,y,1/2-z
-x,-y,-z
x,-y,1/2+z
1/2+x,1/2+y,z
1/2-x,1/2+y,1/2-z
1/2-x,1/2-y,-z
1/2+x,1/2-y,1/2+z
loop_
_atom_site_type_symbol
_atom_site_label
_atom_site_fract_x
_atom_site_fract_y
_atom_site_fract_z
Si Si1 0.007638 0.417884 0.181479
Si Si2 0.787507 0.826635 0.664419
Si Si3 0.459681 0.965944 0.527688
Si Si4 0.419906 0.324623 0.954000
Si Si5 0.511120 0.578780 0.183853
Si Si6 0.097172 0.034212 0.669519
Si Si7 0.786609 0.333559 0.168292
Si Si8 0.053042 0.322316 0.584947
O O1 0.000000 0.441650 0.250000
O O2 0.143033 0.357692 0.325150
O O3 0.848052 0.383437 0.970872
O O4 0.052380 0.487043 0.187896
O O5 0.922224 0.832834 0.874986
O O6 0.717510 0.746386 0.581578
O O7 0.869438 0.853111 0.687130
O O8 0.276017 0.961143 0.343292
O O9 0.533699 0.887026 0.615786
O O10 0.500000 0.000000 0.500000
O O11 0.235094 0.320389 0.766315
O O12 0.520728 0.388576 0.101250
O O13 0.509801 0.251135 0.074460
O O14 0.500000 0.556228 0.250000
O O15 0.581681 0.512605 0.220572
O O16 0.347281 0.607738 0.965360
O O17 0.000000 0.000000 0.500000
O O18 0.927226 0.336826 0.382382
#
# Coordination Sequence:
#
# PCOD8152360 Si02
#       8
#     8   8   8   8   8   8   8   8
#     4  12  24  40  60  89 128 170 212 260 309 369
#     4  11  22  41  56  90 126 170 214 252 304 375
#     4  12  23  41  64  92 124 168 216 263 316 374
#     4  11  23  40  67  96 127 161 211 263 321 376
#     4  12  26  41  60  91 128 172 218 260 315 376
#     4  12  23  41  65  89 126 168 211 269 317 367
#     4  11  24  36  64  87 128 171 216 255 309 374
#     4  11  23  40  65  98 124 161 212 261 319 382
#
# _framework density 20.669761999999999
#
# number of rings (size 3 to 8) (size 9 to 14) (size 15 to 20)
#    0.000    0.500    5.000    3.750    7.000    3.000 
#    0.000    0.000    0.000    0.750    0.000    3.500 
#    0.000    0.000    0.000    0.000    0.000    0.000 
#
# Total GULP energy -396589.908601 kJ/mol
# GULP energy per Si atom -12393.434644 kJ/mol
# Density = 2.062272 g / cm^3
# Si number density = 20.669762 Si / 1000 Ang^3
#
#
#
# Elastic Constant Matrix: (Units=GPa)
#
#
# Indices 1 2 3 4 5 6 
#
# 1 111.9929 66.9727 26.7980 -0.0255 12.8531 -0.0235
# 2 66.9727 166.7637 44.1000 -0.0175 5.5173 -0.0236
# 3 26.7980 44.1000 74.2130 -0.0198 25.6203 -0.0440
# 4 -0.0255 -0.0175 -0.0198 29.8559 -0.0174 13.2541
# 5 12.8531 5.5173 25.6203 -0.0174 34.8454 -0.0264
# 6 -0.0235 -0.0236 -0.0440 13.2541 -0.0264 28.3766
#
#
#
# Elastic Compliance Matrix: (Units=1/GPa)
#
#
# Indices 1 2 3 4 5 6 
#
# 1 0.012229 -0.004679 -0.000448 0.000005 -0.003441 0.000000
# 2 -0.004679 0.009093 -0.005110 0.000001 0.004043 -0.000001
# 3 -0.000448 -0.005110 0.021894 -0.000006 -0.015123 0.000018
# 4 0.000005 0.000001 -0.000006 0.042256 0.000008 -0.019737
# 5 -0.003441 0.004043 -0.015123 0.000008 0.040447 0.000011
# 6 0.000000 -0.000001 0.000018 -0.019737 0.000011 0.044459
#
#
# Mechanical properties :
#
#
# Convention : Reuss Voigt Hill
#
# Bulk Modulus (GPa) = 43.96861 69.85678 56.91269
# Shear Modulus (GPa) = 25.19764 32.95553 29.07659
#
# Velocity S-wave (km/s) = 3.49529 3.99731 3.75470
# Velocity P-wave (km/s) = 6.13250 7.42796 6.81110
#
# Compressibility (1/GPa) = 0.02274350
#
# Stress axis : x y z
#
# Youngs Moduli (GPa) = 81.77093 109.97336 45.67545
#
# Poissons Ratio (x) = 0.51458 0.02044
# Poissons Ratio (y) = 0.38262 0.23338
# Poissons Ratio (z) = 0.03659 0.56192
#
# Static dielectric constant tensor:
#      x y z
#    x 3.603550 0.000070 0.370270 
#    y 0.000070 4.670590 -0.000060 
#    z 0.370270 -0.000060 3.803200 
# 
# 
# High freq. dielectric constant tensor:
#      x y z
#    x 1.790100 0.000000 0.039640 
#    y 0.000000 1.818590 0.000000 
#    z 0.039640 0.000000 1.800600 
# 
# From -- ./inp_files/256010.got.cif
#   From: 2010.06.25/outbox.cif.g09.slc.cpg/sg15_129_cif.got.tgz:256010.got - 2010.06.28 07:06:18.
