data_PCOD8152477
_publ_section_title
;
Structure prediction by ZEFSAII (Michael W. Deem and Ramdas Pophale) SiO2 
 PCOD8152477
Probable space group: C 2/C
;
_chemical_formula_sum "Si O2"
_cell_formula_units_Z 48
_cell_length_a 24.886260
_cell_length_b 9.927972
_cell_length_c 13.720492
_cell_angle_alpha 90.000000
_cell_angle_beta 41.312973
_cell_angle_gamma 90.000000
_cell_volume 2237.931561
_symmetry_space_group_name_H-M "C 2/C"
_symmetry_group_IT_number 15
_symmetry_cell_setting 'monoclinic'
loop_
_space_group_symop_operation_xyz
x,y,z
-x,y,1/2-z
-x,-y,-z
x,-y,1/2+z
1/2+x,1/2+y,z
1/2-x,1/2+y,1/2-z
1/2-x,1/2-y,-z
1/2+x,1/2-y,1/2+z
loop_
_atom_site_type_symbol
_atom_site_label
_atom_site_fract_x
_atom_site_fract_y
_atom_site_fract_z
Si Si1 0.318528 0.928317 0.990374
Si Si2 0.767919 0.810568 0.871956
Si Si3 0.415251 0.436291 0.583661
Si Si4 0.561713 0.851528 0.518990
Si Si5 0.386139 0.069589 0.194163
Si Si6 0.808860 0.185690 0.702210
O O1 0.404938 0.888923 0.919840
O O2 0.319886 0.931522 0.871028
O O3 0.246267 0.830460 0.125831
O O4 0.298672 0.075665 0.057578
O O5 0.859595 0.873441 0.746662
O O6 0.752774 0.706110 0.804217
O O7 0.750000 0.750000 0.000000
O O8 0.500000 0.500000 0.500000
O O9 0.434428 0.310806 0.487863
O O10 0.362792 0.553645 0.603077
O O11 0.470925 0.904177 0.632292
O O12 0.613913 0.925546 0.361481
O O13 0.367982 0.188198 0.141875
#
# Coordination Sequence:
#
# PCOD8152477 Si02
#       6
#     8   8   8   8   8   8
#     4  11  23  39  68  96 128 172 228 277 337 404
#     4  11  24  44  69  98 136 181 231 277 344 415
#     4  11  23  44  69  97 141 177 223 286 350 400
#     4  11  22  42  66  94 137 173 216 285 335 417
#     4  11  23  41  67  94 131 177 224 271 344 408
#     4  11  23  43  68  95 131 177 225 283 338 405
#
# _framework density 21.448378000000002
#
# number of rings (size 3 to 8) (size 9 to 14) (size 15 to 20)
#    0.000    1.000    5.000    2.000    0.000    0.000 
#    6.000    0.833    0.000    0.000    0.000    0.000 
#    0.000    0.000    0.000    0.000    0.000    0.000 
#
# Total GULP energy -297486.921807 kJ/mol
# GULP energy per Si atom -12395.288409 kJ/mol
# Density = 2.139956 g / cm^3
# Si number density = 21.448378 Si / 1000 Ang^3
#
#
#
# Elastic Constant Matrix: (Units=GPa)
#
#
# Indices 1 2 3 4 5 6 
#
# 1 87.7558 42.0784 30.8802 0.0001 -9.6711 0.0000
# 2 42.0784 125.4492 33.2599 0.0005 -8.3728 -0.0003
# 3 30.8802 33.2599 79.5513 0.0003 6.5127 -0.0002
# 4 0.0001 0.0005 0.0003 33.2769 -0.0001 -6.3402
# 5 -9.6711 -8.3728 6.5127 -0.0001 39.3226 0.0000
# 6 0.0000 -0.0003 -0.0002 -6.3402 0.0000 26.7782
#
#
#
# Elastic Compliance Matrix: (Units=1/GPa)
#
#
# Indices 1 2 3 4 5 6 
#
# 1 0.015187 -0.003598 -0.004697 0.000000 0.003747 0.000000
# 2 -0.003598 0.010080 -0.002961 0.000000 0.001752 0.000000
# 3 -0.004697 -0.002961 0.015995 0.000000 -0.004435 0.000000
# 4 0.000000 0.000000 0.000000 0.031471 0.000000 0.007451
# 5 0.003747 0.001752 -0.004435 0.000000 0.027460 0.000000
# 6 0.000000 0.000000 0.000000 0.007451 0.000000 0.039108
#
#
# Mechanical properties :
#
#
# Convention : Reuss Voigt Hill
#
# Bulk Modulus (GPa) = 53.33874 56.13259 54.73567
# Shear Modulus (GPa) = 29.75069 32.31139 31.03104
#
# Velocity S-wave (km/s) = 3.72840 3.88554 3.80778
# Velocity P-wave (km/s) = 6.59219 6.80865 6.70130
#
# Compressibility (1/GPa) = 0.01874810
#
# Stress axis : x y z
#
# Youngs Moduli (GPa) = 65.84777 99.20307 62.51952
#
# Poissons Ratio (x) = 0.35698 0.29368
# Poissons Ratio (y) = 0.23695 0.18513
# Poissons Ratio (z) = 0.30931 0.29375
#
# Static dielectric constant tensor:
#      x y z
#    x 3.677230 0.000000 -0.162850 
#    y 0.000000 3.862350 0.000000 
#    z -0.162850 0.000000 3.810590 
# 
# 
# High freq. dielectric constant tensor:
#      x y z
#    x 1.830560 0.000000 -0.017470 
#    y 0.000000 1.859550 0.000000 
#    z -0.017470 0.000000 1.835590 
# 
# From -- ./inp_files/166379.got.cif
#   From: 2010.06.25/outbox.cif.g09.slc.cpg/sg15_84_cif.got.tgz:166379.got - 2010.06.28 07:06:18.
