data_PCOD8152900
_publ_section_title
;
Structure prediction by ZEFSAII (Michael W. Deem and Ramdas Pophale) SiO2 
 PCOD8152900
Probable space group: C 2/C
;
_chemical_formula_sum "Si O2"
_cell_formula_units_Z 60
_cell_length_a 23.539458
_cell_length_b 20.958503
_cell_length_c 13.948370
_cell_angle_alpha 90.000000
_cell_angle_beta 24.053785
_cell_angle_gamma 90.000000
_cell_volume 2804.839363
_symmetry_space_group_name_H-M "C 2/C"
_symmetry_group_IT_number 15
_symmetry_cell_setting 'monoclinic'
loop_
_space_group_symop_operation_xyz
x,y,z
-x,y,1/2-z
-x,-y,-z
x,-y,1/2+z
1/2+x,1/2+y,z
1/2-x,1/2+y,1/2-z
1/2-x,1/2-y,-z
1/2+x,1/2-y,1/2+z
loop_
_atom_site_type_symbol
_atom_site_label
_atom_site_fract_x
_atom_site_fract_y
_atom_site_fract_z
Si Si1 0.316813 0.166378 0.817629
Si Si2 0.368097 0.988547 0.842566
Si Si3 0.241323 0.845050 0.818388
Si Si4 0.162453 0.047635 0.011019
Si Si5 0.175708 0.478016 0.876732
Si Si6 0.646767 0.215065 0.538082
Si Si7 0.500000 0.742131 0.750000
Si Si8 0.076091 0.346339 0.784487
O O1 0.364332 0.165699 0.855441
O O2 0.435008 0.144446 0.562291
O O3 0.183483 0.120045 0.013783
O O4 0.274539 0.237773 0.855612
O O5 0.392101 0.912758 0.819051
O O6 0.515373 0.021641 0.584661
O O7 0.245054 0.000607 0.956710
O O8 0.320081 0.020397 0.015610
O O9 0.233187 0.920708 0.811190
O O10 0.337778 0.823223 0.583138
O O11 0.303766 0.829328 0.825781
O O12 0.097966 0.805528 0.038089
O O13 0.000000 0.030949 0.250000
O O14 0.239019 0.039948 0.790722
O O15 0.500000 0.251919 0.750000
O O16 0.575679 0.788832 0.708953
#
# Coordination Sequence:
#
# PCOD8152900 Si02
#       8
#     8   8   8   8   8   8   4   8
#     4  11  23  42  67 100 139 178 230 289 346 420
#     4  11  24  45  74 108 130 179 242 286 349 414
#     4  12  25  43  67 101 136 181 231 284 342 417
#     4  12  25  43  64 100 143 178 217 287 360 410
#     4  11  24  42  74 100 133 179 229 289 341 422
#     4  11  23  40  68 101 133 181 236 284 346 407
#     4  12  28  46  66 102 142 188 228 286 352 408
#     4  12  23  46  73 100 138 180 241 287 340 421
#
# _framework density 21.3916
#
# number of rings (size 3 to 8) (size 9 to 14) (size 15 to 20)
#    0.000    0.533    5.333    3.600    2.800    0.533 
#    0.000    1.333    0.000    0.000    0.000    0.000 
#    0.000    0.000    0.000    0.000    0.000    0.000 
#
# Total GULP energy -371869.593250 kJ/mol
# GULP energy per Si atom -12395.653108 kJ/mol
# Density = 2.134291 g / cm^3
# Si number density = 21.391600 Si / 1000 Ang^3
#
#
#
# Elastic Constant Matrix: (Units=GPa)
#
#
# Indices 1 2 3 4 5 6 
#
# 1 73.1130 44.8347 36.3021 -0.0058 8.7589 0.0022
# 2 44.8347 106.8583 34.9260 0.0002 1.0935 -0.0005
# 3 36.3021 34.9260 98.0196 -0.0041 -3.6082 0.0011
# 4 -0.0058 0.0002 -0.0041 30.6376 0.0022 1.0144
# 5 8.7589 1.0935 -3.6082 0.0022 34.0492 -0.0006
# 6 0.0022 -0.0005 0.0011 1.0144 -0.0006 31.9116
#
#
#
# Elastic Compliance Matrix: (Units=1/GPa)
#
#
# Indices 1 2 3 4 5 6 
#
# 1 0.021579 -0.007142 -0.005665 0.000004 -0.005922 -0.000002
# 2 -0.007142 0.012974 -0.001933 -0.000002 0.001216 0.000001
# 3 -0.005665 -0.001933 0.013096 0.000000 0.002907 0.000000
# 4 0.000004 -0.000002 0.000000 0.032674 -0.000003 -0.001039
# 5 -0.005922 0.001216 0.002907 -0.000003 0.031162 0.000001
# 6 -0.000002 0.000001 0.000000 -0.001039 0.000001 0.031370
#
#
# Mechanical properties :
#
#
# Convention : Reuss Voigt Hill
#
# Bulk Modulus (GPa) = 55.03870 56.67962 55.85916
# Shear Modulus (GPa) = 28.02821 30.11489 29.07155
#
# Velocity S-wave (km/s) = 3.62366 3.75612 3.69048
# Velocity P-wave (km/s) = 6.57973 6.73536 6.65800
#
# Compressibility (1/GPa) = 0.01816903
#
# Stress axis : x y z
#
# Youngs Moduli (GPa) = 46.34049 77.07678 76.35900
#
# Poissons Ratio (x) = 0.55047 0.43260
# Poissons Ratio (y) = 0.33096 0.14761
# Poissons Ratio (z) = 0.26253 0.14900
#
# Static dielectric constant tensor:
#      x y z
#    x 3.905640 0.000000 0.122850 
#    y 0.000000 3.797360 0.000010 
#    z 0.122850 0.000010 3.673830 
# 
# 
# High freq. dielectric constant tensor:
#      x y z
#    x 1.847980 0.000000 0.011490 
#    y 0.000000 1.844590 0.000000 
#    z 0.011490 0.000000 1.828940 
# 
# From -- ./inp_files/179077.got.cif
#   From: 2010.06.25/outbox.cif.g09.slc.cpg/sg15_90_cif.got.tgz:179077.got - 2010.06.28 07:06:18.
