data_PCOD8152450
_publ_section_title
;
Structure prediction by ZEFSAII (Michael W. Deem and Ramdas Pophale) SiO2 
 PCOD8152450
Probable space group: C 2/C
;
_chemical_formula_sum "Si O2"
_cell_formula_units_Z 48
_cell_length_a 12.057193
_cell_length_b 13.559229
_cell_length_c 26.953884
_cell_angle_alpha 90.000000
_cell_angle_beta 30.290918
_cell_angle_gamma 90.000000
_cell_volume 2222.642863
_symmetry_space_group_name_H-M "C 2/C"
_symmetry_group_IT_number 15
_symmetry_cell_setting 'monoclinic'
loop_
_space_group_symop_operation_xyz
x,y,z
-x,y,1/2-z
-x,-y,-z
x,-y,1/2+z
1/2+x,1/2+y,z
1/2-x,1/2+y,1/2-z
1/2-x,1/2-y,-z
1/2+x,1/2-y,1/2+z
loop_
_atom_site_type_symbol
_atom_site_label
_atom_site_fract_x
_atom_site_fract_y
_atom_site_fract_z
Si Si1 0.630900 0.609942 0.250324
Si Si2 0.390809 0.366171 0.560652
Si Si3 0.997980 0.755218 0.890306
Si Si4 0.925555 0.711629 0.393390
Si Si5 0.261325 0.425540 0.145112
Si Si6 0.326819 0.610719 0.730543
O O1 0.500000 0.634552 0.250000
O O2 0.514526 0.662605 0.341161
O O3 0.622016 0.491638 0.261936
O O4 0.879960 0.652753 0.152640
O O5 0.371132 0.282704 0.610015
O O6 0.195120 0.364217 0.596384
O O7 0.631114 0.359528 0.440465
O O8 0.358093 0.466546 0.602398
O O9 0.083869 0.647710 0.840092
O O10 0.750000 0.750000 0.000000
O O11 0.750000 0.750000 0.500000
O O12 0.006239 0.798150 0.324090
O O13 0.354773 0.390644 0.160922
O O14 0.000000 0.418315 0.250000
#
# Coordination Sequence:
#
# PCOD8152450 Si02
#       6
#     8   8   8   8   8   8
#     4  11  27  47  68 102 140 183 228 282 352 428
#     4  11  24  42  69 105 135 178 241 288 339 415
#     4  11  26  43  70 103 141 178 235 290 346 411
#     4  11  25  45  71 100 138 180 228 284 346 412
#     4  11  22  41  72  98 137 182 227 291 345 402
#     4  11  24  44  68 100 137 185 226 277 356 408
#
# _framework density 21.595911999999998
#
# number of rings (size 3 to 8) (size 9 to 14) (size 15 to 20)
#    0.000    1.000    3.333    2.000    7.000    5.333 
#    0.000    1.667    0.000    0.000    0.000    0.000 
#    0.000    0.000    0.000    0.000    0.000    0.000 
#
# Total GULP energy -297433.435181 kJ/mol
# GULP energy per Si atom -12393.059799 kJ/mol
# Density = 2.154676 g / cm^3
# Si number density = 21.595912 Si / 1000 Ang^3
#
#
#
# Elastic Constant Matrix: (Units=GPa)
#
#
# Indices 1 2 3 4 5 6 
#
# 1 122.9871 29.8080 51.1228 0.0053 9.4140 -0.0004
# 2 29.8080 99.7491 47.4912 -0.0093 6.6805 -0.0007
# 3 51.1228 47.4912 154.5644 -0.0341 -4.1574 0.0180
# 4 0.0053 -0.0093 -0.0341 30.9270 0.0162 4.4003
# 5 9.4140 6.6805 -4.1574 0.0162 30.8094 0.0007
# 6 -0.0004 -0.0007 0.0180 4.4003 0.0007 27.7427
#
#
#
# Elastic Compliance Matrix: (Units=1/GPa)
#
#
# Indices 1 2 3 4 5 6 
#
# 1 0.009926 -0.001350 -0.002953 -0.000004 -0.003139 0.000003
# 2 -0.001350 0.012218 -0.003380 0.000001 -0.002693 0.000002
# 3 -0.002953 -0.003380 0.008560 0.000008 0.002790 -0.000007
# 4 -0.000004 0.000001 0.000008 0.033081 -0.000015 -0.005247
# 5 -0.003139 -0.002693 0.002790 -0.000015 0.034377 0.000000
# 6 0.000003 0.000002 -0.000007 -0.005247 0.000000 0.036878
#
#
# Mechanical properties :
#
#
# Convention : Reuss Voigt Hill
#
# Bulk Modulus (GPa) = 65.19574 70.46053 67.82813
# Shear Modulus (GPa) = 32.15070 34.48773 33.31921
#
# Velocity S-wave (km/s) = 3.86261 4.00053 3.93217
# Velocity P-wave (km/s) = 7.08148 7.35096 7.21748
#
# Compressibility (1/GPa) = 0.01533843
#
# Stress axis : x y z
#
# Youngs Moduli (GPa) = 100.74846 81.84504 116.82316
#
# Poissons Ratio (x) = 0.11051 0.34492
# Poissons Ratio (y) = 0.13603 0.39486
# Poissons Ratio (z) = 0.29746 0.27664
#
# Static dielectric constant tensor:
#      x y z
#    x 4.092090 0.001180 0.162420 
#    y 0.001180 3.512320 -0.006280 
#    z 0.162420 -0.006280 4.481760 
# 
# 
# High freq. dielectric constant tensor:
#      x y z
#    x 1.846350 0.000000 0.009380 
#    y 0.000000 1.849300 0.000000 
#    z 0.009380 0.000000 1.866390 
# 
# From -- ./inp_files/292988.got.cif
#   From: 2010.06.25/outbox.cif.g09.slc.cpg/sg15_147_cif.got.tgz:292988.got - 2010.06.28 07:06:18.
