data_PCOD8152178
_publ_section_title
;
Structure prediction by ZEFSAII (Michael W. Deem and Ramdas Pophale) SiO2 
 PCOD8152178
Probable space group: C 2/C
;
_chemical_formula_sum "Si O2"
_cell_formula_units_Z 64
_cell_length_a 22.281801
_cell_length_b 18.665518
_cell_length_c 19.065290
_cell_angle_alpha 90.000000
_cell_angle_beta 23.044609
_cell_angle_gamma 90.000000
_cell_volume 3103.898346
_symmetry_space_group_name_H-M "C 2/C"
_symmetry_group_IT_number 15
_symmetry_cell_setting 'monoclinic'
loop_
_space_group_symop_operation_xyz
x,y,z
-x,y,1/2-z
-x,-y,-z
x,-y,1/2+z
1/2+x,1/2+y,z
1/2-x,1/2+y,1/2-z
1/2-x,1/2-y,-z
1/2+x,1/2-y,1/2+z
loop_
_atom_site_type_symbol
_atom_site_label
_atom_site_fract_x
_atom_site_fract_y
_atom_site_fract_z
Si Si1 0.665627 0.080890 0.152837
Si Si2 0.383200 0.325625 0.651161
Si Si3 0.663622 0.419732 0.171200
Si Si4 0.390113 0.966976 0.178757
Si Si5 0.022265 0.322605 0.011060
Si Si6 0.589510 0.165156 0.027096
Si Si7 0.591456 0.326463 0.034199
Si Si8 0.027702 0.965565 0.543806
O O1 0.532018 0.139039 0.283749
O O2 0.589513 0.012225 0.272161
O O3 0.739335 0.056835 0.000669
O O4 0.778494 0.117461 0.086795
O O5 0.444737 0.251582 0.618050
O O6 0.454770 0.337979 0.497429
O O7 0.444241 0.388126 0.636605
O O8 0.200938 0.321438 0.837271
O O9 0.560268 0.350724 0.259912
O O10 0.554523 0.485871 0.308826
O O11 0.769891 0.391348 0.121072
O O12 0.446372 0.887043 0.136003
O O13 0.209992 0.962222 0.355759
O O14 0.500000 0.000000 0.000000
O O15 0.989151 0.336355 0.964384
O O16 0.643332 0.244780 0.991650
O O17 0.000000 0.000000 0.500000
#
# Coordination Sequence:
#
# PCOD8152178 Si02
#       8
#     8   8   8   8   8   8   8   8
#     4  12  24  42  59  90 128 169 214 255 313 368
#     4  11  23  40  66  96 124 161 207 262 316 375
#     4  12  26  39  61  90 127 171 214 259 308 373
#     4  12  23  40  65  90 123 168 210 265 313 369
#     4  11  23  40  66  94 125 159 208 261 317 375
#     4  11  24  38  60  90 128 170 215 252 305 370
#     4  11  22  39  60  87 125 171 211 252 302 374
#     4  12  23  40  64  91 123 165 213 262 315 368
#
# _framework density 20.619232
#
# number of rings (size 3 to 8) (size 9 to 14) (size 15 to 20)
#    0.000    0.500    5.000    3.750    7.000    3.000 
#    0.000    0.000    0.000    0.750    0.000    0.000 
#    0.000    0.000    0.000    0.000    0.000    0.000 
#
# Total GULP energy -396626.569290 kJ/mol
# GULP energy per Si atom -12394.580290 kJ/mol
# Density = 2.057230 g / cm^3
# Si number density = 20.619232 Si / 1000 Ang^3
#
#
#
# Elastic Constant Matrix: (Units=GPa)
#
#
# Indices 1 2 3 4 5 6 
#
# 1 47.1837 45.1724 34.9695 -0.0008 -1.8194 0.0049
# 2 45.1724 157.6985 70.2439 0.0120 0.4899 -0.0045
# 3 34.9695 70.2439 139.3256 -0.0094 -9.7932 0.0008
# 4 -0.0008 0.0120 -0.0094 40.3679 0.0047 -7.6044
# 5 -1.8194 0.4899 -9.7932 0.0047 37.5675 -0.0019
# 6 0.0049 -0.0045 0.0008 -7.6044 -0.0019 20.5524
#
#
#
# Elastic Compliance Matrix: (Units=1/GPa)
#
#
# Indices 1 2 3 4 5 6 
#
# 1 0.031062 -0.007018 -0.004223 0.000000 0.000495 -0.000009
# 2 -0.007018 0.009817 -0.003281 -0.000003 -0.001323 0.000003
# 3 -0.004223 -0.003281 0.010065 0.000003 0.002462 0.000001
# 4 0.000000 -0.000003 0.000003 0.026628 -0.000002 0.009852
# 5 0.000495 -0.001323 0.002462 -0.000002 0.027302 0.000001
# 6 -0.000009 0.000003 0.000001 0.009852 0.000001 0.052302
#
#
# Mechanical properties :
#
#
# Convention : Reuss Voigt Hill
#
# Bulk Modulus (GPa) = 45.66412 71.66439 58.66425
# Shear Modulus (GPa) = 25.83731 32.61904 29.22817
#
# Velocity S-wave (km/s) = 3.54371 3.98172 3.76908
# Velocity P-wave (km/s) = 6.24006 7.48133 6.88871
#
# Compressibility (1/GPa) = 0.02189903
#
# Stress axis : x y z
#
# Youngs Moduli (GPa) = 32.19410 101.86330 99.35744
#
# Poissons Ratio (x) = 0.71487 0.41960
# Poissons Ratio (y) = 0.22594 0.32600
# Poissons Ratio (z) = 0.13596 0.33422
#
# Static dielectric constant tensor:
#      x y z
#    x 3.491970 -0.000010 -0.275290 
#    y -0.000010 4.325250 0.000040 
#    z -0.275290 0.000040 3.985410 
# 
# 
# High freq. dielectric constant tensor:
#      x y z
#    x 1.765620 0.000000 -0.028290 
#    y 0.000000 1.815370 0.000000 
#    z -0.028290 0.000000 1.823990 
# 
# From -- ./inp_files/70617.got.cif
#   From: 2010.06.25/outbox.cif.g09.slc.cpg/sg15_36_cif.got.tgz:70617.got - 2010.06.28 07:06:18.
