data_PCOD8152653
_publ_section_title
;
Structure prediction by ZEFSAII (Michael W. Deem and Ramdas Pophale) SiO2 
 PCOD8152653
Probable space group: C 2/C
;
_chemical_formula_sum "Si O2"
_cell_formula_units_Z 44
_cell_length_a 16.231075
_cell_length_b 16.736436
_cell_length_c 9.341217
_cell_angle_alpha 90.000000
_cell_angle_beta 125.166049
_cell_angle_gamma 90.000000
_cell_volume 2074.408209
_symmetry_space_group_name_H-M "C 2/C"
_symmetry_group_IT_number 15
_symmetry_cell_setting 'monoclinic'
loop_
_space_group_symop_operation_xyz
x,y,z
-x,y,1/2-z
-x,-y,-z
x,-y,1/2+z
1/2+x,1/2+y,z
1/2-x,1/2+y,1/2-z
1/2-x,1/2-y,-z
1/2+x,1/2-y,1/2+z
loop_
_atom_site_type_symbol
_atom_site_label
_atom_site_fract_x
_atom_site_fract_y
_atom_site_fract_z
Si Si1 0.197872 0.481747 0.454541
Si Si2 0.010642 0.287280 0.502262
Si Si3 0.982049 0.112375 0.895725
Si Si4 0.834812 0.983485 0.848291
Si Si5 0.000000 0.590059 0.250000
Si Si6 0.654626 0.805762 0.385650
O O1 0.236770 0.468234 0.653810
O O2 0.291221 0.521720 0.464760
O O3 0.098003 0.534695 0.350414
O O4 0.179110 0.395945 0.363711
O O5 0.037623 0.206266 0.612032
O O6 0.998440 0.356975 0.605750
O O7 0.910149 0.270924 0.310039
O O8 0.098333 0.310634 0.480927
O O9 0.000000 0.087070 0.750000
O O10 0.080560 0.085181 0.084944
O O11 0.884324 0.069264 0.863432
O O12 0.750000 0.750000 0.500000
#
# Coordination Sequence:
#
# PCOD8152653 Si02
#       6
#     8   8   8   8   4   8
#     4  12  24  43  65  96 133 169 229 259 322 387
#     4  11  24  43  66  95 134 171 221 261 334 385
#     4  11  22  44  68  97 131 162 209 276 339 394
#     4  11  24  41  70  98 124 169 210 275 330 390
#     4  12  26  42  66  96 136 190 210 274 318 394
#     4  11  24  43  66  96 126 175 219 274 318 385
#
# _framework density 21.210868000000001
#
# number of rings (size 3 to 8) (size 9 to 14) (size 15 to 20)
#    0.000    0.727    2.727    5.455    0.000    3.636 
#    0.000    2.727    0.000    0.000    0.000    0.000 
#    0.000    0.000    0.000    0.000    0.000    0.000 
#
# Total GULP energy -272880.241486 kJ/mol
# GULP energy per Si atom -12403.647340 kJ/mol
# Density = 2.116259 g / cm^3
# Si number density = 21.210868 Si / 1000 Ang^3
#
#
#
# Elastic Constant Matrix: (Units=GPa)
#
#
# Indices 1 2 3 4 5 6 
#
# 1 102.4364 27.6606 52.2972 0.0000 8.2936 0.0000
# 2 27.6606 109.6116 27.9732 0.0000 10.9985 0.0000
# 3 52.2972 27.9732 105.0040 0.0000 4.9775 0.0000
# 4 0.0000 0.0000 0.0000 32.7637 0.0000 -0.5134
# 5 8.2936 10.9985 4.9775 0.0000 36.8222 0.0000
# 6 0.0000 0.0000 0.0000 -0.5134 0.0000 36.7306
#
#
#
# Elastic Compliance Matrix: (Units=1/GPa)
#
#
# Indices 1 2 3 4 5 6 
#
# 1 0.013518 -0.001655 -0.006211 0.000000 -0.001711 0.000000
# 2 -0.001655 0.010242 -0.001789 0.000000 -0.002445 0.000000
# 3 -0.006211 -0.001789 0.013085 0.000000 0.000164 0.000000
# 4 0.000000 0.000000 0.000000 0.030528 0.000000 0.000427
# 5 -0.001711 -0.002445 0.000164 0.000000 0.028251 0.000000
# 6 0.000000 0.000000 0.000000 0.000427 0.000000 0.027231
#
#
# Mechanical properties :
#
#
# Convention : Reuss Voigt Hill
#
# Bulk Modulus (GPa) = 57.01917 59.21268 58.11593
# Shear Modulus (GPa) = 33.78125 35.20470 34.49297
#
# Velocity S-wave (km/s) = 3.99512 4.07842 4.03698
# Velocity P-wave (km/s) = 6.94418 7.08201 7.01343
#
# Compressibility (1/GPa) = 0.01753796
#
# Stress axis : x y z
#
# Youngs Moduli (GPa) = 73.97345 97.63282 76.42050
#
# Poissons Ratio (x) = 0.16155 0.47464
# Poissons Ratio (y) = 0.12240 0.13669
# Poissons Ratio (z) = 0.45944 0.17463
#
# Static dielectric constant tensor:
#      x y z
#    x 3.846320 0.000000 0.009150 
#    y 0.000000 3.777320 0.000000 
#    z 0.009150 0.000000 3.796990 
# 
# 
# High freq. dielectric constant tensor:
#      x y z
#    x 1.842480 0.000000 0.000680 
#    y 0.000000 1.834190 0.000000 
#    z 0.000680 0.000000 1.841160 
# 
# From -- ./inp_files/39565.got.cif
#   From: 2010.06.25/outbox.cif.g09.slc.cpg/sg15_20_cif.got.tgz:39565.got - 2010.06.28 07:06:18.
