data_PCOD8152694
_publ_section_title
;
Structure prediction by ZEFSAII (Michael W. Deem and Ramdas Pophale) SiO2 
 PCOD8152694
Probable space group: C 2/C
;
_chemical_formula_sum "Si O2"
_cell_formula_units_Z 56
_cell_length_a 12.991837
_cell_length_b 17.213092
_cell_length_c 14.277896
_cell_angle_alpha 90.000000
_cell_angle_beta 123.031173
_cell_angle_gamma 90.000000
_cell_volume 2676.896202
_symmetry_space_group_name_H-M "C 2/C"
_symmetry_group_IT_number 15
_symmetry_cell_setting 'monoclinic'
loop_
_space_group_symop_operation_xyz
x,y,z
-x,y,1/2-z
-x,-y,-z
x,-y,1/2+z
1/2+x,1/2+y,z
1/2-x,1/2+y,1/2-z
1/2-x,1/2-y,-z
1/2+x,1/2-y,1/2+z
loop_
_atom_site_type_symbol
_atom_site_label
_atom_site_fract_x
_atom_site_fract_y
_atom_site_fract_z
Si Si1 0.609130 0.816793 0.672930
Si Si2 0.748189 0.465985 0.766214
Si Si3 0.481319 0.443923 0.578536
Si Si4 0.693837 0.300667 0.056814
Si Si5 0.239786 0.974185 0.453824
Si Si6 0.671906 0.817403 0.917739
Si Si7 0.358555 0.065069 0.661130
O O1 0.657613 0.898423 0.658475
O O2 0.645581 0.750466 0.618324
O O3 0.668481 0.803884 0.804668
O O4 0.462927 0.820021 0.605708
O O5 0.612565 0.428248 0.691749
O O6 0.761895 0.532045 0.853315
O O7 0.783472 0.504169 0.686065
O O8 0.500000 0.500000 0.500000
O O9 0.415536 0.360661 0.525507
O O10 0.398382 0.494091 0.607264
O O11 0.809346 0.348642 0.154485
O O12 0.750000 0.250000 0.000000
O O13 0.256055 0.894684 0.517778
O O14 0.333037 0.038658 0.542186
O O15 0.750000 0.750000 0.000000
O O16 0.500000 0.060391 0.750000
#
# Coordination Sequence:
#
# PCOD8152694 Si02
#       7
#     8   8   8   8   8   8   8
#     4  11  25  45  68 101 139 181 227 287 355 417
#     4  12  24  43  73  99 136 181 230 290 348 421
#     4  11  22  44  73  98 135 181 230 294 342 423
#     4  11  26  45  69 103 139 178 238 290 357 428
#     4  11  24  43  68 103 130 175 234 278 352 414
#     4  11  26  43  66  99 141 179 225 286 345 417
#     4  11  24  44  68  96 134 177 230 289 342 425
#
# _framework density 20.919750000000001
#
# number of rings (size 3 to 8) (size 9 to 14) (size 15 to 20)
#    0.000    0.857    4.286    3.000    6.000    4.571 
#    2.571    0.000    0.000    0.000    0.000    0.000 
#    0.000    0.000    0.000    0.000    0.000    0.000 
#
# Total GULP energy -347120.443965 kJ/mol
# GULP energy per Si atom -12397.158713 kJ/mol
# Density = 2.087214 g / cm^3
# Si number density = 20.919750 Si / 1000 Ang^3
#
#
#
# Elastic Constant Matrix: (Units=GPa)
#
#
# Indices 1 2 3 4 5 6 
#
# 1 121.0381 62.5497 69.4293 0.0000 13.6254 0.0000
# 2 62.5497 141.5874 49.5627 0.0000 -1.0084 0.0000
# 3 69.4293 49.5627 106.1500 0.0000 4.0496 0.0000
# 4 0.0000 0.0000 0.0000 24.2100 0.0000 -0.8466
# 5 13.6254 -1.0084 4.0496 0.0000 39.2916 0.0000
# 6 0.0000 0.0000 0.0000 -0.8466 0.0000 43.3810
#
#
#
# Elastic Compliance Matrix: (Units=1/GPa)
#
#
# Indices 1 2 3 4 5 6 
#
# 1 0.015516 -0.004061 -0.008075 0.000000 -0.004653 0.000000
# 2 -0.004061 0.009521 -0.001860 0.000000 0.001844 0.000000
# 3 -0.008075 -0.001860 0.015526 0.000000 0.001152 0.000000
# 4 0.000000 0.000000 0.000000 0.041333 0.000000 0.000807
# 5 -0.004653 0.001844 0.001152 0.000000 0.026993 0.000000
# 6 0.000000 0.000000 0.000000 0.000807 0.000000 0.023067
#
#
# Mechanical properties :
#
#
# Convention : Reuss Voigt Hill
#
# Bulk Modulus (GPa) = 79.53960 81.31765 80.42862
# Shear Modulus (GPa) = 30.46191 33.85877 32.16034
#
# Velocity S-wave (km/s) = 3.82007 4.02743 3.92512
# Velocity P-wave (km/s) = 7.58690 7.78348 7.68582
#
# Compressibility (1/GPa) = 0.01257235
#
# Stress axis : x y z
#
# Youngs Moduli (GPa) = 64.44844 105.03137 64.40603
#
# Poissons Ratio (x) = 0.42655 0.52008
# Poissons Ratio (y) = 0.26174 0.11976
# Poissons Ratio (z) = 0.52042 0.19531
#
# Static dielectric constant tensor:
#      x y z
#    x 4.570260 0.000000 -0.043640 
#    y 0.000000 3.939590 0.000000 
#    z -0.043640 0.000000 3.937800 
# 
# 
# High freq. dielectric constant tensor:
#      x y z
#    x 1.834500 0.000000 0.000700 
#    y 0.000000 1.819450 0.000000 
#    z 0.000700 0.000000 1.826360 
# 
# From -- ./inp_files/145972.got.cif
#   From: 2010.06.25/outbox.cif.g09.slc.cpg/sg15_73_cif.got.tgz:145972.got - 2010.06.28 07:06:18.
