data_PCOD8152456
_publ_section_title
;
Structure prediction by ZEFSAII (Michael W. Deem and Ramdas Pophale) SiO2 
 PCOD8152456
Probable space group: C 2/C
;
_chemical_formula_sum "Si O2"
_cell_formula_units_Z 48
_cell_length_a 12.919229
_cell_length_b 12.720023
_cell_length_c 19.015634
_cell_angle_alpha 90.000000
_cell_angle_beta 43.855949
_cell_angle_gamma 90.000000
_cell_volume 2165.075491
_symmetry_space_group_name_H-M "C 2/C"
_symmetry_group_IT_number 15
_symmetry_cell_setting 'monoclinic'
loop_
_space_group_symop_operation_xyz
x,y,z
-x,y,1/2-z
-x,-y,-z
x,-y,1/2+z
1/2+x,1/2+y,z
1/2-x,1/2+y,1/2-z
1/2-x,1/2-y,-z
1/2+x,1/2-y,1/2+z
loop_
_atom_site_type_symbol
_atom_site_label
_atom_site_fract_x
_atom_site_fract_y
_atom_site_fract_z
Si Si1 0.243652 0.641815 0.460855
Si Si2 0.500000 0.808353 0.750000
Si Si3 0.324106 0.630220 0.757959
Si Si4 0.500000 0.545872 0.250000
Si Si5 0.183329 0.574827 0.044748
Si Si6 0.987987 0.896113 0.459796
Si Si7 0.545684 0.175238 0.972218
O O1 0.250000 0.750000 0.500000
O O2 0.407733 0.618322 0.349479
O O3 0.182770 0.551467 0.542920
O O4 0.125393 0.641708 0.454540
O O5 0.394885 0.736680 0.753786
O O6 0.399769 0.885371 0.845707
O O7 0.382026 0.525454 0.766950
O O8 0.357621 0.622833 0.658290
O O9 0.146209 0.636053 0.857448
O O10 0.359074 0.603874 0.963027
O O11 0.113004 0.628084 0.010636
O O12 0.952962 0.801350 0.529252
O O13 0.000000 0.000000 0.500000
#
# Coordination Sequence:
#
# PCOD8152456 Si02
#       7
#     8   4   8   4   8   8   8
#     4  12  28  48  70 104 150 193 240 308 384 448
#     4  11  22  41  76 110 142 185 244 309 354 428
#     4  11  22  43  76 108 134 191 244 299 367 435
#     4  11  24  45  76  92 142 193 234 297 380 428
#     4  12  23  46  71 105 143 193 249 304 356 437
#     4  12  25  44  73 108 149 187 238 304 371 439
#     4  12  25  45  76 108 140 190 251 299 362 450
#
# _framework density 22.170127999999998
#
# number of rings (size 3 to 8) (size 9 to 14) (size 15 to 20)
#    0.000    0.333    6.667    3.000    0.000    3.333 
#    0.000    0.000    0.000    0.000    0.000    0.000 
#    0.000    0.000    0.000    0.000    0.000    0.000 
#
# Total GULP energy -297628.291426 kJ/mol
# GULP energy per Si atom -12401.178809 kJ/mol
# Density = 2.211967 g / cm^3
# Si number density = 22.170128 Si / 1000 Ang^3
#
#
#
# Elastic Constant Matrix: (Units=GPa)
#
#
# Indices 1 2 3 4 5 6 
#
# 1 73.1940 22.7340 39.1446 0.0000 -6.3800 0.0000
# 2 22.7340 168.9441 85.8531 0.0000 2.3799 0.0000
# 3 39.1446 85.8531 153.0346 -0.0001 15.2644 0.0001
# 4 0.0000 0.0000 -0.0001 44.4465 0.0000 3.2404
# 5 -6.3800 2.3799 15.2644 0.0000 27.4525 0.0000
# 6 0.0000 0.0000 0.0001 3.2404 0.0000 19.8788
#
#
#
# Elastic Compliance Matrix: (Units=1/GPa)
#
#
# Indices 1 2 3 4 5 6 
#
# 1 0.016927 0.000238 -0.005139 0.000000 0.006770 0.000000
# 2 0.000238 0.008385 -0.004974 0.000000 0.002094 0.000000
# 3 -0.005139 -0.004974 0.011345 0.000000 -0.007071 0.000000
# 4 0.000000 0.000000 0.000000 0.022770 0.000000 -0.003712
# 5 0.006770 0.002094 -0.007071 0.000000 0.041750 0.000000
# 6 0.000000 0.000000 0.000000 -0.003712 0.000000 0.050910
#
#
# Mechanical properties :
#
#
# Convention : Reuss Voigt Hill
#
# Bulk Modulus (GPa) = 59.14458 76.73735 67.94097
# Shear Modulus (GPa) = 28.17370 34.85163 31.51266
#
# Velocity S-wave (km/s) = 3.56869 3.96916 3.77424
# Velocity P-wave (km/s) = 6.61183 7.46282 7.05018
#
# Compressibility (1/GPa) = 0.01690772
#
# Stress axis : x y z
#
# Youngs Moduli (GPa) = 59.07856 119.25785 88.14810
#
# Poissons Ratio (x) = -0.02841 0.45296
# Poissons Ratio (y) = -0.01407 0.43844
# Poissons Ratio (z) = 0.30358 0.59318
#
# Static dielectric constant tensor:
#      x y z
#    x 3.988850 0.000000 -0.193160 
#    y 0.000000 4.163450 0.000000 
#    z -0.193160 0.000000 4.267650 
# 
# 
# High freq. dielectric constant tensor:
#      x y z
#    x 1.855350 0.000000 -0.007680 
#    y 0.000000 1.887140 0.000000 
#    z -0.007680 0.000000 1.879920 
# 
# From -- ./inp_files/243944.got.cif
#   From: 2010.06.25/outbox.cif.g09.slc.cpg/sg15_122_cif.got.tgz:243944.got - 2010.06.28 07:06:18.
