data_PCOD8152299
_publ_section_title
;
Structure prediction by ZEFSAII (Michael W. Deem and Ramdas Pophale) SiO2 
 PCOD8152299
Probable space group: C 2/C
;
_chemical_formula_sum "Si O2"
_cell_formula_units_Z 56
_cell_length_a 11.219303
_cell_length_b 15.332165
_cell_length_c 28.265677
_cell_angle_alpha 90.000000
_cell_angle_beta 31.818307
_cell_angle_gamma 90.000000
_cell_volume 2563.460698
_symmetry_space_group_name_H-M "C 2/C"
_symmetry_group_IT_number 15
_symmetry_cell_setting 'monoclinic'
loop_
_space_group_symop_operation_xyz
x,y,z
-x,y,1/2-z
-x,-y,-z
x,-y,1/2+z
1/2+x,1/2+y,z
1/2-x,1/2+y,1/2-z
1/2-x,1/2-y,-z
1/2+x,1/2-y,1/2+z
loop_
_atom_site_type_symbol
_atom_site_label
_atom_site_fract_x
_atom_site_fract_y
_atom_site_fract_z
Si Si1 0.625960 0.797354 0.083730
Si Si2 0.331871 0.553264 0.211400
Si Si3 0.502651 0.753803 0.899639
Si Si4 0.340785 0.010784 0.900486
Si Si5 0.154719 0.828186 0.658324
Si Si6 0.559555 0.564483 0.909498
Si Si7 0.154539 0.730466 0.242496
O O1 0.705513 0.896673 0.058941
O O2 0.703521 0.742372 0.102350
O O3 0.354619 0.800563 0.171371
O O4 0.750000 0.750000 0.000000
O O5 0.527390 0.583648 0.183203
O O6 0.447778 0.482153 0.139034
O O7 0.266047 0.635341 0.201110
O O8 0.103861 0.517272 0.313528
O O9 0.610947 0.838192 0.890875
O O10 0.619777 0.664645 0.878489
O O11 0.520970 0.762706 0.836883
O O12 0.250000 0.750000 0.000000
O O13 0.256279 0.019647 0.874709
O O14 0.184599 0.942065 0.981716
O O15 0.000000 0.781753 0.750000
O O16 0.000000 0.748934 0.250000
#
# Coordination Sequence:
#
# PCOD8152299 Si02
#       7
#     8   8   8   8   8   8   8
#     4  11  23  40  71  98 135 180 235 285 349 408
#     4  11  23  40  69  98 138 171 228 293 354 398
#     4  12  25  44  73  98 135 189 241 282 346 429
#     4  11  22  40  66 100 138 178 232 293 349 409
#     4  11  23  45  69  97 134 187 232 279 346 429
#     4  11  24  40  66 103 135 177 240 288 341 418
#     4  11  24  42  63  99 136 176 232 282 344 415
#
# _framework density 21.845468
#
# number of rings (size 3 to 8) (size 9 to 14) (size 15 to 20)
#    0.000    0.857    4.286    4.714    2.000    2.286 
#    0.000    3.571    0.000    0.000    0.000    0.000 
#    0.000    0.000    0.000    0.000    0.000    0.000 
#
# Total GULP energy -347005.767434 kJ/mol
# GULP energy per Si atom -12393.063123 kJ/mol
# Density = 2.179575 g / cm^3
# Si number density = 21.845468 Si / 1000 Ang^3
#
#
#
# Elastic Constant Matrix: (Units=GPa)
#
#
# Indices 1 2 3 4 5 6 
#
# 1 159.9146 28.7846 69.7660 0.0044 4.2171 0.0033
# 2 28.7846 74.7952 15.8666 -0.0013 6.4799 0.0046
# 3 69.7660 15.8666 116.9431 0.0543 -0.9385 0.0553
# 4 0.0044 -0.0013 0.0543 29.2369 -0.0038 -1.3218
# 5 4.2171 6.4799 -0.9385 -0.0038 37.1786 -0.0089
# 6 0.0033 0.0046 0.0553 -1.3218 -0.0089 28.3829
#
#
#
# Elastic Compliance Matrix: (Units=1/GPa)
#
#
# Indices 1 2 3 4 5 6 
#
# 1 0.008857 -0.002289 -0.004979 0.000008 -0.000731 0.000009
# 2 -0.002289 0.014584 -0.000632 0.000002 -0.002298 -0.000001
# 3 -0.004979 -0.000632 0.011615 -0.000022 0.000968 -0.000023
# 4 0.000008 0.000002 -0.000022 0.034276 0.000002 0.001596
# 5 -0.000731 -0.002298 0.000968 0.000002 0.027405 0.000007
# 6 0.000009 -0.000001 -0.000023 0.001596 0.000007 0.035307
#
#
# Mechanical properties :
#
#
# Convention : Reuss Voigt Hill
#
# Bulk Modulus (GPa) = 51.93078 64.49862 58.21470
# Shear Modulus (GPa) = 32.41246 34.77540 33.59393
#
# Velocity S-wave (km/s) = 3.85608 3.99417 3.92573
# Velocity P-wave (km/s) = 6.60676 7.13163 6.87421
#
# Compressibility (1/GPa) = 0.01925640
#
# Stress axis : x y z
#
# Youngs Moduli (GPa) = 112.90634 68.56921 86.09457
#
# Poissons Ratio (x) = 0.15695 0.42868
# Poissons Ratio (y) = 0.25843 0.05438
# Poissons Ratio (z) = 0.56218 0.04331
#
# Static dielectric constant tensor:
#      x y z
#    x 4.082510 0.000020 -0.532620 
#    y 0.000020 4.131690 0.000100 
#    z -0.532620 0.000100 5.105110 
# 
# 
# High freq. dielectric constant tensor:
#      x y z
#    x 1.860260 0.000000 0.004940 
#    y 0.000000 1.848090 0.000000 
#    z 0.004940 0.000000 1.869550 
# 
# From -- ./inp_files/311311.got.cif
#   From: 2010.06.25/outbox.cif.g09.slc.cpg/sg15_156_cif.got.tgz:311311.got - 2010.06.28 07:06:18.
