data_PCOD8152215
_publ_section_title
;
Structure prediction by ZEFSAII (Michael W. Deem and Ramdas Pophale) SiO2 
 PCOD8152215
Probable space group: C 2/C
;
_chemical_formula_sum "Si O2"
_cell_formula_units_Z 64
_cell_length_a 22.683877
_cell_length_b 13.280422
_cell_length_c 14.840017
_cell_angle_alpha 90.000000
_cell_angle_beta 139.672246
_cell_angle_gamma 90.000000
_cell_volume 2893.174617
_symmetry_space_group_name_H-M "C 2/C"
_symmetry_group_IT_number 15
_symmetry_cell_setting 'monoclinic'
loop_
_space_group_symop_operation_xyz
x,y,z
-x,y,1/2-z
-x,-y,-z
x,-y,1/2+z
1/2+x,1/2+y,z
1/2-x,1/2+y,1/2-z
1/2-x,1/2-y,-z
1/2+x,1/2-y,1/2+z
loop_
_atom_site_type_symbol
_atom_site_label
_atom_site_fract_x
_atom_site_fract_y
_atom_site_fract_z
Si Si1 0.838421 0.593792 0.879486
Si Si2 0.825493 0.754161 0.512334
Si Si3 0.562020 0.074640 0.897290
Si Si4 0.771334 0.049016 0.356229
Si Si5 0.102801 0.035294 0.353586
Si Si6 0.488789 0.219654 0.964033
Si Si7 0.915123 0.935872 0.866382
Si Si8 0.692035 0.252740 0.217507
O O1 0.801212 0.541813 0.743729
O O2 0.925109 0.666340 0.964146
O O3 0.754488 0.655767 0.826711
O O4 0.868662 0.505828 0.981641
O O5 0.750000 0.750000 0.500000
O O6 0.885189 0.656334 0.600795
O O7 0.887167 0.853105 0.593543
O O8 0.787054 0.746094 0.365541
O O9 0.500000 0.019044 0.750000
O O10 0.506885 0.134778 0.910120
O O11 0.837261 0.051497 0.347924
O O12 0.719006 0.153169 0.302444
O O13 0.826562 0.036369 0.512603
O O14 0.124578 0.023205 0.273756
O O15 0.000000 0.998539 0.250000
O O16 0.437415 0.319116 0.870204
O O17 0.584628 0.263760 0.113911
O O18 0.000000 0.000000 0.000000
#
# Coordination Sequence:
#
# PCOD8152215 Si02
#       8
#     8   8   8   8   8   8   8   8
#     4  12  24  46  70 101 144 187 230 296 359 434
#     4  11  22  39  65 102 137 169 227 305 357 411
#     4  11  25  41  66 103 139 179 243 293 358 438
#     4  12  24  43  67 104 145 180 236 297 357 440
#     4  12  24  40  68 105 137 183 237 294 366 427
#     4  11  24  46  74  99 139 185 238 297 365 418
#     4  12  24  43  70 104 142 184 234 300 369 428
#     4  11  23  44  68 102 136 184 234 288 354 435
#
# _framework density 22.121029
#
# number of rings (size 3 to 8) (size 9 to 14) (size 15 to 20)
#    0.000    0.500    6.250    4.500    1.750    0.000 
#    0.000    1.875    0.000    2.250    0.000    0.000 
#    0.000    0.000    0.000    0.000    0.000    0.000 
#
# Total GULP energy -396733.614295 kJ/mol
# GULP energy per Si atom -12397.925447 kJ/mol
# Density = 2.207068 g / cm^3
# Si number density = 22.121029 Si / 1000 Ang^3
#
#
#
# Elastic Constant Matrix: (Units=GPa)
#
#
# Indices 1 2 3 4 5 6 
#
# 1 66.8924 12.8166 36.7837 0.0000 9.8133 0.0000
# 2 12.8166 97.1095 42.3918 0.0000 2.4827 0.0000
# 3 36.7837 42.3918 138.2027 0.0000 -2.4911 0.0000
# 4 0.0000 0.0000 0.0000 42.7271 0.0000 10.8835
# 5 9.8133 2.4827 -2.4911 0.0000 29.0434 0.0000
# 6 0.0000 0.0000 0.0000 10.8835 0.0000 23.8093
#
#
#
# Elastic Compliance Matrix: (Units=1/GPa)
#
#
# Indices 1 2 3 4 5 6 
#
# 1 0.018756 -0.000081 -0.005089 0.000000 -0.006767 0.000000
# 2 -0.000081 0.011942 -0.003665 0.000000 -0.001308 0.000000
# 3 -0.005089 -0.003665 0.009766 0.000000 0.002871 0.000000
# 4 0.000000 0.000000 0.000000 0.026489 0.000000 -0.012108
# 5 -0.006767 -0.001308 0.002871 0.000000 0.037076 0.000000
# 6 0.000000 0.000000 0.000000 -0.012108 0.000000 0.047535
#
#
# Mechanical properties :
#
#
# Convention : Reuss Voigt Hill
#
# Bulk Modulus (GPa) = 43.87146 54.02099 48.94623
# Shear Modulus (GPa) = 28.27551 33.13014 30.70282
#
# Velocity S-wave (km/s) = 3.57910 3.87418 3.72956
# Velocity P-wave (km/s) = 6.07910 6.66979 6.38128
#
# Compressibility (1/GPa) = 0.02279386
#
# Stress axis : x y z
#
# Youngs Moduli (GPa) = 53.31584 83.74039 102.39354
#
# Poissons Ratio (x) = 0.00677 0.52111
# Poissons Ratio (y) = 0.00431 0.37527
# Poissons Ratio (z) = 0.27134 0.30691
#
# Static dielectric constant tensor:
#      x y z
#    x 3.807840 0.000000 0.182240 
#    y 0.000000 3.937070 0.000000 
#    z 0.182240 0.000000 4.099860 
# 
# 
# High freq. dielectric constant tensor:
#      x y z
#    x 1.851590 0.000000 0.023260 
#    y 0.000000 1.874280 0.000000 
#    z 0.023260 0.000000 1.877610 
# 
# From -- ./inp_files/173695.got.cif
#   From: 2010.06.25/outbox.cif.g09.slc.cpg/sg15_87_cif.got.tgz:173695.got - 2010.06.28 07:06:18.
