data_PCOD8152125
_publ_section_title
;
Structure prediction by ZEFSAII (Michael W. Deem and Ramdas Pophale) SiO2 
 PCOD8152125
Probable space group: C 2/C
;
_chemical_formula_sum "Si O2"
_cell_formula_units_Z 48
_cell_length_a 27.490396
_cell_length_b 11.783556
_cell_length_c 20.109535
_cell_angle_alpha 90.000000
_cell_angle_beta 159.031565
_cell_angle_gamma 90.000000
_cell_volume 2331.120656
_symmetry_space_group_name_H-M "C 2/C"
_symmetry_group_IT_number 15
_symmetry_cell_setting 'monoclinic'
loop_
_space_group_symop_operation_xyz
x,y,z
-x,y,1/2-z
-x,-y,-z
x,-y,1/2+z
1/2+x,1/2+y,z
1/2-x,1/2+y,1/2-z
1/2-x,1/2-y,-z
1/2+x,1/2-y,1/2+z
loop_
_atom_site_type_symbol
_atom_site_label
_atom_site_fract_x
_atom_site_fract_y
_atom_site_fract_z
Si Si1 0.894569 0.529290 0.704678
Si Si2 0.150712 0.053017 0.616614
Si Si3 0.434415 0.342508 0.929879
Si Si4 0.359046 0.631256 0.044546
Si Si5 0.837696 0.617569 0.496750
Si Si6 0.951584 0.584623 0.996543
O O1 0.769844 0.576967 0.586057
O O2 0.850042 0.518887 0.570223
O O3 0.940971 0.415274 0.804270
O O4 0.032716 0.605922 0.887269
O O5 0.149080 0.112209 0.543849
O O6 0.074309 0.135924 0.570195
O O7 0.079056 0.928048 0.524095
O O8 0.306622 0.041915 0.839549
O O9 0.308622 0.383219 0.723695
O O10 0.430979 0.212144 0.944704
O O11 0.500000 0.576778 0.250000
O O12 0.354220 0.763657 0.056336
O O13 0.000000 0.500000 0.000000
#
# Coordination Sequence:
#
# PCOD8152125 Si02
#       6
#     8   8   8   8   8   8
#     4  11  23  38  58  98 129 169 213 267 344 396
#     4  11  25  40  64  98 130 179 220 275 337 398
#     4  11  25  43  66  97 138 172 223 280 331 400
#     4  12  23  36  64  94 128 165 214 277 336 393
#     4  11  22  37  65  94 134 164 214 275 333 386
#     4  12  24  40  68  95 135 174 224 271 337 405
#
# _framework density 20.590954
#
# number of rings (size 3 to 8) (size 9 to 14) (size 15 to 20)
#    0.000    0.667    6.667    1.500    7.000    0.000 
#    0.000    0.000    3.667    5.000    0.000    0.000 
#    0.000    0.000    0.000    0.000    0.000    0.000 
#
# Total GULP energy -297372.382331 kJ/mol
# GULP energy per Si atom -12390.515930 kJ/mol
# Density = 2.054409 g / cm^3
# Si number density = 20.590954 Si / 1000 Ang^3
#
#
#
# Elastic Constant Matrix: (Units=GPa)
#
#
# Indices 1 2 3 4 5 6 
#
# 1 97.1153 32.2479 47.4234 0.0000 17.3418 0.0000
# 2 32.2479 87.7427 21.9900 0.0000 7.4734 0.0000
# 3 47.4234 21.9900 129.4426 -0.0001 16.5373 -0.0001
# 4 0.0000 0.0000 -0.0001 30.0410 0.0000 -6.0545
# 5 17.3418 7.4734 16.5373 0.0000 50.2700 0.0000
# 6 0.0000 0.0000 -0.0001 -6.0545 0.0000 28.5873
#
#
#
# Elastic Compliance Matrix: (Units=1/GPa)
#
#
# Indices 1 2 3 4 5 6 
#
# 1 0.014142 -0.003910 -0.004142 0.000000 -0.002935 0.000000
# 2 -0.003910 0.013049 -0.000740 0.000000 -0.000348 0.000000
# 3 -0.004142 -0.000740 0.009574 0.000000 -0.001611 0.000000
# 4 0.000000 0.000000 0.000000 0.034772 0.000000 0.007364
# 5 -0.002935 -0.000348 -0.001611 0.000000 0.021487 0.000000
# 6 0.000000 0.000000 0.000000 0.007364 0.000000 0.036540
#
#
# Mechanical properties :
#
#
# Convention : Reuss Voigt Hill
#
# Bulk Modulus (GPa) = 52.13185 57.51368 54.82276
# Shear Modulus (GPa) = 32.56450 35.95561 34.26006
#
# Velocity S-wave (km/s) = 3.98112 4.18327 4.08344
# Velocity P-wave (km/s) = 6.81947 7.16416 6.99394
#
# Compressibility (1/GPa) = 0.01918213
#
# Stress axis : x y z
#
# Youngs Moduli (GPa) = 70.71175 76.63479 104.44476
#
# Poissons Ratio (x) = 0.29960 0.43261
# Poissons Ratio (y) = 0.27645 0.07729
# Poissons Ratio (z) = 0.29289 0.05671
#
# Static dielectric constant tensor:
#      x y z
#    x 4.380820 0.000000 0.321250 
#    y 0.000000 3.623400 0.000000 
#    z 0.321250 0.000000 4.233270 
# 
# 
# High freq. dielectric constant tensor:
#      x y z
#    x 1.811520 0.000000 0.017950 
#    y 0.000000 1.773100 0.000000 
#    z 0.017950 0.000000 1.828480 
# 
# From -- ./inp_files/257640.got.cif
#   From: 2010.06.25/outbox.cif.g09.slc.cpg/sg15_129_cif.got.tgz:257640.got - 2010.06.28 07:06:18.
