data_PCOD8152866
_publ_section_title
;
Structure prediction by ZEFSAII (Michael W. Deem and Ramdas Pophale) SiO2 
 PCOD8152866
Probable space group: C 2/C
;
_chemical_formula_sum "Si O2"
_cell_formula_units_Z 64
_cell_length_a 14.408088
_cell_length_b 17.203074
_cell_length_c 22.904257
_cell_angle_alpha 90.000000
_cell_angle_beta 32.125546
_cell_angle_gamma 90.000000
_cell_volume 3018.961228
_symmetry_space_group_name_H-M "C 2/C"
_symmetry_group_IT_number 15
_symmetry_cell_setting 'monoclinic'
loop_
_space_group_symop_operation_xyz
x,y,z
-x,y,1/2-z
-x,-y,-z
x,-y,1/2+z
1/2+x,1/2+y,z
1/2-x,1/2+y,1/2-z
1/2-x,1/2-y,-z
1/2+x,1/2-y,1/2+z
loop_
_atom_site_type_symbol
_atom_site_label
_atom_site_fract_x
_atom_site_fract_y
_atom_site_fract_z
Si Si1 0.229493 0.335160 0.460223
Si Si2 0.385544 0.223870 0.754169
Si Si3 0.447546 0.108690 0.622862
Si Si4 0.014129 0.712241 0.176677
Si Si5 0.156349 0.987360 0.748769
Si Si6 0.158336 0.161712 0.317347
Si Si7 0.004673 0.251358 0.003283
Si Si8 0.266971 0.492902 0.920638
O O1 0.428947 0.303646 0.353440
O O2 0.206981 0.418348 0.442245
O O3 0.156695 0.338434 0.565163
O O4 0.128373 0.268678 0.477851
O O5 0.500000 0.224947 0.750000
O O6 0.416234 0.143036 0.703974
O O7 0.440303 0.296450 0.684013
O O8 0.188904 0.237371 0.877027
O O9 0.495022 0.176799 0.553008
O O10 0.615580 0.051746 0.536033
O O11 0.268999 0.064331 0.700827
O O12 0.833819 0.709030 0.238064
O O13 0.000000 0.678690 0.250000
O O14 0.201510 0.926262 0.776024
O O15 0.208307 0.955076 0.656720
O O16 0.946617 0.998789 0.861829
O O17 0.041274 0.170930 0.437922
#
# Coordination Sequence:
#
# PCOD8152866 Si02
#       8
#     8   8   8   8   8   8   8   8
#     4  11  23  40  71 104 134 172 235 287 357 412
#     4  11  27  44  70  95 139 182 235 280 343 413
#     4  11  25  45  69 101 139 182 227 289 350 412
#     4  11  23  39  67 102 138 174 221 287 352 410
#     4  11  25  42  70 102 141 176 232 289 349 415
#     4  11  24  41  69 101 138 176 232 285 350 405
#     4  11  23  42  72 100 136 179 233 290 344 411
#     4  11  25  41  72 100 139 179 233 288 351 410
#
# _framework density 21.199345000000001
#
# number of rings (size 3 to 8) (size 9 to 14) (size 15 to 20)
#    0.000    1.000    3.750    1.875   10.500    1.000 
#    0.000    3.125    0.000    0.000    0.000    0.000 
#    0.000    0.000    0.000    0.000    0.000    0.000 
#
# Total GULP energy -396699.561471 kJ/mol
# GULP energy per Si atom -12396.861296 kJ/mol
# Density = 2.115109 g / cm^3
# Si number density = 21.199345 Si / 1000 Ang^3
#
#
#
# Elastic Constant Matrix: (Units=GPa)
#
#
# Indices 1 2 3 4 5 6 
#
# 1 110.2767 27.0768 41.6798 -0.0017 8.1063 0.0004
# 2 27.0768 82.5698 35.4864 -0.0035 10.6585 0.0018
# 3 41.6798 35.4864 92.2961 -0.0136 7.9836 0.0054
# 4 -0.0017 -0.0035 -0.0136 33.5989 0.0025 0.7628
# 5 8.1063 10.6585 7.9836 0.0025 36.0342 0.0000
# 6 0.0004 0.0018 0.0054 0.7628 0.0000 30.3622
#
#
#
# Elastic Compliance Matrix: (Units=1/GPa)
#
#
# Indices 1 2 3 4 5 6 
#
# 1 0.011189 -0.001677 -0.004316 -0.000001 -0.001065 0.000001
# 2 -0.001677 0.015111 -0.004790 0.000000 -0.003031 0.000000
# 3 -0.004316 -0.004790 0.014701 0.000005 -0.000869 -0.000002
# 4 -0.000001 0.000000 0.000005 0.029780 -0.000003 -0.000748
# 5 -0.001065 -0.003031 -0.000869 -0.000003 0.029080 0.000000
# 6 0.000001 0.000000 -0.000002 -0.000748 0.000000 0.032955
#
#
# Mechanical properties :
#
#
# Convention : Reuss Voigt Hill
#
# Bulk Modulus (GPa) = 51.45567 54.84763 53.15165
# Shear Modulus (GPa) = 31.08277 32.05903 31.57090
#
# Velocity S-wave (km/s) = 3.83327 3.89300 3.86325
# Velocity P-wave (km/s) = 6.62699 6.79233 6.71017
#
# Compressibility (1/GPa) = 0.01943421
#
# Stress axis : x y z
#
# Youngs Moduli (GPa) = 89.37007 66.17722 68.02320
#
# Poissons Ratio (x) = 0.11097 0.29360
# Poissons Ratio (y) = 0.14986 0.32586
# Poissons Ratio (z) = 0.38574 0.31702
#
# Static dielectric constant tensor:
#      x y z
#    x 3.457160 0.000000 0.279880 
#    y 0.000000 3.700120 0.000010 
#    z 0.279880 0.000010 4.083230 
# 
# 
# High freq. dielectric constant tensor:
#      x y z
#    x 1.833400 0.000000 -0.000110 
#    y 0.000000 1.808380 0.000000 
#    z -0.000110 0.000000 1.844840 
# 
# From -- ./inp_files/274821.got.cif
#   From: 2010.06.25/outbox.cif.g09.slc.cpg/sg15_138_cif.got.tgz:274821.got - 2010.06.28 07:06:18.
