data_PCOD8152068
_publ_section_title
;
Structure prediction by ZEFSAII (Michael W. Deem and Ramdas Pophale) SiO2 
 PCOD8152068
Probable space group: C 2/C
;
_chemical_formula_sum "Si O2"
_cell_formula_units_Z 64
_cell_length_a 30.284575
_cell_length_b 18.290318
_cell_length_c 9.726671
_cell_angle_alpha 90.000000
_cell_angle_beta 38.300272
_cell_angle_gamma 90.000000
_cell_volume 3339.230940
_symmetry_space_group_name_H-M "C 2/C"
_symmetry_group_IT_number 15
_symmetry_cell_setting 'monoclinic'
loop_
_space_group_symop_operation_xyz
x,y,z
-x,y,1/2-z
-x,-y,-z
x,-y,1/2+z
1/2+x,1/2+y,z
1/2-x,1/2+y,1/2-z
1/2-x,1/2-y,-z
1/2+x,1/2-y,1/2+z
loop_
_atom_site_type_symbol
_atom_site_label
_atom_site_fract_x
_atom_site_fract_y
_atom_site_fract_z
Si Si1 0.114904 0.092098 0.983963
Si Si2 0.612531 0.567821 0.454060
Si Si3 0.273292 0.931558 0.170665
Si Si4 0.443950 0.325349 0.621750
Si Si5 0.776135 0.272370 0.084545
Si Si6 0.396913 0.335022 0.270935
Si Si7 0.776281 0.433334 0.479804
Si Si8 0.688641 0.774554 0.045679
O O1 0.064183 0.134311 0.212558
O O2 0.081721 0.014457 0.019634
O O3 0.188044 0.071408 0.880925
O O4 0.128869 0.142580 0.817934
O O5 0.561025 0.617045 0.488927
O O6 0.608895 0.593146 0.620923
O O7 0.691808 0.576119 0.199613
O O8 0.301869 0.856141 0.035294
O O9 0.298314 0.943561 0.266516
O O10 0.302676 0.997370 0.004242
O O11 0.525210 0.297424 0.421239
O O12 0.388753 0.259114 0.730733
O O13 0.709338 0.256943 0.346803
O O14 0.750000 0.250000 0.000000
O O15 0.843718 0.224608 0.964043
O O16 0.816805 0.362181 0.440139
O O17 0.750000 0.750000 0.000000
#
# Coordination Sequence:
#
# PCOD8152068 Si02
#       8
#     8   8   8   8   8   8   8   8
#     4  11  22  37  55  82 123 163 196 233 284 346
#     4  11  22  35  57  84 118 158 200 234 285 352
#     4  11  23  39  62  91 118 153 204 250 297 351
#     4  12  23  40  55  85 118 162 202 236 296 353
#     4  12  22  38  61  90 117 158 200 251 291 343
#     4  12  25  36  57  87 120 158 201 243 288 352
#     4  11  23  38  64  89 118 153 202 252 299 351
#     4  12  20  40  63  82 116 161 196 249 299 343
#
# _framework density 19.166087999999998
#
# number of rings (size 3 to 8) (size 9 to 14) (size 15 to 20)
#    0.000    0.500    7.500    1.500    7.000    3.000 
#    0.000    0.000    0.000    0.750    0.000    0.000 
#    0.000    0.000    0.000    0.000    0.000    0.000 
#
# Total GULP energy -396906.272988 kJ/mol
# GULP energy per Si atom -12403.321031 kJ/mol
# Density = 1.912247 g / cm^3
# Si number density = 19.166088 Si / 1000 Ang^3
#
#
#
# Elastic Constant Matrix: (Units=GPa)
#
#
# Indices 1 2 3 4 5 6 
#
# 1 52.9566 29.1622 23.2617 0.0000 17.9648 0.0000
# 2 29.1622 135.3105 28.9547 0.0000 3.6401 0.0000
# 3 23.2617 28.9547 59.0638 0.0000 8.0797 0.0000
# 4 0.0000 0.0000 0.0000 23.0377 0.0000 10.2424
# 5 17.9648 3.6401 8.0797 0.0000 45.7811 0.0000
# 6 0.0000 0.0000 0.0000 10.2424 0.0000 21.9280
#
#
#
# Elastic Compliance Matrix: (Units=1/GPa)
#
#
# Indices 1 2 3 4 5 6 
#
# 1 0.027572 -0.004067 -0.007613 0.000000 -0.009152 0.000000
# 2 -0.004067 0.008857 -0.002933 0.000000 0.001409 0.000000
# 3 -0.007613 -0.002933 0.021444 0.000000 -0.000564 0.000000
# 4 0.000000 0.000000 0.000000 0.054784 0.000000 -0.025589
# 5 -0.009152 0.001409 -0.000564 0.000000 0.025422 0.000000
# 6 0.000000 0.000000 0.000000 -0.025589 0.000000 0.057556
#
#
# Mechanical properties :
#
#
# Convention : Reuss Voigt Hill
#
# Bulk Modulus (GPa) = 34.90792 45.56532 40.23662
# Shear Modulus (GPa) = 21.33019 29.21285 25.27152
#
# Velocity S-wave (km/s) = 3.33965 3.90833 3.63513
# Velocity P-wave (km/s) = 5.75534 6.64773 6.21756
#
# Compressibility (1/GPa) = 0.02864680
#
# Stress axis : x y z
#
# Youngs Moduli (GPa) = 36.26862 112.91021 46.63286
#
# Poissons Ratio (x) = 0.45921 0.35502
# Poissons Ratio (y) = 0.14750 0.13676
# Poissons Ratio (z) = 0.27612 0.33114
#
# Static dielectric constant tensor:
#      x y z
#    x 3.373580 0.000000 0.145740 
#    y 0.000000 3.739570 0.000000 
#    z 0.145740 0.000000 3.217170 
# 
# 
# High freq. dielectric constant tensor:
#      x y z
#    x 1.737190 0.000000 0.030210 
#    y 0.000000 1.745700 0.000000 
#    z 0.030210 0.000000 1.734910 
# 
# From -- ./inp_files/70578.got.cif
#   From: 2010.06.25/outbox.cif.g09.slc.cpg/sg15_36_cif.got.tgz:70578.got - 2010.06.28 07:06:18.
