data_PCOD8152069
_publ_section_title
;
Structure prediction by ZEFSAII (Michael W. Deem and Ramdas Pophale) SiO2 
 PCOD8152069
Probable space group: C 2/C
;
_chemical_formula_sum "Si O2"
_cell_formula_units_Z 64
_cell_length_a 9.838389
_cell_length_b 18.826880
_cell_length_c 23.941566
_cell_angle_alpha 90.000000
_cell_angle_beta 125.861995
_cell_angle_gamma 90.000000
_cell_volume 3593.938387
_symmetry_space_group_name_H-M "C 2/C"
_symmetry_group_IT_number 15
_symmetry_cell_setting 'monoclinic'
loop_
_space_group_symop_operation_xyz
x,y,z
-x,y,1/2-z
-x,-y,-z
x,-y,1/2+z
1/2+x,1/2+y,z
1/2-x,1/2+y,1/2-z
1/2-x,1/2-y,-z
1/2+x,1/2-y,1/2+z
loop_
_atom_site_type_symbol
_atom_site_label
_atom_site_fract_x
_atom_site_fract_y
_atom_site_fract_z
Si Si1 0.240366 0.973617 0.922984
Si Si2 0.958194 0.468426 0.078757
Si Si3 0.254961 0.665927 0.787849
Si Si4 0.243181 0.822035 0.769684
Si Si5 0.076897 0.455760 0.709610
Si Si6 0.428078 0.466610 0.293240
Si Si7 0.910733 0.666467 0.638992
Si Si8 0.896020 0.173358 0.140825
O O1 0.216839 0.887568 0.915663
O O2 0.362925 0.011422 0.906917
O O3 0.310790 0.991559 0.001288
O O4 0.056390 0.005781 0.870997
O O5 0.948218 0.513664 0.132902
O O6 0.925222 0.386024 0.088925
O O7 0.321106 0.743717 0.787754
O O8 0.398021 0.615565 0.798126
O O9 0.232799 0.649893 0.849019
O O10 0.081867 0.657072 0.713662
O O11 0.401313 0.872528 0.796916
O O12 0.160553 0.830870 0.809507
O O13 0.097824 0.839533 0.688815
O O14 0.256101 0.491856 0.752642
O O15 0.000000 0.472835 0.750000
O O16 0.500000 0.480134 0.250000
O O17 0.872622 0.747431 0.608851
#
# Coordination Sequence:
#
# PCOD8152069 Si02
#       8
#     8   8   8   8   8   8   8   8
#     4  11  22  35  57  85 112 152 190 242 282 339
#     4  11  22  36  53  86 119 146 190 238 298 330
#     4   9  18  31  56  83 111 140 184 236 283 330
#     4   9  17  32  55  84 108 141 184 233 281 330
#     4  12  22  35  58  83 114 147 187 237 285 339
#     4  12  20  35  59  82 109 146 195 230 277 339
#     4   9  17  33  53  83 114 146 178 233 289 339
#     4   9  16  32  58  81 109 142 191 228 273 342
#
# _framework density 17.807763000000001
#
# number of rings (size 3 to 8) (size 9 to 14) (size 15 to 20)
#    0.000    1.750    5.000    2.250    0.000    1.000 
#    0.000    2.500    0.000    0.750    0.000    0.000 
#    0.000    0.000    0.000    0.000    0.000    0.000 
#
# Total GULP energy -396426.378840 kJ/mol
# GULP energy per Si atom -12388.324339 kJ/mol
# Density = 1.776723 g / cm^3
# Si number density = 17.807763 Si / 1000 Ang^3
#
#
#
# Elastic Constant Matrix: (Units=GPa)
#
#
# Indices 1 2 3 4 5 6 
#
# 1 71.1997 53.5633 35.4456 0.0000 -7.2109 0.0000
# 2 53.5633 114.9592 50.7548 0.0000 -2.9517 0.0000
# 3 35.4456 50.7548 100.9783 0.0000 -3.8270 0.0000
# 4 0.0000 0.0000 0.0000 -6.0783 0.0000 -7.1963
# 5 -7.2109 -2.9517 -3.8270 0.0000 18.2295 0.0000
# 6 0.0000 0.0000 0.0000 -7.1963 0.0000 34.6478
#
#
#
# Elastic Compliance Matrix: (Units=1/GPa)
#
#
# Indices 1 2 3 4 5 6 
#
# 1 0.023351 -0.009251 -0.003280 0.000000 0.007050 0.000000
# 2 -0.009251 0.014852 -0.004299 0.000000 -0.002157 0.000000
# 3 -0.003280 -0.004299 0.013245 0.000000 0.000787 0.000000
# 4 0.000000 0.000000 0.000000 -0.132049 0.000000 -0.027426
# 5 0.007050 -0.002157 0.000787 0.000000 0.057461 0.000000
# 6 0.000000 0.000000 0.000000 -0.027426 0.000000 0.023166
#
#
# Mechanical properties :
#
#
# Convention : Reuss Voigt Hill
#
# Bulk Modulus (GPa) = 56.21784 62.96273 59.59028
# Shear Modulus (GPa) = 126.21015 19.18471 72.69743
#
# Velocity S-wave (km/s) = 8.42778 3.28582 6.39625
# Velocity P-wave (km/s) = 11.24016 7.05898 9.38537
#
# Compressibility (1/GPa) = 0.01778795
#
# Stress axis : x y z
#
# Youngs Moduli (GPa) = 42.82394 67.33105 75.49875
#
# Poissons Ratio (x) = 0.62289 0.24762
# Poissons Ratio (y) = 0.39617 0.32460
# Poissons Ratio (z) = 0.14045 0.28949
#
# Static dielectric constant tensor:
#      x y z
#    x 2.923020 0.000000 -0.063510 
#    y 0.000000 4.139890 0.000000 
#    z -0.063510 0.000000 3.226840 
# 
# 
# High freq. dielectric constant tensor:
#      x y z
#    x 1.666680 0.000000 -0.003620 
#    y 0.000000 1.704640 0.000000 
#    z -0.003620 0.000000 1.665620 
# 
# From -- ./inp_files/265948.got.cif
#   From: 2010.06.25/outbox.cif.g09.slc.cpg/sg15_133_cif.got.tgz:265948.got - 2010.06.28 07:06:18.
