data_PCOD8152008
_publ_section_title
;
Structure prediction by ZEFSAII (Michael W. Deem and Ramdas Pophale) SiO2 
 PCOD8152008
Probable space group: C 2/C
;
_chemical_formula_sum "Si O2"
_cell_formula_units_Z 40
_cell_length_a 10.236046
_cell_length_b 22.651635
_cell_length_c 10.936825
_cell_angle_alpha 90.000000
_cell_angle_beta 140.302507
_cell_angle_gamma 90.000000
_cell_volume 1619.732082
_symmetry_space_group_name_H-M "C 2/C"
_symmetry_group_IT_number 15
_symmetry_cell_setting 'monoclinic'
loop_
_space_group_symop_operation_xyz
x,y,z
-x,y,1/2-z
-x,-y,-z
x,-y,1/2+z
1/2+x,1/2+y,z
1/2-x,1/2+y,1/2-z
1/2-x,1/2-y,-z
1/2+x,1/2-y,1/2+z
loop_
_atom_site_type_symbol
_atom_site_label
_atom_site_fract_x
_atom_site_fract_y
_atom_site_fract_z
Si Si1 0.371939 0.686166 0.333123
Si Si2 0.194403 0.880412 0.474952
Si Si3 0.125367 0.991495 0.963231
Si Si4 0.278157 0.866830 0.119803
Si Si5 0.571176 0.182755 0.544211
O O1 0.361550 0.636971 0.428928
O O2 0.590272 0.671407 0.424642
O O3 0.359823 0.750236 0.385149
O O4 0.173281 0.676784 0.102945
O O5 0.382972 0.840259 0.560435
O O6 0.000000 0.870037 0.250000
O O7 0.255682 0.949616 0.527722
O O8 0.000000 0.977114 0.750000
O O9 0.274492 0.935594 0.084636
O O10 0.000000 0.000000 0.000000
O O11 0.500000 0.837639 0.250000
O O12 0.282362 0.859312 0.269704
#
# Coordination Sequence:
#
# PCOD8152008 Si02
#       5
#     8   8   8   8   8
#     4  12  24  46  73 108 147 192 257 324 393 456
#     4  11  21  44  77 109 148 192 253 326 395 452
#     4  11  24  49  79 112 158 206 260 324 385 468
#     4  12  28  46  70 107 149 205 252 310 382 465
#     4  12  25  46  73 109 145 196 255 324 388 454
#
# _framework density 24.695440999999999
#
# number of rings (size 3 to 8) (size 9 to 14) (size 15 to 20)
#    0.000    0.400    6.000    2.400    2.800    2.400 
#    0.000    3.000    0.000    0.000    0.000    0.000 
#    0.000    0.000    0.000    0.000    0.000    0.000 
#
# Total GULP energy -247842.857450 kJ/mol
# GULP energy per Si atom -12392.142872 kJ/mol
# Density = 2.463923 g / cm^3
# Si number density = 24.695441 Si / 1000 Ang^3
#
#
#
# Elastic Constant Matrix: (Units=GPa)
#
#
# Indices 1 2 3 4 5 6 
#
# 1 66.5446 7.7711 11.8731 0.0000 28.7513 0.0000
# 2 7.7711 170.7467 39.1118 0.0000 17.5962 0.0000
# 3 11.8731 39.1118 138.1075 0.0000 21.4453 0.0000
# 4 0.0000 0.0000 0.0000 41.5279 0.0000 -2.5724
# 5 28.7513 17.5962 21.4453 0.0000 40.6451 0.0000
# 6 0.0000 0.0000 0.0000 -2.5724 0.0000 20.5314
#
#
#
# Elastic Compliance Matrix: (Units=1/GPa)
#
#
# Indices 1 2 3 4 5 6 
#
# 1 0.021728 0.000543 0.000437 0.000000 -0.015836 0.000000
# 2 0.000543 0.006419 -0.001496 0.000000 -0.002374 0.000000
# 3 0.000437 -0.001496 0.008250 0.000000 -0.004015 0.000000
# 4 0.000000 0.000000 0.000000 0.024269 0.000000 0.003041
# 5 -0.015836 -0.002374 -0.004015 0.000000 0.038951 0.000000
# 6 0.000000 0.000000 0.000000 0.003041 0.000000 0.049087
#
#
# Mechanical properties :
#
#
# Convention : Reuss Voigt Hill
#
# Bulk Modulus (GPa) = 28.27597 54.76787 41.52192
# Shear Modulus (GPa) = 30.95515 41.65038 36.30277
#
# Velocity S-wave (km/s) = 3.54429 4.11123 3.83824
# Velocity P-wave (km/s) = 5.31263 6.69042 6.04094
#
# Compressibility (1/GPa) = 0.03536571
#
# Stress axis : x y z
#
# Youngs Moduli (GPa) = 46.02352 155.78216 121.20915
#
# Poissons Ratio (x) = -0.08457 -0.05300
# Poissons Ratio (y) = -0.02498 0.18133
# Poissons Ratio (z) = -0.02012 0.23305
#
# Static dielectric constant tensor:
#      x y z
#    x 4.577420 0.000000 -0.055080 
#    y 0.000000 4.364580 0.000000 
#    z -0.055080 0.000000 4.726640 
# 
# 
# High freq. dielectric constant tensor:
#      x y z
#    x 1.982240 0.000000 -0.004370 
#    y 0.000000 1.982050 0.000000 
#    z -0.004370 0.000000 1.997450 
# 
# From -- ./inp_files/89884.got.cif
#   From: 2010.06.25/outbox.cif.g09.slc.cpg/sg15_45_cif.got.tgz:89884.got - 2010.06.28 07:06:18.
