data_PCOD8152554
_publ_section_title
;
Structure prediction by ZEFSAII (Michael W. Deem and Ramdas Pophale) SiO2 
 PCOD8152554
Probable space group: C 2/C
;
_chemical_formula_sum "Si O2"
_cell_formula_units_Z 56
_cell_length_a 16.844398
_cell_length_b 13.883924
_cell_length_c 12.802666
_cell_angle_alpha 90.000000
_cell_angle_beta 54.982982
_cell_angle_gamma 90.000000
_cell_volume 2452.123311
_symmetry_space_group_name_H-M "C 2/C"
_symmetry_group_IT_number 15
_symmetry_cell_setting 'monoclinic'
loop_
_space_group_symop_operation_xyz
x,y,z
-x,y,1/2-z
-x,-y,-z
x,-y,1/2+z
1/2+x,1/2+y,z
1/2-x,1/2+y,1/2-z
1/2-x,1/2-y,-z
1/2+x,1/2-y,1/2+z
loop_
_atom_site_type_symbol
_atom_site_label
_atom_site_fract_x
_atom_site_fract_y
_atom_site_fract_z
Si Si1 0.482002 0.909536 0.437400
Si Si2 0.213302 0.999654 0.506816
Si Si3 0.642677 0.139493 0.664270
Si Si4 0.604391 0.354902 0.723070
Si Si5 0.054555 0.094536 0.488041
Si Si6 0.661654 0.177552 0.082427
Si Si7 0.535306 0.775134 0.873583
O O1 0.408125 0.915591 0.395728
O O2 0.586401 0.881764 0.313191
O O3 0.435984 0.823267 0.539262
O O4 0.500000 0.000000 0.500000
O O5 0.139420 0.069002 0.503279
O O6 0.302943 0.069231 0.466459
O O7 0.252036 0.910969 0.405503
O O8 0.167012 0.948655 0.643450
O O9 0.651607 0.255234 0.645574
O O10 0.500000 0.366086 0.750000
O O11 0.597781 0.352644 0.853464
O O12 0.973917 0.160189 0.606702
O O13 0.000000 0.000000 0.500000
O O14 0.573630 0.190186 0.069581
O O15 0.618047 0.194739 0.230490
O O16 0.750000 0.250000 0.000000
#
# Coordination Sequence:
#
# PCOD8152554 Si02
#       7
#     8   8   8   8   8   8   8
#     4  11  22  42  75 103 146 190 241 293 365 436
#     4  12  27  44  71 110 143 183 251 306 363 439
#     4  11  24  47  70 106 147 192 242 303 367 429
#     4  12  24  49  73  99 146 195 241 302 369 441
#     4  12  26  45  73 105 138 198 242 295 374 442
#     4  11  25  45  73 108 147 189 236 309 373 436
#     4  11  24  47  74 103 149 191 243 299 373 443
#
# _framework density 22.837350000000001
#
# number of rings (size 3 to 8) (size 9 to 14) (size 15 to 20)
#    0.000    0.571    5.714    2.143    2.000    5.714 
#    2.571    0.000    0.000    0.000    0.000    0.000 
#    0.000    0.000    0.000    0.000    0.000    0.000 
#
# Total GULP energy -347077.323265 kJ/mol
# GULP energy per Si atom -12395.618688 kJ/mol
# Density = 2.278537 g / cm^3
# Si number density = 22.837350 Si / 1000 Ang^3
#
#
#
# Elastic Constant Matrix: (Units=GPa)
#
#
# Indices 1 2 3 4 5 6 
#
# 1 32.9055 27.6212 18.2252 0.0000 -4.7869 0.0000
# 2 27.6212 163.2013 46.4879 0.0000 -8.4220 0.0000
# 3 18.2252 46.4879 113.5570 0.0000 -1.2260 0.0000
# 4 0.0000 0.0000 0.0000 54.1206 0.0000 -9.9904
# 5 -4.7869 -8.4220 -1.2260 0.0000 39.1641 0.0000
# 6 0.0000 0.0000 0.0000 -9.9904 0.0000 45.5498
#
#
#
# Elastic Compliance Matrix: (Units=1/GPa)
#
#
# Indices 1 2 3 4 5 6 
#
# 1 0.037247 -0.005024 -0.003885 0.000000 0.003350 0.000000
# 2 -0.005024 0.007692 -0.002332 0.000000 0.000967 0.000000
# 3 -0.003885 -0.002332 0.010377 0.000000 -0.000651 0.000000
# 4 0.000000 0.000000 0.000000 0.019257 0.000000 0.004224
# 5 0.003350 0.000967 -0.000651 0.000000 0.026131 0.000000
# 6 0.000000 0.000000 0.000000 0.004224 0.000000 0.022880
#
#
# Mechanical properties :
#
#
# Convention : Reuss Voigt Hill
#
# Bulk Modulus (GPa) = 30.45682 54.92581 42.69132
# Shear Modulus (GPa) = 31.84491 42.25551 37.05021
#
# Velocity S-wave (km/s) = 3.73825 4.30616 4.03221
# Velocity P-wave (km/s) = 5.65668 6.98764 6.35709
#
# Compressibility (1/GPa) = 0.03283336
#
# Stress axis : x y z
#
# Youngs Moduli (GPa) = 26.84804 130.00586 96.36388
#
# Poissons Ratio (x) = 0.65320 0.37436
# Poissons Ratio (y) = 0.13489 0.22473
# Poissons Ratio (z) = 0.10430 0.30319
#
# Static dielectric constant tensor:
#      x y z
#    x 4.102300 0.000000 -0.167310 
#    y 0.000000 4.896250 0.000000 
#    z -0.167310 0.000000 4.258990 
# 
# 
# High freq. dielectric constant tensor:
#      x y z
#    x 1.888270 0.000000 -0.004470 
#    y 0.000000 1.924480 0.000000 
#    z -0.004470 0.000000 1.907260 
# 
# From -- ./inp_files/105653.got.cif
#   From: 2010.06.25/outbox.cif.g09.slc.cpg/sg15_53_cif.got.tgz:105653.got - 2010.06.28 07:06:18.
