data_PCOD8152226
_publ_section_title
;
Structure prediction by ZEFSAII (Michael W. Deem and Ramdas Pophale) SiO2 
 PCOD8152226
Probable space group: C 2/C
;
_chemical_formula_sum "Si O2"
_cell_formula_units_Z 44
_cell_length_a 25.414905
_cell_length_b 11.226189
_cell_length_c 11.612103
_cell_angle_alpha 90.000000
_cell_angle_beta 141.365673
_cell_angle_gamma 90.000000
_cell_volume 2068.512939
_symmetry_space_group_name_H-M "C 2/C"
_symmetry_group_IT_number 15
_symmetry_cell_setting 'monoclinic'
loop_
_space_group_symop_operation_xyz
x,y,z
-x,y,1/2-z
-x,-y,-z
x,-y,1/2+z
1/2+x,1/2+y,z
1/2-x,1/2+y,1/2-z
1/2-x,1/2-y,-z
1/2+x,1/2-y,1/2+z
loop_
_atom_site_type_symbol
_atom_site_label
_atom_site_fract_x
_atom_site_fract_y
_atom_site_fract_z
Si Si1 0.809821 0.253534 0.264407
Si Si2 0.000000 0.172724 0.250000
Si Si3 0.237955 0.845542 0.580601
Si Si4 0.524302 0.117229 0.415029
Si Si5 0.336496 0.403122 0.592195
Si Si6 0.924195 0.361274 0.956630
O O1 0.814563 0.207562 0.403144
O O2 0.885319 0.346624 0.380506
O O3 0.827660 0.145310 0.207143
O O4 0.722206 0.320974 0.089446
O O5 0.933032 0.096775 0.210733
O O6 0.057336 0.250118 0.431792
O O7 0.250000 0.750000 0.500000
O O8 0.325521 0.887588 0.786182
O O9 0.191562 0.960265 0.450037
O O10 0.500000 0.170513 0.250000
O O11 0.452575 0.168675 0.375533
O O12 0.522801 0.973916 0.407099
#
# Coordination Sequence:
#
# PCOD8152226 Si02
#       6
#     8   4   8   8   8   8
#     4  11  24  44  71 103 141 183 241 289 357 425
#     4  12  22  48  70 106 142 194 226 302 366 414
#     4  12  27  46  70 100 141 188 234 294 355 427
#     4  11  22  39  66 103 137 175 234 294 344 414
#     4  11  26  45  74 102 143 191 235 297 360 428
#     4  11  23  39  69  99 137 180 234 287 348 417
#
# _framework density 21.271319999999999
#
# number of rings (size 3 to 8) (size 9 to 14) (size 15 to 20)
#    0.000    0.727    6.364    1.091    2.545    1.455 
#    4.909    1.818    0.000    0.000    0.000    0.000 
#    0.000    0.000    0.000    0.000    0.000    0.000 
#
# Total GULP energy -272857.418967 kJ/mol
# GULP energy per Si atom -12402.609953 kJ/mol
# Density = 2.122291 g / cm^3
# Si number density = 21.271320 Si / 1000 Ang^3
#
#
#
# Elastic Constant Matrix: (Units=GPa)
#
#
# Indices 1 2 3 4 5 6 
#
# 1 113.3692 62.2303 24.8571 0.0000 -3.1883 0.0000
# 2 62.2303 114.3452 31.7755 0.0000 -8.2772 0.0000
# 3 24.8571 31.7755 73.0813 0.0000 0.9952 0.0000
# 4 0.0000 0.0000 0.0000 36.0455 0.0000 3.7896
# 5 -3.1883 -8.2772 0.9952 0.0000 49.4341 0.0000
# 6 0.0000 0.0000 0.0000 3.7896 0.0000 25.9084
#
#
#
# Elastic Compliance Matrix: (Units=1/GPa)
#
#
# Indices 1 2 3 4 5 6 
#
# 1 0.012724 -0.006529 -0.001485 0.000000 -0.000243 0.000000
# 2 -0.006529 0.013452 -0.003654 0.000000 0.001905 0.000000
# 3 -0.001485 -0.003654 0.015791 0.000000 -0.001026 0.000000
# 4 0.000000 0.000000 0.000000 0.028176 0.000000 -0.004121
# 5 -0.000243 0.001905 -0.001026 0.000000 0.020553 0.000000
# 6 0.000000 0.000000 0.000000 -0.004121 0.000000 0.039200
#
#
# Mechanical properties :
#
#
# Convention : Reuss Voigt Hill
#
# Bulk Modulus (GPa) = 53.67839 59.83572 56.75706
# Shear Modulus (GPa) = 31.35890 34.40646 32.88268
#
# Velocity S-wave (km/s) = 3.84374 4.02618 3.93602
# Velocity P-wave (km/s) = 6.70738 7.05722 6.88453
#
# Compressibility (1/GPa) = 0.01862947
#
# Stress axis : x y z
#
# Youngs Moduli (GPa) = 78.59332 74.33672 63.32569
#
# Poissons Ratio (x) = 0.48538 0.09407
# Poissons Ratio (y) = 0.51317 0.23140
# Poissons Ratio (z) = 0.11675 0.27163
#
# Static dielectric constant tensor:
#      x y z
#    x 4.004930 0.000000 0.028850 
#    y 0.000000 3.576800 0.000000 
#    z 0.028850 0.000000 3.736380 
# 
# 
# High freq. dielectric constant tensor:
#      x y z
#    x 1.851240 0.000000 0.001250 
#    y 0.000000 1.819990 0.000000 
#    z 0.001250 0.000000 1.836590 
# 
# From -- ./inp_files/95091.got.cif
#   From: 2010.06.25/outbox.cif.g09.slc.cpg/sg15_48_cif.got.tgz:95091.got - 2010.06.28 07:06:18.
