data_PCOD8152617
_publ_section_title
;
Structure prediction by ZEFSAII (Michael W. Deem and Ramdas Pophale) SiO2 
 PCOD8152617
Probable space group: C 2/C
;
_chemical_formula_sum "Si O2"
_cell_formula_units_Z 44
_cell_length_a 9.624106
_cell_length_b 15.941999
_cell_length_c 13.946864
_cell_angle_alpha 90.000000
_cell_angle_beta 64.805170
_cell_angle_gamma 90.000000
_cell_volume 1936.260367
_symmetry_space_group_name_H-M "C 2/C"
_symmetry_group_IT_number 15
_symmetry_cell_setting 'monoclinic'
loop_
_space_group_symop_operation_xyz
x,y,z
-x,y,1/2-z
-x,-y,-z
x,-y,1/2+z
1/2+x,1/2+y,z
1/2-x,1/2+y,1/2-z
1/2-x,1/2-y,-z
1/2+x,1/2-y,1/2+z
loop_
_atom_site_type_symbol
_atom_site_label
_atom_site_fract_x
_atom_site_fract_y
_atom_site_fract_z
Si Si1 0.075766 0.691819 0.884362
Si Si2 0.695009 0.761812 0.813275
Si Si3 0.000000 0.378049 0.750000
Si Si4 0.771548 0.379264 0.519709
Si Si5 0.479566 0.650717 0.991237
Si Si6 0.819603 0.564085 0.483478
O O1 0.177857 0.692832 0.758051
O O2 0.130161 0.629677 0.951461
O O3 0.896756 0.670463 0.917160
O O4 0.100972 0.786991 0.910963
O O5 0.641099 0.821652 0.743626
O O6 0.760975 0.821863 0.877992
O O7 0.545706 0.708593 0.886723
O O8 0.931595 0.433663 0.857647
O O9 0.620347 0.395491 0.502057
O O10 0.832971 0.472014 0.527699
O O11 0.357660 0.582862 0.990707
#
# Coordination Sequence:
#
# PCOD8152617 Si02
#       6
#     8   8   4   8   8   8
#     4  11  22  43  72  95 133 182 231 272 330 408
#     4  11  23  42  71 100 130 185 232 273 332 404
#     4  12  22  40  74  98 132 176 234 266 344 394
#     4  11  26  44  67 102 145 168 224 291 340 390
#     4  11  23  43  67  98 140 180 223 277 336 406
#     4  12  24  45  69 103 139 177 223 287 335 401
#
# _framework density 22.724215999999998
#
# number of rings (size 3 to 8) (size 9 to 14) (size 15 to 20)
#    0.000    0.727    5.455    4.909    0.000    4.364 
#    0.000    1.818    0.000    0.000    0.000    0.000 
#    0.000    0.000    0.000    0.000    0.000    0.000 
#
# Total GULP energy -272727.811517 kJ/mol
# GULP energy per Si atom -12396.718705 kJ/mol
# Density = 2.267249 g / cm^3
# Si number density = 22.724216 Si / 1000 Ang^3
#
#
#
# Elastic Constant Matrix: (Units=GPa)
#
#
# Indices 1 2 3 4 5 6 
#
# 1 78.7557 22.6364 50.8723 0.0000 -4.3081 0.0000
# 2 22.6364 101.8260 41.7968 0.0000 -4.0542 0.0000
# 3 50.8723 41.7968 119.8053 0.0000 -15.3487 0.0000
# 4 0.0000 0.0000 0.0000 15.3071 0.0000 -6.6355
# 5 -4.3081 -4.0542 -15.3487 0.0000 25.9212 0.0000
# 6 0.0000 0.0000 0.0000 -6.6355 0.0000 28.4542
#
#
#
# Elastic Compliance Matrix: (Units=1/GPa)
#
#
# Indices 1 2 3 4 5 6 
#
# 1 0.017640 -0.000965 -0.007355 0.000000 -0.001575 0.000000
# 2 -0.000965 0.011524 -0.003679 0.000000 -0.000537 0.000000
# 3 -0.007355 -0.003679 0.013552 0.000000 0.006226 0.000000
# 4 0.000000 0.000000 0.000000 0.072676 0.000000 0.016948
# 5 -0.001575 -0.000537 0.006226 0.000000 0.041920 0.000000
# 6 0.000000 0.000000 0.000000 0.016948 0.000000 0.039096
#
#
# Mechanical properties :
#
#
# Convention : Reuss Voigt Hill
#
# Bulk Modulus (GPa) = 53.43046 58.99978 56.21512
# Shear Modulus (GPa) = 22.06085 26.27527 24.16806
#
# Velocity S-wave (km/s) = 3.11916 3.40408 3.26473
# Velocity P-wave (km/s) = 6.04449 6.43973 6.24524
#
# Compressibility (1/GPa) = 0.01871592
#
# Stress axis : x y z
#
# Youngs Moduli (GPa) = 56.68947 86.77438 73.79244
#
# Poissons Ratio (x) = 0.08373 0.54278
# Poissons Ratio (y) = 0.05470 0.27152
# Poissons Ratio (z) = 0.41698 0.31928
#
# Static dielectric constant tensor:
#      x y z
#    x 4.187800 0.000000 -0.206030 
#    y 0.000000 3.954340 0.000000 
#    z -0.206030 0.000000 4.092140 
# 
# 
# High freq. dielectric constant tensor:
#      x y z
#    x 1.909420 0.000000 -0.009410 
#    y 0.000000 1.889100 0.000000 
#    z -0.009410 0.000000 1.893480 
# 
# From -- ./inp_files/134718.got.cif
#   From: 2010.06.25/outbox.cif.g09.slc.cpg/sg15_68_cif.got.tgz:134718.got - 2010.06.28 07:06:18.
