data_PCOD8152139
_publ_section_title
;
Structure prediction by ZEFSAII (Michael W. Deem and Ramdas Pophale) SiO2 
 PCOD8152139
Probable space group: C 2/C
;
_chemical_formula_sum "Si O2"
_cell_formula_units_Z 60
_cell_length_a 25.169923
_cell_length_b 14.008969
_cell_length_c 8.202604
_cell_angle_alpha 90.000000
_cell_angle_beta 81.334172
_cell_angle_gamma 90.000000
_cell_volume 2859.258040
_symmetry_space_group_name_H-M "C 2/C"
_symmetry_group_IT_number 15
_symmetry_cell_setting 'monoclinic'
loop_
_space_group_symop_operation_xyz
x,y,z
-x,y,1/2-z
-x,-y,-z
x,-y,1/2+z
1/2+x,1/2+y,z
1/2-x,1/2+y,1/2-z
1/2-x,1/2-y,-z
1/2+x,1/2-y,1/2+z
loop_
_atom_site_type_symbol
_atom_site_label
_atom_site_fract_x
_atom_site_fract_y
_atom_site_fract_z
Si Si1 0.157761 0.439586 0.759529
Si Si2 0.788502 0.859685 0.273199
Si Si3 0.383207 0.246574 0.339532
Si Si4 0.983463 0.396366 0.446064
Si Si5 0.634555 0.880090 0.099231
Si Si6 0.000000 0.727784 0.250000
Si Si7 0.224781 0.949427 0.886547
Si Si8 0.680969 0.735020 0.302539
O O1 0.114754 0.366093 0.703170
O O2 0.133155 0.546460 0.752215
O O3 0.212145 0.430443 0.633919
O O4 0.174199 0.420573 0.940638
O O5 0.841127 0.793256 0.229784
O O6 0.798552 0.921734 0.429026
O O7 0.734728 0.796712 0.312282
O O8 0.786194 0.938267 0.132622
O O9 0.443777 0.287986 0.278482
O O10 0.362363 0.259132 0.532580
O O11 0.920248 0.378287 0.476249
O O12 0.000000 0.374925 0.250000
O O13 0.000000 0.500000 0.500000
O O14 0.007366 0.328069 0.574616
O O15 0.652679 0.775850 0.152864
O O16 0.197244 0.875918 0.768860
#
# Coordination Sequence:
#
# PCOD8152139 Si02
#       8
#     8   8   8   8   8   4   8   8
#     4  12  20  35  55  87 123 159 198 239 307 375
#     4  11  22  40  62  91 129 161 203 258 316 388
#     4  11  22  42  63  86 121 165 213 257 312 370
#     4  12  23  40  57  87 126 169 215 259 308 376
#     4  12  24  34  56  87 124 162 202 253 302 374
#     4  12  24  44  66  86 122 174 224 268 316 372
#     4  11  22  38  60  91 125 165 200 248 321 378
#     4  11  22  40  62  90 128 162 201 263 316 380
#
# _framework density 20.984465
#
# number of rings (size 3 to 8) (size 9 to 14) (size 15 to 20)
#    0.000    0.533    6.000    4.800    0.000    1.600 
#    0.000    0.000    0.000    3.200    1.733    0.000 
#    0.000    0.000    0.000    0.000    0.000    0.000 
#
# Total GULP energy -371717.149852 kJ/mol
# GULP energy per Si atom -12390.571662 kJ/mol
# Density = 2.093670 g / cm^3
# Si number density = 20.984465 Si / 1000 Ang^3
#
#
#
# Elastic Constant Matrix: (Units=GPa)
#
#
# Indices 1 2 3 4 5 6 
#
# 1 133.2935 19.6524 10.8818 0.0000 -2.8071 0.0000
# 2 19.6524 34.9965 -2.7293 0.0000 -4.4288 0.0000
# 3 10.8818 -2.7293 80.3732 0.0000 5.6222 0.0000
# 4 0.0000 0.0000 0.0000 22.0462 0.0000 9.5837
# 5 -2.8071 -4.4288 5.6222 0.0000 25.0375 0.0000
# 6 0.0000 0.0000 0.0000 9.5837 0.0000 28.8375
#
#
#
# Elastic Compliance Matrix: (Units=1/GPa)
#
#
# Indices 1 2 3 4 5 6 
#
# 1 0.008314 -0.004722 -0.001313 0.000000 0.000392 0.000000
# 2 -0.004722 0.031943 0.001388 0.000000 0.004809 0.000000
# 3 -0.001313 0.001388 0.012862 0.000000 -0.002790 0.000000
# 4 0.000000 0.000000 0.000000 0.053019 0.000000 -0.017620
# 5 0.000392 0.004809 -0.002790 0.000000 0.041461 0.000000
# 6 0.000000 0.000000 0.000000 -0.017620 0.000000 0.040533
#
#
# Mechanical properties :
#
#
# Convention : Reuss Voigt Hill
#
# Bulk Modulus (GPa) = 22.81867 33.80812 28.31340
# Shear Modulus (GPa) = 23.58113 29.90813 26.74463
#
# Velocity S-wave (km/s) = 3.35586 3.77935 3.57388
# Velocity P-wave (km/s) = 5.09053 5.93217 5.52739
#
# Compressibility (1/GPa) = 0.04382375
#
# Stress axis : x y z
#
# Youngs Moduli (GPa) = 120.28137 31.30624 77.74809
#
# Poissons Ratio (x) = 0.14781 0.10211
# Poissons Ratio (y) = 0.56791 -0.10788
# Poissons Ratio (z) = 0.15797 -0.04344
#
# Static dielectric constant tensor:
#      x y z
#    x 3.890210 0.000000 -0.067000 
#    y 0.000000 3.924330 0.000000 
#    z -0.067000 0.000000 4.005770 
# 
# 
# High freq. dielectric constant tensor:
#      x y z
#    x 1.814510 0.000000 0.002570 
#    y 0.000000 1.792020 0.000000 
#    z 0.002570 0.000000 1.833530 
# 
# From -- ./inp_files/61557.got.cif
#   From: 2010.06.25/outbox.cif.g09.slc.cpg/sg15_31_cif.got.tgz:61557.got - 2010.06.28 07:06:18.
