data_PCOD8152484
_publ_section_title
;
Structure prediction by ZEFSAII (Michael W. Deem and Ramdas Pophale) SiO2 
 PCOD8152484
Probable space group: C 2/C
;
_chemical_formula_sum "Si O2"
_cell_formula_units_Z 32
_cell_length_a 18.947310
_cell_length_b 7.207587
_cell_length_c 16.640021
_cell_angle_alpha 90.000000
_cell_angle_beta 151.429143
_cell_angle_gamma 90.000000
_cell_volume 1086.780807
_symmetry_space_group_name_H-M "C 2/C"
_symmetry_group_IT_number 15
_symmetry_cell_setting 'monoclinic'
loop_
_space_group_symop_operation_xyz
x,y,z
-x,y,1/2-z
-x,-y,-z
x,-y,1/2+z
1/2+x,1/2+y,z
1/2-x,1/2+y,1/2-z
1/2-x,1/2-y,-z
1/2+x,1/2-y,1/2+z
loop_
_atom_site_type_symbol
_atom_site_label
_atom_site_fract_x
_atom_site_fract_y
_atom_site_fract_z
Si Si1 0.509283 0.723619 0.916641
Si Si2 0.222855 0.468707 0.566808
Si Si3 0.222855 0.531293 0.378901
Si Si4 0.990717 0.223619 0.398074
O O1 0.609721 0.541885 0.990560
O O2 0.466083 0.709965 0.966083
O O3 0.621734 0.892505 0.015226
O O4 0.359260 0.765004 0.714401
O O5 0.226460 0.500000 0.476460
O O6 0.390279 0.458114 0.771118
O O7 0.140740 0.265004 0.495880
O O8 0.121733 0.392507 0.228240
#
# Coordination Sequence:
#
# PCOD8152484 Si02
#       4
#     8   8   8   8
#     4  11  22  42  67  97 133 176 223 277 335 400
#     4  11  24  42  65  97 135 176 221 277 337 400
#     4  11  24  42  65  97 135 176 221 277 337 400
#     4  11  22  42  67  97 133 176 223 277 335 400
#
# _framework density 29.444762000000001
#
# number of rings (size 3 to 8) (size 9 to 14) (size 15 to 20)
#    0.000    1.000    0.000   10.500    0.000    2.000 
#    0.000   10.000    0.000    0.000    0.000    0.000 
#    0.000    0.000    0.000    0.000    0.000    0.000 
#
# Total GULP energy -198573.505457 kJ/mol
# GULP energy per Si atom -12410.844091 kJ/mol
# Density = 2.937774 g / cm^3
# Si number density = 29.444762 Si / 1000 Ang^3
#
#
#
# Elastic Constant Matrix: (Units=GPa)
#
#
# Indices 1 2 3 4 5 6 
#
# 1 244.0768 57.5272 145.4630 0.0000 -24.8638 0.0000
# 2 57.5272 88.3507 52.1776 0.0000 -4.8335 0.0000
# 3 145.4630 52.1776 240.0298 0.0000 21.2070 0.0000
# 4 0.0000 0.0000 0.0000 49.7248 0.0000 2.3547
# 5 -24.8638 -4.8335 21.2070 0.0000 77.2013 0.0000
# 6 0.0000 0.0000 0.0000 2.3547 0.0000 47.1203
#
#
#
# Elastic Compliance Matrix: (Units=1/GPa)
#
#
# Indices 1 2 3 4 5 6 
#
# 1 0.007626 -0.002130 -0.004472 0.000000 0.003551 0.000000
# 2 -0.002130 0.013783 -0.001764 0.000000 0.000661 0.000000
# 3 -0.004472 -0.001764 0.007581 0.000000 -0.003633 0.000000
# 4 0.000000 0.000000 0.000000 0.020158 0.000000 -0.001007
# 5 0.003551 0.000661 -0.003633 0.000000 0.015136 0.000000
# 6 0.000000 0.000000 0.000000 -0.001007 0.000000 0.021273
#
#
# Mechanical properties :
#
#
# Convention : Reuss Voigt Hill
#
# Bulk Modulus (GPa) = 81.57945 120.31031 100.94488
# Shear Modulus (GPa) = 47.00278 55.96192 51.48235
#
# Velocity S-wave (km/s) = 3.99971 4.36429 4.18597
# Velocity P-wave (km/s) = 7.00688 8.14520 7.59739
#
# Compressibility (1/GPa) = 0.01225799
#
# Stress axis : x y z
#
# Youngs Moduli (GPa) = 131.12428 72.55152 131.90928
#
# Poissons Ratio (x) = 0.15454 0.58996
# Poissons Ratio (y) = 0.27931 0.23266
# Poissons Ratio (z) = 0.58645 0.12796
#
# Static dielectric constant tensor:
#      x y z
#    x 5.180890 0.000000 1.003730 
#    y 0.000000 8.116990 0.000000 
#    z 1.003730 0.000000 6.291200 
# 
# 
# High freq. dielectric constant tensor:
#      x y z
#    x 2.193260 0.000000 0.048400 
#    y 0.000000 2.309410 0.000000 
#    z 0.048400 0.000000 2.246800 
# 
# From -- ./inp_files/213632.got.cif
#   From: 2010.06.25/outbox.cif.g09.slc.cpg/sg15_107_cif.got.tgz:213632.got - 2010.06.28 07:06:18.
