data_PCOD8152252
_publ_section_title
;
Structure prediction by ZEFSAII (Michael W. Deem and Ramdas Pophale) SiO2 
 PCOD8152252
Probable space group: C 2/C
;
_chemical_formula_sum "Si O2"
_cell_formula_units_Z 56
_cell_length_a 18.331610
_cell_length_b 6.650738
_cell_length_c 23.268285
_cell_angle_alpha 90.000000
_cell_angle_beta 105.647193
_cell_angle_gamma 90.000000
_cell_volume 2731.708686
_symmetry_space_group_name_H-M "C 2/C"
_symmetry_group_IT_number 15
_symmetry_cell_setting 'monoclinic'
loop_
_space_group_symop_operation_xyz
x,y,z
-x,y,1/2-z
-x,-y,-z
x,-y,1/2+z
1/2+x,1/2+y,z
1/2-x,1/2+y,1/2-z
1/2-x,1/2-y,-z
1/2+x,1/2-y,1/2+z
loop_
_atom_site_type_symbol
_atom_site_label
_atom_site_fract_x
_atom_site_fract_y
_atom_site_fract_z
Si Si1 0.762760 0.886236 0.664627
Si Si2 0.863661 0.316863 0.386207
Si Si3 0.987361 0.856504 0.314032
Si Si4 0.929138 0.871050 0.006874
Si Si5 0.898441 0.867934 0.604206
Si Si6 0.320753 0.532913 0.796860
Si Si7 0.476281 0.023018 0.095592
O O1 0.830508 0.874532 0.634261
O O2 0.736922 0.662392 0.676761
O O3 0.788165 0.008367 0.726206
O O4 0.695496 0.002863 0.617770
O O5 0.869614 0.174937 0.443619
O O6 0.834190 0.184637 0.326913
O O7 0.945056 0.408618 0.391417
O O8 0.000000 0.857912 0.250000
O O9 0.026992 0.658833 0.347995
O O10 0.899202 0.845883 0.310640
O O11 0.024346 0.056382 0.348954
O O12 0.962626 0.660556 0.036970
O O13 0.882379 0.991470 0.045524
O O14 0.000000 0.000000 0.000000
O O15 0.909293 0.639412 0.585942
#
# Coordination Sequence:
#
# PCOD8152252 Si02
#       7
#     8   8   8   8   8   8   8
#     4  12  27  42  67 101 144 174 223 277 347 410
#     4  12  24  42  71  96 134 182 225 273 347 408
#     4  11  22  39  69  99 133 173 236 278 332 406
#     4  11  24  44  74 100 132 176 238 288 335 407
#     4  11  25  43  66 104 135 174 229 293 327 403
#     4  12  24  43  67 100 136 183 220 273 344 412
#     4  11  23  41  71 101 127 177 231 281 335 396
#
# _framework density 20.49999
#
# number of rings (size 3 to 8) (size 9 to 14) (size 15 to 20)
#    0.000    0.571    7.143    1.286    0.000    5.714 
#    0.000    1.429    0.000    0.000    0.000    0.000 
#    0.000    0.000    0.000    0.000    0.000    0.000 
#
# Total GULP energy -347330.899204 kJ/mol
# GULP energy per Si atom -12404.674972 kJ/mol
# Density = 2.045333 g / cm^3
# Si number density = 20.499990 Si / 1000 Ang^3
#
#
#
# Elastic Constant Matrix: (Units=GPa)
#
#
# Indices 1 2 3 4 5 6 
#
# 1 55.4769 44.4753 35.9944 0.0000 1.3600 0.0000
# 2 44.4753 121.3417 43.5284 0.0000 -10.0403 0.0000
# 3 35.9944 43.5284 113.0100 0.0000 -9.8922 0.0000
# 4 0.0000 0.0000 0.0000 37.6171 0.0000 -3.0340
# 5 1.3600 -10.0403 -9.8922 0.0000 22.5242 0.0000
# 6 0.0000 0.0000 0.0000 -3.0340 0.0000 20.3291
#
#
#
# Elastic Compliance Matrix: (Units=1/GPa)
#
#
# Indices 1 2 3 4 5 6 
#
# 1 0.030150 -0.009360 -0.006783 0.000000 -0.008972 0.000000
# 2 -0.009360 0.012635 -0.001397 0.000000 0.005584 0.000000
# 3 -0.006783 -0.001397 0.011989 0.000000 0.005053 0.000000
# 4 0.000000 0.000000 0.000000 0.026908 0.000000 0.004016
# 5 -0.008972 0.005584 0.005053 0.000000 0.049646 0.000000
# 6 0.000000 0.000000 0.000000 0.004016 0.000000 0.049790
#
#
# Mechanical properties :
#
#
# Convention : Reuss Voigt Hill
#
# Bulk Modulus (GPa) = 50.77412 59.75832 55.26622
# Shear Modulus (GPa) = 22.44533 27.14946 24.79739
#
# Velocity S-wave (km/s) = 3.31251 3.64313 3.48175
# Velocity P-wave (km/s) = 6.28108 6.84910 6.57123
#
# Compressibility (1/GPa) = 0.01969507
#
# Stress axis : x y z
#
# Youngs Moduli (GPa) = 33.16712 79.14548 83.40651
#
# Poissons Ratio (x) = 0.74080 0.56576
# Poissons Ratio (y) = 0.31045 0.11649
# Poissons Ratio (z) = 0.22498 0.11054
#
# Static dielectric constant tensor:
#      x y z
#    x 3.649630 0.000000 0.149530 
#    y 0.000000 3.963650 0.000000 
#    z 0.149530 0.000000 3.950330 
# 
# 
# High freq. dielectric constant tensor:
#      x y z
#    x 1.790110 0.000000 -0.000140 
#    y 0.000000 1.815050 0.000000 
#    z -0.000140 0.000000 1.811670 
# 
# From -- ./inp_files/278685.got.cif
#   From: 2010.06.25/outbox.cif.g09.slc.cpg/sg15_140_cif.got.tgz:278685.got - 2010.06.28 07:06:18.
