data_PCOD8152927
_publ_section_title
;
Structure prediction by ZEFSAII (Michael W. Deem and Ramdas Pophale) SiO2 
 PCOD8152927
Probable space group: C 2/C
;
_chemical_formula_sum "Si O2"
_cell_formula_units_Z 48
_cell_length_a 4.918092
_cell_length_b 21.748123
_cell_length_c 22.188483
_cell_angle_alpha 90.000000
_cell_angle_beta 103.418378
_cell_angle_gamma 90.000000
_cell_volume 2308.477377
_symmetry_space_group_name_H-M "C 2/C"
_symmetry_group_IT_number 15
_symmetry_cell_setting 'monoclinic'
loop_
_space_group_symop_operation_xyz
x,y,z
-x,y,1/2-z
-x,-y,-z
x,-y,1/2+z
1/2+x,1/2+y,z
1/2-x,1/2+y,1/2-z
1/2-x,1/2-y,-z
1/2+x,1/2-y,1/2+z
loop_
_atom_site_type_symbol
_atom_site_label
_atom_site_fract_x
_atom_site_fract_y
_atom_site_fract_z
Si Si1 0.153568 0.520540 0.318395
Si Si2 0.248968 0.454821 0.499438
Si Si3 0.697517 0.803775 0.710422
Si Si4 0.018634 0.826087 0.319442
Si Si5 0.779448 0.084845 0.130314
Si Si6 0.081088 0.391591 0.370049
O O1 0.475118 0.541661 0.329934
O O2 0.112665 0.448192 0.325684
O O3 0.000000 0.541240 0.250000
O O4 0.014048 0.552940 0.368947
O O5 0.500000 0.500000 0.500000
O O6 0.309036 0.410900 0.559859
O O7 0.193065 0.409542 0.441334
O O8 0.000000 0.500000 0.500000
O O9 0.500000 0.839222 0.750000
O O10 0.487497 0.748264 0.680742
O O11 0.775880 0.847433 0.658642
O O12 0.000000 0.779646 0.750000
O O13 0.277008 0.861634 0.362924
O O14 0.000000 0.850854 0.250000
O O15 0.756445 0.838567 0.348099
#
# Coordination Sequence:
#
# PCOD8152927 Si02
#       6
#     8   8   8   8   8   8
#     4  12  23  36  61  96 129 156 205 273 327 385
#     4  12  23  44  62  88 129 175 211 258 322 388
#     4  11  23  42  66  93 130 171 214 268 331 389
#     4  11  23  41  63  92 127 167 208 265 327 382
#     4  12  23  41  63  92 126 170 215 256 324 385
#     4  12  23  40  63  93 126 167 216 258 323 388
#
# _framework density 20.792926999999999
#
# number of rings (size 3 to 8) (size 9 to 14) (size 15 to 20)
#    0.000    0.333    3.333    8.500    0.000    0.000 
#    0.000    1.667    0.000    0.000    0.000    0.000 
#    0.000    0.000    0.000    0.000    0.000    0.000 
#
# Total GULP energy -297528.077316 kJ/mol
# GULP energy per Si atom -12397.003221 kJ/mol
# Density = 2.074560 g / cm^3
# Si number density = 20.792927 Si / 1000 Ang^3
#
#
#
# Elastic Constant Matrix: (Units=GPa)
#
#
# Indices 1 2 3 4 5 6 
#
# 1 94.1761 33.4528 20.7311 0.0000 1.7110 0.0000
# 2 33.4528 108.5977 46.0462 0.0000 1.0106 0.0000
# 3 20.7311 46.0462 136.5013 0.0000 -11.9352 0.0000
# 4 0.0000 0.0000 0.0000 20.1585 0.0000 -9.9605
# 5 1.7110 1.0106 -11.9352 0.0000 34.1730 0.0000
# 6 0.0000 0.0000 0.0000 -9.9605 0.0000 39.4077
#
#
#
# Elastic Compliance Matrix: (Units=1/GPa)
#
#
# Indices 1 2 3 4 5 6 
#
# 1 0.011994 -0.003369 -0.000752 0.000000 -0.000764 0.000000
# 2 -0.003369 0.011781 -0.003588 0.000000 -0.001433 0.000000
# 3 -0.000752 -0.003588 0.008936 0.000000 0.003265 0.000000
# 4 0.000000 0.000000 0.000000 0.056687 0.000000 0.014328
# 5 -0.000764 -0.001433 0.003265 0.000000 0.030484 0.000000
# 6 0.000000 0.000000 0.000000 0.014328 0.000000 0.028997
#
#
# Mechanical properties :
#
#
# Convention : Reuss Voigt Hill
#
# Bulk Modulus (GPa) = 57.82369 59.97061 58.89715
# Shear Modulus (GPa) = 29.40145 34.68418 32.04281
#
# Velocity S-wave (km/s) = 3.76441 4.08864 3.92987
# Velocity P-wave (km/s) = 6.83843 7.15498 6.99849
#
# Compressibility (1/GPa) = 0.01729395
#
# Stress axis : x y z
#
# Youngs Moduli (GPa) = 83.37163 84.88574 111.90947
#
# Poissons Ratio (x) = 0.28597 0.08416
# Poissons Ratio (y) = 0.28087 0.40148
# Poissons Ratio (z) = 0.06270 0.30453
#
# Static dielectric constant tensor:
#      x y z
#    x 3.962350 0.000000 -0.021420 
#    y 0.000000 3.594620 0.000000 
#    z -0.021420 0.000000 4.116010 
# 
# 
# High freq. dielectric constant tensor:
#      x y z
#    x 1.839960 0.000000 -0.010060 
#    y 0.000000 1.806160 0.000000 
#    z -0.010060 0.000000 1.803910 
# 
# From -- ./inp_files/261051.got.cif
#   From: 2010.06.25/outbox.cif.g09.slc.cpg/sg15_131_cif.got.tgz:261051.got - 2010.06.28 07:06:18.
