data_PCOD8152128
_publ_section_title
;
Structure prediction by ZEFSAII (Michael W. Deem and Ramdas Pophale) SiO2 
 PCOD8152128
Probable space group: C 2/C
;
_chemical_formula_sum "Si O2"
_cell_formula_units_Z 56
_cell_length_a 27.675187
_cell_length_b 11.034194
_cell_length_c 9.076216
_cell_angle_alpha 90.000000
_cell_angle_beta 112.182406
_cell_angle_gamma 90.000000
_cell_volume 2566.496571
_symmetry_space_group_name_H-M "C 2/C"
_symmetry_group_IT_number 15
_symmetry_cell_setting 'monoclinic'
loop_
_space_group_symop_operation_xyz
x,y,z
-x,y,1/2-z
-x,-y,-z
x,-y,1/2+z
1/2+x,1/2+y,z
1/2-x,1/2+y,1/2-z
1/2-x,1/2-y,-z
1/2+x,1/2-y,1/2+z
loop_
_atom_site_type_symbol
_atom_site_label
_atom_site_fract_x
_atom_site_fract_y
_atom_site_fract_z
Si Si1 0.639870 0.919563 0.471815
Si Si2 0.698987 0.350360 0.539338
Si Si3 0.197512 0.766641 0.850279
Si Si4 0.623361 0.540958 0.375468
Si Si5 0.314455 0.124459 0.154585
Si Si6 0.469321 0.593260 0.863966
Si Si7 0.449608 0.751975 0.090291
O O1 0.659220 0.839066 0.357257
O O2 0.669877 0.896361 0.658213
O O3 0.579272 0.881769 0.428474
O O4 0.647865 0.055081 0.419330
O O5 0.707825 0.259575 0.687696
O O6 0.653097 0.447085 0.518641
O O7 0.682207 0.267015 0.380618
O O8 0.754041 0.417982 0.568196
O O9 0.170540 0.896388 0.842720
O O10 0.250000 0.750000 0.000000
O O11 0.587664 0.462384 0.225934
O O12 0.588769 0.639748 0.419230
O O13 0.500000 0.616500 0.750000
O O14 0.500000 0.500000 0.000000
O O15 0.466208 0.724526 0.941010
O O16 0.500000 0.750959 0.250000
#
# Coordination Sequence:
#
# PCOD8152128 Si02
#       7
#     8   8   8   8   8   8   8
#     4  11  24  44  68  91 136 177 222 278 330 390
#     4  11  24  39  65  97 132 178 230 266 329 391
#     4  11  22  40  62  96 136 177 217 269 330 396
#     4  11  22  37  67  97 137 171 216 267 343 393
#     4  11  24  44  63  93 133 180 228 272 318 395
#     4  12  21  38  62  98 139 165 210 275 342 398
#     4  11  23  43  67 100 131 169 220 275 341 400
#
# _framework density 21.819628000000002
#
# number of rings (size 3 to 8) (size 9 to 14) (size 15 to 20)
#    0.000    0.857    4.286    3.429    0.000    1.143 
#    0.000    2.143    0.000    1.714    0.000    0.000 
#    0.000    0.000    0.000    0.000    0.000    0.000 
#
# Total GULP energy -347093.272516 kJ/mol
# GULP energy per Si atom -12396.188304 kJ/mol
# Density = 2.176997 g / cm^3
# Si number density = 21.819628 Si / 1000 Ang^3
#
#
#
# Elastic Constant Matrix: (Units=GPa)
#
#
# Indices 1 2 3 4 5 6 
#
# 1 126.9963 52.0003 52.6090 0.0000 12.7471 0.0000
# 2 52.0003 67.6923 37.3124 0.0000 9.9809 0.0000
# 3 52.6090 37.3124 110.3620 0.0000 -0.4792 0.0000
# 4 0.0000 0.0000 0.0000 22.2672 0.0000 -5.2956
# 5 12.7471 9.9809 -0.4792 0.0000 40.7196 0.0000
# 6 0.0000 0.0000 0.0000 -5.2956 0.0000 42.0518
#
#
#
# Elastic Compliance Matrix: (Units=1/GPa)
#
#
# Indices 1 2 3 4 5 6 
#
# 1 0.012576 -0.007414 -0.003498 0.000000 -0.002161 0.000000
# 2 -0.007414 0.023400 -0.004392 0.000000 -0.003466 0.000000
# 3 -0.003498 -0.004392 0.012223 0.000000 0.002315 0.000000
# 4 0.000000 0.000000 0.000000 0.046296 0.000000 0.005830
# 5 -0.002161 -0.003466 0.002315 0.000000 0.026112 0.000000
# 6 0.000000 0.000000 0.000000 0.005830 0.000000 0.024514
#
#
# Mechanical properties :
#
#
# Convention : Reuss Voigt Hill
#
# Bulk Modulus (GPa) = 56.84499 65.43270 61.13884
# Shear Modulus (GPa) = 27.53415 31.88297 29.70856
#
# Velocity S-wave (km/s) = 3.55617 3.82672 3.69392
# Velocity P-wave (km/s) = 6.55520 7.04117 6.80253
#
# Compressibility (1/GPa) = 0.01759170
#
# Stress axis : x y z
#
# Youngs Moduli (GPa) = 79.51774 42.73450 81.81045
#
# Poissons Ratio (x) = 0.31684 0.28614
# Poissons Ratio (y) = 0.58955 0.35933
# Poissons Ratio (z) = 0.27812 0.18770
#
# Static dielectric constant tensor:
#      x y z
#    x 4.297550 0.000000 -0.136310 
#    y 0.000000 3.853220 0.000000 
#    z -0.136310 0.000000 4.026570 
# 
# 
# High freq. dielectric constant tensor:
#      x y z
#    x 1.861760 0.000000 -0.000030 
#    y 0.000000 1.835940 0.000000 
#    z -0.000030 0.000000 1.865760 
# 
# From -- ./inp_files/65520.got.cif
#   From: 2010.06.25/outbox.cif.g09.slc.cpg/sg15_33_cif.got.tgz:65520.got - 2010.06.28 07:06:18.
