data_PCOD8152958
_publ_section_title
;
Structure prediction by ZEFSAII (Michael W. Deem and Ramdas Pophale) SiO2 
 PCOD8152958
Probable space group: C 2/C
;
_chemical_formula_sum "Si O2"
_cell_formula_units_Z 40
_cell_length_a 15.246426
_cell_length_b 17.755956
_cell_length_c 11.174276
_cell_angle_alpha 90.000000
_cell_angle_beta 139.826059
_cell_angle_gamma 90.000000
_cell_volume 1951.485985
_symmetry_space_group_name_H-M "C 2/C"
_symmetry_group_IT_number 15
_symmetry_cell_setting 'monoclinic'
loop_
_space_group_symop_operation_xyz
x,y,z
-x,y,1/2-z
-x,-y,-z
x,-y,1/2+z
1/2+x,1/2+y,z
1/2-x,1/2+y,1/2-z
1/2-x,1/2-y,-z
1/2+x,1/2-y,1/2+z
loop_
_atom_site_type_symbol
_atom_site_label
_atom_site_fract_x
_atom_site_fract_y
_atom_site_fract_z
Si Si1 0.275786 0.777762 0.337235
Si Si2 0.156568 0.139216 0.939276
Si Si3 0.378791 0.245422 0.550807
Si Si4 0.517884 0.117026 0.578737
Si Si5 0.113534 0.531104 0.269161
O O1 0.221626 0.820137 0.394811
O O2 0.324046 0.693511 0.424880
O O3 0.403851 0.819804 0.414765
O O4 0.154110 0.778948 0.113584
O O5 0.000000 0.120432 0.750000
O O6 0.237173 0.060403 0.037897
O O7 0.500000 0.288237 0.750000
O O8 0.250000 0.250000 0.500000
O O9 0.424852 0.158724 0.579836
O O10 0.420030 0.071458 0.389797
O O11 0.619109 0.058770 0.751961
O O12 0.000000 0.551656 0.250000
#
# Coordination Sequence:
#
# PCOD8152958 Si02
#       5
#     8   8   8   8   8
#     4  11  23  41  67 102 133 177 221 289 339 392
#     4  11  24  40  70 101 137 167 231 292 336 390
#     4  12  24  39  64  97 138 176 223 273 332 399
#     4  11  23  42  66  97 134 181 229 268 331 418
#     4  11  23  42  68  94 132 183 229 269 338 406
#
# _framework density 20.497199999999999
#
# number of rings (size 3 to 8) (size 9 to 14) (size 15 to 20)
#    0.000    0.800    6.000    1.800    2.800    0.000 
#    0.000    2.000    0.000    0.000    0.000    0.000 
#    0.000    0.000    0.000    0.000    0.000    0.000 
#
# Total GULP energy -247905.003693 kJ/mol
# GULP energy per Si atom -12395.250185 kJ/mol
# Density = 2.045055 g / cm^3
# Si number density = 20.497200 Si / 1000 Ang^3
#
#
#
# Elastic Constant Matrix: (Units=GPa)
#
#
# Indices 1 2 3 4 5 6 
#
# 1 109.2060 59.7735 46.1575 0.0000 15.8105 0.0000
# 2 59.7735 95.8608 28.5388 0.0000 7.1757 0.0000
# 3 46.1575 28.5388 127.2536 0.0000 3.8229 0.0000
# 4 0.0000 0.0000 0.0000 27.0511 0.0000 0.9203
# 5 15.8105 7.1757 3.8229 0.0000 40.3342 0.0000
# 6 0.0000 0.0000 0.0000 0.9203 0.0000 35.2133
#
#
#
# Elastic Compliance Matrix: (Units=1/GPa)
#
#
# Indices 1 2 3 4 5 6 
#
# 1 0.016089 -0.008576 -0.003780 0.000000 -0.004423 0.000000
# 2 -0.008576 0.015875 -0.000467 0.000000 0.000582 0.000000
# 3 -0.003780 -0.000467 0.009314 0.000000 0.000682 0.000000
# 4 0.000000 0.000000 0.000000 0.037000 0.000000 -0.000967
# 5 -0.004423 0.000582 0.000682 0.000000 0.026358 0.000000
# 6 0.000000 0.000000 0.000000 -0.000967 0.000000 0.028424
#
#
# Mechanical properties :
#
#
# Convention : Reuss Voigt Hill
#
# Bulk Modulus (GPa) = 63.97077 66.80667 65.38872
# Shear Modulus (GPa) = 30.50374 33.70976 32.10675
#
# Velocity S-wave (km/s) = 3.86189 4.05977 3.96207
# Velocity P-wave (km/s) = 7.15282 7.39185 7.27332
#
# Compressibility (1/GPa) = 0.01563214
#
# Stress axis : x y z
#
# Youngs Moduli (GPa) = 62.15541 62.99349 107.37092
#
# Poissons Ratio (x) = 0.54022 0.40582
# Poissons Ratio (y) = 0.53303 0.05015
# Poissons Ratio (z) = 0.23492 0.02942
#
# Static dielectric constant tensor:
#      x y z
#    x 3.780900 0.000000 -0.136120 
#    y 0.000000 3.909280 0.000000 
#    z -0.136120 0.000000 4.213230 
# 
# 
# High freq. dielectric constant tensor:
#      x y z
#    x 1.810940 0.000000 -0.019870 
#    y 0.000000 1.782340 0.000000 
#    z -0.019870 0.000000 1.811990 
# 
# From -- ./inp_files/38948.got.cif
#   From: 2010.06.25/outbox.cif.g09.slc.cpg/sg15_20_cif.got.tgz:38948.got - 2010.06.28 07:06:18.
