data_PCOD8152344
_publ_section_title
;
Structure prediction by ZEFSAII (Michael W. Deem and Ramdas Pophale) SiO2 
 PCOD8152344
Probable space group: C 2/C
;
_chemical_formula_sum "Si O2"
_cell_formula_units_Z 60
_cell_length_a 19.006788
_cell_length_b 16.660720
_cell_length_c 9.622684
_cell_angle_alpha 90.000000
_cell_angle_beta 116.401040
_cell_angle_gamma 90.000000
_cell_volume 2729.374210
_symmetry_space_group_name_H-M "C 2/C"
_symmetry_group_IT_number 15
_symmetry_cell_setting 'monoclinic'
loop_
_space_group_symop_operation_xyz
x,y,z
-x,y,1/2-z
-x,-y,-z
x,-y,1/2+z
1/2+x,1/2+y,z
1/2-x,1/2+y,1/2-z
1/2-x,1/2-y,-z
1/2+x,1/2-y,1/2+z
loop_
_atom_site_type_symbol
_atom_site_label
_atom_site_fract_x
_atom_site_fract_y
_atom_site_fract_z
Si Si1 0.884197 0.858040 0.622150
Si Si2 0.846146 0.491809 0.214420
Si Si3 0.403923 0.100998 0.504432
Si Si4 0.500000 0.784706 0.250000
Si Si5 0.727002 0.364195 0.215221
Si Si6 0.709394 0.602487 0.009480
Si Si7 0.550184 0.514762 0.905607
Si Si8 0.753184 0.810710 0.698557
O O1 0.925813 0.774607 0.703740
O O2 0.854858 0.870978 0.438134
O O3 0.938895 0.934979 0.682419
O O4 0.808641 0.866023 0.653480
O O5 0.905061 0.540581 0.372064
O O6 0.897354 0.446901 0.144136
O O7 0.792110 0.432686 0.257391
O O8 0.786447 0.547583 0.078361
O O9 0.481475 0.157757 0.598103
O O10 0.333837 0.163225 0.419193
O O11 0.697049 0.361886 0.346505
O O12 0.765899 0.283427 0.187157
O O13 0.633796 0.556413 0.006782
O O14 0.726711 0.677164 0.123178
O O15 0.500000 0.568358 0.750000
O O16 0.500000 0.500000 0.000000
#
# Coordination Sequence:
#
# PCOD8152344 Si02
#       8
#     8   8   8   4   8   8   8   8
#     4  12  23  41  68  95 129 173 224 269 327 401
#     4  11  22  40  70  97 127 169 224 279 332 386
#     4  11  23  43  67  99 131 173 220 276 334 397
#     4  12  26  42  66  96 136 174 224 270 330 408
#     4  12  21  40  67  98 127 167 221 280 331 392
#     4  11  24  39  63  97 134 166 216 283 339 395
#     4  12  24  39  60  91 134 176 214 263 336 406
#     4  11  23  41  68  97 129 174 222 276 335 397
#
# _framework density 21.983059999999998
#
# number of rings (size 3 to 8) (size 9 to 14) (size 15 to 20)
#    0.000    0.533    6.000    3.200    1.867    0.533 
#    0.000    0.000    0.000    1.600    0.000    0.000 
#    0.000    0.000    0.000    0.000    0.000    0.000 
#
# Total GULP energy -371649.421601 kJ/mol
# GULP energy per Si atom -12388.314053 kJ/mol
# Density = 2.193303 g / cm^3
# Si number density = 21.983060 Si / 1000 Ang^3
#
#
#
# Elastic Constant Matrix: (Units=GPa)
#
#
# Indices 1 2 3 4 5 6 
#
# 1 45.7770 1.4267 19.2128 0.0000 -3.5795 0.0000
# 2 1.4267 82.4390 23.2073 0.0000 12.4124 0.0000
# 3 19.2128 23.2073 108.2606 0.0000 0.2647 0.0000
# 4 0.0000 0.0000 0.0000 21.6842 0.0000 -0.4703
# 5 -3.5795 12.4124 0.2647 0.0000 32.0048 0.0000
# 6 0.0000 0.0000 0.0000 -0.4703 0.0000 28.3154
#
#
#
# Elastic Compliance Matrix: (Units=1/GPa)
#
#
# Indices 1 2 3 4 5 6 
#
# 1 0.023847 0.000424 -0.004329 0.000000 0.002539 0.000000
# 2 0.000424 0.013764 -0.003013 0.000000 -0.005266 0.000000
# 3 -0.004329 -0.003013 0.010650 0.000000 0.000596 0.000000
# 4 0.000000 0.000000 0.000000 0.046133 0.000000 0.000766
# 5 0.002539 -0.005266 0.000596 0.000000 0.033567 0.000000
# 6 0.000000 0.000000 0.000000 0.000766 0.000000 0.035329
#
#
# Mechanical properties :
#
#
# Convention : Reuss Voigt Hill
#
# Bulk Modulus (GPa) = 29.04926 36.01894 32.53410
# Shear Modulus (GPa) = 26.51102 29.24286 27.87694
#
# Velocity S-wave (km/s) = 3.47648 3.65121 3.56492
# Velocity P-wave (km/s) = 5.41827 5.84770 5.63707
#
# Compressibility (1/GPa) = 0.03442428
#
# Stress axis : x y z
#
# Youngs Moduli (GPa) = 41.93347 72.65433 93.89980
#
# Poissons Ratio (x) = -0.03079 0.40651
# Poissons Ratio (y) = -0.01777 0.28290
# Poissons Ratio (z) = 0.18154 0.21889
#
# Static dielectric constant tensor:
#      x y z
#    x 3.610800 0.000000 0.248120 
#    y 0.000000 4.057300 0.000000 
#    z 0.248120 0.000000 4.423920 
# 
# 
# High freq. dielectric constant tensor:
#      x y z
#    x 1.840830 0.000000 0.017060 
#    y 0.000000 1.863200 0.000000 
#    z 0.017060 0.000000 1.889420 
# 
# From -- ./inp_files/57039.got.cif
#   From: 2010.06.25/outbox.cif.g09.slc.cpg/sg15_29_cif.got.tgz:57039.got - 2010.06.28 07:06:18.
