data_PCOD8152084
_publ_section_title
;
Structure prediction by ZEFSAII (Michael W. Deem and Ramdas Pophale) SiO2 
 PCOD8152084
Probable space group: C 2/C
;
_chemical_formula_sum "Si O2"
_cell_formula_units_Z 48
_cell_length_a 15.544590
_cell_length_b 28.155736
_cell_length_c 16.527457
_cell_angle_alpha 90.000000
_cell_angle_beta 162.667255
_cell_angle_gamma 90.000000
_cell_volume 2155.026175
_symmetry_space_group_name_H-M "C 2/C"
_symmetry_group_IT_number 15
_symmetry_cell_setting 'monoclinic'
loop_
_space_group_symop_operation_xyz
x,y,z
-x,y,1/2-z
-x,-y,-z
x,-y,1/2+z
1/2+x,1/2+y,z
1/2-x,1/2+y,1/2-z
1/2-x,1/2-y,-z
1/2+x,1/2-y,1/2+z
loop_
_atom_site_type_symbol
_atom_site_label
_atom_site_fract_x
_atom_site_fract_y
_atom_site_fract_z
Si Si1 0.199103 0.620931 0.128478
Si Si2 0.683332 0.172538 0.491472
Si Si3 0.508014 0.218938 0.500258
Si Si4 0.225000 0.578840 0.878962
Si Si5 0.028578 0.576332 0.136755
Si Si6 0.014004 0.019908 0.858160
O O1 0.516770 0.616560 0.372986
O O2 0.218490 0.597793 0.234855
O O3 0.121274 0.676243 0.062675
O O4 0.952354 0.592576 0.859412
O O5 0.580475 0.202830 0.475114
O O6 0.666451 0.116819 0.497171
O O7 0.000000 0.186755 0.750000
O O8 0.500000 0.187282 0.250000
O O9 0.289413 0.263044 0.299854
O O10 0.000000 0.576588 0.750000
O O11 0.391388 0.529048 0.014381
O O12 0.249003 0.558462 0.403121
O O13 0.808941 0.535853 0.906016
O O14 0.000000 0.012428 0.750000
#
# Coordination Sequence:
#
# PCOD8152084 Si02
#       6
#     8   8   8   8   8   8
#     4  11  25  44  66  93 123 161 206 256 318 375
#     4  11  22  36  58  90 129 171 210 246 288 344
#     4  11  24  43  66  91 121 159 201 252 315 374
#     4  12  25  43  66  91 122 161 206 259 319 375
#     4  11  23  38  60  91 131 175 214 251 291 345
#     4  12  23  38  61  92 131 174 214 249 292 348
#
# _framework density 22.273510999999999
#
# number of rings (size 3 to 8) (size 9 to 14) (size 15 to 20)
#    0.000    0.667    0.000    9.500    0.000   11.333 
#    0.000    0.000    0.000   10.000    0.000    0.000 
#    0.000    0.000    0.000    0.000    0.000    0.000 
#
# Total GULP energy -297686.025112 kJ/mol
# GULP energy per Si atom -12403.584380 kJ/mol
# Density = 2.222282 g / cm^3
# Si number density = 22.273511 Si / 1000 Ang^3
#
#
#
# Elastic Constant Matrix: (Units=GPa)
#
#
# Indices 1 2 3 4 5 6 
#
# 1 35.5246 27.6005 15.8798 0.0227 11.5385 -0.0323
# 2 27.6005 84.1726 27.5647 -0.0124 2.8058 -0.0015
# 3 15.8798 27.5647 144.1622 0.0487 6.6255 -0.0448
# 4 0.0227 -0.0124 0.0487 41.7562 0.0242 -1.0383
# 5 11.5385 2.8058 6.6255 0.0242 43.2154 -0.0402
# 6 -0.0323 -0.0015 -0.0448 -1.0383 -0.0402 27.2529
#
#
#
# Elastic Compliance Matrix: (Units=1/GPa)
#
#
# Indices 1 2 3 4 5 6 
#
# 1 0.042302 -0.012971 -0.001711 -0.000018 -0.010190 0.000031
# 2 -0.012971 0.016660 -0.001879 0.000012 0.002670 -0.000013
# 3 -0.001711 -0.001879 0.007511 -0.000008 -0.000573 0.000009
# 4 -0.000018 0.000012 -0.000008 0.023971 -0.000007 0.000913
# 5 -0.010190 0.002670 -0.000573 -0.000007 0.025775 0.000025
# 6 0.000031 -0.000013 0.000009 0.000913 0.000025 0.036728
#
#
# Mechanical properties :
#
#
# Convention : Reuss Voigt Hill
#
# Bulk Modulus (GPa) = 29.98529 45.10549 37.54539
# Shear Modulus (GPa) = 25.35663 35.29918 30.32791
#
# Velocity S-wave (km/s) = 3.37771 3.98528 3.69401
# Velocity P-wave (km/s) = 5.35756 6.43982 5.92346
#
# Compressibility (1/GPa) = 0.03334969
#
# Stress axis : x y z
#
# Youngs Moduli (GPa) = 23.63960 60.02381 133.14159
#
# Poissons Ratio (x) = 0.77856 0.22783
# Poissons Ratio (y) = 0.30663 0.25023
# Poissons Ratio (z) = 0.04045 0.11281
#
# Static dielectric constant tensor:
#      x y z
#    x 3.848210 -0.000040 0.057260 
#    y -0.000040 4.068340 -0.000060 
#    z 0.057260 -0.000060 4.224500 
# 
# 
# High freq. dielectric constant tensor:
#      x y z
#    x 1.861850 0.000000 0.004350 
#    y 0.000000 1.875470 0.000000 
#    z 0.004350 0.000000 1.900350 
# 
# From -- ./inp_files/157722.got.cif
#   From: 2010.06.25/outbox.cif.g09.slc.cpg/sg15_79_cif.got.tgz:157722.got - 2010.06.28 07:06:18.
