data_PCOD8152411
_publ_section_title
;
Structure prediction by ZEFSAII (Michael W. Deem and Ramdas Pophale) SiO2 
 PCOD8152411
Probable space group: C 2/C
;
_chemical_formula_sum "Si O2"
_cell_formula_units_Z 60
_cell_length_a 15.488074
_cell_length_b 11.105566
_cell_length_c 22.321575
_cell_angle_alpha 90.000000
_cell_angle_beta 131.068432
_cell_angle_gamma 90.000000
_cell_volume 2894.618692
_symmetry_space_group_name_H-M "C 2/C"
_symmetry_group_IT_number 15
_symmetry_cell_setting 'monoclinic'
loop_
_space_group_symop_operation_xyz
x,y,z
-x,y,1/2-z
-x,-y,-z
x,-y,1/2+z
1/2+x,1/2+y,z
1/2-x,1/2+y,1/2-z
1/2-x,1/2-y,-z
1/2+x,1/2-y,1/2+z
loop_
_atom_site_type_symbol
_atom_site_label
_atom_site_fract_x
_atom_site_fract_y
_atom_site_fract_z
Si Si1 0.256847 0.737201 0.661414
Si Si2 0.934133 0.034330 0.319764
Si Si3 0.257238 0.309686 0.412291
Si Si4 0.079184 0.459015 0.091133
Si Si5 0.000000 0.147097 0.750000
Si Si6 0.127261 0.024431 0.080355
Si Si7 0.070878 0.267380 0.413051
Si Si8 0.777626 0.330841 0.803768
O O1 0.193053 0.610388 0.619948
O O2 0.385037 0.728587 0.691836
O O3 0.174789 0.839262 0.595209
O O4 0.274405 0.762472 0.739534
O O5 0.870029 0.979982 0.349035
O O6 0.838607 0.096123 0.235117
O O7 0.019558 0.134449 0.385134
O O8 0.996826 0.933414 0.309002
O O9 0.289046 0.449907 0.424692
O O10 0.125971 0.300335 0.373862
O O11 0.334094 0.230741 0.491977
O O12 0.283456 0.266589 0.357939
O O13 0.114530 0.578591 0.143626
O O14 0.020370 0.368902 0.111555
O O15 0.000000 0.500000 0.000000
O O16 0.000000 0.000000 0.000000
#
# Coordination Sequence:
#
# PCOD8152411 Si02
#       8
#     8   8   8   8   4   8   8   8
#     4  11  26  43  68 102 134 178 229 274 337 412
#     4  11  22  41  68  92 131 179 218 270 334 397
#     4  11  23  39  65 100 128 170 219 274 331 390
#     4  12  23  44  68  98 135 173 223 283 337 400
#     4  12  24  44  66 100 142 174 226 280 336 406
#     4  11  22  44  68  92 136 179 215 272 338 407
#     4  11  23  41  65 100 132 165 230 275 321 406
#     4  11  23  41  69  96 129 177 217 272 340 395
#
# _framework density 20.728119
#
# number of rings (size 3 to 8) (size 9 to 14) (size 15 to 20)
#    0.000    0.800    6.667    1.600    1.867    1.067 
#    0.000    0.667    0.000    0.000    0.000    0.000 
#    0.000    0.000    0.000    0.000    0.000    0.000 
#
# Total GULP energy -371895.377232 kJ/mol
# GULP energy per Si atom -12396.512574 kJ/mol
# Density = 2.068094 g / cm^3
# Si number density = 20.728119 Si / 1000 Ang^3
#
#
#
# Elastic Constant Matrix: (Units=GPa)
#
#
# Indices 1 2 3 4 5 6 
#
# 1 111.4296 43.0158 20.0837 0.0000 14.4083 0.0000
# 2 43.0158 83.3561 39.6702 0.0000 1.8547 0.0000
# 3 20.0837 39.6702 88.8027 0.0000 13.6098 0.0000
# 4 0.0000 0.0000 0.0000 42.7509 0.0000 4.1361
# 5 14.4083 1.8547 13.6098 0.0000 30.3891 0.0000
# 6 0.0000 0.0000 0.0000 4.1361 0.0000 40.5642
#
#
#
# Elastic Compliance Matrix: (Units=1/GPa)
#
#
# Indices 1 2 3 4 5 6 
#
# 1 0.012091 -0.006647 0.001129 0.000000 -0.005832 0.000000
# 2 -0.006647 0.019038 -0.007845 0.000000 0.005503 0.000000
# 3 0.001129 -0.007845 0.015589 0.000000 -0.007038 0.000000
# 4 0.000000 0.000000 0.000000 0.023624 0.000000 -0.002409
# 5 -0.005832 0.005503 -0.007038 0.000000 0.038488 0.000000
# 6 0.000000 0.000000 0.000000 -0.002409 0.000000 0.024898
#
#
# Mechanical properties :
#
#
# Convention : Reuss Voigt Hill
#
# Bulk Modulus (GPa) = 50.02101 54.34752 52.18427
# Shear Modulus (GPa) = 29.91912 34.79544 32.35728
#
# Velocity S-wave (km/s) = 3.80334 4.10159 3.95528
# Velocity P-wave (km/s) = 6.59330 6.97903 6.78890
#
# Compressibility (1/GPa) = 0.01999160
#
# Stress axis : x y z
#
# Youngs Moduli (GPa) = 82.70653 52.52705 64.14918
#
# Poissons Ratio (x) = 0.34914 -0.07241
# Poissons Ratio (y) = 0.54974 0.50323
# Poissons Ratio (z) = -0.09335 0.41206
#
# Static dielectric constant tensor:
#      x y z
#    x 3.876500 0.000000 0.122170 
#    y 0.000000 3.858410 0.000000 
#    z 0.122170 0.000000 3.812010 
# 
# 
# High freq. dielectric constant tensor:
#      x y z
#    x 1.807180 0.000000 0.008900 
#    y 0.000000 1.813510 0.000000 
#    z 0.008900 0.000000 1.813910 
# 
# From -- ./inp_files/273859.got.cif
#   From: 2010.06.25/outbox.cif.g09.slc.cpg/sg15_137_cif.got.tgz:273859.got - 2010.06.28 07:06:18.
