data_PCOD8152013
_publ_section_title
;
Structure prediction by ZEFSAII (Michael W. Deem and Ramdas Pophale) SiO2 
 PCOD8152013
Probable space group: C 2/C
;
_chemical_formula_sum "Si O2"
_cell_formula_units_Z 48
_cell_length_a 17.271519
_cell_length_b 14.689866
_cell_length_c 17.479202
_cell_angle_alpha 90.000000
_cell_angle_beta 32.113535
_cell_angle_gamma 90.000000
_cell_volume 2357.511743
_symmetry_space_group_name_H-M "C 2/C"
_symmetry_group_IT_number 15
_symmetry_cell_setting 'monoclinic'
loop_
_space_group_symop_operation_xyz
x,y,z
-x,y,1/2-z
-x,-y,-z
x,-y,1/2+z
1/2+x,1/2+y,z
1/2-x,1/2+y,1/2-z
1/2-x,1/2-y,-z
1/2+x,1/2-y,1/2+z
loop_
_atom_site_type_symbol
_atom_site_label
_atom_site_fract_x
_atom_site_fract_y
_atom_site_fract_z
Si Si1 0.360694 0.332970 0.227747
Si Si2 0.766502 0.159993 0.637349
Si Si3 0.140763 0.992260 0.677539
Si Si4 0.469668 0.303082 0.688135
Si Si5 0.196546 0.799575 0.968380
Si Si6 0.331023 0.994469 0.877639
O O1 0.350273 0.351561 0.146648
O O2 0.309339 0.427035 0.309366
O O3 0.251868 0.254385 0.347506
O O4 0.522756 0.302775 0.113838
O O5 0.636114 0.229985 0.760709
O O6 0.877650 0.200677 0.482896
O O7 0.699928 0.064851 0.664634
O O8 0.265681 0.967883 0.511935
O O9 0.000000 0.027880 0.750000
O O10 0.102048 0.903003 0.759103
O O11 0.500000 0.276236 0.750000
O O12 0.258044 0.900811 0.913550
O O13 0.250000 0.750000 0.000000
O O14 0.500000 0.979361 0.750000
#
# Coordination Sequence:
#
# PCOD8152013 Si02
#       6
#     8   8   8   8   8   8
#     4  12  25  42  67 100 136 167 215 279 331 384
#     4  12  26  42  65 101 135 170 214 274 336 379
#     4  11  21  45  68  93 124 173 227 260 321 396
#     4  11  23  43  68  93 127 180 221 261 318 404
#     4  12  23  44  71  96 130 175 222 266 322 393
#     4  12  25  43  70  99 126 174 226 269 320 395
#
# _framework density 20.360448999999999
#
# number of rings (size 3 to 8) (size 9 to 14) (size 15 to 20)
#    0.000    0.333    6.667    3.500    2.333    4.000 
#    0.000    0.833    0.000    0.000    0.000    0.000 
#    0.000    0.000    0.000    0.000    0.000    0.000 
#
# Total GULP energy -297757.977356 kJ/mol
# GULP energy per Si atom -12406.582390 kJ/mol
# Density = 2.031411 g / cm^3
# Si number density = 20.360449 Si / 1000 Ang^3
#
#
#
# Elastic Constant Matrix: (Units=GPa)
#
#
# Indices 1 2 3 4 5 6 
#
# 1 84.0726 28.9729 6.2022 -0.0003 13.7097 -0.0008
# 2 28.9729 118.6010 11.8021 -0.0015 -4.8026 -0.0002
# 3 6.2022 11.8021 76.3955 -0.0026 -1.9976 -0.0005
# 4 -0.0003 -0.0015 -0.0026 31.4490 0.0003 -1.9159
# 5 13.7097 -4.8026 -1.9976 0.0003 30.7614 0.0008
# 6 -0.0008 -0.0002 -0.0005 -1.9159 0.0008 15.1460
#
#
#
# Elastic Compliance Matrix: (Units=1/GPa)
#
#
# Indices 1 2 3 4 5 6 
#
# 1 0.014382 -0.003721 -0.000777 0.000000 -0.007041 0.000001
# 2 -0.003721 0.009575 -0.001096 0.000000 0.003082 0.000000
# 3 -0.000777 -0.001096 0.013349 0.000001 0.001042 0.000000
# 4 0.000000 0.000000 0.000001 0.032044 0.000000 0.004054
# 5 -0.007041 0.003082 0.001042 0.000000 0.036195 -0.000002
# 6 0.000001 0.000000 0.000000 0.004054 -0.000002 0.066537
#
#
# Mechanical properties :
#
#
# Convention : Reuss Voigt Hill
#
# Bulk Modulus (GPa) = 38.28875 41.44703 39.86789
# Shear Modulus (GPa) = 26.04462 30.94407 28.49435
#
# Velocity S-wave (km/s) = 3.58044 3.90271 3.74504
# Velocity P-wave (km/s) = 5.99491 6.38036 6.19064
#
# Compressibility (1/GPa) = 0.02611733
#
# Stress axis : x y z
#
# Youngs Moduli (GPa) = 69.52918 104.44277 74.90925
#
# Poissons Ratio (x) = 0.38866 0.05819
# Poissons Ratio (y) = 0.25874 0.08213
# Poissons Ratio (z) = 0.05402 0.11452
#
# Static dielectric constant tensor:
#      x y z
#    x 3.552850 0.000000 -0.028080 
#    y 0.000000 3.804430 0.000000 
#    z -0.028080 0.000000 4.101990 
# 
# 
# High freq. dielectric constant tensor:
#      x y z
#    x 1.784300 0.000000 -0.000980 
#    y 0.000000 1.809010 0.000000 
#    z -0.000980 0.000000 1.809240 
# 
# From -- ./inp_files/66493.got.cif
#   From: 2010.06.25/outbox.cif.g09.slc.cpg/sg15_34_cif.got.tgz:66493.got - 2010.06.28 07:06:18.
