data_PCOD8152308
_publ_section_title
;
Structure prediction by ZEFSAII (Michael W. Deem and Ramdas Pophale) SiO2 
 PCOD8152308
Probable space group: C 2/C
;
_chemical_formula_sum "Si O2"
_cell_formula_units_Z 40
_cell_length_a 26.891646
_cell_length_b 8.148707
_cell_length_c 22.403654
_cell_angle_alpha 90.000000
_cell_angle_beta 160.305042
_cell_angle_gamma 90.000000
_cell_volume 1654.515484
_symmetry_space_group_name_H-M "C 2/C"
_symmetry_group_IT_number 15
_symmetry_cell_setting 'monoclinic'
loop_
_space_group_symop_operation_xyz
x,y,z
-x,y,1/2-z
-x,-y,-z
x,-y,1/2+z
1/2+x,1/2+y,z
1/2-x,1/2+y,1/2-z
1/2-x,1/2-y,-z
1/2+x,1/2-y,1/2+z
loop_
_atom_site_type_symbol
_atom_site_label
_atom_site_fract_x
_atom_site_fract_y
_atom_site_fract_z
Si Si1 0.226935 0.602655 0.139247
Si Si2 0.128209 0.633334 0.628253
Si Si3 0.535473 0.369512 0.125534
Si Si4 0.842495 0.199572 0.048567
Si Si5 0.225243 0.580092 0.339523
O O1 0.160602 0.447105 0.099878
O O2 0.232029 0.763151 0.187614
O O3 0.390183 0.545668 0.301173
O O4 0.137262 0.655354 0.978176
O O5 0.005531 0.776883 0.482907
O O6 0.104621 0.492927 0.653100
O O7 0.656189 0.243830 0.291255
O O8 0.384854 0.386976 0.991667
O O9 0.000000 0.138332 0.250000
O O10 0.750000 0.250000 0.000000
O O11 0.745792 0.051119 0.913965
#
# Coordination Sequence:
#
# PCOD8152308 Si02
#       5
#     8   8   8   8   8
#     4  11  23  42  73 103 142 183 227 293 346 427
#     4  11  22  40  67 109 144 177 225 284 363 408
#     4  12  22  43  66 109 142 175 227 285 362 411
#     4  11  27  51  73  98 139 191 246 282 345 416
#     4  11  26  42  73 104 142 185 230 290 345 422
#
# _framework density 24.176262000000001
#
# number of rings (size 3 to 8) (size 9 to 14) (size 15 to 20)
#    0.000    0.800    4.000    2.400    2.800    0.000 
#    0.000    5.000    0.000    0.000    0.000    0.000 
#    0.000    0.000    0.000    0.000    0.000    0.000 
#
# Total GULP energy -247788.363256 kJ/mol
# GULP energy per Si atom -12389.418163 kJ/mol
# Density = 2.412124 g / cm^3
# Si number density = 24.176262 Si / 1000 Ang^3
#
#
#
# Elastic Constant Matrix: (Units=GPa)
#
#
# Indices 1 2 3 4 5 6 
#
# 1 99.5323 42.0113 41.5623 0.0003 -12.7261 0.0001
# 2 42.0113 89.4382 11.3637 0.0010 -16.4346 0.0007
# 3 41.5623 11.3637 72.8597 0.0012 -14.0143 0.0009
# 4 0.0003 0.0010 0.0012 38.0872 0.0009 7.1364
# 5 -12.7261 -16.4346 -14.0143 0.0009 42.6529 0.0006
# 6 0.0001 0.0007 0.0009 7.1364 0.0006 42.5256
#
#
#
# Elastic Compliance Matrix: (Units=1/GPa)
#
#
# Indices 1 2 3 4 5 6 
#
# 1 0.016288 -0.006674 -0.008337 0.000000 -0.000451 0.000000
# 2 -0.006674 0.014844 0.002358 0.000000 0.004503 0.000000
# 3 -0.008337 0.002358 0.019011 -0.000001 0.004668 0.000000
# 4 0.000000 0.000000 -0.000001 0.027108 -0.000001 -0.004549
# 5 -0.000451 0.004503 0.004668 -0.000001 0.026579 0.000000
# 6 0.000000 0.000000 0.000000 -0.004549 0.000000 0.024279
#
#
# Mechanical properties :
#
#
# Convention : Reuss Voigt Hill
#
# Bulk Modulus (GPa) = 40.26393 50.18940 45.22666
# Shear Modulus (GPa) = 30.92277 35.77934 33.35105
#
# Velocity S-wave (km/s) = 3.58027 3.85117 3.71819
# Velocity P-wave (km/s) = 5.81219 6.37026 6.09761
#
# Compressibility (1/GPa) = 0.02483613
#
# Stress axis : x y z
#
# Youngs Moduli (GPa) = 61.39540 67.36798 52.60172
#
# Poissons Ratio (x) = 0.44964 0.43855
# Poissons Ratio (y) = 0.40978 -0.12405
# Poissons Ratio (z) = 0.51186 -0.15888
#
# Static dielectric constant tensor:
#      x y z
#    x 4.026430 0.000000 -0.129450 
#    y 0.000000 5.127050 0.000000 
#    z -0.129450 0.000000 4.380300 
# 
# 
# High freq. dielectric constant tensor:
#      x y z
#    x 1.931460 0.000000 0.015420 
#    y 0.000000 1.984670 0.000000 
#    z 0.015420 0.000000 1.966660 
# 
# From -- ./inp_files/284352.got.cif
#   From: 2010.06.25/outbox.cif.g09.slc.cpg/sg15_143_cif.got.tgz:284352.got - 2010.06.28 07:06:18.
