data_PCOD8152650
_publ_section_title
;
Structure prediction by ZEFSAII (Michael W. Deem and Ramdas Pophale) SiO2 
 PCOD8152650
Probable space group: C 2/C
;
_chemical_formula_sum "Si O2"
_cell_formula_units_Z 52
_cell_length_a 18.420267
_cell_length_b 15.821200
_cell_length_c 11.159827
_cell_angle_alpha 90.000000
_cell_angle_beta 126.904982
_cell_angle_gamma 90.000000
_cell_volume 2600.657811
_symmetry_space_group_name_H-M "C 2/C"
_symmetry_group_IT_number 15
_symmetry_cell_setting 'monoclinic'
loop_
_space_group_symop_operation_xyz
x,y,z
-x,y,1/2-z
-x,-y,-z
x,-y,1/2+z
1/2+x,1/2+y,z
1/2-x,1/2+y,1/2-z
1/2-x,1/2-y,-z
1/2+x,1/2-y,1/2+z
loop_
_atom_site_type_symbol
_atom_site_label
_atom_site_fract_x
_atom_site_fract_y
_atom_site_fract_z
Si Si1 0.567981 0.378967 0.128645
Si Si2 0.254426 0.853026 0.911628
Si Si3 0.060657 0.930423 0.696607
Si Si4 0.500000 0.749608 0.750000
Si Si5 0.571037 0.121853 0.504900
Si Si6 0.055143 0.570471 0.922508
Si Si7 0.749855 0.821982 0.314264
O O1 0.565246 0.469555 0.187504
O O2 0.562064 0.308048 0.225462
O O3 0.658289 0.365602 0.140099
O O4 0.480874 0.377635 0.955232
O O5 0.163388 0.904888 0.811802
O O6 0.253669 0.779770 0.808426
O O7 0.339166 0.911382 0.967810
O O8 0.266335 0.828318 0.060798
O O9 0.000000 0.905981 0.750000
O O10 0.435441 0.808339 0.605449
O O11 0.491496 0.130171 0.523797
O O12 0.669067 0.133390 0.662160
O O13 0.552474 0.029651 0.434165
O O14 0.000000 0.596085 0.750000
#
# Coordination Sequence:
#
# PCOD8152650 Si02
#       7
#     8   8   8   4   8   8   8
#     4  11  24  42  67  95 136 170 219 269 336 396
#     4  11  23  40  66  97 127 166 228 272 326 386
#     4  11  22  44  68  95 128 178 221 271 321 406
#     4  12  24  42  62 100 132 176 208 276 344 388
#     4  11  24  42  67  95 136 170 219 269 336 396
#     4  11  22  44  68  95 128 178 221 271 321 406
#     4  11  23  41  62  98 127 169 218 279 329 387
#
# _framework density 19.994942000000002
#
# number of rings (size 3 to 8) (size 9 to 14) (size 15 to 20)
#    0.000    0.923    4.615    2.769    0.000    0.615 
#    0.000    1.538    0.000    0.000    0.000    0.000 
#    0.000    0.000    0.000    0.000    0.000    0.000 
#
# Total GULP energy -322273.243748 kJ/mol
# GULP energy per Si atom -12395.124760 kJ/mol
# Density = 1.994943 g / cm^3
# Si number density = 19.994942 Si / 1000 Ang^3
#
#
#
# Elastic Constant Matrix: (Units=GPa)
#
#
# Indices 1 2 3 4 5 6 
#
# 1 92.9855 36.9823 36.9860 0.0000 17.3953 0.0000
# 2 36.9823 66.8641 46.8125 0.0000 -6.5567 0.0000
# 3 36.9860 46.8125 109.2137 0.0000 15.1810 0.0000
# 4 0.0000 0.0000 0.0000 29.9341 0.0000 -6.8712
# 5 17.3953 -6.5567 15.1810 0.0000 40.0287 0.0000
# 6 0.0000 0.0000 0.0000 -6.8712 0.0000 31.0379
#
#
#
# Elastic Compliance Matrix: (Units=1/GPa)
#
#
# Indices 1 2 3 4 5 6 
#
# 1 0.016312 -0.009776 -0.000133 0.000000 -0.008640 0.000000
# 2 -0.009776 0.029501 -0.011186 0.000000 0.013323 0.000000
# 3 -0.000133 -0.011186 0.015035 0.000000 -0.007477 0.000000
# 4 0.000000 0.000000 0.000000 0.035195 0.000000 0.007791
# 5 -0.008640 0.013323 -0.007477 0.000000 0.033754 0.000000
# 6 0.000000 0.000000 0.000000 0.007791 0.000000 0.033944
#
#
# Mechanical properties :
#
#
# Convention : Reuss Voigt Hill
#
# Bulk Modulus (GPa) = 53.59721 56.73610 55.16665
# Shear Modulus (GPa) = 23.56814 30.08564 26.82689
#
# Velocity S-wave (km/s) = 3.43695 3.88321 3.66687
# Velocity P-wave (km/s) = 6.52792 6.96725 6.75116
#
# Compressibility (1/GPa) = 0.01865769
#
# Stress axis : x y z
#
# Youngs Moduli (GPa) = 61.30614 33.89715 66.50968
#
# Poissons Ratio (x) = 0.33138 0.00883
# Poissons Ratio (y) = 0.59934 0.74400
# Poissons Ratio (z) = 0.00814 0.37918
#
# Static dielectric constant tensor:
#      x y z
#    x 3.586360 0.000000 0.036710 
#    y 0.000000 3.709620 0.000000 
#    z 0.036710 0.000000 3.404060 
# 
# 
# High freq. dielectric constant tensor:
#      x y z
#    x 1.786830 0.000000 -0.000160 
#    y 0.000000 1.789700 0.000000 
#    z -0.000160 0.000000 1.788250 
# 
# From -- ./inp_files/112782.got.cif
#   From: 2010.06.25/outbox.cif.g09.slc.cpg/sg15_57_cif.got.tgz:112782.got - 2010.06.28 07:06:18.
