data_PCOD8152939
_publ_section_title
;
Structure prediction by ZEFSAII (Michael W. Deem and Ramdas Pophale) SiO2 
 PCOD8152939
Probable space group: C 2/C
;
_chemical_formula_sum "Si O2"
_cell_formula_units_Z 64
_cell_length_a 29.767425
_cell_length_b 14.482774
_cell_length_c 8.622209
_cell_angle_alpha 90.000000
_cell_angle_beta 133.059113
_cell_angle_gamma 90.000000
_cell_volume 2715.943732
_symmetry_space_group_name_H-M "C 2/C"
_symmetry_group_IT_number 15
_symmetry_cell_setting 'monoclinic'
loop_
_space_group_symop_operation_xyz
x,y,z
-x,y,1/2-z
-x,-y,-z
x,-y,1/2+z
1/2+x,1/2+y,z
1/2-x,1/2+y,1/2-z
1/2-x,1/2-y,-z
1/2+x,1/2-y,1/2+z
loop_
_atom_site_type_symbol
_atom_site_label
_atom_site_fract_x
_atom_site_fract_y
_atom_site_fract_z
Si Si1 0.160227 0.538871 0.676641
Si Si2 0.533352 0.924930 0.979486
Si Si3 0.821285 0.733045 0.677526
Si Si4 0.498474 0.750178 0.431514
Si Si5 0.365732 0.268810 0.124774
Si Si6 0.147871 0.941023 0.209653
Si Si7 0.895883 0.117710 0.211093
Si Si8 0.214364 0.393699 0.994378
O O1 0.090026 0.517277 0.544000
O O2 0.174425 0.622934 0.829104
O O3 0.200895 0.448514 0.804647
O O4 0.170404 0.566138 0.524014
O O5 0.500000 0.886263 0.750000
O O6 0.545302 0.833827 0.111824
O O7 0.500000 0.000000 0.000000
O O8 0.750000 0.750000 0.500000
O O9 0.852393 0.791477 0.613266
O O10 0.855477 0.764364 0.916946
O O11 0.500000 0.753954 0.250000
O O12 0.566282 0.765131 0.664797
O O13 0.465866 0.653478 0.409908
O O14 0.361453 0.374871 0.165514
O O15 0.309066 0.212546 0.075328
O O16 0.215410 0.917892 0.299093
O O17 0.131880 0.043768 0.232089
O O18 0.102352 0.920526 0.960175
#
# Coordination Sequence:
#
# PCOD8152939 Si02
#       8
#     8   8   8   8   8   8   8   8
#     4  11  23  41  65 104 138 186 228 285 371 433
#     4  12  24  44  74 109 152 196 242 298 368 450
#     4  11  23  44  71 105 144 187 239 305 371 448
#     4  12  26  49  72 106 152 196 254 311 364 450
#     4  11  25  46  71 104 141 193 246 306 379 431
#     4  12  25  47  73 105 142 195 253 317 372 443
#     4  12  26  47  73 106 145 194 257 309 380 447
#     4  11  24  42  69 105 145 184 241 303 370 446
#
# _framework density 23.564553
#
# number of rings (size 3 to 8) (size 9 to 14) (size 15 to 20)
#    0.000    0.500    2.500    7.500    0.000    3.500 
#    0.000    0.000    0.000    0.000    0.000    0.000 
#    0.000    0.000    0.000    0.000    0.000    0.000 
#
# Total GULP energy -396555.526014 kJ/mol
# GULP energy per Si atom -12392.360188 kJ/mol
# Density = 2.351092 g / cm^3
# Si number density = 23.564553 Si / 1000 Ang^3
#
#
#
# Elastic Constant Matrix: (Units=GPa)
#
#
# Indices 1 2 3 4 5 6 
#
# 1 82.5519 11.2678 21.0650 0.0000 6.8370 0.0000
# 2 11.2678 95.2654 16.5439 0.0000 -2.2295 0.0000
# 3 21.0650 16.5439 105.3717 0.0000 7.8519 0.0000
# 4 0.0000 0.0000 0.0000 32.6447 0.0000 0.9327
# 5 6.8370 -2.2295 7.8519 0.0000 34.9350 0.0000
# 6 0.0000 0.0000 0.0000 0.9327 0.0000 49.3336
#
#
#
# Elastic Compliance Matrix: (Units=1/GPa)
#
#
# Indices 1 2 3 4 5 6 
#
# 1 0.013029 -0.001198 -0.002259 0.000000 -0.002119 0.000000
# 2 -0.001198 0.010942 -0.001574 0.000000 0.001287 0.000000
# 3 -0.002259 -0.001574 0.010337 0.000000 -0.001982 0.000000
# 4 0.000000 0.000000 0.000000 0.030649 0.000000 -0.000579
# 5 -0.002119 0.001287 -0.001982 0.000000 0.029567 0.000000
# 6 0.000000 0.000000 0.000000 -0.000579 0.000000 0.020281
#
#
# Mechanical properties :
#
#
# Convention : Reuss Voigt Hill
#
# Bulk Modulus (GPa) = 41.24528 42.32693 41.78611
# Shear Modulus (GPa) = 37.60829 39.00347 38.30588
#
# Velocity S-wave (km/s) = 3.99929 4.07280 4.03621
# Velocity P-wave (km/s) = 6.23433 6.33388 6.28430
#
# Compressibility (1/GPa) = 0.02424520
#
# Stress axis : x y z
#
# Youngs Moduli (GPa) = 76.75199 91.38899 96.74380
#
# Poissons Ratio (x) = 0.10952 0.21851
# Poissons Ratio (y) = 0.09198 0.15230
# Poissons Ratio (z) = 0.17335 0.14387
#
# Static dielectric constant tensor:
#      x y z
#    x 4.234480 0.000000 0.048520 
#    y 0.000000 4.451840 0.000000 
#    z 0.048520 0.000000 4.190290 
# 
# 
# High freq. dielectric constant tensor:
#      x y z
#    x 1.942850 0.000000 0.004400 
#    y 0.000000 1.939930 0.000000 
#    z 0.004400 0.000000 1.926210 
# 
# From -- ./inp_files/70165.got.cif
#   From: 2010.06.25/outbox.cif.g09.slc.cpg/sg15_36_cif.got.tgz:70165.got - 2010.06.28 07:06:18.
