data_PCOD8152790
_publ_section_title
;
Structure prediction by ZEFSAII (Michael W. Deem and Ramdas Pophale) SiO2 
 PCOD8152790
Probable space group: C 2/C
;
_chemical_formula_sum "Si O2"
_cell_formula_units_Z 48
_cell_length_a 10.148520
_cell_length_b 24.308751
_cell_length_c 14.156790
_cell_angle_alpha 90.000000
_cell_angle_beta 44.203743
_cell_angle_gamma 90.000000
_cell_volume 2434.977542
_symmetry_space_group_name_H-M "C 2/C"
_symmetry_group_IT_number 15
_symmetry_cell_setting 'monoclinic'
loop_
_space_group_symop_operation_xyz
x,y,z
-x,y,1/2-z
-x,-y,-z
x,-y,1/2+z
1/2+x,1/2+y,z
1/2-x,1/2+y,1/2-z
1/2-x,1/2-y,-z
1/2+x,1/2-y,1/2+z
loop_
_atom_site_type_symbol
_atom_site_label
_atom_site_fract_x
_atom_site_fract_y
_atom_site_fract_z
Si Si1 0.846631 0.047660 0.250000
Si Si2 0.650777 0.801723 0.599222
Si Si3 0.652669 0.582437 0.750000
Si Si4 0.839430 0.803667 0.910570
Si Si5 0.967300 0.125272 0.030655
Si Si6 0.528609 0.125272 0.469345
O O1 0.901685 0.070493 0.118903
O O2 0.639492 0.070493 0.381097
O O3 0.000000 0.067075 0.250000
O O4 0.835151 0.982734 0.249999
O O5 0.500000 0.776604 0.750000
O O6 0.750000 0.750000 0.500000
O O7 0.792981 0.840280 0.582095
O O8 0.542827 0.840280 0.582097
O O9 0.500000 0.600676 0.750000
O O10 0.854922 0.607244 0.622682
O O11 0.600288 0.607244 0.877317
O O12 0.668307 0.836801 0.954927
O O13 0.000000 0.790647 0.750000
O O14 0.921839 0.836801 0.954927
O O15 0.750000 0.750000 0.000000
#
# Coordination Sequence:
#
# PCOD8152790 Si02
#       6
#     8   8   8   8   8   8
#     4  11  22  47  70  98 137 176 223 279 342 391
#     4  12  26  42  69  95 132 178 227 277 333 396
#     4  11  26  41  70 104 135 178 223 275 332 407
#     4  12  26  46  71  99 134 178 227 281 337 398
#     4  12  23  46  67  99 137 174 222 280 337 392
#     4  12  23  46  67  99 137 174 222 280 337 392
#
# _framework density 19.712707999999999
#
# number of rings (size 3 to 8) (size 9 to 14) (size 15 to 20)
#    0.000    0.333    6.667    2.000    4.667    0.000 
#    0.000    1.667    0.000    0.000    0.000    0.000 
#    0.000    0.000    0.000    0.000    0.000    0.000 
#
# Total GULP energy -297677.446200 kJ/mol
# GULP energy per Si atom -12403.226925 kJ/mol
# Density = 1.966784 g / cm^3
# Si number density = 19.712708 Si / 1000 Ang^3
#
#
#
# Elastic Constant Matrix: (Units=GPa)
#
#
# Indices 1 2 3 4 5 6 
#
# 1 159.3648 63.0578 72.6213 0.0000 -1.8544 0.0000
# 2 63.0578 100.0714 75.2489 0.0000 1.6816 0.0000
# 3 72.6213 75.2489 218.4721 0.0000 10.0063 0.0000
# 4 0.0000 0.0000 0.0000 53.1420 0.0000 10.3905
# 5 -1.8544 1.6816 10.0063 0.0000 38.2867 0.0000
# 6 0.0000 0.0000 0.0000 10.3905 0.0000 -22.2047
#
#
#
# Elastic Compliance Matrix: (Units=1/GPa)
#
#
# Indices 1 2 3 4 5 6 
#
# 1 0.008679 -0.004429 -0.001404 0.000000 0.000982 0.000000
# 2 -0.004429 0.015761 -0.003962 0.000000 0.000129 0.000000
# 3 -0.001404 -0.003962 0.006481 0.000000 -0.001588 0.000000
# 4 0.000000 0.000000 0.000000 0.017240 0.000000 0.008067
# 5 0.000982 0.000129 -0.001588 0.000000 0.026576 0.000000
# 6 0.000000 0.000000 0.000000 0.008067 0.000000 -0.041260
#
#
# Mechanical properties :
#
#
# Convention : Reuss Voigt Hill
#
# Bulk Modulus (GPa) = 88.26252 99.97382 94.11817
# Shear Modulus (GPa) = 87.95839 31.64350 59.80094
#
# Velocity S-wave (km/s) = 6.68708 4.01088 5.51381
# Velocity P-wave (km/s) = 10.22225 8.50148 9.40131
#
# Compressibility (1/GPa) = 0.01132984
#
# Stress axis : x y z
#
# Youngs Moduli (GPa) = 115.22247 63.44710 154.28594
#
# Poissons Ratio (x) = 0.28103 0.21666
# Poissons Ratio (y) = 0.51036 0.61131
# Poissons Ratio (z) = 0.16180 0.25139
#
# Static dielectric constant tensor:
#      x y z
#    x 3.806680 0.000000 0.007660 
#    y 0.000000 3.736580 0.000000 
#    z 0.007660 0.000000 3.862250 
# 
# 
# High freq. dielectric constant tensor:
#      x y z
#    x 1.785800 0.000000 0.000090 
#    y 0.000000 1.780160 0.000000 
#    z 0.000090 0.000000 1.786490 
# 
# From -- ./inp_files/138909.got.cif
#   From: 2010.06.25/outbox.cif.g09.slc.cpg/sg15_70_cif.got.tgz:138909.got - 2010.06.28 07:06:18.
