data_PCOD8152962
_publ_section_title
;
Structure prediction by ZEFSAII (Michael W. Deem and Ramdas Pophale) SiO2 
 PCOD8152962
Probable space group: C 2/C
;
_chemical_formula_sum "Si O2"
_cell_formula_units_Z 56
_cell_length_a 23.232268
_cell_length_b 7.945223
_cell_length_c 21.985991
_cell_angle_alpha 90.000000
_cell_angle_beta 38.212022
_cell_angle_gamma 90.000000
_cell_volume 2510.353589
_symmetry_space_group_name_H-M "C 2/C"
_symmetry_group_IT_number 15
_symmetry_cell_setting 'monoclinic'
loop_
_space_group_symop_operation_xyz
x,y,z
-x,y,1/2-z
-x,-y,-z
x,-y,1/2+z
1/2+x,1/2+y,z
1/2-x,1/2+y,1/2-z
1/2-x,1/2-y,-z
1/2+x,1/2-y,1/2+z
loop_
_atom_site_type_symbol
_atom_site_label
_atom_site_fract_x
_atom_site_fract_y
_atom_site_fract_z
Si Si1 0.190264 0.424914 0.146013
Si Si2 0.842890 0.621861 0.203967
Si Si3 0.966516 0.269061 0.918322
Si Si4 0.707483 0.447109 0.622259
Si Si5 0.403203 0.917302 0.397301
Si Si6 0.387983 0.539547 0.418277
Si Si7 0.805193 0.353915 0.139298
O O1 0.168990 0.534069 0.221768
O O2 0.184198 0.231414 0.171873
O O3 0.105670 0.454846 0.167659
O O4 0.291491 0.472376 0.035641
O O5 0.853578 0.499886 0.137760
O O6 0.749778 0.731008 0.269384
O O7 0.935197 0.736519 0.128624
O O8 0.963859 0.442384 0.881329
O O9 0.958678 0.102163 0.883762
O O10 0.885737 0.260988 0.035560
O O11 0.798746 0.423401 0.506810
O O12 0.628622 0.503216 0.639433
O O13 0.724075 0.583600 0.660642
O O14 0.436864 0.724700 0.382928
#
# Coordination Sequence:
#
# PCOD8152962 Si02
#       7
#     8   8   8   8   8   8   8
#     4   9  17  36  62  92 128 165 204 261 320 387
#     4  12  25  41  64  89 125 175 222 258 325 374
#     4  11  23  41  67  94 128 162 214 267 327 380
#     4   8  17  35  66  90 124 166 205 255 326 382
#     4   8  18  34  63  97 128 159 200 262 332 383
#     4   9  17  37  65  99 124 162 206 261 330 383
#     4  11  24  44  62  88 126 169 214 270 307 385
#
# _framework density 22.307614000000001
#
# number of rings (size 3 to 8) (size 9 to 14) (size 15 to 20)
#    0.000    2.286    1.429    3.000    2.000    2.286 
#    5.143    0.714    0.000    0.000    0.000    0.000 
#    0.000    0.000    0.000    0.000    0.000    0.000 
#
# Total GULP energy -347106.968567 kJ/mol
# GULP energy per Si atom -12396.677449 kJ/mol
# Density = 2.225684 g / cm^3
# Si number density = 22.307614 Si / 1000 Ang^3
#
#
#
# Elastic Constant Matrix: (Units=GPa)
#
#
# Indices 1 2 3 4 5 6 
#
# 1 80.6840 41.4658 19.3240 -0.0046 1.1608 0.0053
# 2 41.4658 109.0696 18.7989 -0.0082 -0.8159 0.0119
# 3 19.3240 18.7989 27.0878 -0.0053 -1.6604 0.0056
# 4 -0.0046 -0.0082 -0.0053 16.3658 0.0022 7.4502
# 5 1.1608 -0.8159 -1.6604 0.0022 22.4641 -0.0021
# 6 0.0053 0.0119 0.0056 7.4502 -0.0021 42.4765
#
#
#
# Elastic Compliance Matrix: (Units=1/GPa)
#
#
# Indices 1 2 3 4 5 6 
#
# 1 0.017101 -0.004990 -0.008842 -0.000001 -0.001718 0.000000
# 2 -0.004990 0.011871 -0.004657 0.000004 0.000345 -0.000003
# 3 -0.008842 -0.004657 0.046686 0.000012 0.003738 -0.000006
# 4 -0.000001 0.000004 0.000012 0.066405 -0.000007 -0.011647
# 5 -0.001718 0.000345 0.003738 -0.000007 0.044893 0.000003
# 6 0.000000 -0.000003 -0.000006 -0.011647 0.000003 0.025585
#
#
# Mechanical properties :
#
#
# Convention : Reuss Voigt Hill
#
# Bulk Modulus (GPa) = 25.85369 41.77989 33.81679
# Shear Modulus (GPa) = 19.05394 25.41146 22.23270
#
# Velocity S-wave (km/s) = 2.92575 3.37877 3.16039
# Velocity P-wave (km/s) = 4.79876 5.83019 5.33944
#
# Compressibility (1/GPa) = 0.03867920
#
# Stress axis : x y z
#
# Youngs Moduli (GPa) = 58.47600 84.23904 21.41984
#
# Poissons Ratio (x) = 0.42038 0.18939
# Poissons Ratio (y) = 0.29182 0.09976
# Poissons Ratio (z) = 0.51702 0.39232
#
# Static dielectric constant tensor:
#      x y z
#    x 4.042620 -0.000020 0.104860 
#    y -0.000020 4.459650 0.000010 
#    z 0.104860 0.000010 3.833090 
# 
# 
# High freq. dielectric constant tensor:
#      x y z
#    x 1.866570 0.000000 0.002570 
#    y 0.000000 1.876280 0.000000 
#    z 0.002570 0.000000 1.871730 
# 
# From -- ./inp_files/251840.got.cif
#   From: 2010.06.25/outbox.cif.g09.slc.cpg/sg15_126_cif.got.tgz:251840.got - 2010.06.28 07:06:18.
