data_PCOD8152062
_publ_section_title
;
Structure prediction by ZEFSAII (Michael W. Deem and Ramdas Pophale) SiO2 
 PCOD8152062
Probable space group: C 2/C
;
_chemical_formula_sum "Si O2"
_cell_formula_units_Z 64
_cell_length_a 21.068043
_cell_length_b 19.891713
_cell_length_c 9.227049
_cell_angle_alpha 90.000000
_cell_angle_beta 101.082265
_cell_angle_gamma 90.000000
_cell_volume 3794.758234
_symmetry_space_group_name_H-M "C 2/C"
_symmetry_group_IT_number 15
_symmetry_cell_setting 'monoclinic'
loop_
_space_group_symop_operation_xyz
x,y,z
-x,y,1/2-z
-x,-y,-z
x,-y,1/2+z
1/2+x,1/2+y,z
1/2-x,1/2+y,1/2-z
1/2-x,1/2-y,-z
1/2+x,1/2-y,1/2+z
loop_
_atom_site_type_symbol
_atom_site_label
_atom_site_fract_x
_atom_site_fract_y
_atom_site_fract_z
Si Si1 0.853544 0.425153 0.144928
Si Si2 0.452644 0.829521 0.596740
Si Si3 0.651692 0.061217 0.514588
Si Si4 0.250602 0.150687 0.421721
Si Si5 0.155929 0.224037 0.561659
Si Si6 0.453161 0.189893 0.610888
Si Si7 0.846678 0.229746 0.615195
Si Si8 0.749395 0.646163 0.094876
O O1 0.844546 0.441875 0.309981
O O2 0.909248 0.369598 0.155602
O O3 0.871652 0.490513 0.060492
O O4 0.787040 0.399101 0.046233
O O5 0.500000 0.838042 0.750000
O O6 0.399867 0.887437 0.572024
O O7 0.498556 0.841559 0.482385
O O8 0.415418 0.757376 0.584865
O O9 0.722232 0.083666 0.485142
O O10 0.181697 0.165338 0.467627
O O11 0.291174 0.217771 0.415665
O O12 0.239452 0.120495 0.255999
O O13 0.087922 0.249702 0.472393
O O14 0.145023 0.198282 0.720569
O O15 0.500000 0.222536 0.750000
O O16 0.797840 0.291734 0.603062
O O17 0.819706 0.170964 0.498939
#
# Coordination Sequence:
#
# PCOD8152062 Si02
#       8
#     8   8   8   8   8   8   8   8
#     4  11  23  36  51  69  97 133 173 212 248 289
#     4  11  22  35  50  71 102 138 170 203 241 294
#     4  11  23  36  51  69  97 133 173 212 247 290
#     4   9  18  31  50  71  92 121 160 207 255 293
#     4   9  17  30  49  69  96 124 158 204 250 294
#     4  11  22  35  48  72 103 136 172 203 244 291
#     4   9  17  30  49  70  94 125 159 202 251 293
#     4   9  18  31  50  71  92 120 162 206 254 296
#
# _framework density 16.865368
#
# number of rings (size 3 to 8) (size 9 to 14) (size 15 to 20)
#    0.000    2.000    2.500    1.500    5.250    4.000 
#    0.000    0.000    0.000    0.000    0.000    0.000 
#    0.000    2.000    0.000    0.125    0.000    0.125 
#
# Total GULP energy -396639.471590 kJ/mol
# GULP energy per Si atom -12394.983487 kJ/mol
# Density = 1.682698 g / cm^3
# Si number density = 16.865368 Si / 1000 Ang^3
#
#
#
# Elastic Constant Matrix: (Units=GPa)
#
#
# Indices 1 2 3 4 5 6 
#
# 1 63.4506 35.7276 43.4141 0.0000 4.6511 0.0000
# 2 35.7276 26.0554 26.7304 0.0000 6.5947 0.0000
# 3 43.4141 26.7304 138.2085 0.0000 10.4904 0.0000
# 4 0.0000 0.0000 0.0000 21.0795 0.0000 -4.3184
# 5 4.6511 6.5947 10.4904 0.0000 28.1494 0.0000
# 6 0.0000 0.0000 0.0000 -4.3184 0.0000 14.2225
#
#
#
# Elastic Compliance Matrix: (Units=1/GPa)
#
#
# Indices 1 2 3 4 5 6 
#
# 1 0.075539 -0.101746 -0.005055 0.000000 0.013239 0.000000
# 2 -0.101746 0.186737 -0.002173 0.000000 -0.026127 0.000000
# 3 -0.005055 -0.002173 0.009408 0.000000 -0.002162 0.000000
# 4 0.000000 0.000000 0.000000 0.050586 0.000000 0.015359
# 5 0.013239 -0.026127 -0.002162 0.000000 0.040264 0.000000
# 6 0.000000 0.000000 0.000000 0.015359 0.000000 0.074975
#
#
# Mechanical properties :
#
#
# Convention : Reuss Voigt Hill
#
# Bulk Modulus (GPa) = 18.60909 48.82876 33.71893
# Shear Modulus (GPa) = 7.42536 20.81312 14.11924
#
# Velocity S-wave (km/s) = 2.10054 3.51675 2.89653
# Velocity P-wave (km/s) = 4.11593 6.74574 5.58775
#
# Compressibility (1/GPa) = 0.05373717
#
# Stress axis : x y z
#
# Youngs Moduli (GPa) = 13.23811 5.35512 106.29682
#
# Poissons Ratio (x) = 0.54486 0.53734
# Poissons Ratio (y) = 1.34692 0.23095
# Poissons Ratio (z) = 0.06692 0.01163
#
# Static dielectric constant tensor:
#      x y z
#    x 3.223890 0.000000 -0.031450 
#    y 0.000000 2.896110 0.000000 
#    z -0.031450 0.000000 3.337360 
# 
# 
# High freq. dielectric constant tensor:
#      x y z
#    x 1.636640 0.000000 -0.003790 
#    y 0.000000 1.602010 0.000000 
#    z -0.003790 0.000000 1.675530 
# 
# From -- ./inp_files/57547.got.cif
#   From: 2010.06.25/outbox.cif.g09.slc.cpg/sg15_29_cif.got.tgz:57547.got - 2010.06.28 07:06:18.
