data_PCOD8152735
_publ_section_title
;
Structure prediction by ZEFSAII (Michael W. Deem and Ramdas Pophale) SiO2 
 PCOD8152735
Probable space group: C 2/C
;
_chemical_formula_sum "Si O2"
_cell_formula_units_Z 56
_cell_length_a 11.334393
_cell_length_b 19.602629
_cell_length_c 11.071503
_cell_angle_alpha 90.000000
_cell_angle_beta 89.385467
_cell_angle_gamma 90.000000
_cell_volume 2459.768234
_symmetry_space_group_name_H-M "C 2/C"
_symmetry_group_IT_number 15
_symmetry_cell_setting 'monoclinic'
loop_
_space_group_symop_operation_xyz
x,y,z
-x,y,1/2-z
-x,-y,-z
x,-y,1/2+z
1/2+x,1/2+y,z
1/2-x,1/2+y,1/2-z
1/2-x,1/2-y,-z
1/2+x,1/2-y,1/2+z
loop_
_atom_site_type_symbol
_atom_site_label
_atom_site_fract_x
_atom_site_fract_y
_atom_site_fract_z
Si Si1 0.129758 0.790899 0.037008
Si Si2 0.000000 0.976931 0.750000
Si Si3 0.243467 0.581861 0.004191
Si Si4 0.927606 0.137745 0.420264
Si Si5 0.815066 0.947721 0.117347
Si Si6 0.794936 0.376948 0.726780
Si Si7 0.871503 0.525423 0.706449
Si Si8 0.000000 0.284793 0.750000
O O1 0.023399 0.800452 0.937326
O O2 0.250000 0.750000 0.000000
O O3 0.166603 0.868462 0.067223
O O4 0.072620 0.760357 0.156248
O O5 0.993299 0.929107 0.868627
O O6 0.890826 0.027082 0.731334
O O7 0.130986 0.569897 0.916534
O O8 0.305712 0.509608 0.022564
O O9 0.204607 0.620376 0.127064
O O10 0.866774 0.118766 0.549841
O O11 0.825099 0.157295 0.324518
O O12 0.688907 0.933140 0.181677
O O13 0.806014 0.453764 0.678101
O O14 0.905260 0.331982 0.681134
O O15 0.000000 0.507425 0.750000
#
# Coordination Sequence:
#
# PCOD8152735 Si02
#       8
#     8   4   8   8   8   8   8   4
#     4  12  28  49  71  98 144 198 248 303 358 431
#     4  12  20  37  68 108 137 178 214 296 366 440
#     4  11  22  45  71 105 142 183 241 292 374 418
#     4  12  24  42  74 108 138 182 240 300 363 436
#     4  11  23  38  69 114 144 173 233 301 376 426
#     4  11  23  45  75 105 144 195 241 292 369 450
#     4  11  24  41  70 109 151 188 226 300 368 444
#     4  12  28  49  70 100 143 202 250 296 354 432
#
# _framework density 22.766373999999999
#
# number of rings (size 3 to 8) (size 9 to 14) (size 15 to 20)
#    0.000    0.571    7.857    0.429    4.000    4.000 
#    0.000    1.429    0.000    0.000    0.000    0.000 
#    0.000    0.000    0.000    0.000    0.000    0.000 
#
# Total GULP energy -346943.649196 kJ/mol
# GULP energy per Si atom -12390.844614 kJ/mol
# Density = 2.271456 g / cm^3
# Si number density = 22.766374 Si / 1000 Ang^3
#
#
#
# Elastic Constant Matrix: (Units=GPa)
#
#
# Indices 1 2 3 4 5 6 
#
# 1 141.0494 42.5657 59.0445 0.0000 12.9866 0.0000
# 2 42.5657 52.5598 50.4027 0.0000 2.3015 0.0000
# 3 59.0445 50.4027 115.7955 0.0000 5.3788 0.0000
# 4 0.0000 0.0000 0.0000 22.8353 0.0000 8.3603
# 5 12.9866 2.3015 5.3788 0.0000 46.6373 0.0000
# 6 0.0000 0.0000 0.0000 8.3603 0.0000 38.9587
#
#
#
# Elastic Compliance Matrix: (Units=1/GPa)
#
#
# Indices 1 2 3 4 5 6 
#
# 1 0.010062 -0.005545 -0.002614 0.000000 -0.002227 0.000000
# 2 -0.005545 0.035713 -0.012776 0.000000 0.001255 0.000000
# 3 -0.002614 -0.012776 0.015550 0.000000 -0.000435 0.000000
# 4 0.000000 0.000000 0.000000 0.047526 0.000000 -0.010199
# 5 -0.002227 0.001255 -0.000435 0.000000 0.022050 0.000000
# 6 0.000000 0.000000 0.000000 -0.010199 0.000000 0.027857
#
#
# Mechanical properties :
#
#
# Convention : Reuss Voigt Hill
#
# Bulk Modulus (GPa) = 51.39780 68.15894 59.77837
# Shear Modulus (GPa) = 24.14145 32.17906 28.16026
#
# Velocity S-wave (km/s) = 3.25991 3.76366 3.52081
# Velocity P-wave (km/s) = 6.06585 6.99216 6.54541
#
# Compressibility (1/GPa) = 0.01945609
#
# Stress axis : x y z
#
# Youngs Moduli (GPa) = 99.38165 28.00090 64.30910
#
# Poissons Ratio (x) = 0.15526 0.16809
# Poissons Ratio (y) = 0.55106 0.82161
# Poissons Ratio (z) = 0.25976 0.35774
#
# Static dielectric constant tensor:
#      x y z
#    x 4.419150 0.000000 0.026960 
#    y 0.000000 3.931650 0.000000 
#    z 0.026960 0.000000 4.010560 
# 
# 
# High freq. dielectric constant tensor:
#      x y z
#    x 1.911310 0.000000 0.004850 
#    y 0.000000 1.862660 0.000000 
#    z 0.004850 0.000000 1.894840 
# 
# From -- ./inp_files/89078.got.cif
#   From: 2010.06.25/outbox.cif.g09.slc.cpg/sg15_45_cif.got.tgz:89078.got - 2010.06.28 07:06:18.
