data_PCOD8152730
_publ_section_title
;
Structure prediction by ZEFSAII (Michael W. Deem and Ramdas Pophale) SiO2 
 PCOD8152730
Probable space group: C 2/C
;
_chemical_formula_sum "Si O2"
_cell_formula_units_Z 40
_cell_length_a 8.703323
_cell_length_b 20.128848
_cell_length_c 9.786882
_cell_angle_alpha 90.000000
_cell_angle_beta 99.425373
_cell_angle_gamma 90.000000
_cell_volume 1691.396189
_symmetry_space_group_name_H-M "C 2/C"
_symmetry_group_IT_number 15
_symmetry_cell_setting 'monoclinic'
loop_
_space_group_symop_operation_xyz
x,y,z
-x,y,1/2-z
-x,-y,-z
x,-y,1/2+z
1/2+x,1/2+y,z
1/2-x,1/2+y,1/2-z
1/2-x,1/2-y,-z
1/2+x,1/2-y,1/2+z
loop_
_atom_site_type_symbol
_atom_site_label
_atom_site_fract_x
_atom_site_fract_y
_atom_site_fract_z
Si Si1 0.323919 0.519010 0.753300
Si Si2 0.446250 0.682873 0.087838
Si Si3 0.522347 0.173898 0.598738
Si Si4 0.202017 0.572556 0.016663
Si Si5 0.863656 0.839567 0.133488
O O1 0.500000 0.491527 0.750000
O O2 0.208836 0.468848 0.657648
O O3 0.312573 0.591032 0.688498
O O4 0.267633 0.525615 0.902901
O O5 0.500000 0.674742 0.250000
O O6 0.421523 0.760589 0.044479
O O7 0.292335 0.642092 0.035822
O O8 0.577428 0.650089 0.010916
O O9 0.500000 0.154139 0.750000
O O10 0.472683 0.103918 0.518846
O O11 0.700253 0.199455 0.600869
O O12 0.000000 0.806649 0.250000
#
# Coordination Sequence:
#
# PCOD8152730 Si02
#       5
#     8   8   8   8   8
#     4  11  23  41  72  95 136 179 227 271 334 398
#     4  11  24  42  71 101 134 177 226 273 333 405
#     4  11  23  44  68 103 137 174 222 281 339 397
#     4  12  24  43  70  99 136 177 224 279 334 393
#     4  11  22  45  70  97 134 181 220 276 338 396
#
# _framework density 23.649101999999999
#
# number of rings (size 3 to 8) (size 9 to 14) (size 15 to 20)
#    0.000    0.800    6.000    2.400    2.800    2.400 
#    0.000    1.000    0.000    0.000    0.000    0.000 
#    0.000    0.000    0.000    0.000    0.000    0.000 
#
# Total GULP energy -247784.193947 kJ/mol
# GULP energy per Si atom -12389.209697 kJ/mol
# Density = 2.359528 g / cm^3
# Si number density = 23.649102 Si / 1000 Ang^3
#
#
#
# Elastic Constant Matrix: (Units=GPa)
#
#
# Indices 1 2 3 4 5 6 
#
# 1 93.5817 2.1573 33.7977 0.0000 7.3587 0.0000
# 2 2.1573 66.0726 30.3782 0.0000 18.4441 0.0000
# 3 33.7977 30.3782 106.4711 0.0000 -0.8689 0.0000
# 4 0.0000 0.0000 0.0000 -43.7647 0.0000 51.3787
# 5 7.3587 18.4441 -0.8689 0.0000 25.3058 0.0000
# 6 0.0000 0.0000 0.0000 51.3787 0.0000 17.9898
#
#
#
# Elastic Compliance Matrix: (Units=1/GPa)
#
#
# Indices 1 2 3 4 5 6 
#
# 1 0.013055 0.003931 -0.005322 0.000000 -0.006844 0.000000
# 2 0.003931 0.024122 -0.008286 0.000000 -0.019009 0.000000
# 3 -0.005322 -0.008286 0.013511 0.000000 0.008050 0.000000
# 4 0.000000 0.000000 0.000000 -0.005249 0.000000 0.014992
# 5 -0.006844 -0.019009 0.008050 0.000000 0.055638 0.000000
# 6 0.000000 0.000000 0.000000 0.014992 0.000000 0.012770
#
#
# Mechanical properties :
#
#
# Convention : Reuss Voigt Hill
#
# Bulk Modulus (GPa) = 31.91161 44.31022 38.11091
# Shear Modulus (GPa) = 34.80786 13.22565 24.01675
#
# Velocity S-wave (km/s) = 3.84063 2.36740 3.19022
# Velocity P-wave (km/s) = 5.76110 5.12348 5.45162
#
# Compressibility (1/GPa) = 0.03133656
#
# Stress axis : x y z
#
# Youngs Moduli (GPa) = 76.59681 41.45540 74.01258
#
# Poissons Ratio (x) = -0.16296 0.39387
# Poissons Ratio (y) = -0.30110 0.61323
# Poissons Ratio (z) = 0.40762 0.34348
#
# Static dielectric constant tensor:
#      x y z
#    x 5.771070 0.000000 0.418560 
#    y 0.000000 4.172420 0.000000 
#    z 0.418560 0.000000 4.393600 
# 
# 
# High freq. dielectric constant tensor:
#      x y z
#    x 1.932930 0.000000 0.006070 
#    y 0.000000 1.934660 0.000000 
#    z 0.006070 0.000000 1.933210 
# 
# From -- ./inp_files/23475.got.cif
#   From: 2010.06.25/outbox.cif.g09.slc.cpg/sg15_12_cif.got.tgz:23475.got - 2010.06.28 07:06:18.
