data_PCOD8152663
_publ_section_title
;
Structure prediction by ZEFSAII (Michael W. Deem and Ramdas Pophale) SiO2 
 PCOD8152663
Probable space group: C 2/C
;
_chemical_formula_sum "Si O2"
_cell_formula_units_Z 40
_cell_length_a 10.594547
_cell_length_b 11.587486
_cell_length_c 22.995233
_cell_angle_alpha 90.000000
_cell_angle_beta 37.373931
_cell_angle_gamma 90.000000
_cell_volume 1713.595724
_symmetry_space_group_name_H-M "C 2/C"
_symmetry_group_IT_number 15
_symmetry_cell_setting 'monoclinic'
loop_
_space_group_symop_operation_xyz
x,y,z
-x,y,1/2-z
-x,-y,-z
x,-y,1/2+z
1/2+x,1/2+y,z
1/2-x,1/2+y,1/2-z
1/2-x,1/2-y,-z
1/2+x,1/2-y,1/2+z
loop_
_atom_site_type_symbol
_atom_site_label
_atom_site_fract_x
_atom_site_fract_y
_atom_site_fract_z
Si Si1 0.849085 0.598622 0.504129
Si Si2 0.409481 0.796167 0.394347
Si Si3 0.309627 0.590212 0.356882
Si Si4 0.774164 0.751239 0.344040
Si Si5 0.770514 0.961184 0.570768
O O1 0.740474 0.480905 0.566180
O O2 0.828758 0.694775 0.560917
O O3 0.737437 0.622960 0.483418
O O4 0.094957 0.586134 0.399037
O O5 0.250000 0.750000 0.500000
O O6 0.382027 0.719133 0.346955
O O7 0.639683 0.779493 0.336282
O O8 0.376797 0.928824 0.387407
O O9 0.500000 0.535059 0.250000
O O10 0.798645 0.614251 0.348100
O O11 0.000000 0.805134 0.250000
O O12 0.000000 0.000000 0.500000
#
# Coordination Sequence:
#
# PCOD8152663 Si02
#       5
#     8   8   8   8   8
#     4  11  22  44  69  99 142 183 229 294 361 418
#     4  12  22  48  69  99 147 184 232 305 356 420
#     4  11  23  40  73 102 132 187 238 285 356 432
#     4  12  27  46  69 108 145 185 240 297 355 437
#     4  12  24  45  75  97 136 193 238 293 368 422
#
# _framework density 23.342728999999999
#
# number of rings (size 3 to 8) (size 9 to 14) (size 15 to 20)
#    0.000    0.400    6.000    2.400    2.800    0.800 
#    3.600    0.000    0.000    0.000    0.000    0.000 
#    0.000    0.000    0.000    0.000    0.000    0.000 
#
# Total GULP energy -247931.987700 kJ/mol
# GULP energy per Si atom -12396.599385 kJ/mol
# Density = 2.328960 g / cm^3
# Si number density = 23.342729 Si / 1000 Ang^3
#
#
#
# Elastic Constant Matrix: (Units=GPa)
#
#
# Indices 1 2 3 4 5 6 
#
# 1 149.3394 37.7791 45.1593 0.0002 -26.6415 0.0001
# 2 37.7791 115.8377 11.2082 -0.0002 -0.9684 -0.0001
# 3 45.1593 11.2082 138.7170 -0.0017 -36.9246 -0.0005
# 4 0.0002 -0.0002 -0.0017 7.6659 -0.0003 -10.8441
# 5 -26.6415 -0.9684 -36.9246 -0.0003 29.8844 0.0000
# 6 0.0001 -0.0001 -0.0005 -10.8441 0.0000 35.8305
#
#
#
# Elastic Compliance Matrix: (Units=1/GPa)
#
#
# Indices 1 2 3 4 5 6 
#
# 1 0.008855 -0.002748 -0.000869 0.000000 0.006731 0.000000
# 2 -0.002748 0.009569 -0.000668 0.000000 -0.002964 0.000000
# 3 -0.000869 -0.000668 0.010928 0.000006 0.012706 0.000002
# 4 0.000000 0.000000 0.000006 0.228104 0.000009 0.069036
# 5 0.006731 -0.002964 0.012706 0.000009 0.055066 0.000003
# 6 0.000000 0.000000 0.000002 0.069036 0.000003 0.048803
#
#
# Mechanical properties :
#
#
# Convention : Reuss Voigt Hill
#
# Bulk Modulus (GPa) = 48.11619 65.79857 56.95738
# Shear Modulus (GPa) = 13.26890 35.32602 24.29746
#
# Velocity S-wave (km/s) = 2.38678 3.89442 3.22980
# Velocity P-wave (km/s) = 5.31538 6.96213 6.19373
#
# Compressibility (1/GPa) = 0.02078303
#
# Stress axis : x y z
#
# Youngs Moduli (GPa) = 112.93319 104.50772 91.50856
#
# Poissons Ratio (x) = 0.28714 0.07951
# Poissons Ratio (y) = 0.31029 0.06110
# Poissons Ratio (z) = 0.09813 0.06979
#
# Static dielectric constant tensor:
#      x y z
#    x 4.688980 0.000000 0.046080 
#    y 0.000000 4.478030 0.000000 
#    z 0.046080 0.000000 4.063050 
# 
# 
# High freq. dielectric constant tensor:
#      x y z
#    x 1.929300 0.000000 -0.012310 
#    y 0.000000 1.935410 0.000000 
#    z -0.012310 0.000000 1.904820 
# 
# From -- ./inp_files/292371.got.cif
#   From: 2010.06.25/outbox.cif.g09.slc.cpg/sg15_147_cif.got.tgz:292371.got - 2010.06.28 07:06:18.
