data_PCOD8152187
_publ_section_title
;
Structure prediction by ZEFSAII (Michael W. Deem and Ramdas Pophale) SiO2 
 PCOD8152187
Probable space group: C 2/C
;
_chemical_formula_sum "Si O2"
_cell_formula_units_Z 40
_cell_length_a 8.728932
_cell_length_b 30.164354
_cell_length_c 14.840394
_cell_angle_alpha 90.000000
_cell_angle_beta 28.512813
_cell_angle_gamma 90.000000
_cell_volume 1865.272548
_symmetry_space_group_name_H-M "C 2/C"
_symmetry_group_IT_number 15
_symmetry_cell_setting 'monoclinic'
loop_
_space_group_symop_operation_xyz
x,y,z
-x,y,1/2-z
-x,-y,-z
x,-y,1/2+z
1/2+x,1/2+y,z
1/2-x,1/2+y,1/2-z
1/2-x,1/2-y,-z
1/2+x,1/2-y,1/2+z
loop_
_atom_site_type_symbol
_atom_site_label
_atom_site_fract_x
_atom_site_fract_y
_atom_site_fract_z
Si Si1 0.738264 0.851692 0.045231
Si Si2 0.205741 0.284683 0.730138
Si Si3 0.628684 0.441737 0.583071
Si Si4 0.743880 0.476618 0.195186
Si Si5 0.658214 0.810800 0.400900
O O1 0.500000 0.855456 0.250000
O O2 0.549231 0.845886 0.048331
O O3 0.952581 0.897003 0.929832
O O4 0.960232 0.809851 0.947337
O O5 0.274773 0.232343 0.695234
O O6 0.000000 0.298941 0.750000
O O7 0.023409 0.296568 0.915297
O O8 0.500000 0.434693 0.750000
O O9 0.447608 0.486987 0.643099
O O10 0.023857 0.444533 0.367205
O O11 0.500000 0.452539 0.250000
O O12 0.000000 0.500000 0.000000
O O13 0.000000 0.832884 0.250000
#
# Coordination Sequence:
#
# PCOD8152187 Si02
#       5
#     8   8   8   8   8
#     4  12  24  38  55  85 121 156 197 243 285 336
#     4  11  22  40  61  86 118 154 194 238 287 346
#     4   9  17  33  55  80 107 144 189 236 288 343
#     4   7  13  28  52  78 103 135 178 228 282 341
#     4  11  22  39  62  87 116 155 193 237 290 344
#
# _framework density 21.444586999999999
#
# number of rings (size 3 to 8) (size 9 to 14) (size 15 to 20)
#    0.000    2.400    0.000    7.200    0.000    0.800 
#    0.000    9.000    0.000    0.000    0.000    0.000 
#    0.000    0.000    0.000    0.000    0.000    0.000 
#
# Total GULP energy -247763.682162 kJ/mol
# GULP energy per Si atom -12388.184108 kJ/mol
# Density = 2.139578 g / cm^3
# Si number density = 21.444587 Si / 1000 Ang^3
#
#
#
# Elastic Constant Matrix: (Units=GPa)
#
#
# Indices 1 2 3 4 5 6 
#
# 1 76.0866 23.1119 28.8057 0.0000 -5.2431 0.0000
# 2 23.1119 59.7479 20.6033 0.0000 -6.1358 0.0000
# 3 28.8057 20.6033 103.2378 0.0000 2.4958 0.0000
# 4 0.0000 0.0000 0.0000 37.2811 0.0000 0.5808
# 5 -5.2431 -6.1358 2.4958 0.0000 46.8554 0.0000
# 6 0.0000 0.0000 0.0000 0.5808 0.0000 7.6392
#
#
#
# Elastic Compliance Matrix: (Units=1/GPa)
#
#
# Indices 1 2 3 4 5 6 
#
# 1 0.016050 -0.004848 -0.003543 0.000000 0.001350 0.000000
# 2 -0.004848 0.019747 -0.002641 0.000000 0.002184 0.000000
# 3 -0.003543 -0.002641 0.011235 0.000000 -0.001341 0.000000
# 4 0.000000 0.000000 0.000000 0.026855 0.000000 -0.002042
# 5 0.001350 0.002184 -0.001341 0.000000 0.021851 0.000000
# 6 0.000000 0.000000 0.000000 -0.002042 0.000000 0.131060
#
#
# Mechanical properties :
#
#
# Convention : Reuss Voigt Hill
#
# Bulk Modulus (GPa) = 40.05304 42.67935 41.36620
# Shear Modulus (GPa) = 19.44127 29.45856 24.44991
#
# Velocity S-wave (km/s) = 3.01422 3.71037 3.38026
# Velocity P-wave (km/s) = 5.55266 6.18880 5.87934
#
# Compressibility (1/GPa) = 0.02496690
#
# Stress axis : x y z
#
# Youngs Moduli (GPa) = 62.30502 50.63964 89.01088
#
# Poissons Ratio (x) = 0.24550 0.31541
# Poissons Ratio (y) = 0.30206 0.23509
# Poissons Ratio (z) = 0.22077 0.13374
#
# Static dielectric constant tensor:
#      x y z
#    x 6.321760 0.000000 -2.226960 
#    y 0.000000 5.251080 0.000000 
#    z -2.226960 0.000000 5.424310 
# 
# 
# High freq. dielectric constant tensor:
#      x y z
#    x 1.818790 0.000000 -0.014130 
#    y 0.000000 1.830570 0.000000 
#    z -0.014130 0.000000 1.854750 
# 
# From -- ./inp_files/139695.got.cif
#   From: 2010.06.25/outbox.cif.g09.slc.cpg/sg15_70_cif.got.tgz:139695.got - 2010.06.28 07:06:18.
