data_PCOD8152994
_publ_section_title
;
Structure prediction by ZEFSAII (Michael W. Deem and Ramdas Pophale) SiO2 
 PCOD8152994
Probable space group: C 2/C
;
_chemical_formula_sum "Si O2"
_cell_formula_units_Z 56
_cell_length_a 30.385744
_cell_length_b 8.617892
_cell_length_c 21.528830
_cell_angle_alpha 90.000000
_cell_angle_beta 27.043409
_cell_angle_gamma 90.000000
_cell_volume 2563.204622
_symmetry_space_group_name_H-M "C 2/C"
_symmetry_group_IT_number 15
_symmetry_cell_setting 'monoclinic'
loop_
_space_group_symop_operation_xyz
x,y,z
-x,y,1/2-z
-x,-y,-z
x,-y,1/2+z
1/2+x,1/2+y,z
1/2-x,1/2+y,1/2-z
1/2-x,1/2-y,-z
1/2+x,1/2-y,1/2+z
loop_
_atom_site_type_symbol
_atom_site_label
_atom_site_fract_x
_atom_site_fract_y
_atom_site_fract_z
Si Si1 0.878775 0.868618 0.678329
Si Si2 0.062849 0.565001 0.321232
Si Si3 0.811554 0.213801 0.750352
Si Si4 0.552178 0.231253 0.520592
Si Si5 0.078975 0.082790 0.098792
Si Si6 0.776914 0.654013 0.905812
Si Si7 0.900025 0.207261 0.008570
O O1 0.812745 0.760146 0.804460
O O2 0.880174 0.803359 0.606774
O O3 0.987863 0.864933 0.567817
O O4 0.837836 0.040626 0.737073
O O5 0.125852 0.661738 0.290509
O O6 0.140355 0.473192 0.180160
O O7 0.994268 0.434476 0.438864
O O8 0.988697 0.678287 0.378926
O O9 0.839912 0.250118 0.642982
O O10 0.697173 0.232986 0.903017
O O11 0.559383 0.255524 0.586317
O O12 0.000000 0.056478 0.250000
O O13 0.181821 0.067240 0.002132
O O14 0.069872 0.957079 0.056235
O O15 0.750000 0.750000 0.000000
#
# Coordination Sequence:
#
# PCOD8152994 Si02
#       7
#     8   8   8   8   8   8   8
#     4  11  24  42  71 101 144 188 235 298 365 430
#     4  11  25  44  70 106 143 184 236 301 353 429
#     4  12  23  41  67 104 146 177 237 302 358 423
#     4  11  23  41  72 101 141 184 238 291 358 434
#     4  12  25  47  69 101 141 191 237 298 360 442
#     4  11  26  51  72 101 144 197 245 290 366 439
#     4  12  26  42  71 110 143 185 243 301 369 422
#
# _framework density 21.847650000000002
#
# number of rings (size 3 to 8) (size 9 to 14) (size 15 to 20)
#    0.000    0.571    4.286    4.286    6.000    0.000 
#    2.571    2.143    0.000    0.000    0.000    0.000 
#    0.000    0.000    0.000    0.000    0.000    0.000 
#
# Total GULP energy -347132.718764 kJ/mol
# GULP energy per Si atom -12397.597099 kJ/mol
# Density = 2.179792 g / cm^3
# Si number density = 21.847650 Si / 1000 Ang^3
#
#
#
# Elastic Constant Matrix: (Units=GPa)
#
#
# Indices 1 2 3 4 5 6 
#
# 1 86.2937 44.5990 48.2604 0.0013 -16.7478 -0.0014
# 2 44.5990 112.6521 50.1860 0.0055 -7.9617 -0.0016
# 3 48.2604 50.1860 141.7480 0.0063 -11.7098 -0.0043
# 4 0.0013 0.0055 0.0063 30.3888 -0.0016 -2.2125
# 5 -16.7478 -7.9617 -11.7098 -0.0016 43.2134 -0.0014
# 6 -0.0014 -0.0016 -0.0043 -2.2125 -0.0014 29.3522
#
#
#
# Elastic Compliance Matrix: (Units=1/GPa)
#
#
# Indices 1 2 3 4 5 6 
#
# 1 0.017048 -0.004753 -0.003731 0.000001 0.004720 0.000000
# 2 -0.004753 0.011903 -0.002626 -0.000001 -0.000361 0.000000
# 3 -0.003731 -0.002626 0.009304 -0.000001 0.000591 0.000001
# 4 0.000001 -0.000001 -0.000001 0.033088 0.000001 0.002494
# 5 0.004720 -0.000361 0.000591 0.000001 0.025064 0.000002
# 6 0.000000 0.000000 0.000001 0.002494 0.000002 0.034257
#
#
# Mechanical properties :
#
#
# Convention : Reuss Voigt Hill
#
# Bulk Modulus (GPa) = 62.36875 69.64273 66.00574
# Shear Modulus (GPa) = 31.59970 33.76746 32.68358
#
# Velocity S-wave (km/s) = 3.80724 3.93566 3.87198
# Velocity P-wave (km/s) = 6.92357 7.25247 7.08993
#
# Compressibility (1/GPa) = 0.01603367
#
# Stress axis : x y z
#
# Youngs Moduli (GPa) = 58.65833 84.01249 107.48479
#
# Poissons Ratio (x) = 0.39934 0.40106
# Poissons Ratio (y) = 0.27882 0.28222
# Poissons Ratio (z) = 0.21888 0.22059
#
# Static dielectric constant tensor:
#      x y z
#    x 3.792190 0.000000 -0.280930 
#    y 0.000000 4.109340 0.000040 
#    z -0.280930 0.000040 4.146900 
# 
# 
# High freq. dielectric constant tensor:
#      x y z
#    x 1.848000 0.000000 -0.023130 
#    y 0.000000 1.866960 0.000000 
#    z -0.023130 0.000000 1.865940 
# 
# From -- ./inp_files/258945.got.cif
#   From: 2010.06.25/outbox.cif.g09.slc.cpg/sg15_130_cif.got.tgz:258945.got - 2010.06.28 07:06:18.
