data_PCOD8152639
_publ_section_title
;
Structure prediction by ZEFSAII (Michael W. Deem and Ramdas Pophale) SiO2 
 PCOD8152639
Probable space group: C 2/C
;
_chemical_formula_sum "Si O2"
_cell_formula_units_Z 40
_cell_length_a 30.636133
_cell_length_b 7.859383
_cell_length_c 14.441646
_cell_angle_alpha 90.000000
_cell_angle_beta 149.207814
_cell_angle_gamma 90.000000
_cell_volume 1780.106722
_symmetry_space_group_name_H-M "C 2/C"
_symmetry_group_IT_number 15
_symmetry_cell_setting 'monoclinic'
loop_
_space_group_symop_operation_xyz
x,y,z
-x,y,1/2-z
-x,-y,-z
x,-y,1/2+z
1/2+x,1/2+y,z
1/2-x,1/2+y,1/2-z
1/2-x,1/2-y,-z
1/2+x,1/2-y,1/2+z
loop_
_atom_site_type_symbol
_atom_site_label
_atom_site_fract_x
_atom_site_fract_y
_atom_site_fract_z
Si Si1 0.199609 0.573803 0.262376
Si Si2 0.849292 0.607526 0.648044
Si Si3 0.074891 0.881730 0.599705
Si Si4 0.227761 0.954576 0.286313
Si Si5 0.979811 0.550340 0.106521
O O1 0.205978 0.487248 0.373972
O O2 0.240346 0.761244 0.342718
O O3 0.256391 0.463126 0.294658
O O4 0.100954 0.575653 0.049547
O O5 0.866267 0.804064 0.709388
O O6 0.795604 0.585219 0.456554
O O7 0.942264 0.527150 0.807884
O O8 0.038011 0.731356 0.470943
O O9 0.132103 0.993441 0.635766
O O10 0.000000 0.000000 0.500000
O O11 0.000000 0.578347 0.250000
#
# Coordination Sequence:
#
# PCOD8152639 Si02
#       5
#     8   8   8   8   8
#     4  11  23  42  68  96 134 171 217 273 329 388
#     4  11  23  43  71  92 131 176 216 268 332 386
#     4  11  24  44  65  98 133 170 220 269 325 391
#     4  12  24  42  66  99 132 168 221 272 324 391
#     4  11  22  44  66  93 132 176 216 266 332 388
#
# _framework density 22.470562999999999
#
# number of rings (size 3 to 8) (size 9 to 14) (size 15 to 20)
#    0.000    0.800    2.000    8.400    0.000    0.000 
#    3.600    0.000    0.000    0.000    0.000    0.000 
#    0.000    0.000    0.000    0.000    0.000    0.000 
#
# Total GULP energy -248045.124889 kJ/mol
# GULP energy per Si atom -12402.256244 kJ/mol
# Density = 2.241942 g / cm^3
# Si number density = 22.470563 Si / 1000 Ang^3
#
#
#
# Elastic Constant Matrix: (Units=GPa)
#
#
# Indices 1 2 3 4 5 6 
#
# 1 138.0751 32.7743 16.5812 0.0000 23.5733 0.0000
# 2 32.7743 100.4472 5.2918 0.0000 10.1804 0.0000
# 3 16.5812 5.2918 53.0797 0.0000 7.5211 0.0000
# 4 0.0000 0.0000 0.0000 34.0357 0.0000 15.0643
# 5 23.5733 10.1804 7.5211 0.0000 45.5313 0.0000
# 6 0.0000 0.0000 0.0000 15.0643 0.0000 38.2778
#
#
#
# Elastic Compliance Matrix: (Units=1/GPa)
#
#
# Indices 1 2 3 4 5 6 
#
# 1 0.008656 -0.002353 -0.001955 0.000000 -0.003632 0.000000
# 2 -0.002353 0.010852 -0.000180 0.000000 -0.001178 0.000000
# 3 -0.001955 -0.000180 0.019782 0.000000 -0.002215 0.000000
# 4 0.000000 0.000000 0.000000 0.035578 0.000000 -0.014002
# 5 -0.003632 -0.001178 -0.002215 0.000000 0.024473 0.000000
# 6 0.000000 0.000000 0.000000 -0.014002 0.000000 0.031635
#
#
# Mechanical properties :
#
#
# Convention : Reuss Voigt Hill
#
# Bulk Modulus (GPa) = 32.98719 44.54408 38.76564
# Shear Modulus (GPa) = 33.32067 39.36592 36.34330
#
# Velocity S-wave (km/s) = 3.85497 4.19010 4.02602
# Velocity P-wave (km/s) = 5.87592 6.57842 6.23707
#
# Compressibility (1/GPa) = 0.03031480
#
# Stress axis : x y z
#
# Youngs Moduli (GPa) = 115.52834 92.14732 50.55089
#
# Poissons Ratio (x) = 0.21684 0.09881
# Poissons Ratio (y) = 0.27186 0.00909
# Poissons Ratio (z) = 0.22582 0.01657
#
# Static dielectric constant tensor:
#      x y z
#    x 4.394850 0.000000 0.156870 
#    y 0.000000 4.003780 0.000000 
#    z 0.156870 0.000000 3.960880 
# 
# 
# High freq. dielectric constant tensor:
#      x y z
#    x 1.912190 0.000000 0.010830 
#    y 0.000000 1.881460 0.000000 
#    z 0.010830 0.000000 1.878590 
# 
# From -- ./inp_files/150764.got.cif
#   From: 2010.06.25/outbox.cif.g09.slc.cpg/sg15_76_cif.got.tgz:150764.got - 2010.06.28 07:06:18.
