data_PCOD8152200
_publ_section_title
;
Structure prediction by ZEFSAII (Michael W. Deem and Ramdas Pophale) SiO2 
 PCOD8152200
Probable space group: C 2/C
;
_chemical_formula_sum "Si O2"
_cell_formula_units_Z 40
_cell_length_a 8.988091
_cell_length_b 25.591118
_cell_length_c 8.177968
_cell_angle_alpha 90.000000
_cell_angle_beta 95.363316
_cell_angle_gamma 90.000000
_cell_volume 1872.822497
_symmetry_space_group_name_H-M "C 2/C"
_symmetry_group_IT_number 15
_symmetry_cell_setting 'monoclinic'
loop_
_space_group_symop_operation_xyz
x,y,z
-x,y,1/2-z
-x,-y,-z
x,-y,1/2+z
1/2+x,1/2+y,z
1/2-x,1/2+y,1/2-z
1/2-x,1/2-y,-z
1/2+x,1/2-y,1/2+z
loop_
_atom_site_type_symbol
_atom_site_label
_atom_site_fract_x
_atom_site_fract_y
_atom_site_fract_z
Si Si1 0.838765 0.962216 0.313293
Si Si2 0.834126 0.069967 0.186297
Si Si3 0.663607 0.836185 0.812240
Si Si4 0.821242 0.259234 0.188696
Si Si5 0.841971 0.366781 0.316958
O O1 0.839012 0.947053 0.500363
O O2 0.749236 0.919652 0.204190
O O3 0.000000 0.964973 0.250000
O O4 0.773332 0.020927 0.286799
O O5 0.722412 0.118277 0.198471
O O6 0.000000 0.088966 0.250000
O O7 0.500000 0.817659 0.750000
O O8 0.765026 0.784913 0.806637
O O9 0.651571 0.856535 0.992200
O O10 0.760119 0.317032 0.225213
O O11 0.000000 0.260813 0.250000
O O12 0.750000 0.250000 0.000000
O O13 0.000000 0.377326 0.250000
#
# Coordination Sequence:
#
# PCOD8152200 Si02
#       5
#     8   8   8   8   8
#     4  11  22  39  63  91 122 162 207 257 312 377
#     4  11  22  40  62  91 124 162 208 258 314 379
#     4  12  24  41  65  94 125 166 212 263 318 379
#     4  11  24  44  67  96 130 169 213 265 321 383
#     4  11  24  42  61  90 126 163 206 259 317 378
#
# _framework density 21.358138
#
# number of rings (size 3 to 8) (size 9 to 14) (size 15 to 20)
#    0.000    0.800    0.000   10.800    0.000    3.200 
#    0.000    4.000    0.000    0.000    0.000    0.000 
#    0.000    0.000    0.000    0.000    0.000    0.000 
#
# Total GULP energy -247888.633812 kJ/mol
# GULP energy per Si atom -12394.431691 kJ/mol
# Density = 2.130953 g / cm^3
# Si number density = 21.358138 Si / 1000 Ang^3
#
#
#
# Elastic Constant Matrix: (Units=GPa)
#
#
# Indices 1 2 3 4 5 6 
#
# 1 63.6045 43.8616 16.1545 0.0000 5.5297 0.0000
# 2 43.8616 119.7066 -20.6911 0.0000 -0.2231 0.0000
# 3 16.1545 -20.6911 94.1336 0.0000 2.1275 0.0000
# 4 0.0000 0.0000 0.0000 49.9540 0.0000 6.0178
# 5 5.5297 -0.2231 2.1275 0.0000 37.3401 0.0000
# 6 0.0000 0.0000 0.0000 6.0178 0.0000 5.8893
#
#
#
# Elastic Compliance Matrix: (Units=1/GPa)
#
#
# Indices 1 2 3 4 5 6 
#
# 1 0.024616 -0.010128 -0.006375 0.000000 -0.003343 0.000000
# 2 -0.010128 0.012851 0.004533 0.000000 0.001318 0.000000
# 3 -0.006375 0.004533 0.012708 0.000000 0.000247 0.000000
# 4 0.000000 0.000000 0.000000 0.022829 0.000000 -0.023327
# 5 -0.003343 0.001318 0.000247 0.000000 0.027270 0.000000
# 6 0.000000 0.000000 0.000000 -0.023327 0.000000 0.193635
#
#
# Mechanical properties :
#
#
# Convention : Reuss Voigt Hill
#
# Bulk Modulus (GPa) = 38.11699 39.56606 38.84152
# Shear Modulus (GPa) = 15.30960 34.51131 24.91045
#
# Velocity S-wave (km/s) = 2.68022 4.02411 3.41885
# Velocity P-wave (km/s) = 5.24056 6.33692 5.81464
#
# Compressibility (1/GPa) = 0.02623502
#
# Stress axis : x y z
#
# Youngs Moduli (GPa) = 40.62417 77.81762 78.69071
#
# Poissons Ratio (x) = 0.78811 0.50165
# Poissons Ratio (y) = 0.41143 -0.35669
# Poissons Ratio (z) = 0.25898 -0.35274
#
# Static dielectric constant tensor:
#      x y z
#    x 3.719910 0.000000 -0.046710 
#    y 0.000000 4.656540 0.000000 
#    z -0.046710 0.000000 4.058430 
# 
# 
# High freq. dielectric constant tensor:
#      x y z
#    x 1.826930 0.000000 -0.003790 
#    y 0.000000 1.863790 0.000000 
#    z -0.003790 0.000000 1.856620 
# 
# From -- ./inp_files/23730.got.cif
#   From: 2010.06.25/outbox.cif.g09.slc.cpg/sg15_12_cif.got.tgz:23730.got - 2010.06.28 07:06:18.
