data_PCOD8152622
_publ_section_title
;
Structure prediction by ZEFSAII (Michael W. Deem and Ramdas Pophale) SiO2 
 PCOD8152622
Probable space group: C 2/C
;
_chemical_formula_sum "Si O2"
_cell_formula_units_Z 64
_cell_length_a 16.099392
_cell_length_b 14.360049
_cell_length_c 12.103720
_cell_angle_alpha 90.000000
_cell_angle_beta 89.449601
_cell_angle_gamma 90.000000
_cell_volume 2798.106411
_symmetry_space_group_name_H-M "C 2/C"
_symmetry_group_IT_number 15
_symmetry_cell_setting 'monoclinic'
loop_
_space_group_symop_operation_xyz
x,y,z
-x,y,1/2-z
-x,-y,-z
x,-y,1/2+z
1/2+x,1/2+y,z
1/2-x,1/2+y,1/2-z
1/2-x,1/2-y,-z
1/2+x,1/2-y,1/2+z
loop_
_atom_site_type_symbol
_atom_site_label
_atom_site_fract_x
_atom_site_fract_y
_atom_site_fract_z
Si Si1 0.082745 0.770079 0.950462
Si Si2 0.656513 0.765369 0.686294
Si Si3 0.789074 0.903507 0.176408
Si Si4 0.614936 0.096520 0.349731
Si Si5 0.888421 0.387513 0.222128
Si Si6 0.416520 0.808505 0.440686
Si Si7 0.178471 0.883459 0.791319
Si Si8 0.206908 0.156877 0.064290
O O1 0.112848 0.678537 0.883174
O O2 0.107924 0.862671 0.883297
O O3 0.982704 0.773228 0.964257
O O4 0.125523 0.766429 0.068065
O O5 0.655404 0.672087 0.761216
O O6 0.591114 0.836941 0.746384
O O7 0.744580 0.817608 0.671755
O O8 0.695589 0.877293 0.206521
O O9 0.802963 0.007850 0.214027
O O10 0.807325 0.902762 0.044709
O O11 0.567055 0.114719 0.464762
O O12 0.710629 0.124977 0.371666
O O13 0.595905 0.991786 0.316541
O O14 0.947574 0.354373 0.323512
O O15 0.319254 0.767530 0.458655
O O16 0.142773 0.859062 0.668487
#
# Coordination Sequence:
#
# PCOD8152622 Si02
#       8
#     8   8   8   8   8   8   8   8
#     4  12  28  44  67  98 148 188 223 288 358 426
#     4  11  24  44  67 102 136 179 233 297 345 407
#     4  12  23  41  76 104 131 174 241 302 341 403
#     4  11  24  42  71 104 133 179 239 290 339 412
#     4  12  24  41  71 105 135 174 235 293 347 417
#     4  12  25  48  69  96 146 193 231 276 357 430
#     4  11  25  41  72 106 132 181 234 297 344 409
#     4  11  22  43  73  98 129 183 238 286 340 403
#
# _framework density 22.872613000000001
#
# number of rings (size 3 to 8) (size 9 to 14) (size 15 to 20)
#    0.000    0.500    7.500    1.875    5.250    1.000 
#    2.250    0.625    2.750    0.000    0.000    0.000 
#    0.000    0.000    0.000    0.000    0.000    0.000 
#
# Total GULP energy -396451.218196 kJ/mol
# GULP energy per Si atom -12389.100569 kJ/mol
# Density = 2.282055 g / cm^3
# Si number density = 22.872613 Si / 1000 Ang^3
#
#
#
# Elastic Constant Matrix: (Units=GPa)
#
#
# Indices 1 2 3 4 5 6 
#
# 1 35.2685 -1.7630 -2.3912 0.0000 2.7333 0.0000
# 2 -1.7630 88.5487 -1.0534 0.0000 14.2480 0.0000
# 3 -2.3912 -1.0534 135.1271 0.0000 8.8275 0.0000
# 4 0.0000 0.0000 0.0000 40.7371 0.0000 -7.0207
# 5 2.7333 14.2480 8.8275 0.0000 19.4619 0.0000
# 6 0.0000 0.0000 0.0000 -7.0207 0.0000 22.1200
#
#
#
# Elastic Compliance Matrix: (Units=1/GPa)
#
#
# Indices 1 2 3 4 5 6 
#
# 1 0.028918 0.001479 0.000886 0.000000 -0.005545 0.000000
# 2 0.001479 0.012948 0.000783 0.000000 -0.010042 0.000000
# 3 0.000886 0.000783 0.007696 0.000000 -0.004188 0.000000
# 4 0.000000 0.000000 0.000000 0.025968 0.000000 0.008242
# 5 -0.005545 -0.010042 -0.004188 0.000000 0.061413 0.000000
# 6 0.000000 0.000000 0.000000 0.008242 0.000000 0.047824
#
#
# Mechanical properties :
#
#
# Convention : Reuss Voigt Hill
#
# Bulk Modulus (GPa) = 17.90332 27.61435 22.75884
# Shear Modulus (GPa) = 25.36913 34.07394 29.72153
#
# Velocity S-wave (km/s) = 3.33400 3.86388 3.60868
# Velocity P-wave (km/s) = 4.76079 5.65734 5.22832
#
# Compressibility (1/GPa) = 0.05585557
#
# Stress axis : x y z
#
# Youngs Moduli (GPa) = 34.58100 77.23329 129.94057
#
# Poissons Ratio (x) = -0.11419 -0.11506
# Poissons Ratio (y) = -0.05113 -0.10176
# Poissons Ratio (z) = -0.03062 -0.06048
#
# Static dielectric constant tensor:
#      x y z
#    x 4.048270 0.000000 -0.299360 
#    y 0.000000 3.938620 0.000000 
#    z -0.299360 0.000000 4.620150 
# 
# 
# High freq. dielectric constant tensor:
#      x y z
#    x 1.881850 0.000000 -0.017590 
#    y 0.000000 1.892380 0.000000 
#    z -0.017590 0.000000 1.939550 
# 
# From -- ./inp_files/105729.got.cif
#   From: 2010.06.25/outbox.cif.g09.slc.cpg/sg15_53_cif.got.tgz:105729.got - 2010.06.28 07:06:18.
