data_PCOD8152956
_publ_section_title
;
Structure prediction by ZEFSAII (Michael W. Deem and Ramdas Pophale) SiO2 
 PCOD8152956
Probable space group: C 2/C
;
_chemical_formula_sum "Si O2"
_cell_formula_units_Z 44
_cell_length_a 5.177049
_cell_length_b 28.678657
_cell_length_c 13.711240
_cell_angle_alpha 90.000000
_cell_angle_beta 63.119349
_cell_angle_gamma 90.000000
_cell_volume 1815.760057
_symmetry_space_group_name_H-M "C 2/C"
_symmetry_group_IT_number 15
_symmetry_cell_setting 'monoclinic'
loop_
_space_group_symop_operation_xyz
x,y,z
-x,y,1/2-z
-x,-y,-z
x,-y,1/2+z
1/2+x,1/2+y,z
1/2-x,1/2+y,1/2-z
1/2-x,1/2-y,-z
1/2+x,1/2-y,1/2+z
loop_
_atom_site_type_symbol
_atom_site_label
_atom_site_fract_x
_atom_site_fract_y
_atom_site_fract_z
Si Si1 0.011904 0.950824 0.947538
Si Si2 0.000000 0.699512 0.250000
Si Si3 0.050658 0.336497 0.090452
Si Si4 0.000000 0.992470 0.750000
Si Si5 0.055311 0.433600 0.350172
Si Si6 0.216448 0.855871 0.961315
Si Si7 0.500000 0.757514 0.250000
O O1 0.099724 0.957772 0.819050
O O2 0.240940 0.912895 0.951129
O O3 0.693433 0.930904 0.024934
O O4 0.000000 0.000000 0.000000
O O5 0.220310 0.666830 0.153442
O O6 0.202917 0.728149 0.291112
O O7 0.855435 0.378939 0.171429
O O8 0.985449 0.288285 0.154715
O O9 0.391267 0.343697 0.046809
O O10 0.948629 0.333986 0.996047
O O11 0.784987 0.027769 0.845004
O O12 0.000000 0.451955 0.250000
#
# Coordination Sequence:
#
# PCOD8152956 Si02
#       7
#     8   4   8   4   8   8   4
#     4  11  24  44  67 106 135 196 242 286 355 430
#     4  12  28  47  72 107 144 189 234 291 366 440
#     4  11  25  46  73 105 138 185 237 303 359 415
#     4  12  24  40  72  98 154 186 244 300 352 434
#     4  11  23  41  67 100 140 184 236 305 355 414
#     4  11  27  47  70 101 150 186 233 297 360 423
#     4  12  26  45  78 109 138 183 248 291 360 448
#
# _framework density 24.232277
#
# number of rings (size 3 to 8) (size 9 to 14) (size 15 to 20)
#    0.000    0.727    2.727    3.818    2.545   11.636 
#    0.000    0.000    0.000    0.000    0.000    0.000 
#    0.000    0.000    0.000    0.000    0.000    0.000 
#
# Total GULP energy -272539.934730 kJ/mol
# GULP energy per Si atom -12388.178851 kJ/mol
# Density = 2.417712 g / cm^3
# Si number density = 24.232277 Si / 1000 Ang^3
#
#
#
# Elastic Constant Matrix: (Units=GPa)
#
#
# Indices 1 2 3 4 5 6 
#
# 1 94.9728 35.6922 12.7943 0.0000 11.1105 0.0000
# 2 35.6922 137.1379 45.6454 0.0000 5.7837 0.0000
# 3 12.7943 45.6454 98.8381 0.0000 12.5623 0.0000
# 4 0.0000 0.0000 0.0000 32.2131 0.0000 6.7774
# 5 11.1105 5.7837 12.5623 0.0000 35.9890 0.0000
# 6 0.0000 0.0000 0.0000 6.7774 0.0000 26.2707
#
#
#
# Elastic Compliance Matrix: (Units=1/GPa)
#
#
# Indices 1 2 3 4 5 6 
#
# 1 0.012040 -0.003090 0.000291 0.000000 -0.003322 0.000000
# 2 -0.003090 0.009410 -0.004054 0.000000 0.000857 0.000000
# 3 0.000291 -0.004054 0.012432 0.000000 -0.003778 0.000000
# 4 0.000000 0.000000 0.000000 0.032825 0.000000 -0.008468
# 5 -0.003322 0.000857 -0.003778 0.000000 0.029993 0.000000
# 6 0.000000 0.000000 0.000000 -0.008468 0.000000 0.040250
#
#
# Mechanical properties :
#
#
# Convention : Reuss Voigt Hill
#
# Bulk Modulus (GPa) = 49.56787 57.69029 53.62908
# Shear Modulus (GPa) = 31.76975 34.68236 33.22605
#
# Velocity S-wave (km/s) = 3.62477 3.78729 3.70692
# Velocity P-wave (km/s) = 6.16590 6.55619 6.36404
#
# Compressibility (1/GPa) = 0.02017436
#
# Stress axis : x y z
#
# Youngs Moduli (GPa) = 83.05532 106.27462 80.43442
#
# Poissons Ratio (x) = 0.32842 -0.02339
# Poissons Ratio (y) = 0.25667 0.32612
# Poissons Ratio (z) = -0.02416 0.43088
#
# Static dielectric constant tensor:
#      x y z
#    x 4.146140 0.000000 0.132690 
#    y 0.000000 7.831670 0.000000 
#    z 0.132690 0.000000 3.579950 
# 
# 
# High freq. dielectric constant tensor:
#      x y z
#    x 1.948800 0.000000 0.009740 
#    y 0.000000 1.979040 0.000000 
#    z 0.009740 0.000000 1.960050 
# 
# From -- ./inp_files/130009.got.cif
#   From: 2010.06.25/outbox.cif.g09.slc.cpg/sg15_66_cif.got.tgz:130009.got - 2010.06.28 07:06:18.
