data_PCOD8152318
_publ_section_title
;
Structure prediction by ZEFSAII (Michael W. Deem and Ramdas Pophale) SiO2 
 PCOD8152318
Probable space group: C 2/C
;
_chemical_formula_sum "Si O2"
_cell_formula_units_Z 60
_cell_length_a 17.866313
_cell_length_b 7.199028
_cell_length_c 20.194416
_cell_angle_alpha 90.000000
_cell_angle_beta 82.143524
_cell_angle_gamma 90.000000
_cell_volume 2573.027210
_symmetry_space_group_name_H-M "C 2/C"
_symmetry_group_IT_number 15
_symmetry_cell_setting 'monoclinic'
loop_
_space_group_symop_operation_xyz
x,y,z
-x,y,1/2-z
-x,-y,-z
x,-y,1/2+z
1/2+x,1/2+y,z
1/2-x,1/2+y,1/2-z
1/2-x,1/2-y,-z
1/2+x,1/2-y,1/2+z
loop_
_atom_site_type_symbol
_atom_site_label
_atom_site_fract_x
_atom_site_fract_y
_atom_site_fract_z
Si Si1 0.641443 0.021565 0.768991
Si Si2 0.747408 0.294561 0.831546
Si Si3 0.646069 0.278352 0.074476
Si Si4 0.623628 0.613108 0.431363
Si Si5 0.474801 0.545564 0.384044
Si Si6 0.410476 0.101128 0.950381
Si Si7 0.423905 0.972434 0.589613
Si Si8 0.000000 0.751326 0.750000
O O1 0.704906 0.166414 0.784324
O O2 0.605653 0.902291 0.835064
O O3 0.574559 0.124256 0.737083
O O4 0.681116 0.885452 0.712942
O O5 0.782689 0.170486 0.887750
O O6 0.691041 0.447265 0.872838
O O7 0.568856 0.351537 0.118758
O O8 0.650092 0.052508 0.066523
O O9 0.649688 0.391850 0.004605
O O10 0.544169 0.507055 0.427226
O O11 0.610130 0.824215 0.412363
O O12 0.413053 0.701301 0.414140
O O13 0.509740 0.614756 0.311402
O O14 0.486509 0.985483 0.926988
O O15 0.396161 0.149799 0.030214
#
# Coordination Sequence:
#
# PCOD8152318 Si02
#       8
#     8   8   8   8   8   8   8   4
#     4  11  24  44  65  90 135 177 216 265 333 385
#     4  11  24  43  63  96 132 178 210 267 334 394
#     4  11  23  38  69  99 126 166 226 267 321 388
#     4   9  19  42  64  89 133 173 207 271 333 373
#     4  11  22  40  67  96 131 169 218 269 322 384
#     4   9  17  38  63  95 123 163 212 268 322 367
#     4   8  16  35  64  84 124 171 206 261 322 370
#     4  12  22  44  68  86 134 182 210 266 328 390
#
# _framework density 23.318836000000001
#
# number of rings (size 3 to 8) (size 9 to 14) (size 15 to 20)
#    0.000    1.867    4.000    2.400    1.867    0.000 
#    7.200    0.000    0.000    4.000    0.000    0.000 
#    0.000    0.000    0.000    0.000    0.000    0.000 
#
# Total GULP energy -371704.237853 kJ/mol
# GULP energy per Si atom -12390.141262 kJ/mol
# Density = 2.326576 g / cm^3
# Si number density = 23.318836 Si / 1000 Ang^3
#
#
#
# Elastic Constant Matrix: (Units=GPa)
#
#
# Indices 1 2 3 4 5 6 
#
# 1 108.4102 11.8581 36.4551 0.0000 17.5883 0.0000
# 2 11.8581 34.8970 10.1094 0.0000 8.8644 0.0000
# 3 36.4551 10.1094 102.5816 0.0000 -3.0217 0.0000
# 4 0.0000 0.0000 0.0000 13.6449 0.0000 -4.1367
# 5 17.5883 8.8644 -3.0217 0.0000 44.7029 0.0000
# 6 0.0000 0.0000 0.0000 -4.1367 0.0000 27.0843
#
#
#
# Elastic Compliance Matrix: (Units=1/GPa)
#
#
# Indices 1 2 3 4 5 6 
#
# 1 0.011490 -0.001591 -0.004058 0.000000 -0.004479 0.000000
# 2 -0.001591 0.031452 -0.002705 0.000000 -0.005794 0.000000
# 3 -0.004058 -0.002705 0.011543 0.000000 0.002913 0.000000
# 4 0.000000 0.000000 0.000000 0.076845 0.000000 0.011737
# 5 -0.004479 -0.005794 0.002913 0.000000 0.025478 0.000000
# 6 0.000000 0.000000 0.000000 0.011737 0.000000 0.038714
#
#
# Mechanical properties :
#
#
# Convention : Reuss Voigt Hill
#
# Bulk Modulus (GPa) = 26.47163 40.30376 33.38769
# Shear Modulus (GPa) = 22.23981 29.58419 25.91200
#
# Velocity S-wave (km/s) = 3.09160 3.56572 3.33709
# Velocity P-wave (km/s) = 4.91128 5.85438 5.40344
#
# Compressibility (1/GPa) = 0.03777629
#
# Stress axis : x y z
#
# Youngs Moduli (GPa) = 87.03478 31.79495 86.63282
#
# Poissons Ratio (x) = 0.05058 0.35159
# Poissons Ratio (y) = 0.13844 0.23434
# Poissons Ratio (z) = 0.35322 0.08600
#
# Static dielectric constant tensor:
#      x y z
#    x 4.533690 0.000000 -0.074890 
#    y 0.000000 3.844640 0.000000 
#    z -0.074890 0.000000 4.679740 
# 
# 
# High freq. dielectric constant tensor:
#      x y z
#    x 1.916970 0.000000 -0.000190 
#    y 0.000000 1.878930 0.000000 
#    z -0.000190 0.000000 1.939420 
# 
# From -- ./inp_files/247426.got.cif
#   From: 2010.06.25/outbox.cif.g09.slc.cpg/sg15_124_cif.got.tgz:247426.got - 2010.06.28 07:06:18.
