data_PCOD8152933
_publ_section_title
;
Structure prediction by ZEFSAII (Michael W. Deem and Ramdas Pophale) SiO2 
 PCOD8152933
Probable space group: C 2/C
;
_chemical_formula_sum "Si O2"
_cell_formula_units_Z 56
_cell_length_a 7.721124
_cell_length_b 22.003011
_cell_length_c 18.705493
_cell_angle_alpha 90.000000
_cell_angle_beta 66.044371
_cell_angle_gamma 90.000000
_cell_volume 2904.099892
_symmetry_space_group_name_H-M "C 2/C"
_symmetry_group_IT_number 15
_symmetry_cell_setting 'monoclinic'
loop_
_space_group_symop_operation_xyz
x,y,z
-x,y,1/2-z
-x,-y,-z
x,-y,1/2+z
1/2+x,1/2+y,z
1/2-x,1/2+y,1/2-z
1/2-x,1/2-y,-z
1/2+x,1/2-y,1/2+z
loop_
_atom_site_type_symbol
_atom_site_label
_atom_site_fract_x
_atom_site_fract_y
_atom_site_fract_z
Si Si1 0.125263 0.575678 0.096304
Si Si2 0.500000 0.120521 0.750000
Si Si3 0.500000 0.627253 0.250000
Si Si4 0.595621 0.677831 0.810415
Si Si5 0.407466 0.816481 0.688663
Si Si6 0.619555 0.575843 0.581142
Si Si7 0.374408 0.032682 0.659705
Si Si8 0.370365 0.528289 0.177139
O O1 0.200923 0.559615 0.162396
O O2 0.016654 0.640009 0.114947
O O3 0.978558 0.522267 0.101756
O O4 0.294262 0.579169 0.011888
O O5 0.318123 0.162913 0.770125
O O6 0.521205 0.076167 0.677512
O O7 0.315412 0.669104 0.275823
O O8 0.508002 0.582710 0.179770
O O9 0.500000 0.664340 0.750000
O O10 0.565702 0.747072 0.839718
O O11 0.500494 0.636797 0.887065
O O12 0.500000 0.827060 0.750000
O O13 0.780530 0.573247 0.614284
O O14 0.486400 0.516819 0.607207
O O15 0.213596 0.007982 0.740787
#
# Coordination Sequence:
#
# PCOD8152933 Si02
#       8
#     8   4   4   8   8   8   8   8
#     4  12  23  38  60  94 132 161 196 254 322 369
#     4  12  21  38  68  90 121 148 214 264 294 350
#     4  12  21  38  68  90 121 148 214 264 294 350
#     4  11  23  41  64  89 119 166 217 254 295 359
#     4  11  23  41  64  89 119 166 217 254 295 359
#     4  12  23  38  60  94 132 161 196 254 322 369
#     4  12  20  37  64  91 123 159 203 251 305 368
#     4  12  20  37  64  91 123 159 203 251 305 368
#
# _framework density 19.283083000000001
#
# number of rings (size 3 to 8) (size 9 to 14) (size 15 to 20)
#    0.000    0.286    8.571    1.286    0.000    0.571 
#    0.000    0.000    0.000    1.714    0.000    0.000 
#    0.000    0.000    0.000    0.000    0.000    0.000 
#
# Total GULP energy -347275.266015 kJ/mol
# GULP energy per Si atom -12402.688072 kJ/mol
# Density = 1.923919 g / cm^3
# Si number density = 19.283083 Si / 1000 Ang^3
#
#
#
# Elastic Constant Matrix: (Units=GPa)
#
#
# Indices 1 2 3 4 5 6 
#
# 1 106.4909 37.2993 14.0431 0.0000 -7.5490 0.0000
# 2 37.2993 130.0839 35.6355 0.0000 -14.4564 0.0000
# 3 14.0431 35.6355 72.2018 0.0000 -20.0842 0.0000
# 4 0.0000 0.0000 0.0000 18.2331 0.0000 -0.6198
# 5 -7.5490 -14.4564 -20.0842 0.0000 29.3504 0.0000
# 6 0.0000 0.0000 0.0000 -0.6198 0.0000 29.8665
#
#
#
# Elastic Compliance Matrix: (Units=1/GPa)
#
#
# Indices 1 2 3 4 5 6 
#
# 1 0.010492 -0.002789 -0.000365 0.000000 0.001075 0.000000
# 2 -0.002789 0.009700 -0.003848 0.000000 0.001427 0.000000
# 3 -0.000365 -0.003848 0.018856 0.000000 0.010914 0.000000
# 4 0.000000 0.000000 0.000000 0.054884 0.000000 0.001139
# 5 0.001075 0.001427 0.010914 0.000000 0.042519 0.000000
# 6 0.000000 0.000000 0.000000 0.001139 0.000000 0.033506
#
#
# Mechanical properties :
#
#
# Convention : Reuss Voigt Hill
#
# Bulk Modulus (GPa) = 39.93014 53.63693 46.78353
# Shear Modulus (GPa) = 26.00001 30.27661 28.13831
#
# Velocity S-wave (km/s) = 3.67595 3.96676 3.82412
# Velocity P-wave (km/s) = 6.22648 6.98972 6.61911
#
# Compressibility (1/GPa) = 0.02504374
#
# Stress axis : x y z
#
# Youngs Moduli (GPa) = 95.31409 103.09607 53.03319
#
# Poissons Ratio (x) = 0.28751 0.01936
# Poissons Ratio (y) = 0.26581 0.20407
# Poissons Ratio (z) = 0.03480 0.39670
#
# Static dielectric constant tensor:
#      x y z
#    x 3.688250 0.000000 0.007760 
#    y 0.000000 3.675750 0.000000 
#    z 0.007760 0.000000 3.148720 
# 
# 
# High freq. dielectric constant tensor:
#      x y z
#    x 1.770250 0.000000 -0.001400 
#    y 0.000000 1.757210 0.000000 
#    z -0.001400 0.000000 1.715990 
# 
# From -- ./inp_files/191658.got.cif
#   From: 2010.06.25/outbox.cif.g09.slc.cpg/sg15_96_cif.got.tgz:191658.got - 2010.06.28 07:06:18.
