data_PCOD8152196
_publ_section_title
;
Structure prediction by ZEFSAII (Michael W. Deem and Ramdas Pophale) SiO2 
 PCOD8152196
Probable space group: C 2/C
;
_chemical_formula_sum "Si O2"
_cell_formula_units_Z 48
_cell_length_a 20.105989
_cell_length_b 14.140020
_cell_length_c 18.830076
_cell_angle_alpha 90.000000
_cell_angle_beta 153.331874
_cell_angle_gamma 90.000000
_cell_volume 2402.711444
_symmetry_space_group_name_H-M "C 2/C"
_symmetry_group_IT_number 15
_symmetry_cell_setting 'monoclinic'
loop_
_space_group_symop_operation_xyz
x,y,z
-x,y,1/2-z
-x,-y,-z
x,-y,1/2+z
1/2+x,1/2+y,z
1/2-x,1/2+y,1/2-z
1/2-x,1/2-y,-z
1/2+x,1/2-y,1/2+z
loop_
_atom_site_type_symbol
_atom_site_label
_atom_site_fract_x
_atom_site_fract_y
_atom_site_fract_z
Si Si1 0.771106 0.816501 0.138837
Si Si2 0.457118 0.492901 0.287111
Si Si3 0.332288 0.313275 0.362685
Si Si4 0.544977 0.861362 0.714840
Si Si5 0.764824 0.987639 0.849755
Si Si6 0.345080 0.366489 0.791044
O O1 0.801141 0.819195 0.250297
O O2 0.829800 0.719425 0.160709
O O3 0.850460 0.903188 0.175301
O O4 0.595212 0.820653 0.960847
O O5 0.500000 0.529433 0.250000
O O6 0.599625 0.462600 0.468847
O O7 0.368440 0.577214 0.240447
O O8 0.252471 0.399903 0.326933
O O9 0.506927 0.315628 0.541305
O O10 0.275194 0.214176 0.339327
O O11 0.500000 0.895312 0.750000
O O12 0.611310 0.951536 0.736748
O O13 0.790911 0.939468 0.798821
#
# Coordination Sequence:
#
# PCOD8152196 Si02
#       6
#     8   8   8   8   8   8
#     4  12  21  37  61  87 121 155 198 244 300 353
#     4  11  22  41  64  88 119 160 199 243 298 353
#     4  11  22  39  63  90 115 155 205 246 289 348
#     4  12  25  37  56  90 125 157 193 245 303 356
#     4  11  22  42  62  86 124 157 200 246 289 355
#     4  11  22  41  62  89 121 156 201 245 294 350
#
# _framework density 19.977429000000001
#
# number of rings (size 3 to 8) (size 9 to 14) (size 15 to 20)
#    0.000    0.667    5.000    5.000    0.000    2.000 
#    0.000    4.167    0.000    0.000    0.000    0.000 
#    0.000    0.000    0.000    0.000    0.000    0.000 
#
# Total GULP energy -297773.713501 kJ/mol
# GULP energy per Si atom -12407.238063 kJ/mol
# Density = 1.993196 g / cm^3
# Si number density = 19.977429 Si / 1000 Ang^3
#
#
#
# Elastic Constant Matrix: (Units=GPa)
#
#
# Indices 1 2 3 4 5 6 
#
# 1 131.6192 32.0144 9.2581 0.0005 0.9171 0.0001
# 2 32.0144 71.4718 6.9231 -0.0062 -3.7750 -0.0039
# 3 9.2581 6.9231 31.8411 0.0006 11.6296 0.0003
# 4 0.0005 -0.0062 0.0006 99.8108 -0.0020 49.7042
# 5 0.9171 -3.7750 11.6296 -0.0020 19.8226 -0.0012
# 6 0.0001 -0.0039 0.0003 49.7042 -0.0012 59.8989
#
#
#
# Elastic Compliance Matrix: (Units=1/GPa)
#
#
# Indices 1 2 3 4 5 6 
#
# 1 0.008616 -0.003707 -0.001649 0.000000 -0.000137 0.000000
# 2 -0.003707 0.016428 -0.004708 0.000001 0.006062 0.000000
# 3 -0.001649 -0.004708 0.042265 -0.000001 -0.025617 0.000000
# 4 0.000000 0.000001 -0.000001 0.017075 0.000002 -0.014169
# 5 -0.000137 0.006062 -0.025617 0.000002 0.066637 0.000001
# 6 0.000000 0.000000 0.000000 -0.014169 0.000001 0.028452
#
#
# Mechanical properties :
#
#
# Convention : Reuss Voigt Hill
#
# Bulk Modulus (GPa) = 21.19500 36.81369 29.00435
# Shear Modulus (GPa) = 23.22019 48.35555 35.78787
#
# Velocity S-wave (km/s) = 3.41298 4.92520 4.23710
# Velocity P-wave (km/s) = 5.11505 7.12820 6.20383
#
# Compressibility (1/GPa) = 0.04718093
#
# Stress axis : x y z
#
# Youngs Moduli (GPa) = 116.05899 60.87070 23.66003
#
# Poissons Ratio (x) = 0.22565 0.03902
# Poissons Ratio (y) = 0.43023 0.11140
# Poissons Ratio (z) = 0.19141 0.28660
#
# Static dielectric constant tensor:
#      x y z
#    x 3.717950 0.000000 0.171420 
#    y 0.000000 3.760210 0.000000 
#    z 0.171420 0.000000 3.674770 
# 
# 
# High freq. dielectric constant tensor:
#      x y z
#    x 1.783230 0.000000 0.007860 
#    y 0.000000 1.779170 0.000000 
#    z 0.007860 0.000000 1.778140 
# 
# From -- ./inp_files/47475.got.cif
#   From: 2010.06.25/outbox.cif.g09.slc.cpg/sg15_24_cif.got.tgz:47475.got - 2010.06.28 07:06:18.
