data_PCOD8152158
_publ_section_title
;
Structure prediction by ZEFSAII (Michael W. Deem and Ramdas Pophale) SiO2 
 PCOD8152158
Probable space group: C 2/C
;
_chemical_formula_sum "Si O2"
_cell_formula_units_Z 60
_cell_length_a 23.757029
_cell_length_b 20.787810
_cell_length_c 9.050826
_cell_angle_alpha 90.000000
_cell_angle_beta 38.210760
_cell_angle_gamma 90.000000
_cell_volume 2764.827768
_symmetry_space_group_name_H-M "C 2/C"
_symmetry_group_IT_number 15
_symmetry_cell_setting 'monoclinic'
loop_
_space_group_symop_operation_xyz
x,y,z
-x,y,1/2-z
-x,-y,-z
x,-y,1/2+z
1/2+x,1/2+y,z
1/2-x,1/2+y,1/2-z
1/2-x,1/2-y,-z
1/2+x,1/2-y,1/2+z
loop_
_atom_site_type_symbol
_atom_site_label
_atom_site_fract_x
_atom_site_fract_y
_atom_site_fract_z
Si Si1 0.947608 0.450934 0.204830
Si Si2 0.751773 0.956034 0.953735
Si Si3 0.518112 0.181044 0.543141
Si Si4 0.500000 0.625151 0.750000
Si Si5 0.105740 0.774552 0.846525
Si Si6 0.254357 0.830436 0.341006
Si Si7 0.166665 0.929031 0.021097
Si Si8 0.225394 0.323945 0.536220
O O1 0.843885 0.475822 0.425757
O O2 0.000000 0.449238 0.250000
O O3 0.954700 0.378959 0.124428
O O4 0.000000 0.500000 0.000000
O O5 0.818151 0.940233 0.683809
O O6 0.798778 0.011886 0.952005
O O7 0.728641 0.895481 0.104199
O O8 0.500000 0.197975 0.750000
O O9 0.488580 0.242476 0.509446
O O10 0.621573 0.163764 0.294573
O O11 0.577811 0.667481 0.510256
O O12 0.443399 0.581902 0.747073
O O13 0.159612 0.799796 0.591527
O O14 0.166166 0.722124 0.807359
O O15 0.249680 0.849007 0.178547
O O16 0.216106 0.864013 0.968215
O O17 0.250000 0.250000 0.500000
#
# Coordination Sequence:
#
# PCOD8152158 Si02
#       8
#     8   8   8   4   8   8   8   8
#     4  11  23  40  63  98 139 182 231 283 352 430
#     4  12  24  48  72 104 147 196 241 300 376 434
#     4  11  22  38  65  99 141 187 232 297 354 430
#     4  12  26  48  74 108 138 196 244 316 358 442
#     4  11  22  43  70 103 145 185 243 296 365 431
#     4  11  24  42  71 103 141 192 238 296 369 432
#     4  12  27  48  74 103 146 193 251 302 368 439
#     4  12  25  42  68 105 144 191 243 298 367 435
#
# _framework density 21.701170000000001
#
# number of rings (size 3 to 8) (size 9 to 14) (size 15 to 20)
#    0.000    0.533    2.667    7.200    1.867    1.600 
#    1.200    0.000    0.000    0.000    0.000    0.000 
#    0.000    0.000    0.000    0.000    0.000    0.000 
#
# Total GULP energy -372015.823772 kJ/mol
# GULP energy per Si atom -12400.527459 kJ/mol
# Density = 2.165178 g / cm^3
# Si number density = 21.701170 Si / 1000 Ang^3
#
#
#
# Elastic Constant Matrix: (Units=GPa)
#
#
# Indices 1 2 3 4 5 6 
#
# 1 131.8536 65.2906 51.9601 0.0000 -17.3315 0.0000
# 2 65.2906 118.4265 33.5066 0.0000 -5.3934 0.0000
# 3 51.9601 33.5066 99.6522 0.0000 0.1679 0.0000
# 4 0.0000 0.0000 0.0000 28.3062 0.0000 -1.8948
# 5 -17.3315 -5.3934 0.1679 0.0000 47.3253 0.0000
# 6 0.0000 0.0000 0.0000 -1.8948 0.0000 49.8014
#
#
#
# Elastic Compliance Matrix: (Units=1/GPa)
#
#
# Indices 1 2 3 4 5 6 
#
# 1 0.012715 -0.005468 -0.004798 0.000000 0.004050 0.000000
# 2 -0.005468 0.011738 -0.001095 0.000000 -0.000661 0.000000
# 3 -0.004798 -0.001095 0.012908 0.000000 -0.001928 0.000000
# 4 0.000000 0.000000 0.000000 0.035418 0.000000 0.001348
# 5 0.004050 -0.000661 -0.001928 0.000000 0.022545 0.000000
# 6 0.000000 0.000000 0.000000 0.001348 0.000000 0.020131
#
#
# Mechanical properties :
#
#
# Convention : Reuss Voigt Hill
#
# Bulk Modulus (GPa) = 68.30665 72.38299 70.34482
# Shear Modulus (GPa) = 34.95114 38.36492 36.65803
#
# Velocity S-wave (km/s) = 4.01754 4.20917 4.11447
# Velocity P-wave (km/s) = 7.28458 7.55312 7.42007
#
# Compressibility (1/GPa) = 0.01463986
#
# Stress axis : x y z
#
# Youngs Moduli (GPa) = 78.64742 85.19148 77.47150
#
# Poissons Ratio (x) = 0.46583 0.37171
# Poissons Ratio (y) = 0.43004 0.08480
# Poissons Ratio (z) = 0.37736 0.09325
#
# Static dielectric constant tensor:
#      x y z
#    x 3.881200 0.000000 -0.017010 
#    y 0.000000 3.930200 0.000000 
#    z -0.017010 0.000000 3.877830 
# 
# 
# High freq. dielectric constant tensor:
#      x y z
#    x 1.859940 0.000000 -0.004740 
#    y 0.000000 1.862570 0.000000 
#    z -0.004740 0.000000 1.855090 
# 
# From -- ./inp_files/63506.got.cif
#   From: 2010.06.25/outbox.cif.g09.slc.cpg/sg15_32_cif.got.tgz:63506.got - 2010.06.28 07:06:18.
