data_PCOD8152339
_publ_section_title
;
Structure prediction by ZEFSAII (Michael W. Deem and Ramdas Pophale) SiO2 
 PCOD8152339
Probable space group: C 2/C
;
_chemical_formula_sum "Si O2"
_cell_formula_units_Z 44
_cell_length_a 8.579988
_cell_length_b 34.174269
_cell_length_c 8.099313
_cell_angle_alpha 90.000000
_cell_angle_beta 120.294879
_cell_angle_gamma 90.000000
_cell_volume 2050.532151
_symmetry_space_group_name_H-M "C 2/C"
_symmetry_group_IT_number 15
_symmetry_cell_setting 'monoclinic'
loop_
_space_group_symop_operation_xyz
x,y,z
-x,y,1/2-z
-x,-y,-z
x,-y,1/2+z
1/2+x,1/2+y,z
1/2-x,1/2+y,1/2-z
1/2-x,1/2-y,-z
1/2+x,1/2-y,1/2+z
loop_
_atom_site_type_symbol
_atom_site_label
_atom_site_fract_x
_atom_site_fract_y
_atom_site_fract_z
Si Si1 0.094412 0.319305 0.972929
Si Si2 0.000000 0.195546 0.750000
Si Si3 0.798703 0.042708 0.204183
Si Si4 0.052552 0.756020 0.948141
Si Si5 0.001136 0.600341 0.563331
Si Si6 0.204030 0.957429 0.409005
O O1 0.000000 0.305464 0.750000
O O2 0.313699 0.327386 0.100574
O O3 0.996513 0.360119 0.956346
O O4 0.053135 0.285153 0.082792
O O5 0.035698 0.220103 0.605797
O O6 0.778350 0.045963 0.387437
O O7 0.000000 0.049759 0.250000
O O8 0.729525 0.000208 0.111075
O O9 0.679823 0.076340 0.062454
O O10 0.000000 0.778486 0.750000
O O11 0.250000 0.750000 0.000000
O O12 0.175080 0.574607 0.614896
O O13 0.000000 0.613727 0.750000
O O14 0.000000 0.949491 0.250000
#
# Coordination Sequence:
#
# PCOD8152339 Si02
#       6
#     8   4   8   8   8   8
#     4  12  26  47  70 105 141 185 230 288 353 413
#     4  12  26  48  76 104 146 182 234 298 344 418
#     4  11  22  42  67  99 130 179 226 279 337 409
#     4  12  23  44  76 105 139 184 236 284 348 418
#     4  12  26  44  64  96 140 177 224 283 343 410
#     4  11  22  40  69  97 133 175 227 279 337 408
#
# _framework density 21.457844999999999
#
# number of rings (size 3 to 8) (size 9 to 14) (size 15 to 20)
#    0.000    0.364    2.727    8.727    1.273    0.000 
#    3.273    0.909    0.000    0.000    0.000    0.000 
#    0.000    0.000    0.000    0.000    0.000    0.000 
#
# Total GULP energy -272567.461934 kJ/mol
# GULP energy per Si atom -12389.430088 kJ/mol
# Density = 2.140901 g / cm^3
# Si number density = 21.457845 Si / 1000 Ang^3
#
#
#
# Elastic Constant Matrix: (Units=GPa)
#
#
# Indices 1 2 3 4 5 6 
#
# 1 99.4934 21.6105 30.1641 0.0000 -12.8649 0.0000
# 2 21.6105 78.7527 11.2021 0.0000 -7.0979 0.0000
# 3 30.1641 11.2021 132.7559 0.0000 -15.3225 0.0000
# 4 0.0000 0.0000 0.0000 -73.6193 0.0000 -15.7801
# 5 -12.8649 -7.0979 -15.3225 0.0000 44.5166 0.0000
# 6 0.0000 0.0000 0.0000 -15.7801 0.0000 -0.6547
#
#
#
# Elastic Compliance Matrix: (Units=1/GPa)
#
#
# Indices 1 2 3 4 5 6 
#
# 1 0.011565 -0.002671 -0.002151 0.000000 0.002176 0.000000
# 2 -0.002671 0.013601 -0.000395 0.000000 0.001261 0.000000
# 3 -0.002151 -0.000395 0.008306 0.000000 0.002174 0.000000
# 4 0.000000 0.000000 0.000000 0.003260 0.000000 -0.078580
# 5 0.002176 0.001261 0.002174 0.000000 0.024042 0.000000
# 6 0.000000 0.000000 0.000000 -0.078580 0.000000 0.366605
#
#
# Mechanical properties :
#
#
# Convention : Reuss Voigt Hill
#
# Bulk Modulus (GPa) = 43.41068 48.55061 45.98064
# Shear Modulus (GPa) = 11.22356 10.58353 10.90354
#
# Velocity S-wave (km/s) = 2.28951 2.22328 2.25664
# Velocity P-wave (km/s) = 5.22147 5.40978 5.31646
#
# Compressibility (1/GPa) = 0.02303581
#
# Stress axis : x y z
#
# Youngs Moduli (GPa) = 86.47038 73.52484 120.39966
#
# Poissons Ratio (x) = 0.19641 0.25899
# Poissons Ratio (y) = 0.23099 0.04758
# Poissons Ratio (z) = 0.18601 0.02906
#
# Static dielectric constant tensor:
#      x y z
#    x 4.160520 0.000000 0.033430 
#    y 0.000000 3.715210 0.000000 
#    z 0.033430 0.000000 4.130590 
# 
# 
# High freq. dielectric constant tensor:
#      x y z
#    x 1.864100 0.000000 -0.002560 
#    y 0.000000 1.825610 0.000000 
#    z -0.002560 0.000000 1.868990 
# 
# From -- ./inp_files/26227.got.cif
#   From: 2010.06.25/outbox.cif.g09.slc.cpg/sg15_14_cif.got.tgz:26227.got - 2010.06.28 07:06:18.
