data_PCOD8152199
_publ_section_title
;
Structure prediction by ZEFSAII (Michael W. Deem and Ramdas Pophale) SiO2 
 PCOD8152199
Probable space group: C 2/C
;
_chemical_formula_sum "Si O2"
_cell_formula_units_Z 48
_cell_length_a 9.334572
_cell_length_b 17.842120
_cell_length_c 20.614688
_cell_angle_alpha 90.000000
_cell_angle_beta 47.129603
_cell_angle_gamma 90.000000
_cell_volume 2516.280777
_symmetry_space_group_name_H-M "C 2/C"
_symmetry_group_IT_number 15
_symmetry_cell_setting 'monoclinic'
loop_
_space_group_symop_operation_xyz
x,y,z
-x,y,1/2-z
-x,-y,-z
x,-y,1/2+z
1/2+x,1/2+y,z
1/2-x,1/2+y,1/2-z
1/2-x,1/2-y,-z
1/2+x,1/2-y,1/2+z
loop_
_atom_site_type_symbol
_atom_site_label
_atom_site_fract_x
_atom_site_fract_y
_atom_site_fract_z
Si Si1 0.850552 0.173509 0.987314
Si Si2 0.698540 0.453973 0.592734
Si Si3 0.037536 0.447142 0.580672
Si Si4 0.823463 0.170493 0.503019
Si Si5 0.010501 0.418496 0.321485
Si Si6 0.048985 0.904977 0.304311
O O1 0.991444 0.179889 0.006313
O O2 0.968089 0.142373 0.889342
O O3 0.750000 0.250000 0.000000
O O4 0.664859 0.123265 0.062578
O O5 0.846003 0.503736 0.506554
O O6 0.618862 0.383227 0.575629
O O7 0.518520 0.507569 0.669360
O O8 0.824981 0.424754 0.615926
O O9 0.016269 0.494666 0.652559
O O10 0.750000 0.250000 0.500000
O O11 0.645267 0.134168 0.596043
O O12 0.000000 0.407432 0.250000
O O13 0.223586 0.393967 0.274620
O O14 0.000000 0.869514 0.250000
#
# Coordination Sequence:
#
# PCOD8152199 Si02
#       6
#     8   8   8   8   8   8
#     4  11  24  40  61  87 122 164 203 240 297 367
#     4   9  19  36  60  86 114 152 193 235 292 355
#     4   9  19  36  60  85 115 151 194 237 288 357
#     4  11  24  40  61  86 123 165 200 242 299 365
#     4  11  22  39  63  91 119 151 202 258 302 345
#     4  11  22  39  65  91 117 155 200 252 304 349
#
# _framework density 19.075773999999999
#
# number of rings (size 3 to 8) (size 9 to 14) (size 15 to 20)
#    0.000    1.667    3.333    1.000    7.000    2.000 
#    0.000    3.333    0.000    0.000    0.000    0.000 
#    0.000    0.000    0.000    0.000    0.000    0.000 
#
# Total GULP energy -297377.493752 kJ/mol
# GULP energy per Si atom -12390.728906 kJ/mol
# Density = 1.903236 g / cm^3
# Si number density = 19.075774 Si / 1000 Ang^3
#
#
#
# Elastic Constant Matrix: (Units=GPa)
#
#
# Indices 1 2 3 4 5 6 
#
# 1 153.6857 69.8856 17.8079 -0.0005 -16.8022 0.0004
# 2 69.8856 124.5597 29.5792 -0.0010 0.3991 0.0007
# 3 17.8079 29.5792 46.9232 -0.0009 -6.6356 0.0007
# 4 -0.0005 -0.0010 -0.0009 16.3207 0.0011 -0.6040
# 5 -16.8022 0.3991 -6.6356 0.0011 26.6899 -0.0007
# 6 0.0004 0.0007 0.0007 -0.6040 -0.0007 34.7313
#
#
#
# Elastic Compliance Matrix: (Units=1/GPa)
#
#
# Indices 1 2 3 4 5 6 
#
# 1 0.009674 -0.005634 0.000780 0.000000 0.006369 0.000000
# 2 -0.005634 0.012796 -0.006692 0.000001 -0.005402 0.000000
# 3 0.000780 -0.006692 0.026240 0.000001 0.007115 0.000000
# 4 0.000000 0.000001 0.000001 0.061311 -0.000003 0.001066
# 5 0.006369 -0.005402 0.007115 -0.000003 0.043326 0.000001
# 6 0.000000 0.000000 0.000000 0.001066 0.000001 0.028811
#
#
# Mechanical properties :
#
#
# Convention : Reuss Voigt Hill
#
# Bulk Modulus (GPa) = 39.03267 62.19044 50.61156
# Shear Modulus (GPa) = 23.38761 29.40811 26.39786
#
# Velocity S-wave (km/s) = 3.50528 3.93064 3.72404
# Velocity P-wave (km/s) = 6.07363 7.29880 6.71422
#
# Compressibility (1/GPa) = 0.02561956
#
# Stress axis : x y z
#
# Youngs Moduli (GPa) = 103.36517 78.15235 38.11007
#
# Poissons Ratio (x) = 0.44028 -0.02974
# Poissons Ratio (y) = 0.58233 0.25502
# Poissons Ratio (z) = -0.08066 0.52298
#
# Static dielectric constant tensor:
#      x y z
#    x 3.699580 0.000010 0.372140 
#    y 0.000010 3.515880 -0.000030 
#    z 0.372140 -0.000030 2.368110 
# 
# 
# High freq. dielectric constant tensor:
#      x y z
#    x 1.765280 0.000000 -0.000140 
#    y 0.000000 1.725250 0.000000 
#    z -0.000140 0.000000 1.737610 
# 
# From -- ./inp_files/189942.got.cif
#   From: 2010.06.25/outbox.cif.g09.slc.cpg/sg15_95_cif.got.tgz:189942.got - 2010.06.28 07:06:18.
