data_PCOD8152490
_publ_section_title
;
Structure prediction by ZEFSAII (Michael W. Deem and Ramdas Pophale) SiO2 
 PCOD8152490
Probable space group: C 2/C
;
_chemical_formula_sum "Si O2"
_cell_formula_units_Z 48
_cell_length_a 14.533458
_cell_length_b 9.939339
_cell_length_c 26.623332
_cell_angle_alpha 90.000000
_cell_angle_beta 38.491571
_cell_angle_gamma 90.000000
_cell_volume 2393.635981
_symmetry_space_group_name_H-M "C 2/C"
_symmetry_group_IT_number 15
_symmetry_cell_setting 'monoclinic'
loop_
_space_group_symop_operation_xyz
x,y,z
-x,y,1/2-z
-x,-y,-z
x,-y,1/2+z
1/2+x,1/2+y,z
1/2-x,1/2+y,1/2-z
1/2-x,1/2-y,-z
1/2+x,1/2-y,1/2+z
loop_
_atom_site_type_symbol
_atom_site_label
_atom_site_fract_x
_atom_site_fract_y
_atom_site_fract_z
Si Si1 0.384039 0.711622 0.666989
Si Si2 0.852322 0.519323 0.692130
Si Si3 0.815660 0.762105 0.416506
Si Si4 0.891181 0.516845 0.844183
Si Si5 0.092459 0.379648 0.439013
Si Si6 0.085108 0.138566 0.957224
O O1 0.266126 0.592784 0.722254
O O2 0.515816 0.687363 0.650324
O O3 0.446232 0.700889 0.584207
O O4 0.316479 0.860121 0.705528
O O5 0.838348 0.584301 0.643801
O O6 0.014292 0.547764 0.646165
O O7 0.750000 0.750000 0.500000
O O8 0.808918 0.624048 0.387901
O O9 0.725678 0.866294 0.421592
O O10 0.761054 0.626654 0.892602
O O11 0.000000 0.512413 0.750000
O O12 0.000000 0.500000 0.500000
O O13 0.990161 0.247974 0.474146
O O14 0.000000 0.000000 0.000000
#
# Coordination Sequence:
#
# PCOD8152490 Si02
#       6
#     8   8   8   8   8   8
#     4  11  24  45  66  98 134 174 223 272 327 403
#     4  11  26  43  67  96 135 174 218 275 334 390
#     4  11  22  42  68  94 129 178 222 265 327 403
#     4  11  23  42  68  95 130 177 221 268 332 402
#     4  12  24  43  66  98 135 168 217 281 330 380
#     4  12  23  42  71  96 129 174 224 268 327 401
#
# _framework density 20.053173999999999
#
# number of rings (size 3 to 8) (size 9 to 14) (size 15 to 20)
#    0.000    0.667    6.667    1.000    7.000    0.667 
#    3.000    1.667    0.000    0.000    0.000    0.000 
#    0.000    0.000    0.000    0.000    0.000    0.000 
#
# Total GULP energy -297652.181049 kJ/mol
# GULP energy per Si atom -12402.174210 kJ/mol
# Density = 2.000753 g / cm^3
# Si number density = 20.053174 Si / 1000 Ang^3
#
#
#
# Elastic Constant Matrix: (Units=GPa)
#
#
# Indices 1 2 3 4 5 6 
#
# 1 120.8488 42.6224 18.1352 0.0000 -6.4829 0.0000
# 2 42.6224 122.2041 36.3450 0.0000 -17.3967 -0.0001
# 3 18.1352 36.3450 69.7963 0.0000 -2.4883 0.0000
# 4 0.0000 0.0000 0.0000 47.7392 0.0000 -2.5224
# 5 -6.4829 -17.3967 -2.4883 0.0000 35.6096 0.0000
# 6 0.0000 -0.0001 0.0000 -2.5224 0.0000 36.7004
#
#
#
# Elastic Compliance Matrix: (Units=1/GPa)
#
#
# Indices 1 2 3 4 5 6 
#
# 1 0.009482 -0.003016 -0.000886 0.000000 0.000191 0.000000
# 2 -0.003016 0.011378 -0.004975 0.000000 0.004662 0.000000
# 3 -0.000886 -0.004975 0.017099 0.000000 -0.001397 0.000000
# 4 0.000000 0.000000 0.000000 0.021023 0.000000 0.001445
# 5 0.000191 0.004662 -0.001397 0.000000 0.030297 0.000000
# 6 0.000000 0.000000 0.000000 0.001445 0.000000 0.027347
#
#
# Mechanical properties :
#
#
# Convention : Reuss Voigt Hill
#
# Bulk Modulus (GPa) = 49.49637 56.33937 52.91787
# Shear Modulus (GPa) = 35.43179 38.39294 36.91237
#
# Velocity S-wave (km/s) = 4.20800 4.38031 4.29502
# Velocity P-wave (km/s) = 6.95312 7.33068 7.14439
#
# Compressibility (1/GPa) = 0.02020350
#
# Stress axis : x y z
#
# Youngs Moduli (GPa) = 105.46444 87.88556 58.48446
#
# Poissons Ratio (x) = 0.26510 0.05183
# Poissons Ratio (y) = 0.31812 0.29097
# Poissons Ratio (z) = 0.09346 0.43724
#
# Static dielectric constant tensor:
#      x y z
#    x 4.315410 0.000000 0.312880 
#    y 0.000000 3.680710 0.000000 
#    z 0.312880 0.000000 3.825790 
# 
# 
# High freq. dielectric constant tensor:
#      x y z
#    x 1.794910 0.000000 -0.003010 
#    y 0.000000 1.777050 0.000000 
#    z -0.003010 0.000000 1.789830 
# 
# From -- ./inp_files/295393.got.cif
#   From: 2010.06.25/outbox.cif.g09.slc.cpg/sg15_148_cif.got.tgz:295393.got - 2010.06.28 07:06:18.
