data_PCOD8152782
_publ_section_title
;
Structure prediction by ZEFSAII (Michael W. Deem and Ramdas Pophale) SiO2 
 PCOD8152782
Probable space group: C 2/C
;
_chemical_formula_sum "Si O2"
_cell_formula_units_Z 32
_cell_length_a 7.019243
_cell_length_b 17.194680
_cell_length_c 10.491520
_cell_angle_alpha 90.000000
_cell_angle_beta 67.073639
_cell_angle_gamma 90.000000
_cell_volume 1166.233141
_symmetry_space_group_name_H-M "C 2/C"
_symmetry_group_IT_number 15
_symmetry_cell_setting 'monoclinic'
loop_
_space_group_symop_operation_xyz
x,y,z
-x,y,1/2-z
-x,-y,-z
x,-y,1/2+z
1/2+x,1/2+y,z
1/2-x,1/2+y,1/2-z
1/2-x,1/2-y,-z
1/2+x,1/2-y,1/2+z
loop_
_atom_site_type_symbol
_atom_site_label
_atom_site_fract_x
_atom_site_fract_y
_atom_site_fract_z
Si Si1 0.782685 0.739560 0.843585
Si Si2 0.123613 0.459165 0.349927
Si Si3 0.640121 0.330481 0.067685
Si Si4 0.256261 0.104257 0.286750
O O1 0.594468 0.691115 0.826552
O O2 0.795353 0.826826 0.793299
O O3 0.000000 0.698239 0.750000
O O4 0.750000 0.750000 0.000000
O O5 0.226756 0.377460 0.362953
O O6 0.300725 0.522320 0.265471
O O7 0.000000 0.442653 0.250000
O O8 0.000000 0.500000 0.500000
O O9 0.750000 0.250000 0.000000
O O10 0.622914 0.385988 0.949521
O O11 0.500000 0.104372 0.250000
#
# Coordination Sequence:
#
# PCOD8152782 Si02
#       4
#     8   8   8   8
#     4  12  26  48  85 128 176 244 310 380 460 544
#     4  11  22  46  86 136 186 238 295 379 482 557
#     4  12  24  48  86 131 185 233 309 390 455 550
#     4  11  22  47  81 125 182 227 300 382 455 549
#
# _framework density 27.438769000000001
#
# number of rings (size 3 to 8) (size 9 to 14) (size 15 to 20)
#    0.000    0.500   10.000    0.000    0.000    0.000 
#    9.000    1.250    5.500    4.500    0.000    1.750 
#    0.000    0.000    0.000    0.000    0.000    0.000 
#
# Total GULP energy -198245.396632 kJ/mol
# GULP energy per Si atom -12390.337290 kJ/mol
# Density = 2.737632 g / cm^3
# Si number density = 27.438769 Si / 1000 Ang^3
#
#
#
# Elastic Constant Matrix: (Units=GPa)
#
#
# Indices 1 2 3 4 5 6 
#
# 1 191.0233 81.2675 81.0195 0.0000 -5.8494 0.0000
# 2 81.2675 193.7821 81.8673 0.0000 1.4127 0.0000
# 3 81.0195 81.8673 192.9750 0.0000 16.0697 0.0000
# 4 0.0000 0.0000 0.0000 -241.6597 0.0000 434.6666
# 5 -5.8494 1.4127 16.0697 0.0000 59.2266 0.0000
# 6 0.0000 0.0000 0.0000 434.6666 0.0000 -531.7780
#
#
#
# Elastic Compliance Matrix: (Units=1/GPa)
#
#
# Indices 1 2 3 4 5 6 
#
# 1 0.007088 -0.002044 -0.002221 0.000000 0.001351 0.000000
# 2 -0.002044 0.006897 -0.002084 0.000000 0.000199 0.000000
# 3 -0.002221 -0.002084 0.007175 0.000000 -0.002116 0.000000
# 4 0.000000 0.000000 0.000000 0.008801 0.000000 0.007193
# 5 0.001351 0.000199 -0.002116 0.000000 0.017587 0.000000
# 6 0.000000 0.000000 0.000000 0.007193 0.000000 0.003999
#
#
# Mechanical properties :
#
#
# Convention : Reuss Voigt Hill
#
# Bulk Modulus (GPa) = 118.19260 118.45433 118.32346
# Shear Modulus (GPa) = 74.55312 -120.60046 -23.02367
#
# Velocity S-wave (km/s) = 5.21821 -6.63687 -2.89985
# Velocity P-wave (km/s) = 8.91487 3.93275 5.65722
#
# Compressibility (1/GPa) = 0.00846077
#
# Stress axis : x y z
#
# Youngs Moduli (GPa) = 141.08266 144.99639 139.37114
#
# Poissons Ratio (x) = 0.29637 0.30958
# Poissons Ratio (y) = 0.28837 0.29049
# Poissons Ratio (z) = 0.31338 0.30221
#
# Static dielectric constant tensor:
#      x y z
#    x 5.049350 0.000000 -0.009740 
#    y 0.000000 7.498180 0.000000 
#    z -0.009740 0.000000 5.502920 
# 
# 
# High freq. dielectric constant tensor:
#      x y z
#    x 2.097520 0.000000 0.011190 
#    y 0.000000 2.126430 0.000000 
#    z 0.011190 0.000000 2.142410 
# 
# From -- ./inp_files/28321.got.cif
#   From: 2010.06.25/outbox.cif.g09.slc.cpg/sg15_15_cif.got.tgz:28321.got - 2010.06.28 07:06:18.
