data_PCOD8152227
_publ_section_title
;
Structure prediction by ZEFSAII (Michael W. Deem and Ramdas Pophale) SiO2 
 PCOD8152227
Probable space group: C 2/C
;
_chemical_formula_sum "Si O2"
_cell_formula_units_Z 44
_cell_length_a 25.582730
_cell_length_b 11.993077
_cell_length_c 11.837418
_cell_angle_alpha 90.000000
_cell_angle_beta 146.865375
_cell_angle_gamma 90.000000
_cell_volume 1985.228792
_symmetry_space_group_name_H-M "C 2/C"
_symmetry_group_IT_number 15
_symmetry_cell_setting 'monoclinic'
loop_
_space_group_symop_operation_xyz
x,y,z
-x,y,1/2-z
-x,-y,-z
x,-y,1/2+z
1/2+x,1/2+y,z
1/2-x,1/2+y,1/2-z
1/2-x,1/2-y,-z
1/2+x,1/2-y,1/2+z
loop_
_atom_site_type_symbol
_atom_site_label
_atom_site_fract_x
_atom_site_fract_y
_atom_site_fract_z
Si Si1 0.908647 0.345270 0.154863
Si Si2 0.132468 0.734391 0.680101
Si Si3 0.772252 0.024923 0.153844
Si Si4 0.818336 0.866438 0.439775
Si Si5 0.500000 0.283077 0.250000
Si Si6 0.921016 0.030165 0.764329
O O1 0.927045 0.286887 0.311393
O O2 0.000000 0.387869 0.250000
O O3 0.840461 0.450674 0.055652
O O4 0.856410 0.256797 0.976080
O O5 0.162604 0.863605 0.720528
O O6 0.226889 0.655327 0.857550
O O7 0.069573 0.706512 0.453831
O O8 0.784484 0.942981 0.279331
O O9 0.814559 0.954737 0.125312
O O10 0.910345 0.924648 0.662776
O O11 0.558026 0.358321 0.266206
O O12 0.000000 0.000000 0.000000
#
# Coordination Sequence:
#
# PCOD8152227 Si02
#       6
#     8   8   8   8   4   8
#     4  11  24  42  67  94 128 179 223 259 331 396
#     4  11  22  43  63  96 137 170 214 279 327 383
#     4  11  22  41  63  96 134 167 213 278 324 388
#     4  11  22  39  66  94 129 174 212 269 332 381
#     4  12  24  36  68 102 132 168 224 272 320 402
#     4  12  20  36  66  99 129 165 211 269 337 379
#
# _framework density 22.163692000000001
#
# number of rings (size 3 to 8) (size 9 to 14) (size 15 to 20)
#    0.000    0.727    7.273    1.091    6.364    0.000 
#    1.636    3.636    0.000    0.000    0.000    0.000 
#    0.000    0.000    0.000    0.000    0.000    0.000 
#
# Total GULP energy -272546.812282 kJ/mol
# GULP energy per Si atom -12388.491467 kJ/mol
# Density = 2.211325 g / cm^3
# Si number density = 22.163692 Si / 1000 Ang^3
#
#
#
# Elastic Constant Matrix: (Units=GPa)
#
#
# Indices 1 2 3 4 5 6 
#
# 1 132.7863 25.2736 27.6632 0.0000 17.1963 0.0000
# 2 25.2736 44.5341 21.9402 0.0000 -1.8082 0.0000
# 3 27.6632 21.9402 94.1798 0.0000 6.1879 0.0000
# 4 0.0000 0.0000 0.0000 17.4027 0.0000 11.0524
# 5 17.1963 -1.8082 6.1879 0.0000 37.9435 0.0000
# 6 0.0000 0.0000 0.0000 11.0524 0.0000 16.7141
#
#
#
# Elastic Compliance Matrix: (Units=1/GPa)
#
#
# Indices 1 2 3 4 5 6 
#
# 1 0.009261 -0.004770 -0.001333 0.000000 -0.004207 0.000000
# 2 -0.004770 0.028005 -0.005411 0.000000 0.004379 0.000000
# 3 -0.001333 -0.005411 0.012380 0.000000 -0.001673 0.000000
# 4 0.000000 0.000000 0.000000 0.099066 0.000000 -0.065508
# 5 -0.004207 0.004379 -0.001673 0.000000 0.028743 0.000000
# 6 0.000000 0.000000 0.000000 -0.065508 0.000000 0.103148
#
#
# Mechanical properties :
#
#
# Convention : Reuss Voigt Hill
#
# Bulk Modulus (GPa) = 37.56660 46.80601 42.18631
# Shear Modulus (GPa) = 15.99983 27.52028 21.76005
#
# Velocity S-wave (km/s) = 2.68972 3.52758 3.13675
# Velocity P-wave (km/s) = 5.16067 6.14458 5.67400
#
# Compressibility (1/GPa) = 0.02661939
#
# Stress axis : x y z
#
# Youngs Moduli (GPa) = 107.97616 35.70757 80.77675
#
# Poissons Ratio (x) = 0.17033 0.10764
# Poissons Ratio (y) = 0.51507 0.43706
# Poissons Ratio (z) = 0.14389 0.19320
#
# Static dielectric constant tensor:
#      x y z
#    x 4.373680 0.000000 -0.029310 
#    y 0.000000 3.785700 0.000000 
#    z -0.029310 0.000000 4.115370 
# 
# 
# High freq. dielectric constant tensor:
#      x y z
#    x 1.883160 0.000000 -0.000890 
#    y 0.000000 1.842560 0.000000 
#    z -0.000890 0.000000 1.861400 
# 
# From -- ./inp_files/95629.got.cif
#   From: 2010.06.25/outbox.cif.g09.slc.cpg/sg15_48_cif.got.tgz:95629.got - 2010.06.28 07:06:18.
