data_PCOD8152515
_publ_section_title
;
Structure prediction by ZEFSAII (Michael W. Deem and Ramdas Pophale) SiO2 
 PCOD8152515
Probable space group: C 2/C
;
_chemical_formula_sum "Si O2"
_cell_formula_units_Z 52
_cell_length_a 17.288699
_cell_length_b 17.437125
_cell_length_c 9.836896
_cell_angle_alpha 90.000000
_cell_angle_beta 127.621592
_cell_angle_gamma 90.000000
_cell_volume 2348.838545
_symmetry_space_group_name_H-M "C 2/C"
_symmetry_group_IT_number 15
_symmetry_cell_setting 'monoclinic'
loop_
_space_group_symop_operation_xyz
x,y,z
-x,y,1/2-z
-x,-y,-z
x,-y,1/2+z
1/2+x,1/2+y,z
1/2-x,1/2+y,1/2-z
1/2-x,1/2-y,-z
1/2+x,1/2-y,1/2+z
loop_
_atom_site_type_symbol
_atom_site_label
_atom_site_fract_x
_atom_site_fract_y
_atom_site_fract_z
Si Si1 0.803590 0.846246 0.752552
Si Si2 0.357973 0.602427 0.029389
Si Si3 0.014413 0.159892 0.557839
Si Si4 0.722108 0.992658 0.212461
Si Si5 0.391044 0.053055 0.171491
Si Si6 0.500000 0.472980 0.250000
Si Si7 0.666305 0.219507 0.312695
O O1 0.807702 0.845647 0.592631
O O2 0.792928 0.933760 0.791804
O O3 0.713256 0.795986 0.713038
O O4 0.903060 0.811620 0.923440
O O5 0.402716 0.524763 0.140640
O O6 0.444287 0.649911 0.050047
O O7 0.278431 0.581993 0.828905
O O8 0.016565 0.078237 0.634811
O O9 0.077901 0.220593 0.709743
O O10 0.630166 0.009062 0.211267
O O11 0.685349 0.977207 0.021769
O O12 0.500000 0.030648 0.250000
O O13 0.379816 0.143703 0.173604
O O14 0.750000 0.250000 0.500000
#
# Coordination Sequence:
#
# PCOD8152515 Si02
#       7
#     8   8   8   8   8   4   8
#     4  11  23  42  68 101 140 181 237 294 347 433
#     4  12  22  39  67 104 137 176 227 300 364 403
#     4  12  24  40  67  97 144 187 232 289 353 431
#     4  11  22  42  70 105 138 171 231 303 359 405
#     4  11  25  44  71 100 135 184 237 289 351 425
#     4  12  22  36  66 106 136 174 232 292 354 416
#     4  11  27  44  65  98 140 196 237 279 354 433
#
# _framework density 22.138601999999999
#
# number of rings (size 3 to 8) (size 9 to 14) (size 15 to 20)
#    0.000    0.615    4.615    3.692    5.385    0.615 
#    0.000    0.000    0.000    0.000    0.000    0.000 
#    0.000    0.000    0.000    0.000    0.000    0.000 
#
# Total GULP energy -322527.522155 kJ/mol
# GULP energy per Si atom -12404.904698 kJ/mol
# Density = 2.208821 g / cm^3
# Si number density = 22.138602 Si / 1000 Ang^3
#
#
#
# Elastic Constant Matrix: (Units=GPa)
#
#
# Indices 1 2 3 4 5 6 
#
# 1 104.4147 12.3127 13.7893 0.0000 -2.8418 0.0000
# 2 12.3127 52.9179 11.2047 0.0000 7.5796 0.0000
# 3 13.7893 11.2047 78.6564 0.0000 0.6092 0.0000
# 4 0.0000 0.0000 0.0000 26.6636 0.0000 1.4393
# 5 -2.8418 7.5796 0.6092 0.0000 47.0175 0.0000
# 6 0.0000 0.0000 0.0000 1.4393 0.0000 28.4817
#
#
#
# Elastic Compliance Matrix: (Units=1/GPa)
#
#
# Indices 1 2 3 4 5 6 
#
# 1 0.010053 -0.002169 -0.001461 0.000000 0.000976 0.000000
# 2 -0.002169 0.020417 -0.002502 0.000000 -0.003390 0.000000
# 3 -0.001461 -0.002502 0.013325 0.000000 0.000142 0.000000
# 4 0.000000 0.000000 0.000000 0.037607 0.000000 -0.001900
# 5 0.000976 -0.003390 0.000142 0.000000 0.021872 0.000000
# 6 0.000000 0.000000 0.000000 -0.001900 0.000000 0.035206
#
#
# Mechanical properties :
#
#
# Convention : Reuss Voigt Hill
#
# Bulk Modulus (GPa) = 31.71548 34.51137 33.11342
# Shear Modulus (GPa) = 31.00685 33.67807 32.34246
#
# Velocity S-wave (km/s) = 3.74649 3.90454 3.82633
# Velocity P-wave (km/s) = 5.75082 5.99582 5.87459
#
# Compressibility (1/GPa) = 0.03153035
#
# Stress axis : x y z
#
# Youngs Moduli (GPa) = 99.47766 48.97809 75.04743
#
# Poissons Ratio (x) = 0.10626 0.10963
# Poissons Ratio (y) = 0.21582 0.18776
# Poissons Ratio (z) = 0.14532 0.12254
#
# Static dielectric constant tensor:
#      x y z
#    x 4.196500 0.000000 -0.166300 
#    y 0.000000 3.755990 0.000000 
#    z -0.166300 0.000000 3.878620 
# 
# 
# High freq. dielectric constant tensor:
#      x y z
#    x 1.893090 0.000000 -0.011510 
#    y 0.000000 1.846990 0.000000 
#    z -0.011510 0.000000 1.868870 
# 
# From -- ./inp_files/49244.got.cif
#   From: 2010.06.25/outbox.cif.g09.slc.cpg/sg15_25_cif.got.tgz:49244.got - 2010.06.28 07:06:18.
