data_PCOD8152151
_publ_section_title
;
Structure prediction by ZEFSAII (Michael W. Deem and Ramdas Pophale) SiO2 
 PCOD8152151
Probable space group: C 2/C
;
_chemical_formula_sum "Si O2"
_cell_formula_units_Z 40
_cell_length_a 35.594350
_cell_length_b 10.059617
_cell_length_c 9.801226
_cell_angle_alpha 90.000000
_cell_angle_beta 147.919849
_cell_angle_gamma 90.000000
_cell_volume 1863.903272
_symmetry_space_group_name_H-M "C 2/C"
_symmetry_group_IT_number 15
_symmetry_cell_setting 'monoclinic'
loop_
_space_group_symop_operation_xyz
x,y,z
-x,y,1/2-z
-x,-y,-z
x,-y,1/2+z
1/2+x,1/2+y,z
1/2-x,1/2+y,1/2-z
1/2-x,1/2-y,-z
1/2+x,1/2-y,1/2+z
loop_
_atom_site_type_symbol
_atom_site_label
_atom_site_fract_x
_atom_site_fract_y
_atom_site_fract_z
Si Si1 0.153616 0.112127 0.180779
Si Si2 0.574730 0.457267 0.172184
Si Si3 0.816277 0.590981 0.690213
Si Si4 0.111493 0.444452 0.359960
Si Si5 0.520759 0.174225 0.960175
O O1 0.149553 0.271135 0.152887
O O2 0.233499 0.074682 0.464414
O O3 0.102196 0.057424 0.140922
O O4 0.131456 0.048358 0.968679
O O5 0.500000 0.500000 0.000000
O O6 0.560350 0.313380 0.062135
O O7 0.828193 0.585100 0.564707
O O8 0.852682 0.469119 0.882357
O O9 0.055266 0.322014 0.193587
O O10 0.072126 0.578660 0.198897
O O11 0.500000 0.112740 0.750000
#
# Coordination Sequence:
#
# PCOD8152151 Si02
#       5
#     8   8   8   8   8
#     4  11  25  43  66  95 129 174 215 263 323 391
#     4  12  24  43  65  93 132 168 214 266 322 379
#     4  11  23  44  66  94 131 169 218 263 324 388
#     4  11  22  40  66  93 130 166 208 271 321 376
#     4  11  22  38  64  96 126 161 216 263 322 383
#
# _framework density 21.460339999999999
#
# number of rings (size 3 to 8) (size 9 to 14) (size 15 to 20)
#    0.000    0.800    4.000    4.200    0.000    0.000 
#    0.000    1.000    0.000    0.000    0.000    0.000 
#    0.000    0.000    0.000    0.000    0.000    0.000 
#
# Total GULP energy -247973.669898 kJ/mol
# GULP energy per Si atom -12398.683495 kJ/mol
# Density = 2.141150 g / cm^3
# Si number density = 21.460340 Si / 1000 Ang^3
#
#
#
# Elastic Constant Matrix: (Units=GPa)
#
#
# Indices 1 2 3 4 5 6 
#
# 1 112.9074 7.0274 28.7108 0.0000 9.4111 0.0000
# 2 7.0274 42.3635 32.7759 0.0000 9.7111 0.0000
# 3 28.7108 32.7759 86.7207 0.0000 -6.3055 0.0000
# 4 0.0000 0.0000 0.0000 32.5216 0.0000 0.5954
# 5 9.4111 9.7111 -6.3055 0.0000 43.6166 0.0000
# 6 0.0000 0.0000 0.0000 0.5954 0.0000 32.9068
#
#
#
# Elastic Compliance Matrix: (Units=1/GPa)
#
#
# Indices 1 2 3 4 5 6 
#
# 1 0.010155 0.002691 -0.004631 0.000000 -0.003460 0.000000
# 2 0.002691 0.038326 -0.016209 0.000000 -0.011457 0.000000
# 3 -0.004631 -0.016209 0.019733 0.000000 0.007461 0.000000
# 4 0.000000 0.000000 0.000000 0.030759 0.000000 -0.000557
# 5 -0.003460 -0.011457 0.007461 0.000000 0.027303 0.000000
# 6 0.000000 0.000000 0.000000 -0.000557 0.000000 0.030399
#
#
# Mechanical properties :
#
#
# Convention : Reuss Voigt Hill
#
# Bulk Modulus (GPa) = 31.33149 42.11331 36.72240
# Shear Modulus (GPa) = 24.55650 33.37418 28.96534
#
# Velocity S-wave (km/s) = 3.38638 3.94782 3.67783
# Velocity P-wave (km/s) = 5.47006 6.35978 5.93162
#
# Compressibility (1/GPa) = 0.03191677
#
# Stress axis : x y z
#
# Youngs Moduli (GPa) = 98.47111 26.09195 50.67604
#
# Poissons Ratio (x) = -0.07022 0.23468
# Poissons Ratio (y) = -0.26502 0.82142
# Poissons Ratio (z) = 0.45601 0.42293
#
# Static dielectric constant tensor:
#      x y z
#    x 3.929380 0.000000 -0.021400 
#    y 0.000000 3.905870 0.000000 
#    z -0.021400 0.000000 3.972720 
# 
# 
# High freq. dielectric constant tensor:
#      x y z
#    x 1.850310 0.000000 -0.000850 
#    y 0.000000 1.829940 0.000000 
#    z -0.000850 0.000000 1.853750 
# 
# From -- ./inp_files/54050.got.cif
#   From: 2010.06.25/outbox.cif.g09.slc.cpg/sg15_28_cif.got.tgz:54050.got - 2010.06.28 07:06:18.
