data_PCOD8152662
_publ_section_title
;
Structure prediction by ZEFSAII (Michael W. Deem and Ramdas Pophale) SiO2 
 PCOD8152662
Probable space group: C 2/C
;
_chemical_formula_sum "Si O2"
_cell_formula_units_Z 52
_cell_length_a 16.402476
_cell_length_b 9.825796
_cell_length_c 18.090388
_cell_angle_alpha 90.000000
_cell_angle_beta 126.681733
_cell_angle_gamma 90.000000
_cell_volume 2338.196828
_symmetry_space_group_name_H-M "C 2/C"
_symmetry_group_IT_number 15
_symmetry_cell_setting 'monoclinic'
loop_
_space_group_symop_operation_xyz
x,y,z
-x,y,1/2-z
-x,-y,-z
x,-y,1/2+z
1/2+x,1/2+y,z
1/2-x,1/2+y,1/2-z
1/2-x,1/2-y,-z
1/2+x,1/2-y,1/2+z
loop_
_atom_site_type_symbol
_atom_site_label
_atom_site_fract_x
_atom_site_fract_y
_atom_site_fract_z
Si Si1 0.500000 0.745020 0.250000
Si Si2 0.316583 0.134938 0.997311
Si Si3 0.183471 0.433343 0.160641
Si Si4 0.657668 0.436872 0.137746
Si Si5 0.704141 0.867059 0.422098
Si Si6 0.039968 0.683730 0.065541
Si Si7 0.949063 0.192724 0.380555
O O1 0.602450 0.830923 0.320835
O O2 0.485681 0.656361 0.317056
O O3 0.429891 0.189844 0.043542
O O4 0.324871 0.999648 0.048595
O O5 0.250000 0.250000 0.000000
O O6 0.265318 0.097445 0.890902
O O7 0.265479 0.497770 0.259502
O O8 0.088387 0.534803 0.097790
O O9 0.147158 0.292970 0.178330
O O10 0.707864 0.410759 0.086243
O O11 0.609941 0.296647 0.143166
O O12 0.573786 0.555436 0.086254
O O13 0.750000 0.750000 0.500000
O O14 0.033586 0.727308 0.975088
#
# Coordination Sequence:
#
# PCOD8152662 Si02
#       7
#     4   8   8   8   8   8   8
#     4  12  24  42  68 108 136 186 244 294 346 418
#     4  11  25  45  71 103 141 183 231 297 362 416
#     4  11  22  44  69  97 136 186 231 276 352 429
#     4  12  25  44  70 101 141 182 233 288 354 420
#     4  12  26  46  74 105 143 187 243 295 349 428
#     4  11  24  46  71  98 139 188 228 285 361 423
#     4  11  23  42  68 100 134 184 232 288 343 420
#
# _framework density 22.239360999999999
#
# number of rings (size 3 to 8) (size 9 to 14) (size 15 to 20)
#    0.000    0.615    1.538    8.769    2.154    1.231 
#    0.000    0.000    0.000    0.000    0.000    0.000 
#    0.000    0.000    0.000    0.000    0.000    0.000 
#
# Total GULP energy -322335.710285 kJ/mol
# GULP energy per Si atom -12397.527319 kJ/mol
# Density = 2.218874 g / cm^3
# Si number density = 22.239361 Si / 1000 Ang^3
#
#
#
# Elastic Constant Matrix: (Units=GPa)
#
#
# Indices 1 2 3 4 5 6 
#
# 1 125.8471 52.9854 52.3060 0.0000 -32.7352 0.0000
# 2 52.9854 106.7479 37.7551 0.0000 -16.4262 0.0000
# 3 52.3060 37.7551 122.6694 0.0000 -15.6765 0.0000
# 4 0.0000 0.0000 0.0000 28.0889 0.0000 -2.5786
# 5 -32.7352 -16.4262 -15.6765 0.0000 29.4017 0.0000
# 6 0.0000 0.0000 0.0000 -2.5786 0.0000 49.7606
#
#
#
# Elastic Compliance Matrix: (Units=1/GPa)
#
#
# Indices 1 2 3 4 5 6 
#
# 1 0.014013 -0.004016 -0.003254 0.000000 0.011623 0.000000
# 2 -0.004016 0.012236 -0.001879 0.000000 0.001362 0.000000
# 3 -0.003254 -0.001879 0.010217 0.000000 0.000775 0.000000
# 4 0.000000 0.000000 0.000000 0.035771 0.000000 0.001854
# 5 0.011623 0.001362 0.000775 0.000000 0.048127 0.000000
# 6 0.000000 0.000000 0.000000 0.001854 0.000000 0.020192
#
#
# Mechanical properties :
#
#
# Convention : Reuss Voigt Hill
#
# Bulk Modulus (GPa) = 55.04444 71.26194 63.15319
# Shear Modulus (GPa) = 30.31971 35.59809 32.95890
#
# Velocity S-wave (km/s) = 3.69634 4.00519 3.85386
# Velocity P-wave (km/s) = 6.55911 7.31447 6.94706
#
# Compressibility (1/GPa) = 0.01816714
#
# Stress axis : x y z
#
# Youngs Moduli (GPa) = 71.36390 81.72859 97.87842
#
# Poissons Ratio (x) = 0.32823 0.31845
# Poissons Ratio (y) = 0.28660 0.18394
# Poissons Ratio (z) = 0.23219 0.15359
#
# Static dielectric constant tensor:
#      x y z
#    x 4.233560 0.000000 0.115140 
#    y 0.000000 4.208160 0.000000 
#    z 0.115140 0.000000 4.256570 
# 
# 
# High freq. dielectric constant tensor:
#      x y z
#    x 1.879240 0.000000 0.000790 
#    y 0.000000 1.879350 0.000000 
#    z 0.000790 0.000000 1.885100 
# 
# From -- ./inp_files/209694.got.cif
#   From: 2010.06.25/outbox.cif.g09.slc.cpg/sg15_105_cif.got.tgz:209694.got - 2010.06.28 07:06:18.
