data_PCOD8152384
_publ_section_title
;
Structure prediction by ZEFSAII (Michael W. Deem and Ramdas Pophale) SiO2 
 PCOD8152384
Probable space group: C 2/C
;
_chemical_formula_sum "Si O2"
_cell_formula_units_Z 60
_cell_length_a 14.916462
_cell_length_b 13.388643
_cell_length_c 15.958372
_cell_angle_alpha 90.000000
_cell_angle_beta 120.696524
_cell_angle_gamma 90.000000
_cell_volume 2740.504112
_symmetry_space_group_name_H-M "C 2/C"
_symmetry_group_IT_number 15
_symmetry_cell_setting 'monoclinic'
loop_
_space_group_symop_operation_xyz
x,y,z
-x,y,1/2-z
-x,-y,-z
x,-y,1/2+z
1/2+x,1/2+y,z
1/2-x,1/2+y,1/2-z
1/2-x,1/2-y,-z
1/2+x,1/2-y,1/2+z
loop_
_atom_site_type_symbol
_atom_site_label
_atom_site_fract_x
_atom_site_fract_y
_atom_site_fract_z
Si Si1 0.000000 0.997113 0.250000
Si Si2 0.300137 0.199820 0.153510
Si Si3 0.605982 0.232370 0.478329
Si Si4 0.389298 0.005857 0.734557
Si Si5 0.590987 0.658807 0.666045
Si Si6 0.755003 0.841770 0.399200
Si Si7 0.384960 0.029500 0.924202
Si Si8 0.204955 0.120668 0.393081
O O1 0.974555 0.927200 0.317984
O O2 0.901548 0.068153 0.186182
O O3 0.370947 0.225992 0.108389
O O4 0.320316 0.093079 0.203362
O O5 0.330065 0.284915 0.234117
O O6 0.179878 0.192724 0.065755
O O7 0.485880 0.266439 0.422276
O O8 0.636192 0.128575 0.534629
O O9 0.500000 0.974324 0.750000
O O10 0.347953 0.090368 0.652062
O O11 0.383969 0.050385 0.824955
O O12 0.663912 0.612085 0.629224
O O13 0.805293 0.854464 0.513973
O O14 0.724003 0.728299 0.358932
O O15 0.302016 0.948161 0.914879
O O16 0.500000 0.000000 0.000000
#
# Coordination Sequence:
#
# PCOD8152384 Si02
#       8
#     4   8   8   8   8   8   8   8
#     4  12  26  46  76 102 152 188 232 294 374 426
#     4  11  22  41  67 102 134 174 228 300 351 413
#     4  11  23  39  71  99 134 178 228 287 366 415
#     4  12  25  41  70 100 134 180 236 287 352 421
#     4  12  24  45  70 107 142 178 235 300 356 426
#     4  11  26  46  69  98 142 185 244 284 339 431
#     4  12  24  44  70 100 136 183 234 297 351 420
#     4  11  26  48  68  99 145 191 233 290 354 431
#
# _framework density 21.893782000000002
#
# number of rings (size 3 to 8) (size 9 to 14) (size 15 to 20)
#    0.000    0.533    1.333    8.000    4.667    1.600 
#    4.800    0.000    0.000    0.000    0.000    0.000 
#    0.000    0.000    0.000    0.000    0.000    0.000 
#
# Total GULP energy -371990.870714 kJ/mol
# GULP energy per Si atom -12399.695690 kJ/mol
# Density = 2.184395 g / cm^3
# Si number density = 21.893782 Si / 1000 Ang^3
#
#
#
# Elastic Constant Matrix: (Units=GPa)
#
#
# Indices 1 2 3 4 5 6 
#
# 1 104.0913 31.1556 41.1989 0.0000 0.0322 0.0000
# 2 31.1556 86.3870 16.5860 0.0000 10.1715 0.0000
# 3 41.1989 16.5860 90.0619 0.0000 13.8021 0.0000
# 4 0.0000 0.0000 0.0000 43.1857 0.0000 4.5871
# 5 0.0322 10.1715 13.8021 0.0000 35.4179 0.0000
# 6 0.0000 0.0000 0.0000 4.5871 0.0000 29.4893
#
#
#
# Elastic Compliance Matrix: (Units=1/GPa)
#
#
# Indices 1 2 3 4 5 6 
#
# 1 0.013090 -0.004012 -0.005768 0.000000 0.003388 0.000000
# 2 -0.004012 0.013487 -0.000059 0.000000 -0.003847 0.000000
# 3 -0.005768 -0.000059 0.014623 0.000000 -0.005676 0.000000
# 4 0.000000 0.000000 0.000000 0.023545 0.000000 -0.003662
# 5 0.003388 -0.003847 -0.005676 0.000000 0.031548 0.000000
# 6 0.000000 0.000000 0.000000 -0.003662 0.000000 0.034480
#
#
# Mechanical properties :
#
#
# Convention : Reuss Voigt Hill
#
# Bulk Modulus (GPa) = 46.46642 50.93568 48.70105
# Shear Modulus (GPa) = 31.72070 34.39189 33.05629
#
# Velocity S-wave (km/s) = 3.81050 3.96770 3.88989
# Velocity P-wave (km/s) = 6.37413 6.65624 6.51671
#
# Compressibility (1/GPa) = 0.02152092
#
# Stress axis : x y z
#
# Youngs Moduli (GPa) = 76.39466 74.14493 68.38564
#
# Poissons Ratio (x) = 0.29750 0.39447
# Poissons Ratio (y) = 0.30652 0.00402
# Poissons Ratio (z) = 0.44067 0.00436
#
# Static dielectric constant tensor:
#      x y z
#    x 3.983130 0.000000 0.065690 
#    y 0.000000 3.960800 0.000000 
#    z 0.065690 0.000000 4.187530 
# 
# 
# High freq. dielectric constant tensor:
#      x y z
#    x 1.866060 0.000000 0.001000 
#    y 0.000000 1.863720 0.000000 
#    z 0.001000 0.000000 1.877620 
# 
# From -- ./inp_files/154294.got.cif
#   From: 2010.06.25/outbox.cif.g09.slc.cpg/sg15_78_cif.got.tgz:154294.got - 2010.06.28 07:06:18.
