data_PCOD8152974
_publ_section_title
;
Structure prediction by ZEFSAII (Michael W. Deem and Ramdas Pophale) SiO2 
 PCOD8152974
Probable space group: C 2/C
;
_chemical_formula_sum "Si O2"
_cell_formula_units_Z 56
_cell_length_a 22.533832
_cell_length_b 11.601163
_cell_length_c 10.622797
_cell_angle_alpha 90.000000
_cell_angle_beta 55.276390
_cell_angle_gamma 90.000000
_cell_volume 2282.440178
_symmetry_space_group_name_H-M "C 2/C"
_symmetry_group_IT_number 15
_symmetry_cell_setting 'monoclinic'
loop_
_space_group_symop_operation_xyz
x,y,z
-x,y,1/2-z
-x,-y,-z
x,-y,1/2+z
1/2+x,1/2+y,z
1/2-x,1/2+y,1/2-z
1/2-x,1/2-y,-z
1/2+x,1/2-y,1/2+z
loop_
_atom_site_type_symbol
_atom_site_label
_atom_site_fract_x
_atom_site_fract_y
_atom_site_fract_z
Si Si1 0.919909 0.774648 0.555623
Si Si2 0.415556 0.863612 0.825291
Si Si3 0.422686 0.114509 0.791145
Si Si4 0.833296 0.784264 0.053971
Si Si5 0.806731 0.002418 0.429500
Si Si6 0.723417 0.392757 0.775607
Si Si7 0.079905 0.149884 0.829616
O O1 0.884907 0.694925 0.488848
O O2 0.932902 0.687483 0.653623
O O3 0.861011 0.871498 0.655025
O O4 0.992407 0.850030 0.436716
O O5 0.500000 0.865515 0.750000
O O6 0.395492 0.779705 0.735115
O O7 0.384841 0.988755 0.821028
O O8 0.500000 0.084970 0.750000
O O9 0.379034 0.178189 0.950279
O O10 0.765888 0.727699 0.208618
O O11 0.882671 0.868438 0.080353
O O12 0.810848 0.863415 0.964153
O O13 0.759882 0.009665 0.354371
O O14 0.765346 0.937519 0.594565
O O15 0.885478 0.941828 0.311083
#
# Coordination Sequence:
#
# PCOD8152974 Si02
#       7
#     8   8   8   8   8   8   8
#     4  11  23  45  71 107 145 195 241 306 371 433
#     4   9  22  39  67 104 139 184 235 296 365 425
#     4  11  23  41  69 104 146 185 244 307 363 436
#     4  12  27  47  71 107 145 193 246 299 373 439
#     4  12  26  51  72 108 145 192 246 304 365 444
#     4  12  28  49  73 106 155 191 247 302 373 449
#     4  11  24  47  73 105 144 188 254 301 364 434
#
# _framework density 24.535143000000001
#
# number of rings (size 3 to 8) (size 9 to 14) (size 15 to 20)
#    0.000    0.857    5.714    0.429    2.000    5.143 
#    5.143    0.000    0.000    0.000    0.000    0.000 
#    0.000    0.000    0.000    0.000    0.000    0.000 
#
# Total GULP energy -346952.958594 kJ/mol
# GULP energy per Si atom -12391.177093 kJ/mol
# Density = 2.447930 g / cm^3
# Si number density = 24.535143 Si / 1000 Ang^3
#
#
#
# Elastic Constant Matrix: (Units=GPa)
#
#
# Indices 1 2 3 4 5 6 
#
# 1 22.7353 -0.6701 21.1324 0.0000 -6.2904 0.0000
# 2 -0.6701 101.6147 36.7880 0.0000 -12.9133 0.0000
# 3 21.1324 36.7880 120.9538 0.0000 2.6414 0.0000
# 4 0.0000 0.0000 0.0000 -64.1674 0.0000 163.9663
# 5 -6.2904 -12.9133 2.6414 0.0000 35.5537 0.0000
# 6 0.0000 0.0000 0.0000 163.9663 0.0000 -195.8058
#
#
#
# Elastic Compliance Matrix: (Units=1/GPa)
#
#
# Indices 1 2 3 4 5 6 
#
# 1 0.060053 0.006848 -0.012882 0.000000 0.014069 0.000000
# 2 0.006848 0.012528 -0.005141 0.000000 0.006144 0.000000
# 3 -0.012882 -0.005141 0.012192 0.000000 -0.005052 0.000000
# 4 0.000000 0.000000 0.000000 0.013673 0.000000 0.011450
# 5 0.014069 0.006144 -0.005052 0.000000 0.033222 0.000000
# 6 0.000000 0.000000 0.000000 0.011450 0.000000 0.004481
#
#
# Mechanical properties :
#
#
# Convention : Reuss Voigt Hill
#
# Bulk Modulus (GPa) = 16.01986 39.97827 27.99907
# Shear Modulus (GPa) = 27.88498 -32.34702 -2.23102
#
# Velocity S-wave (km/s) = 3.37491 -3.63491 -0.95462
# Velocity P-wave (km/s) = 4.66157 1.13451 3.19711
#
# Compressibility (1/GPa) = 0.06242250
#
# Stress axis : x y z
#
# Youngs Moduli (GPa) = 16.65200 79.81968 82.01911
#
# Poissons Ratio (x) = -0.54658 1.05658
# Poissons Ratio (y) = -0.11403 0.42166
# Poissons Ratio (z) = 0.21451 0.41035
#
# Static dielectric constant tensor:
#      x y z
#    x 4.033380 0.000000 0.123970 
#    y 0.000000 4.453250 0.000000 
#    z 0.123970 0.000000 4.683870 
# 
# 
# High freq. dielectric constant tensor:
#      x y z
#    x 1.957420 0.000000 0.012830 
#    y 0.000000 1.982250 0.000000 
#    z 0.012830 0.000000 1.987350 
# 
# From -- ./inp_files/122629.got.cif
#   From: 2010.06.25/outbox.cif.g09.slc.cpg/sg15_62_cif.got.tgz:122629.got - 2010.06.28 07:06:18.
