data_PCOD8152757
_publ_section_title
;
Structure prediction by ZEFSAII (Michael W. Deem and Ramdas Pophale) SiO2 
 PCOD8152757
Probable space group: C 2/C
;
_chemical_formula_sum "Si O2"
_cell_formula_units_Z 48
_cell_length_a 16.764778
_cell_length_b 26.898512
_cell_length_c 9.314304
_cell_angle_alpha 90.000000
_cell_angle_beta 146.612388
_cell_angle_gamma 90.000000
_cell_volume 2311.405596
_symmetry_space_group_name_H-M "C 2/C"
_symmetry_group_IT_number 15
_symmetry_cell_setting 'monoclinic'
loop_
_space_group_symop_operation_xyz
x,y,z
-x,y,1/2-z
-x,-y,-z
x,-y,1/2+z
1/2+x,1/2+y,z
1/2-x,1/2+y,1/2-z
1/2-x,1/2-y,-z
1/2+x,1/2-y,1/2+z
loop_
_atom_site_type_symbol
_atom_site_label
_atom_site_fract_x
_atom_site_fract_y
_atom_site_fract_z
Si Si1 0.128714 0.188856 0.554340
Si Si2 0.331294 0.469529 0.001501
Si Si3 0.657008 0.197829 0.142080
Si Si4 0.834398 0.542453 0.542001
Si Si5 0.340601 0.844490 0.141652
Si Si6 0.363617 0.360562 0.142482
O O1 0.142764 0.243573 0.641762
O O2 0.272736 0.172149 0.689573
O O3 0.098411 0.150418 0.636073
O O4 0.000000 0.185780 0.250000
O O5 0.226608 0.507525 0.924691
O O6 0.272662 0.462521 0.753132
O O7 0.500000 0.487256 0.250000
O O8 0.316998 0.417656 0.063655
O O9 0.737745 0.176123 0.401005
O O10 0.733998 0.185425 0.104178
O O11 0.506918 0.169192 0.907139
O O12 0.825384 0.597292 0.592535
O O13 0.000000 0.528180 0.750000
O O14 0.500000 0.348987 0.250000
#
# Coordination Sequence:
#
# PCOD8152757 Si02
#       6
#     8   8   8   8   8   8
#     4  12  26  39  70 101 130 181 228 269 329 415
#     4  11  26  45  70 100 136 177 229 284 342 406
#     4  11  22  46  65  96 136 181 218 274 334 395
#     4  12  24  47  72 100 134 183 222 286 346 402
#     4  11  23  42  71  95 136 172 224 271 334 397
#     4  11  25  45  66  97 138 175 220 283 337 393
#
# _framework density 20.766586
#
# number of rings (size 3 to 8) (size 9 to 14) (size 15 to 20)
#    0.000    0.667    5.000    3.000    7.000    1.333 
#    0.000    0.000    0.000    0.000    0.000    0.000 
#    0.000    0.000    0.000    0.000    0.000    0.000 
#
# Total GULP energy -297680.286949 kJ/mol
# GULP energy per Si atom -12403.345290 kJ/mol
# Density = 2.071932 g / cm^3
# Si number density = 20.766586 Si / 1000 Ang^3
#
#
#
# Elastic Constant Matrix: (Units=GPa)
#
#
# Indices 1 2 3 4 5 6 
#
# 1 89.1540 53.0286 -4.0012 0.0000 18.7047 0.0000
# 2 53.0286 128.2715 7.3858 0.0000 19.7192 0.0000
# 3 -4.0012 7.3858 129.4076 0.0000 -32.5753 0.0000
# 4 0.0000 0.0000 0.0000 313.0980 0.0000 -532.1259
# 5 18.7047 19.7192 -32.5753 0.0000 65.2435 0.0000
# 6 0.0000 0.0000 0.0000 -532.1259 0.0000 1037.4343
#
#
#
# Elastic Compliance Matrix: (Units=1/GPa)
#
#
# Indices 1 2 3 4 5 6 
#
# 1 0.015285 -0.005946 0.000184 0.000000 -0.002493 0.000000
# 2 -0.005946 0.010668 -0.001344 0.000000 -0.002191 0.000000
# 3 0.000184 -0.001344 0.009034 0.000000 0.004864 0.000000
# 4 0.000000 0.000000 0.000000 0.024902 0.000000 0.012773
# 5 -0.002493 -0.002191 0.004864 0.000000 0.019133 0.000000
# 6 0.000000 0.000000 0.000000 0.012773 0.000000 0.007515
#
#
# Mechanical properties :
#
#
# Convention : Reuss Voigt Hill
#
# Bulk Modulus (GPa) = 48.13376 51.07330 49.60353
# Shear Modulus (GPa) = 46.43624 302.51647 174.47636
#
# Velocity S-wave (km/s) = 4.73388 12.08267 9.17607
# Velocity P-wave (km/s) = 7.28754 14.80884 11.67069
#
# Compressibility (1/GPa) = 0.02077544
#
# Stress axis : x y z
#
# Youngs Moduli (GPa) = 65.42538 93.73488 110.68824
#
# Poissons Ratio (x) = 0.55737 -0.02042
# Poissons Ratio (y) = 0.38903 0.14879
# Poissons Ratio (z) = -0.01207 0.12600
#
# Static dielectric constant tensor:
#      x y z
#    x 4.776690 0.000000 -0.513390 
#    y 0.000000 3.818320 0.000000 
#    z -0.513390 0.000000 4.180570 
# 
# 
# High freq. dielectric constant tensor:
#      x y z
#    x 1.816860 0.000000 -0.001950 
#    y 0.000000 1.821790 0.000000 
#    z -0.001950 0.000000 1.823630 
# 
# From -- ./inp_files/43919.got.cif
#   From: 2010.06.25/outbox.cif.g09.slc.cpg/sg15_22_cif.got.tgz:43919.got - 2010.06.28 07:06:18.
