data_PCOD8152552
_publ_section_title
;
Structure prediction by ZEFSAII (Michael W. Deem and Ramdas Pophale) SiO2 
 PCOD8152552
Probable space group: C 2/C
;
_chemical_formula_sum "Si O2"
_cell_formula_units_Z 64
_cell_length_a 10.903505
_cell_length_b 23.209927
_cell_length_c 11.614933
_cell_angle_alpha 90.000000
_cell_angle_beta 98.442390
_cell_angle_gamma 90.000000
_cell_volume 2907.534692
_symmetry_space_group_name_H-M "C 2/C"
_symmetry_group_IT_number 15
_symmetry_cell_setting 'monoclinic'
loop_
_space_group_symop_operation_xyz
x,y,z
-x,y,1/2-z
-x,-y,-z
x,-y,1/2+z
1/2+x,1/2+y,z
1/2-x,1/2+y,1/2-z
1/2-x,1/2-y,-z
1/2+x,1/2-y,1/2+z
loop_
_atom_site_type_symbol
_atom_site_label
_atom_site_fract_x
_atom_site_fract_y
_atom_site_fract_z
Si Si1 0.818446 0.086172 0.965652
Si Si2 0.001503 0.722557 0.944212
Si Si3 0.602789 0.003263 0.666425
Si Si4 0.949441 0.591586 0.512877
Si Si5 0.135796 0.122564 0.276038
Si Si6 0.566347 0.307413 0.144363
Si Si7 0.687862 0.746358 0.275490
Si Si8 0.629399 0.504298 0.200562
O O1 0.893074 0.137785 0.920878
O O2 0.873697 0.026760 0.923438
O O3 0.670738 0.090911 0.918878
O O4 0.843027 0.086705 0.104575
O O5 0.124512 0.738834 0.889110
O O6 0.885388 0.729325 0.843907
O O7 0.007910 0.657666 0.995284
O O8 0.986447 0.765765 0.049938
O O9 0.500000 0.005273 0.750000
O O10 0.564966 0.053971 0.573219
O O11 0.744581 0.017945 0.719482
O O12 0.596049 0.938625 0.611928
O O13 0.221769 0.177963 0.272124
O O14 0.000000 0.151565 0.250000
O O15 0.145969 0.073154 0.179483
O O16 0.500000 0.329428 0.250000
O O17 0.680303 0.273623 0.211167
O O18 0.500000 0.491727 0.250000
#
# Coordination Sequence:
#
# PCOD8152552 Si02
#       8
#     8   8   8   8   8   8   8   8
#     4  12  22  44  67  99 136 180 238 287 345 430
#     4  11  23  43  73 104 127 183 238 288 349 426
#     4  11  24  45  68  99 148 180 232 296 346 408
#     4  11  24  41  73 102 134 184 236 286 351 421
#     4  11  22  43  67  96 136 177 237 289 349 416
#     4  12  26  42  68 101 145 181 222 299 362 424
#     4  11  22  42  74  99 129 182 236 290 343 418
#     4  11  26  41  67 101 137 187 231 286 351 416
#
# _framework density 22.011775
#
# number of rings (size 3 to 8) (size 9 to 14) (size 15 to 20)
#    0.000    0.750    6.250    1.500    3.500    3.000 
#    0.000    1.250    0.000    0.000    0.000    0.000 
#    0.000    0.000    0.000    0.000    0.000    0.000 
#
# Total GULP energy -396632.264983 kJ/mol
# GULP energy per Si atom -12394.758281 kJ/mol
# Density = 2.196167 g / cm^3
# Si number density = 22.011775 Si / 1000 Ang^3
#
#
#
# Elastic Constant Matrix: (Units=GPa)
#
#
# Indices 1 2 3 4 5 6 
#
# 1 74.3890 6.4436 23.1842 0.0000 10.5446 0.0000
# 2 6.4436 151.2520 28.9787 0.0000 -1.8414 0.0000
# 3 23.1842 28.9787 64.5617 0.0000 6.5379 0.0000
# 4 0.0000 0.0000 0.0000 31.1701 0.0000 -1.7647
# 5 10.5446 -1.8414 6.5379 0.0000 24.5903 0.0000
# 6 0.0000 0.0000 0.0000 -1.7647 0.0000 25.9319
#
#
#
# Elastic Compliance Matrix: (Units=1/GPa)
#
#
# Indices 1 2 3 4 5 6 
#
# 1 0.015819 0.000268 -0.005258 0.000000 -0.005365 0.000000
# 2 0.000268 0.007288 -0.003506 0.000000 0.001363 0.000000
# 3 -0.005258 -0.003506 0.019268 0.000000 -0.003131 0.000000
# 4 0.000000 0.000000 0.000000 0.032206 0.000000 0.002192
# 5 -0.005365 0.001363 -0.003131 0.000000 0.043902 0.000000
# 6 0.000000 0.000000 0.000000 0.002192 0.000000 0.038712
#
#
# Mechanical properties :
#
#
# Convention : Reuss Voigt Hill
#
# Bulk Modulus (GPa) = 39.39423 45.26842 42.33133
# Shear Modulus (GPa) = 27.37539 31.77820 29.57680
#
# Velocity S-wave (km/s) = 3.53040 3.80372 3.66960
# Velocity P-wave (km/s) = 5.87827 6.31674 6.10144
#
# Compressibility (1/GPa) = 0.02538443
#
# Stress axis : x y z
#
# Youngs Moduli (GPa) = 63.21618 137.20590 51.90054
#
# Poissons Ratio (x) = -0.03678 0.27287
# Poissons Ratio (y) = -0.01695 0.18195
# Poissons Ratio (z) = 0.33236 0.48100
#
# Static dielectric constant tensor:
#      x y z
#    x 4.019710 0.000000 0.165450 
#    y 0.000000 4.101280 0.000000 
#    z 0.165450 0.000000 3.756780 
# 
# 
# High freq. dielectric constant tensor:
#      x y z
#    x 1.859860 0.000000 0.022980 
#    y 0.000000 1.880690 0.000000 
#    z 0.022980 0.000000 1.854740 
# 
# From -- ./inp_files/90842.got.cif
#   From: 2010.06.25/outbox.cif.g09.slc.cpg/sg15_46_cif.got.tgz:90842.got - 2010.06.28 07:06:18.
