data_PCOD8152936
_publ_section_title
;
Structure prediction by ZEFSAII (Michael W. Deem and Ramdas Pophale) SiO2 
 PCOD8152936
Probable space group: C 2/C
;
_chemical_formula_sum "Si O2"
_cell_formula_units_Z 56
_cell_length_a 27.240008
_cell_length_b 10.921434
_cell_length_c 9.804808
_cell_angle_alpha 90.000000
_cell_angle_beta 116.746539
_cell_angle_gamma 90.000000
_cell_volume 2604.836269
_symmetry_space_group_name_H-M "C 2/C"
_symmetry_group_IT_number 15
_symmetry_cell_setting 'monoclinic'
loop_
_space_group_symop_operation_xyz
x,y,z
-x,y,1/2-z
-x,-y,-z
x,-y,1/2+z
1/2+x,1/2+y,z
1/2-x,1/2+y,1/2-z
1/2-x,1/2-y,-z
1/2+x,1/2-y,1/2+z
loop_
_atom_site_type_symbol
_atom_site_label
_atom_site_fract_x
_atom_site_fract_y
_atom_site_fract_z
Si Si1 0.624227 0.498941 0.618505
Si Si2 0.307753 0.100778 0.110097
Si Si3 0.467657 0.671055 0.415758
Si Si4 0.027687 0.410267 0.928029
Si Si5 0.678571 0.624915 0.942075
Si Si6 0.365296 0.038128 0.453717
Si Si7 0.419937 0.287885 0.582230
O O1 0.561063 0.450972 0.559551
O O2 0.649739 0.533378 0.797406
O O3 0.658262 0.399351 0.572223
O O4 0.627094 0.620043 0.527762
O O5 0.334528 0.232958 0.108678
O O6 0.322493 0.059784 0.280114
O O7 0.242935 0.102999 0.012927
O O8 0.329881 0.992127 0.042216
O O9 0.480825 0.767893 0.550676
O O10 0.525149 0.652025 0.412146
O O11 0.423538 0.720812 0.250061
O O12 0.000000 0.441922 0.750000
O O13 0.093333 0.425733 0.016054
O O14 0.000000 0.500000 0.000000
O O15 0.406231 0.152796 0.516136
#
# Coordination Sequence:
#
# PCOD8152936 Si02
#       7
#     8   8   8   8   8   8   8
#     4  12  23  45  69  96 138 182 225 289 348 408
#     4  11  25  45  70 101 134 181 236 290 358 414
#     4  11  24  41  65  98 135 180 227 270 351 419
#     4  12  24  41  66  99 137 179 228 279 334 413
#     4  11  25  46  70  99 136 179 237 297 347 418
#     4  12  23  42  68  96 139 178 223 286 348 403
#     4  11  23  41  64  98 138 175 221 283 339 417
#
# _framework density 21.498472
#
# number of rings (size 3 to 8) (size 9 to 14) (size 15 to 20)
#    0.000    0.571    4.286    4.714    0.000    1.143 
#    2.571    0.714    0.000    0.000    0.000    0.000 
#    0.000    0.000    0.000    0.000    0.000    0.000 
#
# Total GULP energy -347115.301127 kJ/mol
# GULP energy per Si atom -12396.975040 kJ/mol
# Density = 2.144954 g / cm^3
# Si number density = 21.498472 Si / 1000 Ang^3
#
#
#
# Elastic Constant Matrix: (Units=GPa)
#
#
# Indices 1 2 3 4 5 6 
#
# 1 78.0341 24.7527 15.9813 0.0000 -7.6284 0.0000
# 2 24.7527 87.5478 42.9130 0.0000 -3.6512 0.0000
# 3 15.9813 42.9130 122.0205 0.0000 -7.1218 0.0000
# 4 0.0000 0.0000 0.0000 37.0890 0.0000 -1.2330
# 5 -7.6284 -3.6512 -7.1218 0.0000 32.7374 0.0000
# 6 0.0000 0.0000 0.0000 -1.2330 0.0000 32.9126
#
#
#
# Elastic Compliance Matrix: (Units=1/GPa)
#
#
# Indices 1 2 3 4 5 6 
#
# 1 0.014363 -0.003748 -0.000397 0.000000 0.002842 0.000000
# 2 -0.003748 0.014787 -0.004724 0.000000 -0.000252 0.000000
# 3 -0.000397 -0.004724 0.010000 0.000000 0.001556 0.000000
# 4 0.000000 0.000000 0.000000 0.026996 0.000000 0.001011
# 5 0.002842 -0.000252 0.001556 0.000000 0.031519 0.000000
# 6 0.000000 0.000000 0.000000 0.001011 0.000000 0.030421
#
#
# Mechanical properties :
#
#
# Convention : Reuss Voigt Hill
#
# Bulk Modulus (GPa) = 46.70424 50.54405 48.62415
# Shear Modulus (GPa) = 32.68807 34.14485 33.41646
#
# Velocity S-wave (km/s) = 3.90357 3.98960 3.94682
# Velocity P-wave (km/s) = 6.48758 6.69210 6.59063
#
# Compressibility (1/GPa) = 0.02141133
#
# Stress axis : x y z
#
# Youngs Moduli (GPa) = 69.62384 67.62653 100.00343
#
# Poissons Ratio (x) = 0.25344 0.03973
# Poissons Ratio (y) = 0.26092 0.47245
# Poissons Ratio (z) = 0.02766 0.31949
#
# Static dielectric constant tensor:
#      x y z
#    x 3.344500 0.000000 -0.219720 
#    y 0.000000 3.892460 0.000000 
#    z -0.219720 0.000000 3.887650 
# 
# 
# High freq. dielectric constant tensor:
#      x y z
#    x 1.838110 0.000000 -0.002250 
#    y 0.000000 1.848600 0.000000 
#    z -0.002250 0.000000 1.853920 
# 
# From -- ./inp_files/65543.got.cif
#   From: 2010.06.25/outbox.cif.g09.slc.cpg/sg15_33_cif.got.tgz:65543.got - 2010.06.28 07:06:18.
