data_PCOD8152470
_publ_section_title
;
Structure prediction by ZEFSAII (Michael W. Deem and Ramdas Pophale) SiO2 
 PCOD8152470
Probable space group: C 2/C
;
_chemical_formula_sum "Si O2"
_cell_formula_units_Z 52
_cell_length_a 14.761367
_cell_length_b 19.349583
_cell_length_c 14.185979
_cell_angle_alpha 90.000000
_cell_angle_beta 141.656119
_cell_angle_gamma 90.000000
_cell_volume 2513.710206
_symmetry_space_group_name_H-M "C 2/C"
_symmetry_group_IT_number 15
_symmetry_cell_setting 'monoclinic'
loop_
_space_group_symop_operation_xyz
x,y,z
-x,y,1/2-z
-x,-y,-z
x,-y,1/2+z
1/2+x,1/2+y,z
1/2-x,1/2+y,1/2-z
1/2-x,1/2-y,-z
1/2+x,1/2-y,1/2+z
loop_
_atom_site_type_symbol
_atom_site_label
_atom_site_fract_x
_atom_site_fract_y
_atom_site_fract_z
Si Si1 0.825542 0.496387 0.844161
Si Si2 0.255962 0.902385 0.437204
Si Si3 0.184268 0.233933 0.791012
Si Si4 0.500000 0.843596 0.750000
Si Si5 0.363825 0.534917 0.482336
Si Si6 0.929900 0.917938 0.794533
Si Si7 0.544023 0.679377 0.028061
O O1 0.764345 0.567396 0.838628
O O2 0.776514 0.489893 0.694517
O O3 0.744867 0.434348 0.838882
O O4 0.000000 0.500000 0.000000
O O5 0.182246 0.826854 0.367991
O O6 0.416255 0.893868 0.611011
O O7 0.171327 0.956858 0.434921
O O8 0.107536 0.298849 0.775025
O O9 0.346115 0.256878 0.895898
O O10 0.109296 0.208231 0.633833
O O11 0.493273 0.478536 0.579900
O O12 0.409363 0.611592 0.491125
O O13 0.964817 0.843344 0.869708
O O14 0.000000 0.914874 0.750000
#
# Coordination Sequence:
#
# PCOD8152470 Si02
#       7
#     8   8   8   4   8   8   8
#     4  11  24  39  63  96 130 166 209 271 328 371
#     4  12  22  38  64  92 133 164 208 262 328 388
#     4  12  23  39  60  92 127 169 205 262 325 386
#     4  12  22  36  54  98 130 164 198 258 324 386
#     4  11  22  42  65  95 126 171 215 263 324 393
#     4  11  23  44  65  92 125 174 222 267 314 385
#     4  11  24  40  62  91 128 165 216 261 322 387
#
# _framework density 20.686554000000001
#
# number of rings (size 3 to 8) (size 9 to 14) (size 15 to 20)
#    0.000    0.615    4.615    6.000    2.154    0.000 
#    0.000    0.769    0.000    0.000    0.000    0.000 
#    0.000    0.000    0.000    0.000    0.000    0.000 
#
# Total GULP energy -322273.474707 kJ/mol
# GULP energy per Si atom -12395.133643 kJ/mol
# Density = 2.063947 g / cm^3
# Si number density = 20.686554 Si / 1000 Ang^3
#
#
#
# Elastic Constant Matrix: (Units=GPa)
#
#
# Indices 1 2 3 4 5 6 
#
# 1 82.2531 12.0097 28.5005 0.0000 -9.8089 0.0000
# 2 12.0097 63.0131 26.3965 0.0000 -7.4434 0.0000
# 3 28.5005 26.3965 108.2803 0.0000 5.8921 0.0000
# 4 0.0000 0.0000 0.0000 38.2513 0.0000 -9.9879
# 5 -9.8089 -7.4434 5.8921 0.0000 29.7059 0.0000
# 6 0.0000 0.0000 0.0000 -9.9879 0.0000 23.6404
#
#
#
# Elastic Compliance Matrix: (Units=1/GPa)
#
#
# Indices 1 2 3 4 5 6 
#
# 1 0.014223 -0.000430 -0.003931 0.000000 0.005368 0.000000
# 2 -0.000430 0.018568 -0.004710 0.000000 0.005445 0.000000
# 3 -0.003931 -0.004710 0.011679 0.000000 -0.004794 0.000000
# 4 0.000000 0.000000 0.000000 0.029385 0.000000 0.012415
# 5 0.005368 0.005445 -0.004794 0.000000 0.037751 0.000000
# 6 0.000000 0.000000 0.000000 0.012415 0.000000 0.047546
#
#
# Mechanical properties :
#
#
# Convention : Reuss Voigt Hill
#
# Bulk Modulus (GPa) = 37.98154 43.03997 40.51076
# Shear Modulus (GPa) = 26.87199 30.76217 28.81708
#
# Velocity S-wave (km/s) = 3.60808 3.86043 3.73639
# Velocity P-wave (km/s) = 5.97980 6.38134 6.18383
#
# Compressibility (1/GPa) = 0.02632858
#
# Stress axis : x y z
#
# Youngs Moduli (GPa) = 70.31080 53.85713 85.62455
#
# Poissons Ratio (x) = 0.02315 0.33658
# Poissons Ratio (y) = 0.03023 0.40325
# Poissons Ratio (z) = 0.27638 0.25364
#
# Static dielectric constant tensor:
#      x y z
#    x 3.768640 0.000000 -0.082710 
#    y 0.000000 3.825130 0.000000 
#    z -0.082710 0.000000 4.074280 
# 
# 
# High freq. dielectric constant tensor:
#      x y z
#    x 1.792560 0.000000 -0.000820 
#    y 0.000000 1.799410 0.000000 
#    z -0.000820 0.000000 1.823820 
# 
# From -- ./inp_files/155551.got.cif
#   From: 2010.06.25/outbox.cif.g09.slc.cpg/sg15_78_cif.got.tgz:155551.got - 2010.06.28 07:06:18.
