data_PCOD8152132
_publ_section_title
;
Structure prediction by ZEFSAII (Michael W. Deem and Ramdas Pophale) SiO2 
 PCOD8152132
Probable space group: C 2/C
;
_chemical_formula_sum "Si O2"
_cell_formula_units_Z 56
_cell_length_a 13.014858
_cell_length_b 20.530113
_cell_length_c 11.109468
_cell_angle_alpha 90.000000
_cell_angle_beta 73.442764
_cell_angle_gamma 90.000000
_cell_volume 2845.327459
_symmetry_space_group_name_H-M "C 2/C"
_symmetry_group_IT_number 15
_symmetry_cell_setting 'monoclinic'
loop_
_space_group_symop_operation_xyz
x,y,z
-x,y,1/2-z
-x,-y,-z
x,-y,1/2+z
1/2+x,1/2+y,z
1/2-x,1/2+y,1/2-z
1/2-x,1/2-y,-z
1/2+x,1/2-y,1/2+z
loop_
_atom_site_type_symbol
_atom_site_label
_atom_site_fract_x
_atom_site_fract_y
_atom_site_fract_z
Si Si1 0.522569 0.464844 0.867467
Si Si2 0.842859 0.425917 0.356094
Si Si3 0.044943 0.380928 0.417224
Si Si4 0.303676 0.635106 0.202167
Si Si5 0.483342 0.264220 0.613435
Si Si6 0.155560 0.139828 0.049589
Si Si7 0.386851 0.926669 0.852897
O O1 0.500000 0.506825 0.750000
O O2 0.642118 0.436223 0.830849
O O3 0.441677 0.405483 0.877951
O O4 0.500000 0.500000 0.000000
O O5 0.877942 0.392940 0.220956
O O6 0.728589 0.393153 0.423816
O O7 0.832768 0.503340 0.346057
O O8 0.927873 0.410982 0.432826
O O9 0.035113 0.304159 0.446167
O O10 0.097944 0.417437 0.510804
O O11 0.379786 0.690910 0.119903
O O12 0.277474 0.652200 0.350333
O O13 0.190834 0.630257 0.170381
O O14 0.500000 0.253438 0.750000
O O15 0.595008 0.294737 0.523250
O O16 0.500000 0.921661 0.750000
#
# Coordination Sequence:
#
# PCOD8152132 Si02
#       7
#     8   8   8   8   8   8   8
#     4   9  17  34  54  84 115 151 197 246 294 347
#     4  11  22  38  58  89 118 149 196 240 295 340
#     4  11  23  39  60  83 120 155 190 247 287 337
#     4   9  20  36  60  82 115 155 188 241 292 344
#     4   9  18  41  62  87 114 148 199 242 287 342
#     4   9  19  35  63  85 112 149 198 238 288 352
#     4  12  24  39  58  85 122 156 194 233 295 356
#
# _framework density 19.681391000000001
#
# number of rings (size 3 to 8) (size 9 to 14) (size 15 to 20)
#    0.000    2.000    2.857    3.857    2.000    1.143 
#    5.143    0.000    0.000    0.000    0.000    0.000 
#    0.000    0.000    0.000    0.000    0.000    0.000 
#
# Total GULP energy -347075.413197 kJ/mol
# GULP energy per Si atom -12395.550471 kJ/mol
# Density = 1.963659 g / cm^3
# Si number density = 19.681391 Si / 1000 Ang^3
#
#
#
# Elastic Constant Matrix: (Units=GPa)
#
#
# Indices 1 2 3 4 5 6 
#
# 1 89.7371 35.7097 38.5415 0.0000 -8.8109 0.0000
# 2 35.7097 83.2693 22.6660 0.0000 1.3440 0.0000
# 3 38.5415 22.6660 78.9963 0.0000 4.1927 0.0000
# 4 0.0000 0.0000 0.0000 18.3815 0.0000 -2.0470
# 5 -8.8109 1.3440 4.1927 0.0000 33.5382 0.0000
# 6 0.0000 0.0000 0.0000 -2.0470 0.0000 15.8338
#
#
#
# Elastic Compliance Matrix: (Units=1/GPa)
#
#
# Indices 1 2 3 4 5 6 
#
# 1 0.016821 -0.005412 -0.006946 0.000000 0.005504 0.000000
# 2 -0.005412 0.014768 -0.001500 0.000000 -0.001826 0.000000
# 3 -0.006946 -0.001500 0.016683 0.000000 -0.003850 0.000000
# 4 0.000000 0.000000 0.000000 0.055197 0.000000 0.007136
# 5 0.005504 -0.001826 -0.003850 0.000000 0.031817 0.000000
# 6 0.000000 0.000000 0.000000 0.007136 0.000000 0.064079
#
#
# Mechanical properties :
#
#
# Convention : Reuss Voigt Hill
#
# Bulk Modulus (GPa) = 48.64873 49.53746 49.09309
# Shear Modulus (GPa) = 21.37374 23.88973 22.63174
#
# Velocity S-wave (km/s) = 3.29901 3.48778 3.39470
# Velocity P-wave (km/s) = 6.26762 6.43768 6.35322
#
# Compressibility (1/GPa) = 0.02055552
#
# Stress axis : x y z
#
# Youngs Moduli (GPa) = 59.44967 67.71489 59.94293
#
# Poissons Ratio (x) = 0.36645 0.41637
# Poissons Ratio (y) = 0.32172 0.08992
# Poissons Ratio (z) = 0.41295 0.10157
#
# Static dielectric constant tensor:
#      x y z
#    x 3.597740 0.000000 0.005360 
#    y 0.000000 3.558470 0.000000 
#    z 0.005360 0.000000 3.573710 
# 
# 
# High freq. dielectric constant tensor:
#      x y z
#    x 1.767940 0.000000 -0.008770 
#    y 0.000000 1.754950 0.000000 
#    z -0.008770 0.000000 1.752660 
# 
# From -- ./inp_files/88908.got.cif
#   From: 2010.06.25/outbox.cif.g09.slc.cpg/sg15_45_cif.got.tgz:88908.got - 2010.06.28 07:06:18.
