data_PCOD8152394
_publ_section_title
;
Structure prediction by ZEFSAII (Michael W. Deem and Ramdas Pophale) SiO2 
 PCOD8152394
Probable space group: C 2/C
;
_chemical_formula_sum "Si O2"
_cell_formula_units_Z 36
_cell_length_a 14.935304
_cell_length_b 7.143509
_cell_length_c 17.885182
_cell_angle_alpha 90.000000
_cell_angle_beta 126.843861
_cell_angle_gamma 90.000000
_cell_volume 1527.063018
_symmetry_space_group_name_H-M "C 2/C"
_symmetry_group_IT_number 15
_symmetry_cell_setting 'monoclinic'
loop_
_space_group_symop_operation_xyz
x,y,z
-x,y,1/2-z
-x,-y,-z
x,-y,1/2+z
1/2+x,1/2+y,z
1/2-x,1/2+y,1/2-z
1/2-x,1/2-y,-z
1/2+x,1/2-y,1/2+z
loop_
_atom_site_type_symbol
_atom_site_label
_atom_site_fract_x
_atom_site_fract_y
_atom_site_fract_z
Si Si1 0.904091 0.359366 0.476533
Si Si2 0.291013 0.539953 0.356330
Si Si3 0.262859 0.625464 0.174474
Si Si4 0.084881 0.388573 0.850142
Si Si5 0.500000 0.754165 0.250000
O O1 0.902766 0.165090 0.427240
O O2 0.786739 0.467613 0.404507
O O3 0.917948 0.297641 0.569566
O O4 0.000000 0.500000 0.500000
O O5 0.240201 0.569315 0.248697
O O6 0.304774 0.318132 0.375545
O O7 0.207437 0.620684 0.376844
O O8 0.396331 0.631461 0.227269
O O9 0.044424 0.606898 0.838107
O O10 0.000000 0.282393 0.750000
#
# Coordination Sequence:
#
# PCOD8152394 Si02
#       5
#     8   8   8   8   4
#     4  12  24  41  69  98 136 176 218 275 328 391
#     4  11  22  41  67  96 132 173 218 269 331 391
#     4  11  22  43  68  97 132 177 218 270 333 391
#     4   9  20  42  65  93 134 173 215 273 325 385
#     4   8  20  40  64  92 132 166 224 270 320 386
#
# _framework density 23.574667000000002
#
# number of rings (size 3 to 8) (size 9 to 14) (size 15 to 20)
#    0.667    0.889    2.222    3.333    0.000    4.444 
#    2.000    2.222    0.000    0.000    0.000    0.000 
#    0.000    0.000    0.000    0.000    0.000    0.000 
#
# Total GULP energy -223069.275791 kJ/mol
# GULP energy per Si atom -12392.737544 kJ/mol
# Density = 2.352101 g / cm^3
# Si number density = 23.574667 Si / 1000 Ang^3
#
#
#
# Elastic Constant Matrix: (Units=GPa)
#
#
# Indices 1 2 3 4 5 6 
#
# 1 64.9693 10.1817 19.9995 0.0000 -0.8028 0.0000
# 2 10.1817 102.2492 36.1932 0.0000 1.6141 0.0000
# 3 19.9995 36.1932 141.4801 0.0000 -21.5548 0.0000
# 4 0.0000 0.0000 0.0000 22.7737 0.0000 7.3630
# 5 -0.8028 1.6141 -21.5548 0.0000 33.3425 0.0000
# 6 0.0000 0.0000 0.0000 7.3630 0.0000 28.8981
#
#
#
# Elastic Compliance Matrix: (Units=1/GPa)
#
#
# Indices 1 2 3 4 5 6 
#
# 1 0.016194 -0.000804 -0.002239 0.000000 -0.001018 0.000000
# 2 -0.000804 0.010993 -0.003087 0.000000 -0.002547 0.000000
# 3 -0.002239 -0.003087 0.009083 0.000000 0.005968 0.000000
# 4 0.000000 0.000000 0.000000 0.047852 0.000000 -0.012192
# 5 -0.001018 -0.002547 0.005968 0.000000 0.033948 0.000000
# 6 0.000000 0.000000 0.000000 -0.012192 0.000000 0.037711
#
#
# Mechanical properties :
#
#
# Convention : Reuss Voigt Hill
#
# Bulk Modulus (GPa) = 41.64578 49.04974 45.34776
# Shear Modulus (GPa) = 28.40190 33.15781 30.77985
#
# Velocity S-wave (km/s) = 3.47474 3.75440 3.61727
# Velocity P-wave (km/s) = 5.81397 6.29646 6.06002
#
# Compressibility (1/GPa) = 0.02401204
#
# Stress axis : x y z
#
# Youngs Moduli (GPa) = 61.74953 90.96832 110.09144
#
# Poissons Ratio (x) = 0.07315 0.24646
# Poissons Ratio (y) = 0.04965 0.33980
# Poissons Ratio (z) = 0.13824 0.28078
#
# Static dielectric constant tensor:
#      x y z
#    x 4.008080 0.000000 0.108970 
#    y 0.000000 4.173180 0.000000 
#    z 0.108970 0.000000 4.207320 
# 
# 
# High freq. dielectric constant tensor:
#      x y z
#    x 1.923270 0.000000 0.003090 
#    y 0.000000 1.927390 0.000000 
#    z 0.003090 0.000000 1.925030 
# 
# From -- ./inp_files/150158.got.cif
#   From: 2010.06.25/outbox.cif.g09.slc.cpg/sg15_76_cif.got.tgz:150158.got - 2010.06.28 07:06:18.
