data_PCOD8152631
_publ_section_title
;
Structure prediction by ZEFSAII (Michael W. Deem and Ramdas Pophale) SiO2 
 PCOD8152631
Probable space group: C 2/C
;
_chemical_formula_sum "Si O2"
_cell_formula_units_Z 48
_cell_length_a 10.548865
_cell_length_b 11.228840
_cell_length_c 18.013953
_cell_angle_alpha 90.000000
_cell_angle_beta 102.849434
_cell_angle_gamma 90.000000
_cell_volume 2080.345608
_symmetry_space_group_name_H-M "C 2/C"
_symmetry_group_IT_number 15
_symmetry_cell_setting 'monoclinic'
loop_
_space_group_symop_operation_xyz
x,y,z
-x,y,1/2-z
-x,-y,-z
x,-y,1/2+z
1/2+x,1/2+y,z
1/2-x,1/2+y,1/2-z
1/2-x,1/2-y,-z
1/2+x,1/2-y,1/2+z
loop_
_atom_site_type_symbol
_atom_site_label
_atom_site_fract_x
_atom_site_fract_y
_atom_site_fract_z
Si Si1 0.083536 0.190576 0.926914
Si Si2 0.367849 0.911550 0.118482
Si Si3 0.051181 0.237332 0.082117
Si Si4 0.810806 0.930022 0.547048
Si Si5 0.191055 0.281582 0.652773
Si Si6 0.796593 0.652245 0.178760
O O1 0.163586 0.238873 0.868267
O O2 0.932109 0.211467 0.893809
O O3 0.110436 0.050895 0.933324
O O4 0.121985 0.253418 0.010867
O O5 0.512822 0.865860 0.113221
O O6 0.309417 0.811796 0.165667
O O7 0.373854 0.034423 0.164268
O O8 0.281786 0.936079 0.035356
O O9 0.139180 0.154145 0.148077
O O10 0.914670 0.173763 0.047405
O O11 0.724183 0.898057 0.607865
O O12 0.163662 0.324615 0.732134
#
# Coordination Sequence:
#
# PCOD8152631 Si02
#       6
#     8   8   8   8   8   8
#     4  12  23  43  69 100 136 180 230 280 346 418
#     4  11  23  45  73  96 135 183 229 289 344 413
#     4  11  22  44  71 100 135 177 236 285 338 418
#     4  11  22  43  79  98 126 186 236 285 341 410
#     4  11  25  47  66 101 141 177 235 291 346 411
#     4  12  28  41  63 105 143 181 224 287 358 412
#
# _framework density 23.073091000000002
#
# number of rings (size 3 to 8) (size 9 to 14) (size 15 to 20)
#    0.000    0.667    5.000    3.500    2.333    4.667 
#    6.000    0.000    0.000    0.000    0.000    0.000 
#    0.000    0.000    0.000    0.000    0.000    0.000 
#
# Total GULP energy -297630.715143 kJ/mol
# GULP energy per Si atom -12401.279798 kJ/mol
# Density = 2.302058 g / cm^3
# Si number density = 23.073091 Si / 1000 Ang^3
#
#
#
# Elastic Constant Matrix: (Units=GPa)
#
#
# Indices 1 2 3 4 5 6 
#
# 1 67.3726 42.0706 23.5621 0.0000 -16.8718 0.0000
# 2 42.0706 114.2078 66.2719 0.0000 -16.9833 0.0000
# 3 23.5621 66.2719 114.8916 0.0000 -32.7380 0.0000
# 4 0.0000 0.0000 0.0000 35.2484 0.0000 -5.7826
# 5 -16.8718 -16.9833 -32.7380 0.0000 34.5495 0.0000
# 6 0.0000 0.0000 0.0000 -5.7826 0.0000 51.2645
#
#
#
# Elastic Compliance Matrix: (Units=1/GPa)
#
#
# Indices 1 2 3 4 5 6 
#
# 1 0.021199 -0.008175 0.002976 0.000000 0.009154 0.000000
# 2 -0.008175 0.016339 -0.009037 0.000000 -0.004524 0.000000
# 3 0.002976 -0.009037 0.017061 0.000000 0.013178 0.000000
# 4 0.000000 0.000000 0.000000 0.028905 0.000000 0.003260
# 5 0.009154 -0.004524 0.013178 0.000000 0.043677 0.000000
# 6 0.000000 0.000000 0.000000 0.003260 0.000000 0.019874
#
#
# Mechanical properties :
#
#
# Convention : Reuss Voigt Hill
#
# Bulk Modulus (GPa) = 38.27343 62.25350 50.26346
# Shear Modulus (GPa) = 27.13910 35.18363 31.16136
#
# Velocity S-wave (km/s) = 3.43333 3.90920 3.67897
# Velocity P-wave (km/s) = 5.68691 6.88588 6.31492
#
# Compressibility (1/GPa) = 0.02612778
#
# Stress axis : x y z
#
# Youngs Moduli (GPa) = 47.17169 61.20482 58.61276
#
# Poissons Ratio (x) = 0.50035 -0.17445
# Poissons Ratio (y) = 0.38563 0.52968
# Poissons Ratio (z) = -0.14040 0.55310
#
# Static dielectric constant tensor:
#      x y z
#    x 4.510640 0.000000 -0.113740 
#    y 0.000000 4.144090 0.000000 
#    z -0.113740 0.000000 4.110940 
# 
# 
# High freq. dielectric constant tensor:
#      x y z
#    x 1.925240 0.000000 -0.006380 
#    y 0.000000 1.905520 0.000000 
#    z -0.006380 0.000000 1.909950 
# 
# From -- ./inp_files/196612.got.cif
#   From: 2010.06.25/outbox.cif.g09.slc.cpg/sg15_99_cif.got.tgz:196612.got - 2010.06.28 07:06:18.
