data_PCOD8152346
_publ_section_title
;
Structure prediction by ZEFSAII (Michael W. Deem and Ramdas Pophale) SiO2 
 PCOD8152346
Probable space group: C 2/C
;
_chemical_formula_sum "Si O2"
_cell_formula_units_Z 52
_cell_length_a 16.992170
_cell_length_b 13.784636
_cell_length_c 10.994901
_cell_angle_alpha 90.000000
_cell_angle_beta 115.646983
_cell_angle_gamma 90.000000
_cell_volume 2321.616913
_symmetry_space_group_name_H-M "C 2/C"
_symmetry_group_IT_number 15
_symmetry_cell_setting 'monoclinic'
loop_
_space_group_symop_operation_xyz
x,y,z
-x,y,1/2-z
-x,-y,-z
x,-y,1/2+z
1/2+x,1/2+y,z
1/2-x,1/2+y,1/2-z
1/2-x,1/2-y,-z
1/2+x,1/2-y,1/2+z
loop_
_atom_site_type_symbol
_atom_site_label
_atom_site_fract_x
_atom_site_fract_y
_atom_site_fract_z
Si Si1 0.712205 0.673908 0.235284
Si Si2 0.823735 0.372005 0.402077
Si Si3 0.413833 0.548979 0.495748
Si Si4 0.618993 0.159995 0.297964
Si Si5 0.585855 0.951728 0.252874
Si Si6 0.500000 0.323253 0.250000
Si Si7 0.740505 0.452076 0.975188
O O1 0.714220 0.789955 0.214942
O O2 0.793082 0.633540 0.213477
O O3 0.722313 0.644568 0.383384
O O4 0.624302 0.622072 0.130271
O O5 0.860204 0.319260 0.546052
O O6 0.901860 0.421380 0.378908
O O7 0.752998 0.453916 0.394393
O O8 0.500000 0.500000 0.500000
O O9 0.439444 0.610302 0.629161
O O10 0.341199 0.470217 0.489048
O O11 0.564680 0.253110 0.214364
O O12 0.561356 0.065018 0.240415
O O13 0.500000 0.897165 0.250000
O O14 0.671990 0.931236 0.390520
#
# Coordination Sequence:
#
# PCOD8152346 Si02
#       7
#     8   8   8   8   8   4   8
#     4  12  23  44  70  98 136 187 223 287 346 407
#     4  11  22  43  68  96 138 175 232 282 338 410
#     4  12  25  45  68 102 142 181 229 287 343 411
#     4  11  22  40  70  98 130 175 237 279 337 404
#     4  11  24  43  69  99 139 177 225 287 347 400
#     4  12  24  40  68 108 126 182 240 278 334 416
#     4  11  24  45  72  99 139 186 226 285 352 408
#
# _framework density 22.398181999999998
#
# number of rings (size 3 to 8) (size 9 to 14) (size 15 to 20)
#    0.000    0.615    6.923    2.308    0.000    5.538 
#    2.769    0.000    0.000    0.000    0.000    0.000 
#    0.000    0.000    0.000    0.000    0.000    0.000 
#
# Total GULP energy -322293.328758 kJ/mol
# GULP energy per Si atom -12395.897260 kJ/mol
# Density = 2.234720 g / cm^3
# Si number density = 22.398182 Si / 1000 Ang^3
#
#
#
# Elastic Constant Matrix: (Units=GPa)
#
#
# Indices 1 2 3 4 5 6 
#
# 1 161.7386 13.3814 29.0215 0.0000 2.9665 0.0000
# 2 13.3814 44.7291 8.8694 0.0000 -1.7034 0.0000
# 3 29.0215 8.8694 58.8333 0.0000 1.5921 0.0000
# 4 0.0000 0.0000 0.0000 204.4309 0.0000 68.1200
# 5 2.9665 -1.7034 1.5921 0.0000 34.3998 0.0000
# 6 0.0000 0.0000 0.0000 68.1200 0.0000 62.4079
#
#
#
# Elastic Compliance Matrix: (Units=1/GPa)
#
#
# Indices 1 2 3 4 5 6 
#
# 1 0.006880 -0.001451 -0.003161 0.000000 -0.000519 0.000000
# 2 -0.001451 0.023410 -0.002852 0.000000 0.001416 0.000000
# 3 -0.003161 -0.002852 0.019006 0.000000 -0.000748 0.000000
# 4 0.000000 0.000000 0.000000 0.007688 0.000000 -0.008391
# 5 -0.000519 0.001416 -0.000748 0.000000 0.029219 0.000000
# 6 0.000000 0.000000 0.000000 -0.008391 0.000000 0.025183
#
#
# Mechanical properties :
#
#
# Convention : Reuss Voigt Hill
#
# Bulk Modulus (GPa) = 29.09583 40.87170 34.98377
# Shear Modulus (GPa) = 36.29225 74.51628 55.40426
#
# Velocity S-wave (km/s) = 4.02969 5.77418 4.97893
# Velocity P-wave (km/s) = 5.88809 7.92100 6.97896
#
# Compressibility (1/GPa) = 0.03436918
#
# Stress axis : x y z
#
# Youngs Moduli (GPa) = 145.35851 42.71614 52.61359
#
# Poissons Ratio (x) = 0.06199 0.16630
# Poissons Ratio (y) = 0.21093 0.15004
# Poissons Ratio (z) = 0.45944 0.12181
#
# Static dielectric constant tensor:
#      x y z
#    x 3.963720 0.000000 -0.134450 
#    y 0.000000 4.059090 0.000000 
#    z -0.134450 0.000000 3.818440 
# 
# 
# High freq. dielectric constant tensor:
#      x y z
#    x 1.891050 0.000000 0.005230 
#    y 0.000000 1.875650 0.000000 
#    z 0.005230 0.000000 1.871050 
# 
# From -- ./inp_files/97104.got.cif
#   From: 2010.06.25/outbox.cif.g09.slc.cpg/sg15_49_cif.got.tgz:97104.got - 2010.06.28 07:06:18.
