data_PCOD8152099
_publ_section_title
;
Structure prediction by ZEFSAII (Michael W. Deem and Ramdas Pophale) SiO2 
 PCOD8152099
Probable space group: C 2/C
;
_chemical_formula_sum "Si O2"
_cell_formula_units_Z 32
_cell_length_a 7.100789
_cell_length_b 36.634892
_cell_length_c 5.140364
_cell_angle_alpha 90.000000
_cell_angle_beta 75.425955
_cell_angle_gamma 90.000000
_cell_volume 1294.170367
_symmetry_space_group_name_H-M "C 2/C"
_symmetry_group_IT_number 15
_symmetry_cell_setting 'monoclinic'
loop_
_space_group_symop_operation_xyz
x,y,z
-x,y,1/2-z
-x,-y,-z
x,-y,1/2+z
1/2+x,1/2+y,z
1/2-x,1/2+y,1/2-z
1/2-x,1/2-y,-z
1/2+x,1/2-y,1/2+z
loop_
_atom_site_type_symbol
_atom_site_label
_atom_site_fract_x
_atom_site_fract_y
_atom_site_fract_z
Si Si1 0.268600 0.020492 0.308387
Si Si2 0.123175 0.716525 0.952752
Si Si3 0.731653 0.103244 0.200605
Si Si4 0.772879 0.641815 0.791986
O O1 0.500000 0.018543 0.250000
O O2 0.200552 0.061804 0.280238
O O3 0.183150 0.003799 0.603378
O O4 0.255823 0.683905 0.787782
O O5 0.000000 0.731002 0.750000
O O6 0.250000 0.750000 0.000000
O O7 0.000000 0.702593 0.250000
O O8 0.500000 0.106207 0.250000
O O9 0.818719 0.128886 0.401867
O O10 0.824173 0.117613 0.900155
O O11 0.000000 0.633925 0.750000
#
# Coordination Sequence:
#
# PCOD8152099 Si02
#       4
#     8   8   8   8
#     4   9  15  21  29  45  71 105 147 192 232 273
#     4  11  22  37  56  79 106 136 174 217 262 311
#     4   9  15  23  36  53  77 111 153 198 237 277
#     4   9  16  27  42  61  84 115 157 201 239 286
#
# _framework density 24.726265999999999
#
# number of rings (size 3 to 8) (size 9 to 14) (size 15 to 20)
#    0.000    2.500    0.000    6.000    0.000    6.000 
#    0.000    0.000    0.000    0.000    0.000    0.000 
#    0.000    0.000    0.000    0.000    0.000   87.500 
#
# Total GULP energy -198267.182717 kJ/mol
# GULP energy per Si atom -12391.698920 kJ/mol
# Density = 2.466999 g / cm^3
# Si number density = 24.726266 Si / 1000 Ang^3
#
#
#
# Elastic Constant Matrix: (Units=GPa)
#
#
# Indices 1 2 3 4 5 6 
#
# 1 21.0072 24.2226 34.1921 0.0000 12.2982 0.0000
# 2 24.2226 215.9219 106.6176 0.0000 16.5127 0.0000
# 3 34.1921 106.6176 204.2825 0.0000 33.9481 0.0000
# 4 0.0000 0.0000 0.0000 59.9386 0.0000 13.0832
# 5 12.2982 16.5127 33.9481 0.0000 30.4717 0.0000
# 6 0.0000 0.0000 0.0000 13.0832 0.0000 -5.6732
#
#
#
# Elastic Compliance Matrix: (Units=1/GPa)
#
#
# Indices 1 2 3 4 5 6 
#
# 1 0.075522 -0.003157 -0.007623 0.000000 -0.020276 0.000000
# 2 -0.003157 0.006373 -0.002989 0.000000 0.001151 0.000000
# 3 -0.007623 -0.002989 0.008530 0.000000 -0.004807 0.000000
# 4 0.000000 0.000000 0.000000 0.011098 0.000000 0.025592
# 5 -0.020276 0.001151 -0.004807 0.000000 0.045732 0.000000
# 6 0.000000 0.000000 0.000000 0.025592 0.000000 -0.117248
#
#
# Mechanical properties :
#
#
# Convention : Reuss Voigt Hill
#
# Bulk Modulus (GPa) = 15.90187 85.69736 50.79961
# Shear Modulus (GPa) = 63.68769 35.35936 49.52353
#
# Velocity S-wave (km/s) = 5.08065 3.78568 4.48020
# Velocity P-wave (km/s) = 6.39238 7.33772 6.88130
#
# Compressibility (1/GPa) = 0.06288568
#
# Stress axis : x y z
#
# Youngs Moduli (GPa) = 13.24125 156.89992 117.23373
#
# Poissons Ratio (x) = 0.49540 0.89368
# Poissons Ratio (y) = 0.04181 0.35043
# Poissons Ratio (z) = 0.10094 0.46900
#
# Static dielectric constant tensor:
#      x y z
#    x 3.930410 0.000000 0.215090 
#    y 0.000000 4.365930 0.000000 
#    z 0.215090 0.000000 5.134290 
# 
# 
# High freq. dielectric constant tensor:
#      x y z
#    x 1.955780 0.000000 0.021610 
#    y 0.000000 1.980390 0.000000 
#    z 0.021610 0.000000 2.006960 
# 
# From -- ./inp_files/2659.got.cif
#   From: 2010.06.25/outbox.cif.g09.slc.cpg/sg15_2_cif.got.tgz:2659.got - 2010.06.28 07:06:18.
