data_PCOD8152420
_publ_section_title
;
Structure prediction by ZEFSAII (Michael W. Deem and Ramdas Pophale) SiO2 
 PCOD8152420
Probable space group: C 2/C
;
_chemical_formula_sum "Si O2"
_cell_formula_units_Z 48
_cell_length_a 27.322175
_cell_length_b 13.689052
_cell_length_c 11.685839
_cell_angle_alpha 90.000000
_cell_angle_beta 152.479867
_cell_angle_gamma 90.000000
_cell_volume 2019.515390
_symmetry_space_group_name_H-M "C 2/C"
_symmetry_group_IT_number 15
_symmetry_cell_setting 'monoclinic'
loop_
_space_group_symop_operation_xyz
x,y,z
-x,y,1/2-z
-x,-y,-z
x,-y,1/2+z
1/2+x,1/2+y,z
1/2-x,1/2+y,1/2-z
1/2-x,1/2-y,-z
1/2+x,1/2-y,1/2+z
loop_
_atom_site_type_symbol
_atom_site_label
_atom_site_fract_x
_atom_site_fract_y
_atom_site_fract_z
Si Si1 0.625344 0.743112 0.005099
Si Si2 0.360672 0.655463 0.235212
Si Si3 0.274749 0.065252 0.740719
Si Si4 0.972716 0.761049 0.567789
Si Si5 0.867368 0.045612 0.844864
Si Si6 0.774394 0.631904 0.141449
O O1 0.500000 0.719577 0.750000
O O2 0.683837 0.706541 0.242414
O O3 0.642987 0.860319 0.028504
O O4 0.681274 0.687137 0.016889
O O5 0.432977 0.742018 0.328876
O O6 0.416249 0.554860 0.395862
O O7 0.268222 0.623057 0.959013
O O8 0.179092 0.033314 0.624637
O O9 0.326944 0.961304 0.815495
O O10 0.961524 0.877878 0.552227
O O11 0.868314 0.707047 0.305184
O O12 0.000000 0.718361 0.750000
O O13 0.773883 0.090869 0.574533
#
# Coordination Sequence:
#
# PCOD8152420 Si02
#       6
#     8   8   8   8   8   8
#     4  12  25  43  69  98 135 172 222 270 325 391
#     4  11  24  42  68 100 132 170 222 271 325 390
#     4  11  24  46  66  98 134 177 216 271 326 388
#     4  12  23  41  69 101 132 168 220 274 330 388
#     4  11  22  41  68  96 138 165 220 269 328 385
#     4  11  25  44  68  96 133 178 217 269 329 389
#
# _framework density 23.768077000000002
#
# number of rings (size 3 to 8) (size 9 to 14) (size 15 to 20)
#    0.000    0.667    5.000    2.500    2.333    2.667 
#    0.000    0.833    0.000    0.000    0.000    0.000 
#    0.000    0.000    0.000    0.000    0.000    0.000 
#
# Total GULP energy -297414.693028 kJ/mol
# GULP energy per Si atom -12392.278876 kJ/mol
# Density = 2.371398 g / cm^3
# Si number density = 23.768077 Si / 1000 Ang^3
#
#
#
# Elastic Constant Matrix: (Units=GPa)
#
#
# Indices 1 2 3 4 5 6 
#
# 1 59.8654 21.4613 10.9017 0.0000 -10.4091 0.0000
# 2 21.4613 124.5462 21.8675 0.0000 12.5140 0.0000
# 3 10.9017 21.8675 49.8870 0.0000 6.2350 0.0000
# 4 0.0000 0.0000 0.0000 28.1658 0.0000 -3.7952
# 5 -10.4091 12.5140 6.2350 0.0000 32.7509 0.0000
# 6 0.0000 0.0000 0.0000 -3.7952 0.0000 29.6901
#
#
#
# Elastic Compliance Matrix: (Units=1/GPa)
#
#
# Indices 1 2 3 4 5 6 
#
# 1 0.020213 -0.003662 -0.003882 0.000000 0.008562 0.000000
# 2 -0.003662 0.009594 -0.002870 0.000000 -0.004283 0.000000
# 3 -0.003882 -0.002870 0.022709 0.000000 -0.004461 0.000000
# 4 0.000000 0.000000 0.000000 0.036126 0.000000 0.004618
# 5 0.008562 -0.004283 -0.004461 0.000000 0.035741 0.000000
# 6 0.000000 0.000000 0.000000 0.004618 0.000000 0.034272
#
#
# Mechanical properties :
#
#
# Convention : Reuss Voigt Hill
#
# Bulk Modulus (GPa) = 31.55721 38.08441 34.82081
# Shear Modulus (GPa) = 26.30953 30.12591 28.21772
#
# Velocity S-wave (km/s) = 3.33066 3.56405 3.44933
# Velocity P-wave (km/s) = 5.30066 5.74411 5.52683
#
# Compressibility (1/GPa) = 0.03168848
#
# Stress axis : x y z
#
# Youngs Moduli (GPa) = 49.47422 104.22734 44.03497
#
# Poissons Ratio (x) = 0.38164 0.17095
# Poissons Ratio (y) = 0.18116 0.12638
# Poissons Ratio (z) = 0.19206 0.29914
#
# Static dielectric constant tensor:
#      x y z
#    x 4.437380 0.000000 -0.319610 
#    y 0.000000 4.616660 0.000000 
#    z -0.319610 0.000000 3.800660 
# 
# 
# High freq. dielectric constant tensor:
#      x y z
#    x 1.950740 0.000000 -0.024190 
#    y 0.000000 1.954900 0.000000 
#    z -0.024190 0.000000 1.911610 
# 
# From -- ./inp_files/123429.got.cif
#   From: 2010.06.25/outbox.cif.g09.slc.cpg/sg15_62_cif.got.tgz:123429.got - 2010.06.28 07:06:18.
