data_PCOD8152135
_publ_section_title
;
Structure prediction by ZEFSAII (Michael W. Deem and Ramdas Pophale) SiO2 
 PCOD8152135
Probable space group: C 2/C
;
_chemical_formula_sum "Si O2"
_cell_formula_units_Z 56
_cell_length_a 21.417421
_cell_length_b 11.517813
_cell_length_c 18.383048
_cell_angle_alpha 90.000000
_cell_angle_beta 140.288247
_cell_angle_gamma 90.000000
_cell_volume 2897.377130
_symmetry_space_group_name_H-M "C 2/C"
_symmetry_group_IT_number 15
_symmetry_cell_setting 'monoclinic'
loop_
_space_group_symop_operation_xyz
x,y,z
-x,y,1/2-z
-x,-y,-z
x,-y,1/2+z
1/2+x,1/2+y,z
1/2-x,1/2+y,1/2-z
1/2-x,1/2-y,-z
1/2+x,1/2-y,1/2+z
loop_
_atom_site_type_symbol
_atom_site_label
_atom_site_fract_x
_atom_site_fract_y
_atom_site_fract_z
Si Si1 0.893545 0.714466 0.174879
Si Si2 0.449833 0.164036 0.371002
Si Si3 0.276836 0.576270 0.537007
Si Si4 0.432919 0.812570 0.017178
Si Si5 0.843419 0.435008 0.432264
Si Si6 0.289302 0.339037 0.475617
Si Si7 0.361358 0.090040 0.784983
O O1 0.902190 0.747343 0.268001
O O2 0.861940 0.828572 0.101624
O O3 0.000000 0.666812 0.250000
O O4 0.818128 0.609301 0.095322
O O5 0.426523 0.223236 0.426932
O O6 0.566571 0.148613 0.464941
O O7 0.399019 0.040203 0.312801
O O8 0.248238 0.582195 0.596634
O O9 0.318230 0.454356 0.546128
O O10 0.375351 0.932576 0.972685
O O11 0.385913 0.713615 0.025314
O O12 0.545980 0.824585 0.140584
O O13 0.812851 0.402191 0.322189
O O14 0.250000 0.250000 0.500000
O O15 0.212998 0.370180 0.343821
#
# Coordination Sequence:
#
# PCOD8152135 Si02
#       7
#     8   8   8   8   8   8   8
#     4  11  22  38  60  84 116 156 198 253 301 335
#     4   9  17  36  64  85 110 152 206 249 291 342
#     4  11  23  37  57  90 116 155 203 248 292 364
#     4   9  20  36  58  90 116 152 196 245 297 362
#     4   9  17  37  61  86 112 144 209 244 286 359
#     4  12  23  38  57  91 128 159 194 242 310 365
#     4   9  20  36  59  86 115 159 197 247 288 348
#
# _framework density 19.327825000000001
#
# number of rings (size 3 to 8) (size 9 to 14) (size 15 to 20)
#    0.000    2.000    4.286    1.714    2.000    0.571 
#    2.571    0.000    0.000    0.857    0.000    0.000 
#    0.000    0.000    0.000    0.000    0.000    0.000 
#
# Total GULP energy -346987.373997 kJ/mol
# GULP energy per Si atom -12392.406214 kJ/mol
# Density = 1.928383 g / cm^3
# Si number density = 19.327825 Si / 1000 Ang^3
#
#
#
# Elastic Constant Matrix: (Units=GPa)
#
#
# Indices 1 2 3 4 5 6 
#
# 1 104.8792 33.8426 31.1425 0.0000 -8.0136 0.0000
# 2 33.8426 83.2822 18.7656 0.0000 -0.5115 0.0000
# 3 31.1425 18.7656 70.2345 0.0000 -13.8348 0.0000
# 4 0.0000 0.0000 0.0000 18.8983 0.0000 -4.3656
# 5 -8.0136 -0.5115 -13.8348 0.0000 28.8461 0.0000
# 6 0.0000 0.0000 0.0000 -4.3656 0.0000 32.9876
#
#
#
# Elastic Compliance Matrix: (Units=1/GPa)
#
#
# Indices 1 2 3 4 5 6 
#
# 1 0.012133 -0.004012 -0.004040 0.000000 0.001362 0.000000
# 2 -0.004012 0.014167 -0.002403 0.000000 -0.002016 0.000000
# 3 -0.004040 -0.002403 0.018157 0.000000 0.007543 0.000000
# 4 0.000000 0.000000 0.000000 0.054583 0.000000 0.007224
# 5 0.001362 -0.002016 0.007543 0.000000 0.038627 0.000000
# 6 0.000000 0.000000 0.000000 0.007224 0.000000 0.031270
#
#
# Mechanical properties :
#
#
# Convention : Reuss Voigt Hill
#
# Bulk Modulus (GPa) = 42.46766 47.32193 44.89480
# Shear Modulus (GPa) = 25.29126 27.78942 26.54034
#
# Velocity S-wave (km/s) = 3.62130 3.79594 3.70965
# Velocity P-wave (km/s) = 6.28531 6.61432 6.45191
#
# Compressibility (1/GPa) = 0.02354733
#
# Stress axis : x y z
#
# Youngs Moduli (GPa) = 82.42064 70.58784 55.07420
#
# Poissons Ratio (x) = 0.28318 0.22248
# Poissons Ratio (y) = 0.33065 0.13237
# Poissons Ratio (z) = 0.33295 0.16965
#
# Static dielectric constant tensor:
#      x y z
#    x 3.743270 0.000000 -0.293040 
#    y 0.000000 3.249660 0.000000 
#    z -0.293040 0.000000 3.556570 
# 
# 
# High freq. dielectric constant tensor:
#      x y z
#    x 1.760890 0.000000 -0.018420 
#    y 0.000000 1.726050 0.000000 
#    z -0.018420 0.000000 1.746740 
# 
# From -- ./inp_files/255489.got.cif
#   From: 2010.06.25/outbox.cif.g09.slc.cpg/sg15_128_cif.got.tgz:255489.got - 2010.06.28 07:06:18.
