data_PCOD8152618
_publ_section_title
;
Structure prediction by ZEFSAII (Michael W. Deem and Ramdas Pophale) SiO2 
 PCOD8152618
Probable space group: C 2/C
;
_chemical_formula_sum "Si O2"
_cell_formula_units_Z 60
_cell_length_a 25.934555
_cell_length_b 21.572264
_cell_length_c 14.773809
_cell_angle_alpha 90.000000
_cell_angle_beta 160.467828
_cell_angle_gamma 90.000000
_cell_volume 2763.441580
_symmetry_space_group_name_H-M "C 2/C"
_symmetry_group_IT_number 15
_symmetry_cell_setting 'monoclinic'
loop_
_space_group_symop_operation_xyz
x,y,z
-x,y,1/2-z
-x,-y,-z
x,-y,1/2+z
1/2+x,1/2+y,z
1/2-x,1/2+y,1/2-z
1/2-x,1/2-y,-z
1/2+x,1/2-y,1/2+z
loop_
_atom_site_type_symbol
_atom_site_label
_atom_site_fract_x
_atom_site_fract_y
_atom_site_fract_z
Si Si1 0.176381 0.479755 0.179178
Si Si2 0.825302 0.006127 0.738948
Si Si3 0.194980 0.734794 0.162330
Si Si4 0.589088 0.883080 0.571344
Si Si5 0.254335 0.091620 0.530944
Si Si6 0.114129 0.392239 0.813621
Si Si7 0.381085 0.716889 0.163017
Si Si8 0.500000 0.211046 0.250000
O O1 0.303593 0.488974 0.311262
O O2 0.093771 0.545073 0.053732
O O3 0.255511 0.458189 0.403377
O O4 0.044672 0.430494 0.935360
O O5 0.757213 0.069147 0.586766
O O6 0.749257 0.944656 0.570290
O O7 0.000000 0.000000 0.000000
O O8 0.174553 0.660021 0.138641
O O9 0.368000 0.748940 0.481584
O O10 0.159117 0.762306 0.005195
O O11 0.051099 0.763478 0.981365
O O12 0.408824 0.867060 0.283090
O O13 0.661321 0.873855 0.790033
O O14 0.120581 0.142198 0.326267
O O15 0.094924 0.328796 0.835349
O O16 0.250000 0.750000 0.000000
#
# Coordination Sequence:
#
# PCOD8152618 Si02
#       8
#     8   8   8   8   8   8   8   4
#     4  11  22  43  72  97 132 181 220 286 355 412
#     4  12  26  39  64 108 137 179 227 287 355 418
#     4  11  27  46  71 100 137 190 236 286 346 421
#     4  11  22  44  71 100 133 176 232 292 343 412
#     4  11  23  44  73 101 137 174 237 291 355 421
#     4  11  22  45  71  99 138 179 231 281 357 433
#     4  11  25  46  69 102 140 184 236 292 349 419
#     4  12  26  46  72 100 140 192 238 278 360 430
#
# _framework density 21.712056
#
# number of rings (size 3 to 8) (size 9 to 14) (size 15 to 20)
#    0.000    0.800    5.333    2.400    3.733    2.133 
#    2.400    0.000    0.000    0.000    0.000    0.000 
#    0.000    0.000    0.000    0.000    0.000    0.000 
#
# Total GULP energy -371829.741331 kJ/mol
# GULP energy per Si atom -12394.324711 kJ/mol
# Density = 2.166264 g / cm^3
# Si number density = 21.712056 Si / 1000 Ang^3
#
#
#
# Elastic Constant Matrix: (Units=GPa)
#
#
# Indices 1 2 3 4 5 6 
#
# 1 86.0604 18.4036 18.9945 0.0000 8.9153 0.0000
# 2 18.4036 103.9015 20.2167 0.0000 0.0671 0.0000
# 3 18.9945 20.2167 107.8253 0.0000 14.4269 0.0000
# 4 0.0000 0.0000 0.0000 27.2012 0.0000 9.8696
# 5 8.9153 0.0671 14.4269 0.0000 28.0982 0.0000
# 6 0.0000 0.0000 0.0000 9.8696 0.0000 41.2112
#
#
#
# Elastic Compliance Matrix: (Units=1/GPa)
#
#
# Indices 1 2 3 4 5 6 
#
# 1 0.012697 -0.001969 -0.001427 0.000000 -0.003291 0.000000
# 2 -0.001969 0.010321 -0.001792 0.000000 0.001520 0.000000
# 3 -0.001427 -0.001792 0.010523 0.000000 -0.004946 0.000000
# 4 0.000000 0.000000 0.000000 0.040262 0.000000 -0.009642
# 5 -0.003291 0.001520 -0.004946 0.000000 0.039170 0.000000
# 6 0.000000 0.000000 0.000000 -0.009642 0.000000 0.026574
#
#
# Mechanical properties :
#
#
# Convention : Reuss Voigt Hill
#
# Bulk Modulus (GPa) = 43.16795 45.89075 44.52935
# Shear Modulus (GPa) = 31.71699 35.31361 33.51530
#
# Velocity S-wave (km/s) = 3.82619 4.03730 3.93316
# Velocity P-wave (km/s) = 6.28051 6.55096 6.41716
#
# Compressibility (1/GPa) = 0.02316534
#
# Stress axis : x y z
#
# Youngs Moduli (GPa) = 78.76031 96.89078 95.02667
#
# Poissons Ratio (x) = 0.19079 0.13561
# Poissons Ratio (y) = 0.15509 0.17025
# Poissons Ratio (z) = 0.11240 0.17359
#
# Static dielectric constant tensor:
#      x y z
#    x 4.187840 0.000000 -0.082000 
#    y 0.000000 3.990080 0.000000 
#    z -0.082000 0.000000 4.029070 
# 
# 
# High freq. dielectric constant tensor:
#      x y z
#    x 1.857560 0.000000 0.000560 
#    y 0.000000 1.857630 0.000000 
#    z 0.000560 0.000000 1.840940 
# 
# From -- ./inp_files/179118.got.cif
#   From: 2010.06.25/outbox.cif.g09.slc.cpg/sg15_90_cif.got.tgz:179118.got - 2010.06.28 07:06:18.
