data_PCOD8152670
_publ_section_title
;
Structure prediction by ZEFSAII (Michael W. Deem and Ramdas Pophale) SiO2 
 PCOD8152670
Probable space group: C 2/C
;
_chemical_formula_sum "Si O2"
_cell_formula_units_Z 28
_cell_length_a 11.885384
_cell_length_b 14.053690
_cell_length_c 7.713439
_cell_angle_alpha 90.000000
_cell_angle_beta 72.680548
_cell_angle_gamma 90.000000
_cell_volume 1229.986274
_symmetry_space_group_name_H-M "C 2/C"
_symmetry_group_IT_number 15
_symmetry_cell_setting 'monoclinic'
loop_
_space_group_symop_operation_xyz
x,y,z
-x,y,1/2-z
-x,-y,-z
x,-y,1/2+z
1/2+x,1/2+y,z
1/2-x,1/2+y,1/2-z
1/2-x,1/2-y,-z
1/2+x,1/2-y,1/2+z
loop_
_atom_site_type_symbol
_atom_site_label
_atom_site_fract_x
_atom_site_fract_y
_atom_site_fract_z
Si Si1 0.413043 0.941044 0.920897
Si Si2 0.500000 0.260398 0.750000
Si Si3 0.695995 0.882470 0.202715
Si Si4 0.467688 0.607068 0.566551
O O1 0.500000 0.881981 0.750000
O O2 0.330342 0.011192 0.849669
O O3 0.331020 0.874328 0.077319
O O4 0.500000 0.000000 0.000000
O O5 0.387496 0.194880 0.852390
O O6 0.464716 0.324333 0.599518
O O7 0.831547 0.865826 0.100563
O O8 0.500000 0.627844 0.750000
O O9 0.500000 0.500000 0.500000
#
# Coordination Sequence:
#
# PCOD8152670 Si02
#       4
#     8   4   8   8
#     4   9  17  35  66 101 136 173 222 285 353 407
#     4  12  26  46  72 106 140 178 248 300 336 414
#     4  11  22  44  70 106 139 182 237 295 340 423
#     4  12  27  49  70  99 144 195 230 284 368 425
#
# _framework density 22.764482000000001
#
# number of rings (size 3 to 8) (size 9 to 14) (size 15 to 20)
#    0.000    1.143    5.714    2.571    0.000    2.286 
#    0.000    0.000    0.000    0.000    0.000    0.000 
#    0.000    0.000    0.000    0.000    0.000    0.000 
#
# Total GULP energy -173501.944243 kJ/mol
# GULP energy per Si atom -12392.996017 kJ/mol
# Density = 2.271267 g / cm^3
# Si number density = 22.764482 Si / 1000 Ang^3
#
#
#
# Elastic Constant Matrix: (Units=GPa)
#
#
# Indices 1 2 3 4 5 6 
#
# 1 106.4000 19.8147 0.1577 0.0000 -6.8202 0.0000
# 2 19.8147 89.1683 24.9642 0.0000 0.7435 0.0000
# 3 0.1577 24.9642 113.9900 0.0000 9.0527 0.0000
# 4 0.0000 0.0000 0.0000 40.7070 0.0000 2.9509
# 5 -6.8202 0.7435 9.0527 0.0000 37.2036 0.0000
# 6 0.0000 0.0000 0.0000 2.9509 0.0000 24.8513
#
#
#
# Elastic Compliance Matrix: (Units=1/GPa)
#
#
# Indices 1 2 3 4 5 6 
#
# 1 0.009945 -0.002324 0.000354 0.000000 0.001784 0.000000
# 2 -0.002324 0.012496 -0.002733 0.000000 -0.000011 0.000000
# 3 0.000354 -0.002733 0.009546 0.000000 -0.002203 0.000000
# 4 0.000000 0.000000 0.000000 0.024779 0.000000 -0.002942
# 5 0.001784 -0.000011 -0.002203 0.000000 0.027742 0.000000
# 6 0.000000 0.000000 0.000000 -0.002942 0.000000 0.040589
#
#
# Mechanical properties :
#
#
# Convention : Reuss Voigt Hill
#
# Bulk Modulus (GPa) = 44.28482 44.38128 44.33305
# Shear Modulus (GPa) = 35.20382 38.19384 36.69883
#
# Velocity S-wave (km/s) = 3.93674 4.10052 4.01946
# Velocity P-wave (km/s) = 6.33716 6.47743 6.40768
#
# Compressibility (1/GPa) = 0.02258110
#
# Stress axis : x y z
#
# Youngs Moduli (GPa) = 100.55247 80.02385 104.75977
#
# Poissons Ratio (x) = 0.18596 -0.03703
# Poissons Ratio (y) = 0.23366 0.28627
# Poissons Ratio (z) = -0.03555 0.21868
#
# Static dielectric constant tensor:
#      x y z
#    x 3.965500 0.000000 -0.185610 
#    y 0.000000 3.385750 0.000000 
#    z -0.185610 0.000000 5.113840 
# 
# 
# High freq. dielectric constant tensor:
#      x y z
#    x 1.887080 0.000000 -0.006480 
#    y 0.000000 1.872040 0.000000 
#    z -0.006480 0.000000 1.921320 
# 
# From -- ./inp_files/27266.got.cif
#   From: 2010.06.25/outbox.cif.g09.slc.cpg/sg15_14_cif.got.tgz:27266.got - 2010.06.28 07:06:18.
