data_PCOD8152668
_publ_section_title
;
Structure prediction by ZEFSAII (Michael W. Deem and Ramdas Pophale) SiO2 
 PCOD8152668
Probable space group: C 2/C
;
_chemical_formula_sum "Si O2"
_cell_formula_units_Z 48
_cell_length_a 17.290747
_cell_length_b 11.103436
_cell_length_c 11.774569
_cell_angle_alpha 90.000000
_cell_angle_beta 76.355699
_cell_angle_gamma 90.000000
_cell_volume 2196.765166
_symmetry_space_group_name_H-M "C 2/C"
_symmetry_group_IT_number 15
_symmetry_cell_setting 'monoclinic'
loop_
_space_group_symop_operation_xyz
x,y,z
-x,y,1/2-z
-x,-y,-z
x,-y,1/2+z
1/2+x,1/2+y,z
1/2-x,1/2+y,1/2-z
1/2-x,1/2-y,-z
1/2+x,1/2-y,1/2+z
loop_
_atom_site_type_symbol
_atom_site_label
_atom_site_fract_x
_atom_site_fract_y
_atom_site_fract_z
Si Si1 0.564971 0.089201 0.323529
Si Si2 0.416419 0.558942 0.817434
Si Si3 0.816810 0.208327 0.691248
Si Si4 0.030144 0.232654 0.505631
Si Si5 0.635208 0.824841 0.280441
Si Si6 0.879841 0.825749 0.935961
O O1 0.500000 0.106653 0.250000
O O2 0.645955 0.166180 0.276625
O O3 0.517165 0.141074 0.450259
O O4 0.595965 0.953851 0.317613
O O5 0.500000 0.500923 0.750000
O O6 0.373320 0.603962 0.718983
O O7 0.359397 0.455118 0.888059
O O8 0.432589 0.670282 0.896558
O O9 0.729205 0.183080 0.767628
O O10 0.814174 0.207046 0.554167
O O11 0.100901 0.242833 0.391711
O O12 0.963755 0.150874 0.468973
O O13 0.613546 0.778375 0.161836
#
# Coordination Sequence:
#
# PCOD8152668 Si02
#       6
#     8   8   8   8   8   8
#     4  11  22  48  71  95 142 187 230 281 341 423
#     4  12  22  44  72  97 134 180 234 286 343 418
#     4  11  26  47  65 103 139 184 225 293 357 395
#     4  11  22  44  70 104 130 189 233 280 340 418
#     4  12  27  41  70 107 139 178 235 286 351 412
#     4  11  25  43  72  98 140 179 230 282 349 417
#
# _framework density 21.850311000000001
#
# number of rings (size 3 to 8) (size 9 to 14) (size 15 to 20)
#    0.000    0.667    5.000    4.000    4.667    2.000 
#    3.000    0.000    0.000    0.000    0.000    0.000 
#    0.000    0.000    0.000    0.000    0.000    0.000 
#
# Total GULP energy -297459.505703 kJ/mol
# GULP energy per Si atom -12394.146071 kJ/mol
# Density = 2.180058 g / cm^3
# Si number density = 21.850311 Si / 1000 Ang^3
#
#
#
# Elastic Constant Matrix: (Units=GPa)
#
#
# Indices 1 2 3 4 5 6 
#
# 1 82.5417 6.6858 33.9236 0.0000 -3.0144 0.0000
# 2 6.6858 77.8901 9.3529 0.0000 3.3384 0.0000
# 3 33.9236 9.3529 78.3381 0.0000 -9.4237 0.0000
# 4 0.0000 0.0000 0.0000 23.0605 0.0000 4.7228
# 5 -3.0144 3.3384 -9.4237 0.0000 37.5424 0.0000
# 6 0.0000 0.0000 0.0000 4.7228 0.0000 24.7417
#
#
#
# Elastic Compliance Matrix: (Units=1/GPa)
#
#
# Indices 1 2 3 4 5 6 
#
# 1 0.014763 -0.000485 -0.006380 0.000000 -0.000373 0.000000
# 2 -0.000485 0.013135 -0.001550 0.000000 -0.001596 0.000000
# 3 -0.006380 -0.001550 0.016156 0.000000 0.003681 0.000000
# 4 0.000000 0.000000 0.000000 0.045128 0.000000 -0.008614
# 5 -0.000373 -0.001596 0.003681 0.000000 0.027672 0.000000
# 6 0.000000 0.000000 0.000000 -0.008614 0.000000 0.042062
#
#
# Mechanical properties :
#
#
# Convention : Reuss Voigt Hill
#
# Bulk Modulus (GPa) = 36.73330 37.63271 37.18301
# Shear Modulus (GPa) = 27.05324 29.65609 28.35466
#
# Velocity S-wave (km/s) = 3.52251 3.68807 3.60624
# Velocity P-wave (km/s) = 5.77857 5.94947 5.86464
#
# Compressibility (1/GPa) = 0.02722325
#
# Stress axis : x y z
#
# Youngs Moduli (GPa) = 67.73789 76.13372 61.89745
#
# Poissons Ratio (x) = 0.03693 0.39489
# Poissons Ratio (y) = 0.03286 0.09595
# Poissons Ratio (z) = 0.43216 0.11801
#
# Static dielectric constant tensor:
#      x y z
#    x 3.845120 0.000000 0.019220 
#    y 0.000000 3.838870 0.000000 
#    z 0.019220 0.000000 4.209200 
# 
# 
# High freq. dielectric constant tensor:
#      x y z
#    x 1.855320 0.000000 0.005450 
#    y 0.000000 1.854120 0.000000 
#    z 0.005450 0.000000 1.869890 
# 
# From -- ./inp_files/103689.got.cif
#   From: 2010.06.25/outbox.cif.g09.slc.cpg/sg15_52_cif.got.tgz:103689.got - 2010.06.28 07:06:18.
