data_PCOD8152036
_publ_section_title
;
Structure prediction by ZEFSAII (Michael W. Deem and Ramdas Pophale) SiO2 
 PCOD8152036
Probable space group: C 2/C
;
_chemical_formula_sum "Si O2"
_cell_formula_units_Z 48
_cell_length_a 17.135542
_cell_length_b 8.651261
_cell_length_c 18.190077
_cell_angle_alpha 90.000000
_cell_angle_beta 119.641566
_cell_angle_gamma 90.000000
_cell_volume 2343.687580
_symmetry_space_group_name_H-M "C 2/C"
_symmetry_group_IT_number 15
_symmetry_cell_setting 'monoclinic'
loop_
_space_group_symop_operation_xyz
x,y,z
-x,y,1/2-z
-x,-y,-z
x,-y,1/2+z
1/2+x,1/2+y,z
1/2-x,1/2+y,1/2-z
1/2-x,1/2-y,-z
1/2+x,1/2-y,1/2+z
loop_
_atom_site_type_symbol
_atom_site_label
_atom_site_fract_x
_atom_site_fract_y
_atom_site_fract_z
Si Si1 0.668624 0.671792 0.148757
Si Si2 0.683551 0.185159 0.029642
Si Si3 0.337411 0.826123 0.506893
Si Si4 0.808491 0.176767 0.814869
Si Si5 0.506195 0.310159 0.339878
Si Si6 0.019380 0.093115 0.433447
O O1 0.644032 0.726708 0.056256
O O2 0.737660 0.789009 0.217821
O O3 0.707982 0.498516 0.166929
O O4 0.571437 0.668775 0.142487
O O5 0.588770 0.270312 0.977476
O O6 0.750000 0.250000 0.000000
O O7 0.717310 0.215350 0.128244
O O8 0.676503 0.003820 0.017483
O O9 0.250000 0.750000 0.500000
O O10 0.424369 0.820775 0.600714
O O11 0.908785 0.209895 0.832134
O O12 0.500000 0.301422 0.250000
O O13 0.551770 0.472153 0.386339
O O14 0.000000 0.000000 0.500000
#
# Coordination Sequence:
#
# PCOD8152036 Si02
#       6
#     8   8   8   8   8   8
#     4  11  22  40  67  93 138 174 224 279 342 408
#     4  12  25  42  69  95 134 180 230 281 352 418
#     4  12  24  41  65  96 132 179 230 282 343 416
#     4  11  23  41  63 101 134 177 224 284 338 410
#     4  11  23  42  68  95 136 175 224 280 353 408
#     4  11  21  46  68  95 137 182 221 287 348 413
#
# _framework density 20.480544999999999
#
# number of rings (size 3 to 8) (size 9 to 14) (size 15 to 20)
#    0.000    0.667    5.000    4.000    0.000    8.000 
#    0.000    0.833    0.000    0.000    0.000    0.000 
#    0.000    0.000    0.000    0.000    0.000    0.000 
#
# Total GULP energy -297578.802965 kJ/mol
# GULP energy per Si atom -12399.116790 kJ/mol
# Density = 2.043393 g / cm^3
# Si number density = 20.480545 Si / 1000 Ang^3
#
#
#
# Elastic Constant Matrix: (Units=GPa)
#
#
# Indices 1 2 3 4 5 6 
#
# 1 90.5820 43.7016 37.9135 0.0000 -1.4292 0.0000
# 2 43.7016 138.3790 46.4559 0.0000 -3.2855 0.0000
# 3 37.9135 46.4559 140.6249 0.0000 -4.5658 0.0000
# 4 0.0000 0.0000 0.0000 38.9884 0.0000 4.2227
# 5 -1.4292 -3.2855 -4.5658 0.0000 43.4807 0.0000
# 6 0.0000 0.0000 0.0000 4.2227 0.0000 34.5785
#
#
#
# Elastic Compliance Matrix: (Units=1/GPa)
#
#
# Indices 1 2 3 4 5 6 
#
# 1 0.013801 -0.003498 -0.002568 0.000000 -0.000080 0.000000
# 2 -0.003498 0.009020 -0.002025 0.000000 0.000354 0.000000
# 3 -0.002568 -0.002025 0.008494 0.000000 0.000654 0.000000
# 4 0.000000 0.000000 0.000000 0.025992 0.000000 -0.003174
# 5 -0.000080 0.000354 0.000654 0.000000 0.023092 0.000000
# 6 0.000000 0.000000 0.000000 -0.003174 0.000000 0.029307
#
#
# Mechanical properties :
#
#
# Convention : Reuss Voigt Hill
#
# Bulk Modulus (GPa) = 66.08523 69.52531 67.80527
# Shear Modulus (GPa) = 38.18786 39.51052 38.84919
#
# Velocity S-wave (km/s) = 4.32278 4.39700 4.36005
# Velocity P-wave (km/s) = 7.56654 7.73297 7.65021
#
# Compressibility (1/GPa) = 0.01513197
#
# Stress axis : x y z
#
# Youngs Moduli (GPa) = 72.45849 110.87006 117.73556
#
# Poissons Ratio (x) = 0.38787 0.30232
# Poissons Ratio (y) = 0.25349 0.23841
# Poissons Ratio (z) = 0.18606 0.22451
#
# Static dielectric constant tensor:
#      x y z
#    x 7.968280 0.000000 -0.218660 
#    y 0.000000 3.951830 0.000000 
#    z -0.218660 0.000000 3.946710 
# 
# 
# High freq. dielectric constant tensor:
#      x y z
#    x 1.802850 0.000000 0.008650 
#    y 0.000000 1.803560 0.000000 
#    z 0.008650 0.000000 1.813090 
# 
# From -- ./inp_files/209263.got.cif
#   From: 2010.06.25/outbox.cif.g09.slc.cpg/sg15_105_cif.got.tgz:209263.got - 2010.06.28 07:06:18.
