data_PCOD8152507
_publ_section_title
;
Structure prediction by ZEFSAII (Michael W. Deem and Ramdas Pophale) SiO2 
 PCOD8152507
Probable space group: C 2/C
;
_chemical_formula_sum "Si O2"
_cell_formula_units_Z 60
_cell_length_a 16.188341
_cell_length_b 11.602121
_cell_length_c 20.626532
_cell_angle_alpha 90.000000
_cell_angle_beta 46.825121
_cell_angle_gamma 90.000000
_cell_volume 2825.228115
_symmetry_space_group_name_H-M "C 2/C"
_symmetry_group_IT_number 15
_symmetry_cell_setting 'monoclinic'
loop_
_space_group_symop_operation_xyz
x,y,z
-x,y,1/2-z
-x,-y,-z
x,-y,1/2+z
1/2+x,1/2+y,z
1/2-x,1/2+y,1/2-z
1/2-x,1/2-y,-z
1/2+x,1/2-y,1/2+z
loop_
_atom_site_type_symbol
_atom_site_label
_atom_site_fract_x
_atom_site_fract_y
_atom_site_fract_z
Si Si1 0.582816 0.869406 0.991821
Si Si2 0.878408 0.631221 0.285638
Si Si3 0.439686 0.351605 0.070491
Si Si4 0.500000 0.558516 0.250000
Si Si5 0.161969 0.964735 0.959837
Si Si6 0.887270 0.507087 0.648037
Si Si7 0.303035 0.632560 0.442117
Si Si8 0.348896 0.378524 0.254985
O O1 0.586037 0.732930 0.976008
O O2 0.701494 0.919498 0.953969
O O3 0.559728 0.921042 0.933347
O O4 0.484977 0.894200 0.098118
O O5 0.788789 0.578641 0.383529
O O6 0.868046 0.562573 0.223916
O O7 0.850384 0.767059 0.300261
O O8 0.000000 0.607525 0.250000
O O9 0.382722 0.471768 0.080555
O O10 0.380898 0.320137 0.169404
O O11 0.573819 0.359245 0.014536
O O12 0.412589 0.643264 0.335489
O O13 0.434953 0.476450 0.233767
O O14 0.158510 0.044077 0.024447
O O15 0.774095 0.566204 0.683501
O O16 0.250000 0.750000 0.500000
#
# Coordination Sequence:
#
# PCOD8152507 Si02
#       8
#     8   8   8   4   8   8   8   8
#     4  11  23  43  65  98 133 177 229 281 339 407
#     4  12  25  43  67 104 140 178 232 287 345 413
#     4  11  22  42  69  94 132 177 232 276 335 418
#     4  12  26  48  72  98 142 186 226 296 352 414
#     4  11  24  42  66  99 137 177 222 289 342 404
#     4  11  24  42  68  94 138 179 222 289 342 400
#     4  12  25  47  69 101 139 178 233 285 353 417
#     4  12  23  45  71 100 134 183 235 271 347 423
#
# _framework density 21.237223
#
# number of rings (size 3 to 8) (size 9 to 14) (size 15 to 20)
#    0.000    0.533    7.333    1.600    0.000    0.000 
#    8.400    1.333    0.000    0.000    0.000    0.000 
#    0.000    0.000    0.000    0.000    0.000    0.000 
#
# Total GULP energy -371869.931124 kJ/mol
# GULP energy per Si atom -12395.664371 kJ/mol
# Density = 2.118889 g / cm^3
# Si number density = 21.237223 Si / 1000 Ang^3
#
#
#
# Elastic Constant Matrix: (Units=GPa)
#
#
# Indices 1 2 3 4 5 6 
#
# 1 109.5866 17.9569 38.9270 0.0000 -25.3228 0.0000
# 2 17.9569 70.7406 40.5995 0.0000 -9.1032 0.0000
# 3 38.9270 40.5995 123.7498 0.0000 -22.9248 0.0000
# 4 0.0000 0.0000 0.0000 19.6833 0.0000 -8.1754
# 5 -25.3228 -9.1032 -22.9248 0.0000 42.6622 0.0000
# 6 0.0000 0.0000 0.0000 -8.1754 0.0000 31.0240
#
#
#
# Elastic Compliance Matrix: (Units=1/GPa)
#
#
# Indices 1 2 3 4 5 6 
#
# 1 0.011305 -0.000875 -0.002288 0.000000 0.005294 0.000000
# 2 -0.000875 0.017503 -0.005410 0.000000 0.000308 0.000000
# 3 -0.002288 -0.005410 0.011228 0.000000 0.003521 0.000000
# 4 0.000000 0.000000 0.000000 0.057048 0.000000 0.015033
# 5 0.005294 0.000308 0.003521 0.000000 0.028540 0.000000
# 6 0.000000 0.000000 0.000000 0.015033 0.000000 0.036195
#
#
# Mechanical properties :
#
#
# Convention : Reuss Voigt Hill
#
# Bulk Modulus (GPa) = 43.68971 55.44932 49.56951
# Shear Modulus (GPa) = 26.79613 32.44681 29.62147
#
# Velocity S-wave (km/s) = 3.55597 3.91298 3.73874
# Velocity P-wave (km/s) = 6.12183 6.82506 6.48299
#
# Compressibility (1/GPa) = 0.02288869
#
# Stress axis : x y z
#
# Youngs Moduli (GPa) = 88.45897 57.13372 89.06554
#
# Poissons Ratio (x) = 0.05000 0.20380
# Poissons Ratio (y) = 0.07741 0.48183
# Poissons Ratio (z) = 0.20242 0.30909
#
# Static dielectric constant tensor:
#      x y z
#    x 3.982540 0.000000 -0.059030 
#    y 0.000000 3.845010 0.000000 
#    z -0.059030 0.000000 3.940830 
# 
# 
# High freq. dielectric constant tensor:
#      x y z
#    x 1.843810 0.000000 -0.006170 
#    y 0.000000 1.824310 0.000000 
#    z -0.006170 0.000000 1.840660 
# 
# From -- ./inp_files/248771.got.cif
#   From: 2010.06.25/outbox.cif.g09.slc.cpg/sg15_125_cif.got.tgz:248771.got - 2010.06.28 07:06:18.
