data_PCOD8152966
_publ_section_title
;
Structure prediction by ZEFSAII (Michael W. Deem and Ramdas Pophale) SiO2 
 PCOD8152966
Probable space group: C 2/C
;
_chemical_formula_sum "Si O2"
_cell_formula_units_Z 56
_cell_length_a 13.686682
_cell_length_b 23.384768
_cell_length_c 8.297942
_cell_angle_alpha 90.000000
_cell_angle_beta 69.207370
_cell_angle_gamma 90.000000
_cell_volume 2482.867172
_symmetry_space_group_name_H-M "C 2/C"
_symmetry_group_IT_number 15
_symmetry_cell_setting 'monoclinic'
loop_
_space_group_symop_operation_xyz
x,y,z
-x,y,1/2-z
-x,-y,-z
x,-y,1/2+z
1/2+x,1/2+y,z
1/2-x,1/2+y,1/2-z
1/2-x,1/2-y,-z
1/2+x,1/2-y,1/2+z
loop_
_atom_site_type_symbol
_atom_site_label
_atom_site_fract_x
_atom_site_fract_y
_atom_site_fract_z
Si Si1 0.723639 0.816215 0.012928
Si Si2 0.393534 0.617155 0.217719
Si Si3 0.200779 0.310819 0.386984
Si Si4 0.558276 0.897346 0.048415
Si Si5 0.782567 0.470203 0.695975
Si Si6 0.642706 0.072824 0.020015
Si Si7 0.907864 0.208423 0.930815
O O1 0.706204 0.837204 0.205440
O O2 0.615332 0.835029 0.985064
O O3 0.750000 0.750000 0.000000
O O4 0.823890 0.844639 0.874806
O O5 0.500000 0.603001 0.250000
O O6 0.334311 0.556531 0.217389
O O7 0.414131 0.651676 0.038701
O O8 0.188464 0.363879 0.515460
O O9 0.103497 0.265561 0.451685
O O10 0.309472 0.283043 0.370822
O O11 0.500000 0.898899 0.250000
O O12 0.655416 0.941389 0.990390
O O13 0.477802 0.917166 0.958496
O O14 0.786360 0.537629 0.652297
O O15 0.850968 0.458539 0.813824
O O16 0.000000 0.209121 0.750000
#
# Coordination Sequence:
#
# PCOD8152966 Si02
#       7
#     8   8   8   8   8   8   8
#     4  11  23  42  69 104 145 181 233 293 347 427
#     4  11  24  46  72 101 139 187 239 294 358 431
#     4  11  24  44  68 101 143 181 235 290 355 431
#     4  11  23  41  68 101 137 183 234 273 356 424
#     4  11  26  45  71  99 138 183 238 300 356 423
#     4  12  24  45  68  98 142 183 233 299 354 426
#     4  11  24  45  70 103 141 189 232 286 360 430
#
# _framework density 22.554568
#
# number of rings (size 3 to 8) (size 9 to 14) (size 15 to 20)
#    0.000    0.857    4.286    2.571    2.000    4.000 
#    0.000    1.429    0.000    0.000    0.000    0.000 
#    0.000    0.000    0.000    0.000    0.000    0.000 
#
# Total GULP energy -346906.576091 kJ/mol
# GULP energy per Si atom -12389.520575 kJ/mol
# Density = 2.250323 g / cm^3
# Si number density = 22.554568 Si / 1000 Ang^3
#
#
#
# Elastic Constant Matrix: (Units=GPa)
#
#
# Indices 1 2 3 4 5 6 
#
# 1 148.1505 46.6166 47.2202 0.0000 -7.9714 0.0000
# 2 46.6166 113.9387 21.7407 0.0000 -7.1572 0.0000
# 3 47.2202 21.7407 104.9237 0.0000 -18.9011 0.0000
# 4 0.0000 0.0000 0.0000 22.4184 0.0000 2.0251
# 5 -7.9714 -7.1572 -18.9011 0.0000 30.3964 0.0000
# 6 0.0000 0.0000 0.0000 2.0251 0.0000 25.9101
#
#
#
# Elastic Compliance Matrix: (Units=1/GPa)
#
#
# Indices 1 2 3 4 5 6 
#
# 1 0.008741 -0.002958 -0.003416 0.000000 -0.000528 0.000000
# 2 -0.002958 0.010171 -0.000546 0.000000 0.001280 0.000000
# 3 -0.003416 -0.000546 0.012384 0.000000 0.006676 0.000000
# 4 0.000000 0.000000 0.000000 0.044923 0.000000 -0.003511
# 5 -0.000528 0.001280 0.006676 0.000000 0.037213 0.000000
# 6 0.000000 0.000000 0.000000 -0.003511 0.000000 0.038869
#
#
# Mechanical properties :
#
#
# Convention : Reuss Voigt Hill
#
# Bulk Modulus (GPa) = 57.28435 66.46310 61.87372
# Shear Modulus (GPa) = 29.07655 32.50736 30.79196
#
# Velocity S-wave (km/s) = 3.59439 3.80053 3.69890
# Velocity P-wave (km/s) = 6.53295 6.98501 6.76276
#
# Compressibility (1/GPa) = 0.01745677
#
# Stress axis : x y z
#
# Youngs Moduli (GPa) = 114.40443 98.31605 80.74987
#
# Poissons Ratio (x) = 0.29078 0.27585
# Poissons Ratio (y) = 0.33836 0.04408
# Poissons Ratio (z) = 0.39082 0.05367
#
# Static dielectric constant tensor:
#      x y z
#    x 4.204410 0.000000 0.058000 
#    y 0.000000 4.291920 0.000000 
#    z 0.058000 0.000000 4.285350 
# 
# 
# High freq. dielectric constant tensor:
#      x y z
#    x 1.881840 0.000000 -0.000100 
#    y 0.000000 1.889050 0.000000 
#    z -0.000100 0.000000 1.898670 
# 
# From -- ./inp_files/42111.got.cif
#   From: 2010.06.25/outbox.cif.g09.slc.cpg/sg15_22_cif.got.tgz:42111.got - 2010.06.28 07:06:18.
