data_PCOD8152374
_publ_section_title
;
Structure prediction by ZEFSAII (Michael W. Deem and Ramdas Pophale) SiO2 
 PCOD8152374
Probable space group: C 2/C
;
_chemical_formula_sum "Si O2"
_cell_formula_units_Z 36
_cell_length_a 7.758742
_cell_length_b 30.533296
_cell_length_c 12.269325
_cell_angle_alpha 90.000000
_cell_angle_beta 36.567487
_cell_angle_gamma 90.000000
_cell_volume 1731.664389
_symmetry_space_group_name_H-M "C 2/C"
_symmetry_group_IT_number 15
_symmetry_cell_setting 'monoclinic'
loop_
_space_group_symop_operation_xyz
x,y,z
-x,y,1/2-z
-x,-y,-z
x,-y,1/2+z
1/2+x,1/2+y,z
1/2-x,1/2+y,1/2-z
1/2-x,1/2-y,-z
1/2+x,1/2-y,1/2+z
loop_
_atom_site_type_symbol
_atom_site_label
_atom_site_fract_x
_atom_site_fract_y
_atom_site_fract_z
Si Si1 0.500000 0.853073 0.750000
Si Si2 0.736563 0.506267 0.054123
Si Si3 0.468412 0.409797 0.388743
Si Si4 0.000000 0.718469 0.750000
Si Si5 0.000000 0.431083 0.250000
Si Si6 0.455905 0.302497 0.652596
O O1 0.720021 0.883289 0.573723
O O2 0.668395 0.822333 0.748081
O O3 0.500000 0.529702 0.250000
O O4 0.615592 0.460858 0.067580
O O5 0.000000 0.500000 0.000000
O O6 0.798893 0.538400 0.924847
O O7 0.500000 0.392046 0.250000
O O8 0.778316 0.402146 0.291079
O O9 0.268967 0.689312 0.568816
O O10 0.093591 0.750079 0.804197
O O11 0.500000 0.324797 0.750000
#
# Coordination Sequence:
#
# PCOD8152374 Si02
#       6
#     4   8   8   4   4   8
#     4  12  27  38  62  92 131 170 194 244 311 382
#     4  11  22  41  66  89 113 153 216 272 310 354
#     4  11  26  43  56  91 124 160 210 249 314 375
#     4   8  18  43  70  96 123 154 208 254 283 348
#     4  12  23  41  66  82 116 164 202 272 312 354
#     4   9  20  42  65  95 125 158 202 246 297 353
#
# _framework density 20.789248000000001
#
# number of rings (size 3 to 8) (size 9 to 14) (size 15 to 20)
#    0.667    0.889    4.444    1.333    3.111    5.333 
#    0.000    0.000    0.000    0.000    0.000    0.000 
#    0.000    0.000    0.000    0.000    0.000    0.000 
#
# Total GULP energy -223111.352943 kJ/mol
# GULP energy per Si atom -12395.075164 kJ/mol
# Density = 2.074193 g / cm^3
# Si number density = 20.789248 Si / 1000 Ang^3
#
#
#
# Elastic Constant Matrix: (Units=GPa)
#
#
# Indices 1 2 3 4 5 6 
#
# 1 168.6669 30.5304 72.9663 0.0000 -15.6907 0.0000
# 2 30.5304 39.5593 39.8033 0.0000 -2.2414 0.0000
# 3 72.9663 39.8033 177.1748 0.0000 1.4760 0.0000
# 4 0.0000 0.0000 0.0000 49.7986 0.0000 -9.9204
# 5 -15.6907 -2.2414 1.4760 0.0000 38.0947 0.0000
# 6 0.0000 0.0000 0.0000 -9.9204 0.0000 11.7950
#
#
#
# Elastic Compliance Matrix: (Units=1/GPa)
#
#
# Indices 1 2 3 4 5 6 
#
# 1 0.007933 -0.003397 -0.002530 0.000000 0.003166 0.000000
# 2 -0.003397 0.034303 -0.006314 0.000000 0.000864 0.000000
# 3 -0.002530 -0.006314 0.008119 0.000000 -0.001728 0.000000
# 4 0.000000 0.000000 0.000000 0.024123 0.000000 0.020289
# 5 0.003166 0.000864 -0.001728 0.000000 0.027672 0.000000
# 6 0.000000 0.000000 0.000000 0.020289 0.000000 0.101846
#
#
# Mechanical properties :
#
#
# Convention : Reuss Voigt Hill
#
# Bulk Modulus (GPa) = 38.65323 74.66679 56.66001
# Shear Modulus (GPa) = 21.08799 36.07774 28.58286
#
# Velocity S-wave (km/s) = 3.18837 4.17034 3.71197
# Velocity P-wave (km/s) = 5.67341 7.69305 6.75909
#
# Compressibility (1/GPa) = 0.02587106
#
# Stress axis : x y z
#
# Youngs Moduli (GPa) = 126.05869 29.15235 123.16601
#
# Poissons Ratio (x) = 0.09903 0.31163
# Poissons Ratio (y) = 0.42823 0.77772
# Poissons Ratio (z) = 0.31895 0.18408
#
# Static dielectric constant tensor:
#      x y z
#    x 3.843410 0.000000 -0.168340 
#    y 0.000000 3.456340 0.000000 
#    z -0.168340 0.000000 1.909630 
# 
# 
# High freq. dielectric constant tensor:
#      x y z
#    x 1.819420 0.000000 0.005420 
#    y 0.000000 1.778680 0.000000 
#    z 0.005420 0.000000 1.836210 
# 
# From -- ./inp_files/138872.got.cif
#   From: 2010.06.25/outbox.cif.g09.slc.cpg/sg15_70_cif.got.tgz:138872.got - 2010.06.28 07:06:18.
