data_PCOD8152708
_publ_section_title
;
Structure prediction by ZEFSAII (Michael W. Deem and Ramdas Pophale) SiO2 
 PCOD8152708
Probable space group: C 2/C
;
_chemical_formula_sum "Si O2"
_cell_formula_units_Z 44
_cell_length_a 15.439124
_cell_length_b 13.602953
_cell_length_c 9.052675
_cell_angle_alpha 90.000000
_cell_angle_beta 100.610491
_cell_angle_gamma 90.000000
_cell_volume 1868.714030
_symmetry_space_group_name_H-M "C 2/C"
_symmetry_group_IT_number 15
_symmetry_cell_setting 'monoclinic'
loop_
_space_group_symop_operation_xyz
x,y,z
-x,y,1/2-z
-x,-y,-z
x,-y,1/2+z
1/2+x,1/2+y,z
1/2-x,1/2+y,1/2-z
1/2-x,1/2-y,-z
1/2+x,1/2-y,1/2+z
loop_
_atom_site_type_symbol
_atom_site_label
_atom_site_fract_x
_atom_site_fract_y
_atom_site_fract_z
Si Si1 0.229361 0.052282 0.520872
Si Si2 0.892119 0.358608 0.892544
Si Si3 0.347397 0.863747 0.266508
Si Si4 0.913787 0.190716 0.129288
Si Si5 0.500000 0.999023 0.750000
Si Si6 0.201040 0.652888 0.439766
O O1 0.307852 0.089147 0.439138
O O2 0.249941 0.099289 0.689092
O O3 0.134500 0.090470 0.435157
O O4 0.227675 0.935514 0.548156
O O5 0.858912 0.327190 0.719622
O O6 0.973025 0.433762 0.884971
O O7 0.929205 0.263879 0.993781
O O8 0.351596 0.749250 0.223857
O O9 0.417655 0.927927 0.189459
O O10 0.364000 0.876500 0.444993
O O11 0.000000 0.162154 0.250000
O O12 0.250000 0.750000 0.500000
#
# Coordination Sequence:
#
# PCOD8152708 Si02
#       6
#     8   8   8   8   4   8
#     4  11  22  45  65  96 137 187 229 275 346 423
#     4  11  25  40  67 104 140 172 223 293 357 413
#     4  11  23  39  68 101 137 172 225 288 358 414
#     4  11  25  43  69  97 136 190 236 272 332 424
#     4  12  22  40  70 108 144 166 218 308 370 394
#     4  12  23  40  69 100 134 179 228 287 346 418
#
# _framework density 23.545603
#
# number of rings (size 3 to 8) (size 9 to 14) (size 15 to 20)
#    0.000    0.727    4.545    4.364    2.545    3.636 
#    0.000    0.000    2.000    8.727    0.000    0.000 
#    0.000    0.000    0.000    0.000    0.000    0.000 
#
# Total GULP energy -272575.151867 kJ/mol
# GULP energy per Si atom -12389.779630 kJ/mol
# Density = 2.349201 g / cm^3
# Si number density = 23.545603 Si / 1000 Ang^3
#
#
#
# Elastic Constant Matrix: (Units=GPa)
#
#
# Indices 1 2 3 4 5 6 
#
# 1 74.5147 45.0105 45.7455 0.0000 26.3602 0.0000
# 2 45.0105 116.1891 33.8856 0.0000 31.7076 0.0000
# 3 45.7455 33.8856 155.9778 0.0000 26.8947 0.0000
# 4 0.0000 0.0000 0.0000 21.1590 0.0000 11.0015
# 5 26.3602 31.7076 26.8947 0.0000 49.4257 0.0000
# 6 0.0000 0.0000 0.0000 11.0015 0.0000 33.0982
#
#
#
# Elastic Compliance Matrix: (Units=1/GPa)
#
#
# Indices 1 2 3 4 5 6 
#
# 1 0.021215 -0.005514 -0.004064 0.000000 -0.005565 0.000000
# 2 -0.005514 0.012084 -0.000197 0.000000 -0.004704 0.000000
# 3 -0.004064 -0.000197 0.008001 0.000000 -0.002060 0.000000
# 4 0.000000 0.000000 0.000000 0.057136 0.000000 -0.018991
# 5 -0.005565 -0.004704 -0.002060 0.000000 0.027339 0.000000
# 6 0.000000 0.000000 0.000000 -0.018991 0.000000 0.036526
#
#
# Mechanical properties :
#
#
# Convention : Reuss Voigt Hill
#
# Bulk Modulus (GPa) = 45.97911 66.21829 56.09870
# Shear Modulus (GPa) = 26.44081 35.53924 30.99003
#
# Velocity S-wave (km/s) = 3.35470 3.88929 3.63184
# Velocity P-wave (km/s) = 5.88009 6.95365 6.43928
#
# Compressibility (1/GPa) = 0.02174901
#
# Stress axis : x y z
#
# Youngs Moduli (GPa) = 47.13618 82.75404 124.98255
#
# Poissons Ratio (x) = 0.45634 0.50798
# Poissons Ratio (y) = 0.25993 0.02460
# Poissons Ratio (z) = 0.19158 0.01629
#
# Static dielectric constant tensor:
#      x y z
#    x 4.114190 0.000000 -0.074610 
#    y 0.000000 4.176690 0.000000 
#    z -0.074610 0.000000 5.014870 
# 
# 
# High freq. dielectric constant tensor:
#      x y z
#    x 1.890590 0.000000 0.003780 
#    y 0.000000 1.923250 0.000000 
#    z 0.003780 0.000000 1.964250 
# 
# From -- ./inp_files/47206.got.cif
#   From: 2010.06.25/outbox.cif.g09.slc.cpg/sg15_24_cif.got.tgz:47206.got - 2010.06.28 07:06:18.
