data_PCOD8152597
_publ_section_title
;
Structure prediction by ZEFSAII (Michael W. Deem and Ramdas Pophale) SiO2 
 PCOD8152597
Probable space group: C 2/C
;
_chemical_formula_sum "Si O2"
_cell_formula_units_Z 52
_cell_length_a 12.795289
_cell_length_b 7.399567
_cell_length_c 29.960741
_cell_angle_alpha 90.000000
_cell_angle_beta 52.093927
_cell_angle_gamma 90.000000
_cell_volume 2238.187168
_symmetry_space_group_name_H-M "C 2/C"
_symmetry_group_IT_number 15
_symmetry_cell_setting 'monoclinic'
loop_
_space_group_symop_operation_xyz
x,y,z
-x,y,1/2-z
-x,-y,-z
x,-y,1/2+z
1/2+x,1/2+y,z
1/2-x,1/2+y,1/2-z
1/2-x,1/2-y,-z
1/2+x,1/2-y,1/2+z
loop_
_atom_site_type_symbol
_atom_site_label
_atom_site_fract_x
_atom_site_fract_y
_atom_site_fract_z
Si Si1 0.371336 0.678977 0.996453
Si Si2 0.993240 0.667732 0.832439
Si Si3 0.270472 0.868053 0.176118
Si Si4 0.642646 0.143496 0.418279
Si Si5 0.663665 0.632717 0.055276
Si Si6 0.749461 0.962678 0.619472
Si Si7 0.000000 0.063391 0.250000
O O1 0.489179 0.823552 0.972133
O O2 0.418434 0.511519 0.952929
O O3 0.250000 0.750000 0.000000
O O4 0.324123 0.615719 0.057047
O O5 0.947548 0.750367 0.891671
O O6 0.909938 0.483674 0.845945
O O7 0.969212 0.812844 0.800252
O O8 0.149243 0.628560 0.797989
O O9 0.268082 0.665680 0.156911
O O10 0.351199 0.000470 0.122624
O O11 0.124126 0.934086 0.225801
O O12 0.730230 0.057648 0.435823
O O13 0.701761 0.333034 0.385271
O O14 0.750000 0.750000 0.000000
#
# Coordination Sequence:
#
# PCOD8152597 Si02
#       7
#     8   8   8   8   8   8   4
#     4  12  24  37  67 109 149 195 234 280 363 437
#     4  11  26  50  76 103 146 188 244 302 367 422
#     4  12  27  49  77 103 141 196 243 303 367 422
#     4  11  24  44  69 105 154 186 240 294 354 435
#     4  11  22  43  70 104 147 187 230 294 357 436
#     4  11  24  45  71 109 145 189 240 292 357 444
#     4  12  28  54  72 106 138 186 256 314 350 432
#
# _framework density 23.233089
#
# number of rings (size 3 to 8) (size 9 to 14) (size 15 to 20)
#    0.000    0.615    6.154    3.231    2.154    4.308 
#    5.538    0.000    0.000    0.000    0.000    0.000 
#    0.000    0.000    0.000    0.000    0.000    0.000 
#
# Total GULP energy -322367.890431 kJ/mol
# GULP energy per Si atom -12398.765017 kJ/mol
# Density = 2.318021 g / cm^3
# Si number density = 23.233089 Si / 1000 Ang^3
#
#
#
# Elastic Constant Matrix: (Units=GPa)
#
#
# Indices 1 2 3 4 5 6 
#
# 1 130.4440 6.5481 6.2423 -0.0002 -23.5101 -0.0001
# 2 6.5481 39.3613 13.8745 -0.0004 -1.3830 -0.0003
# 3 6.2423 13.8745 69.7734 -0.0003 -13.2324 -0.0003
# 4 -0.0002 -0.0004 -0.0003 18.9275 -0.0001 -2.6174
# 5 -23.5101 -1.3830 -13.2324 -0.0001 31.9792 -0.0001
# 6 -0.0001 -0.0003 -0.0003 -2.6174 -0.0001 40.6799
#
#
#
# Elastic Compliance Matrix: (Units=1/GPa)
#
#
# Indices 1 2 3 4 5 6 
#
# 1 0.008936 -0.001529 0.000801 0.000000 0.006835 0.000000
# 2 -0.001529 0.027622 -0.005797 0.000000 -0.002328 0.000000
# 3 0.000801 -0.005797 0.016795 0.000000 0.007288 0.000000
# 4 0.000000 0.000000 0.000000 0.053307 0.000000 0.003430
# 5 0.006835 -0.002328 0.007288 0.000000 0.039210 0.000000
# 6 0.000000 0.000000 0.000000 0.003430 0.000000 0.024803
#
#
# Mechanical properties :
#
#
# Convention : Reuss Voigt Hill
#
# Bulk Modulus (GPa) = 24.81224 32.54543 28.67883
# Shear Modulus (GPa) = 25.36028 32.51157 28.93592
#
# Velocity S-wave (km/s) = 3.30746 3.74487 3.53294
# Velocity P-wave (km/s) = 5.02878 5.72166 5.38637
#
# Compressibility (1/GPa) = 0.04030270
#
# Stress axis : x y z
#
# Youngs Moduli (GPa) = 111.90148 36.20342 59.54029
#
# Poissons Ratio (x) = 0.05535 -0.04768
# Poissons Ratio (y) = 0.17107 0.34518
# Poissons Ratio (z) = -0.08960 0.20988
#
# Static dielectric constant tensor:
#      x y z
#    x 4.368560 -0.000020 -0.179530 
#    y -0.000020 1.802310 0.000010 
#    z -0.179530 0.000010 3.821700 
# 
# 
# High freq. dielectric constant tensor:
#      x y z
#    x 1.938940 0.000000 -0.008440 
#    y 0.000000 1.918960 0.000000 
#    z -0.008440 0.000000 1.906880 
# 
# From -- ./inp_files/291480.got.cif
#   From: 2010.06.25/outbox.cif.g09.slc.cpg/sg15_146_cif.got.tgz:291480.got - 2010.06.28 07:06:18.
