data_PCOD8152392
_publ_section_title
;
Structure prediction by ZEFSAII (Michael W. Deem and Ramdas Pophale) SiO2 
 PCOD8152392
Probable space group: C 2/C
;
_chemical_formula_sum "Si O2"
_cell_formula_units_Z 40
_cell_length_a 21.430069
_cell_length_b 17.071864
_cell_length_c 15.328098
_cell_angle_alpha 90.000000
_cell_angle_beta 20.303867
_cell_angle_gamma 90.000000
_cell_volume 1945.901898
_symmetry_space_group_name_H-M "C 2/C"
_symmetry_group_IT_number 15
_symmetry_cell_setting 'monoclinic'
loop_
_space_group_symop_operation_xyz
x,y,z
-x,y,1/2-z
-x,-y,-z
x,-y,1/2+z
1/2+x,1/2+y,z
1/2-x,1/2+y,1/2-z
1/2-x,1/2-y,-z
1/2+x,1/2-y,1/2+z
loop_
_atom_site_type_symbol
_atom_site_label
_atom_site_fract_x
_atom_site_fract_y
_atom_site_fract_z
Si Si1 0.309491 0.464959 0.724552
Si Si2 0.376243 0.162316 0.680784
Si Si3 0.862862 0.311838 0.507981
Si Si4 0.701462 0.498488 0.955335
Si Si5 0.506103 0.090094 0.146348
O O1 0.500000 0.500000 0.500000
O O2 0.286486 0.380648 0.800997
O O3 0.296211 0.452301 0.638538
O O4 0.151432 0.521310 0.963196
O O5 0.225871 0.227866 0.886579
O O6 0.543325 0.185803 0.521194
O O7 0.297047 0.081515 0.819519
O O8 0.439031 0.154208 0.497908
O O9 0.000000 0.325606 0.250000
O O10 0.811380 0.446704 0.880216
O O11 0.500000 0.512190 0.250000
O O12 0.500000 0.130873 0.250000
#
# Coordination Sequence:
#
# PCOD8152392 Si02
#       5
#     8   8   8   8   8
#     4  11  23  39  67  99 130 169 223 271 324 394
#     4  11  25  43  63 100 135 170 218 272 323 402
#     4  12  25  43  67  96 137 172 213 271 335 388
#     4  11  22  41  67  96 130 170 222 274 326 385
#     4  11  22  45  68  93 131 176 220 276 324 384
#
# _framework density 20.556021999999999
#
# number of rings (size 3 to 8) (size 9 to 14) (size 15 to 20)
#    0.000    0.800    4.000    4.200    8.400    0.000 
#    0.000    2.000    0.000    0.000    0.000    0.000 
#    0.000    0.000    0.000    0.000    0.000    0.000 
#
# Total GULP energy -248081.950766 kJ/mol
# GULP energy per Si atom -12404.097538 kJ/mol
# Density = 2.050924 g / cm^3
# Si number density = 20.556022 Si / 1000 Ang^3
#
#
#
# Elastic Constant Matrix: (Units=GPa)
#
#
# Indices 1 2 3 4 5 6 
#
# 1 131.5802 32.0315 46.2564 0.0155 5.9022 -0.0189
# 2 32.0315 81.4960 19.1329 0.0089 0.8295 -0.0196
# 3 46.2564 19.1329 90.1897 0.0031 -6.7374 -0.0272
# 4 0.0155 0.0089 0.0031 36.4632 0.0032 -8.1375
# 5 5.9022 0.8295 -6.7374 0.0032 44.4120 0.0125
# 6 -0.0189 -0.0196 -0.0272 -8.1375 0.0125 20.5347
#
#
#
# Elastic Compliance Matrix: (Units=1/GPa)
#
#
# Indices 1 2 3 4 5 6 
#
# 1 0.010025 -0.002818 -0.004692 -0.000003 -0.001992 0.000000
# 2 -0.002818 0.013725 -0.001474 0.000000 -0.000105 0.000009
# 3 -0.004692 -0.001474 0.014015 0.000004 0.002777 0.000013
# 4 -0.000003 0.000000 0.000004 0.030086 -0.000005 0.011922
# 5 -0.001992 -0.000105 0.002777 -0.000005 0.023204 -0.000014
# 6 0.000000 0.000009 0.000013 0.011922 -0.000014 0.053423
#
#
# Mechanical properties :
#
#
# Convention : Reuss Voigt Hill
#
# Bulk Modulus (GPa) = 50.51751 55.34526 52.93138
# Shear Modulus (GPa) = 29.57773 34.00498 31.79136
#
# Velocity S-wave (km/s) = 3.79738 4.07167 3.93691
# Velocity P-wave (km/s) = 6.62236 7.00623 6.81700
#
# Compressibility (1/GPa) = 0.01979512
#
# Stress axis : x y z
#
# Youngs Moduli (GPa) = 99.75099 72.85750 71.35413
#
# Poissons Ratio (x) = 0.20534 0.33483
# Poissons Ratio (y) = 0.28113 0.10519
# Poissons Ratio (z) = 0.46808 0.10740
#
# Static dielectric constant tensor:
#      x y z
#    x 4.170020 0.000020 0.024950 
#    y 0.000020 3.604830 0.000020 
#    z 0.024950 0.000020 3.968440 
# 
# 
# High freq. dielectric constant tensor:
#      x y z
#    x 1.823580 0.000000 -0.001660 
#    y 0.000000 1.784940 0.000000 
#    z -0.001660 0.000000 1.812570 
# 
# From -- ./inp_files/29099.got.cif
#   From: 2010.06.25/outbox.cif.g09.slc.cpg/sg15_15_cif.got.tgz:29099.got - 2010.06.28 07:06:18.
