data_PCOD8152565
_publ_section_title
;
Structure prediction by ZEFSAII (Michael W. Deem and Ramdas Pophale) SiO2 
 PCOD8152565
Probable space group: C 2/C
;
_chemical_formula_sum "Si O2"
_cell_formula_units_Z 64
_cell_length_a 17.172412
_cell_length_b 9.718074
_cell_length_c 27.676372
_cell_angle_alpha 90.000000
_cell_angle_beta 138.682865
_cell_angle_gamma 90.000000
_cell_volume 3049.393636
_symmetry_space_group_name_H-M "C 2/C"
_symmetry_group_IT_number 15
_symmetry_cell_setting 'monoclinic'
loop_
_space_group_symop_operation_xyz
x,y,z
-x,y,1/2-z
-x,-y,-z
x,-y,1/2+z
1/2+x,1/2+y,z
1/2-x,1/2+y,1/2-z
1/2-x,1/2-y,-z
1/2+x,1/2-y,1/2+z
loop_
_atom_site_type_symbol
_atom_site_label
_atom_site_fract_x
_atom_site_fract_y
_atom_site_fract_z
Si Si1 0.379187 0.351945 0.722610
Si Si2 0.806103 0.031083 0.454332
Si Si3 0.874343 0.604014 0.212143
Si Si4 0.253326 0.127607 0.826394
Si Si5 0.147642 0.529582 0.966343
Si Si6 0.082904 0.376427 0.188735
Si Si7 0.166660 0.269492 0.559762
Si Si8 0.577014 0.188841 0.507436
O O1 0.500000 0.346793 0.750000
O O2 0.342780 0.508091 0.715000
O O3 0.398588 0.277947 0.783116
O O4 0.278484 0.269785 0.646838
O O5 0.701268 0.059055 0.368692
O O6 0.903644 0.150714 0.496212
O O7 0.756011 0.026215 0.485272
O O8 0.867044 0.885605 0.470888
O O9 0.816764 0.731080 0.213805
O O10 0.881314 0.479885 0.252511
O O11 0.000000 0.649656 0.250000
O O12 0.338057 0.099259 0.821193
O O13 0.328262 0.131789 0.910401
O O14 0.053511 0.604259 0.888079
O O15 0.198031 0.640280 0.027559
O O16 0.087724 0.398537 0.963734
O O17 0.053666 0.335251 0.533267
#
# Coordination Sequence:
#
# PCOD8152565 Si02
#       8
#     8   8   8   8   8   8   8   8
#     4  12  25  44  67  99 134 171 218 278 332 387
#     4  11  24  41  66  98 134 172 224 274 330 389
#     4  11  22  43  65  92 133 176 218 275 333 391
#     4  11  24  43  66  98 133 173 220 273 331 392
#     4  12  23  43  70  96 131 181 219 267 330 401
#     4  12  23  43  68  97 129 176 227 263 331 401
#     4  12  23  45  68  95 136 175 215 276 335 385
#     4  11  24  44  67  98 135 175 218 272 330 399
#
# _framework density 20.987780000000001
#
# number of rings (size 3 to 8) (size 9 to 14) (size 15 to 20)
#    0.000    0.500    5.000    4.500    0.000    0.000 
#    0.000    2.500    0.000    0.000    0.000    0.000 
#    0.000    0.000    0.000    0.000    0.000    0.000 
#
# Total GULP energy -397047.054812 kJ/mol
# GULP energy per Si atom -12407.720463 kJ/mol
# Density = 2.094001 g / cm^3
# Si number density = 20.987780 Si / 1000 Ang^3
#
#
#
# Elastic Constant Matrix: (Units=GPa)
#
#
# Indices 1 2 3 4 5 6 
#
# 1 84.1003 12.4810 19.5977 0.0000 -5.7409 0.0000
# 2 12.4810 84.6910 22.6479 0.0000 -6.9236 0.0000
# 3 19.5977 22.6479 63.0980 0.0000 -1.9601 0.0000
# 4 0.0000 0.0000 0.0000 34.3917 0.0000 -1.7782
# 5 -5.7409 -6.9236 -1.9601 0.0000 31.3008 0.0000
# 6 0.0000 0.0000 0.0000 -1.7782 0.0000 27.9891
#
#
#
# Elastic Compliance Matrix: (Units=1/GPa)
#
#
# Indices 1 2 3 4 5 6 
#
# 1 0.013002 -0.000764 -0.003703 0.000000 0.001984 0.000000
# 2 -0.000764 0.013321 -0.004466 0.000000 0.002527 0.000000
# 3 -0.003703 -0.004466 0.018586 0.000000 -0.000503 0.000000
# 4 0.000000 0.000000 0.000000 0.029173 0.000000 0.001853
# 5 0.001984 0.002527 -0.000503 0.000000 0.032839 0.000000
# 6 0.000000 0.000000 0.000000 0.001853 0.000000 0.035846
#
#
# Mechanical properties :
#
#
# Convention : Reuss Voigt Hill
#
# Bulk Modulus (GPa) = 36.97582 37.92695 37.45139
# Shear Modulus (GPa) = 29.47323 30.54716 30.01020
#
# Velocity S-wave (km/s) = 3.75147 3.81921 3.78549
# Velocity P-wave (km/s) = 6.03496 6.12851 6.08192
#
# Compressibility (1/GPa) = 0.02704470
#
# Stress axis : x y z
#
# Youngs Moduli (GPa) = 76.91040 75.06982 53.80522
#
# Poissons Ratio (x) = 0.05734 0.19922
# Poissons Ratio (y) = 0.05874 0.24027
# Poissons Ratio (z) = 0.28477 0.33523
#
# Static dielectric constant tensor:
#      x y z
#    x 3.801490 0.000000 -0.082090 
#    y 0.000000 3.997230 0.000000 
#    z -0.082090 0.000000 3.823750 
# 
# 
# High freq. dielectric constant tensor:
#      x y z
#    x 1.832760 0.000000 -0.002240 
#    y 0.000000 1.839210 0.000000 
#    z -0.002240 0.000000 1.817850 
# 
# From -- ./inp_files/315714.got.cif
#   From: 2010.06.25/outbox.cif.g09.slc.cpg/sg15_158_cif.got.tgz:315714.got - 2010.06.28 07:06:18.
