data_PCOD8152598
_publ_section_title
;
Structure prediction by ZEFSAII (Michael W. Deem and Ramdas Pophale) SiO2 
 PCOD8152598
Probable space group: C 2/C
;
_chemical_formula_sum "Si O2"
_cell_formula_units_Z 52
_cell_length_a 13.496284
_cell_length_b 25.322901
_cell_length_c 9.593188
_cell_angle_alpha 90.000000
_cell_angle_beta 45.050848
_cell_angle_gamma 90.000000
_cell_volume 2320.388490
_symmetry_space_group_name_H-M "C 2/C"
_symmetry_group_IT_number 15
_symmetry_cell_setting 'monoclinic'
loop_
_space_group_symop_operation_xyz
x,y,z
-x,y,1/2-z
-x,-y,-z
x,-y,1/2+z
1/2+x,1/2+y,z
1/2-x,1/2+y,1/2-z
1/2-x,1/2-y,-z
1/2+x,1/2-y,1/2+z
loop_
_atom_site_type_symbol
_atom_site_label
_atom_site_fract_x
_atom_site_fract_y
_atom_site_fract_z
Si Si1 0.704554 0.353311 0.095463
Si Si2 0.846307 0.545423 0.355279
Si Si3 0.000000 0.872692 0.750000
Si Si4 0.456415 0.102102 0.990099
Si Si5 0.279578 0.930061 0.409446
Si Si6 0.554724 0.322620 0.983808
Si Si7 0.453182 0.797413 0.953344
O O1 0.559893 0.357980 0.322321
O O2 0.778988 0.410277 0.021536
O O3 0.690486 0.332501 0.947956
O O4 0.789049 0.311707 0.108084
O O5 0.753899 0.492513 0.455778
O O6 0.000000 0.528979 0.250000
O O7 0.859735 0.566836 0.186186
O O8 0.930001 0.839109 0.693389
O O9 0.123804 0.906253 0.554762
O O10 0.617399 0.079419 0.825830
O O11 0.369750 0.100293 0.935196
O O12 0.462196 0.162917 0.031800
O O13 0.518015 0.260880 0.019980
O O14 0.500000 0.806909 0.750000
#
# Coordination Sequence:
#
# PCOD8152598 Si02
#       7
#     8   8   4   8   8   8   8
#     4  11  22  43  70 106 129 169 235 286 330 401
#     4  12  22  41  74  99 127 170 226 288 336 388
#     4  12  28  48  60  96 148 196 216 264 348 426
#     4  11  22  43  70 106 129 169 235 286 330 401
#     4  11  27  43  67  96 144 181 219 279 342 404
#     4  11  27  43  67  96 144 181 219 279 342 404
#     4  12  22  41  74  99 127 170 226 288 336 388
#
# _framework density 22.410039999999999
#
# number of rings (size 3 to 8) (size 9 to 14) (size 15 to 20)
#    0.000    0.615    6.154    2.769    0.000    2.462 
#    0.000    4.615    0.000    0.000    0.000    0.000 
#    0.000    0.000    0.000    0.000    0.000    0.000 
#
# Total GULP energy -322260.933288 kJ/mol
# GULP energy per Si atom -12394.651280 kJ/mol
# Density = 2.235903 g / cm^3
# Si number density = 22.410040 Si / 1000 Ang^3
#
#
#
# Elastic Constant Matrix: (Units=GPa)
#
#
# Indices 1 2 3 4 5 6 
#
# 1 76.5998 35.6702 18.6512 0.0000 8.4006 0.0000
# 2 35.6702 143.0353 41.5451 0.0000 2.1497 0.0000
# 3 18.6512 41.5451 69.9703 0.0000 -0.6789 0.0000
# 4 0.0000 0.0000 0.0000 15.8953 0.0000 -4.5439
# 5 8.4006 2.1497 -0.6789 0.0000 39.8728 0.0000
# 6 0.0000 0.0000 0.0000 -4.5439 0.0000 25.8882
#
#
#
# Elastic Compliance Matrix: (Units=1/GPa)
#
#
# Indices 1 2 3 4 5 6 
#
# 1 0.015411 -0.003135 -0.002277 0.000000 -0.003117 0.000000
# 2 -0.003135 0.009098 -0.004565 0.000000 0.000092 0.000000
# 3 -0.002277 -0.004565 0.017619 0.000000 0.001026 0.000000
# 4 0.000000 0.000000 0.000000 0.066235 0.000000 0.011626
# 5 -0.003117 0.000092 0.001026 0.000000 0.025749 0.000000
# 6 0.000000 0.000000 0.000000 0.011626 0.000000 0.040668
#
#
# Mechanical properties :
#
#
# Convention : Reuss Voigt Hill
#
# Bulk Modulus (GPa) = 45.09814 53.48205 49.29010
# Shear Modulus (GPa) = 24.73716 29.24719 26.99218
#
# Velocity S-wave (km/s) = 3.32602 3.61653 3.47431
# Velocity P-wave (km/s) = 5.90911 6.43087 6.17550
#
# Compressibility (1/GPa) = 0.02217386
#
# Stress axis : x y z
#
# Youngs Moduli (GPa) = 64.88911 109.91797 56.75622
#
# Poissons Ratio (x) = 0.34460 0.12922
# Poissons Ratio (y) = 0.20343 0.25910
# Poissons Ratio (z) = 0.14773 0.50180
#
# Static dielectric constant tensor:
#      x y z
#    x 4.361930 0.000000 -0.082010 
#    y 0.000000 3.883010 0.000000 
#    z -0.082010 0.000000 4.244360 
# 
# 
# High freq. dielectric constant tensor:
#      x y z
#    x 1.883490 0.000000 0.001490 
#    y 0.000000 1.876700 0.000000 
#    z 0.001490 0.000000 1.883400 
# 
# From -- ./inp_files/43415.got.cif
#   From: 2010.06.25/outbox.cif.g09.slc.cpg/sg15_22_cif.got.tgz:43415.got - 2010.06.28 07:06:18.
