data_PCOD8152657
_publ_section_title
;
Structure prediction by ZEFSAII (Michael W. Deem and Ramdas Pophale) SiO2 
 PCOD8152657
Probable space group: C 2/C
;
_chemical_formula_sum "Si O2"
_cell_formula_units_Z 48
_cell_length_a 5.322912
_cell_length_b 23.209922
_cell_length_c 19.873162
_cell_angle_alpha 90.000000
_cell_angle_beta 57.402285
_cell_angle_gamma 90.000000
_cell_volume 2068.456474
_symmetry_space_group_name_H-M "C 2/C"
_symmetry_group_IT_number 15
_symmetry_cell_setting 'monoclinic'
loop_
_space_group_symop_operation_xyz
x,y,z
-x,y,1/2-z
-x,-y,-z
x,-y,1/2+z
1/2+x,1/2+y,z
1/2-x,1/2+y,1/2-z
1/2-x,1/2-y,-z
1/2+x,1/2-y,1/2+z
loop_
_atom_site_type_symbol
_atom_site_label
_atom_site_fract_x
_atom_site_fract_y
_atom_site_fract_z
Si Si1 0.839628 0.362514 0.433428
Si Si2 0.785484 0.961371 0.336999
Si Si3 0.653206 0.766823 0.300944
Si Si4 0.395724 0.546271 0.961197
Si Si5 0.551999 0.922084 0.875481
Si Si6 0.516775 0.645867 0.382794
O O1 0.568777 0.392971 0.433935
O O2 0.726502 0.342837 0.523373
O O3 0.093593 0.410976 0.398054
O O4 0.955420 0.307977 0.376098
O O5 0.946424 0.984294 0.381642
O O6 0.000000 0.933976 0.250000
O O7 0.620935 0.016751 0.328093
O O8 0.500000 0.766740 0.250000
O O9 0.646898 0.704827 0.336187
O O10 0.000000 0.786977 0.250000
O O11 0.500000 0.500000 0.000000
O O12 0.060352 0.562341 0.032540
O O13 0.852618 0.885032 0.843252
O O14 0.302065 0.889780 0.867892
#
# Coordination Sequence:
#
# PCOD8152657 Si02
#       6
#     8   8   8   8   8   8
#     4  11  25  44  74 105 145 190 244 291 372 441
#     4  12  25  40  68 110 152 185 236 305 377 436
#     4  12  29  50  74 105 149 191 243 317 372 422
#     4  11  22  44  69 103 148 190 237 290 365 444
#     4  11  23  44  73 103 140 193 240 297 357 436
#     4  11  25  48  77  98 139 196 254 292 350 442
#
# _framework density 23.20571
#
# number of rings (size 3 to 8) (size 9 to 14) (size 15 to 20)
#    0.000    0.667    3.333    4.500    4.667    2.000 
#    0.000    5.833    0.000    0.000    0.000    0.000 
#    0.000    0.000    0.000    0.000    0.000    0.000 
#
# Total GULP energy -297425.902980 kJ/mol
# GULP energy per Si atom -12392.745958 kJ/mol
# Density = 2.315289 g / cm^3
# Si number density = 23.205710 Si / 1000 Ang^3
#
#
#
# Elastic Constant Matrix: (Units=GPa)
#
#
# Indices 1 2 3 4 5 6 
#
# 1 99.0063 21.7170 23.6519 0.0000 7.4459 0.0000
# 2 21.7170 85.3292 1.1481 0.0000 4.6629 0.0000
# 3 23.6519 1.1481 60.9379 0.0000 7.4176 0.0000
# 4 0.0000 0.0000 0.0000 29.3543 0.0000 -9.4610
# 5 7.4459 4.6629 7.4176 0.0000 29.1197 0.0000
# 6 0.0000 0.0000 0.0000 -9.4610 0.0000 23.6437
#
#
#
# Elastic Compliance Matrix: (Units=1/GPa)
#
#
# Indices 1 2 3 4 5 6 
#
# 1 0.011891 -0.002887 -0.004383 0.000000 -0.001462 0.000000
# 2 -0.002887 0.012524 0.001072 0.000000 -0.001540 0.000000
# 3 -0.004383 0.001072 0.018551 0.000000 -0.003776 0.000000
# 4 0.000000 0.000000 0.000000 0.039111 0.000000 0.015650
# 5 -0.001462 -0.001540 -0.003776 0.000000 0.035923 0.000000
# 6 0.000000 0.000000 0.000000 0.015650 0.000000 0.048557
#
#
# Mechanical properties :
#
#
# Convention : Reuss Voigt Hill
#
# Bulk Modulus (GPa) = 32.71256 37.58972 35.15114
# Shear Modulus (GPa) = 26.43518 29.67397 28.05457
#
# Velocity S-wave (km/s) = 3.37882 3.57982 3.48077
# Velocity P-wave (km/s) = 5.41749 5.77239 5.59775
#
# Compressibility (1/GPa) = 0.03056929
#
# Stress axis : x y z
#
# Youngs Moduli (GPa) = 84.09951 79.84711 53.90623
#
# Poissons Ratio (x) = 0.23055 0.23626
# Poissons Ratio (y) = 0.24283 -0.05780
# Poissons Ratio (z) = 0.36859 -0.08561
#
# Static dielectric constant tensor:
#      x y z
#    x 4.197460 0.000000 -0.127530 
#    y 0.000000 4.330290 0.000000 
#    z -0.127530 0.000000 4.513990 
# 
# 
# High freq. dielectric constant tensor:
#      x y z
#    x 1.918410 0.000000 -0.006290 
#    y 0.000000 1.920000 0.000000 
#    z -0.006290 0.000000 1.926800 
# 
# From -- ./inp_files/228030.got.cif
#   From: 2010.06.25/outbox.cif.g09.slc.cpg/sg15_115_cif.got.tgz:228030.got - 2010.06.28 07:06:18.
