data_PCOD8152286
_publ_section_title
;
Structure prediction by ZEFSAII (Michael W. Deem and Ramdas Pophale) SiO2 
 PCOD8152286
Probable space group: C 2/C
;
_chemical_formula_sum "Si O2"
_cell_formula_units_Z 36
_cell_length_a 22.889577
_cell_length_b 12.027477
_cell_length_c 8.737370
_cell_angle_alpha 90.000000
_cell_angle_beta 139.780958
_cell_angle_gamma 90.000000
_cell_volume 1553.214899
_symmetry_space_group_name_H-M "C 2/C"
_symmetry_group_IT_number 15
_symmetry_cell_setting 'monoclinic'
loop_
_space_group_symop_operation_xyz
x,y,z
-x,y,1/2-z
-x,-y,-z
x,-y,1/2+z
1/2+x,1/2+y,z
1/2-x,1/2+y,1/2-z
1/2-x,1/2-y,-z
1/2+x,1/2-y,1/2+z
loop_
_atom_site_type_symbol
_atom_site_label
_atom_site_fract_x
_atom_site_fract_y
_atom_site_fract_z
Si Si1 0.832670 0.886348 0.984223
Si Si2 0.853062 0.334746 0.036499
Si Si3 0.000000 0.500410 0.750000
Si Si4 0.353165 0.835388 0.376339
Si Si5 0.167392 0.886952 0.153540
O O1 0.725946 0.881837 0.730057
O O2 0.885090 0.781951 0.013602
O O3 0.874457 0.999608 0.998658
O O4 0.845056 0.884301 0.190195
O O5 0.936313 0.419361 0.221669
O O6 0.814013 0.315283 0.128306
O O7 0.884920 0.217204 0.027403
O O8 0.936303 0.420126 0.523561
O O9 0.274139 0.882793 0.326481
#
# Coordination Sequence:
#
# PCOD8152286 Si02
#       5
#     8   8   4   8   8
#     4  11  22  40  65  93 126 169 219 265 314 381
#     4  11  23  39  63  94 131 170 212 263 321 381
#     4  12  26  40  66  98 138 166 214 262 326 384
#     4  11  23  39  63  94 131 170 212 263 321 381
#     4  11  22  40  65  93 126 169 219 265 314 381
#
# _framework density 23.177731999999999
#
# number of rings (size 3 to 8) (size 9 to 14) (size 15 to 20)
#    0.000    0.889    2.222    8.667    0.000    5.333 
#    0.000    1.111    0.000    5.333    0.000    0.000 
#    0.000    0.000    0.000    0.000    0.000    0.000 
#
# Total GULP energy -223116.712743 kJ/mol
# GULP energy per Si atom -12395.372930 kJ/mol
# Density = 2.312498 g / cm^3
# Si number density = 23.177732 Si / 1000 Ang^3
#
#
#
# Elastic Constant Matrix: (Units=GPa)
#
#
# Indices 1 2 3 4 5 6 
#
# 1 73.9287 48.5540 58.4681 0.0000 -25.0367 0.0000
# 2 48.5540 202.5417 45.5712 0.0000 -4.9481 0.0000
# 3 58.4681 45.5712 68.3607 0.0000 -22.8230 0.0000
# 4 0.0000 0.0000 0.0000 48.8954 0.0000 5.0184
# 5 -25.0367 -4.9481 -22.8230 0.0000 51.3738 0.0000
# 6 0.0000 0.0000 0.0000 5.0184 0.0000 47.6891
#
#
#
# Elastic Compliance Matrix: (Units=1/GPa)
#
#
# Indices 1 2 3 4 5 6 
#
# 1 0.044386 -0.002843 -0.033976 0.000000 0.006263 0.000000
# 2 -0.002843 0.006073 -0.002212 0.000000 -0.001783 0.000000
# 3 -0.033976 -0.002212 0.046453 0.000000 0.003866 0.000000
# 4 0.000000 0.000000 0.000000 0.020675 0.000000 -0.002176
# 5 0.006263 -0.001783 0.003866 0.000000 0.024063 0.000000
# 6 0.000000 0.000000 0.000000 -0.002176 0.000000 0.021198
#
#
# Mechanical properties :
#
#
# Convention : Reuss Voigt Hill
#
# Bulk Modulus (GPa) = 53.05375 72.22421 62.63898
# Shear Modulus (GPa) = 20.22699 42.40750 31.31725
#
# Velocity S-wave (km/s) = 2.95734 4.28210 3.67983
# Velocity P-wave (km/s) = 5.88224 7.46171 6.71856
#
# Compressibility (1/GPa) = 0.01884881
#
# Stress axis : x y z
#
# Youngs Moduli (GPa) = 22.52985 164.66476 21.52690
#
# Poissons Ratio (x) = 0.46809 0.73141
# Poissons Ratio (y) = 0.06404 0.04763
# Poissons Ratio (z) = 0.76548 0.36432
#
# Static dielectric constant tensor:
#      x y z
#    x 3.781980 0.000000 -0.144920 
#    y 0.000000 4.860810 0.000000 
#    z -0.144920 0.000000 3.777270 
# 
# 
# High freq. dielectric constant tensor:
#      x y z
#    x 1.895640 0.000000 -0.024800 
#    y 0.000000 1.947960 0.000000 
#    z -0.024800 0.000000 1.895000 
# 
# From -- ./inp_files/28830.got.cif
#   From: 2010.06.25/outbox.cif.g09.slc.cpg/sg15_15_cif.got.tgz:28830.got - 2010.06.28 07:06:18.
