data_PCOD8152796
_publ_section_title
;
Structure prediction by ZEFSAII (Michael W. Deem and Ramdas Pophale) SiO2 
 PCOD8152796
Probable space group: C 2/C
;
_chemical_formula_sum "Si O2"
_cell_formula_units_Z 52
_cell_length_a 15.621374
_cell_length_b 13.255978
_cell_length_c 12.188151
_cell_angle_alpha 90.000000
_cell_angle_beta 107.994572
_cell_angle_gamma 90.000000
_cell_volume 2400.427108
_symmetry_space_group_name_H-M "C 2/C"
_symmetry_group_IT_number 15
_symmetry_cell_setting 'monoclinic'
loop_
_space_group_symop_operation_xyz
x,y,z
-x,y,1/2-z
-x,-y,-z
x,-y,1/2+z
1/2+x,1/2+y,z
1/2-x,1/2+y,1/2-z
1/2-x,1/2-y,-z
1/2+x,1/2-y,1/2+z
loop_
_atom_site_type_symbol
_atom_site_label
_atom_site_fract_x
_atom_site_fract_y
_atom_site_fract_z
Si Si1 0.339377 0.174052 0.762916
Si Si2 0.198034 0.182809 0.066039
Si Si3 0.751851 0.533030 0.561303
Si Si4 0.054582 0.903316 0.979950
Si Si5 0.912238 0.558290 0.993907
Si Si6 0.522543 0.266783 0.386466
Si Si7 0.500000 0.708031 0.250000
O O1 0.295418 0.264849 0.813252
O O2 0.268916 0.115795 0.660523
O O3 0.414450 0.218656 0.712280
O O4 0.377995 0.096250 0.864875
O O5 0.243482 0.077031 0.110638
O O6 0.250000 0.250000 0.000000
O O7 0.101668 0.164054 0.970318
O O8 0.654939 0.567778 0.474725
O O9 0.836144 0.518381 0.511524
O O10 0.060758 0.812530 0.074816
O O11 0.997302 0.861340 0.855751
O O12 0.000000 0.000000 0.000000
O O13 0.944654 0.651109 0.084361
O O14 0.000000 0.500000 0.000000
O O15 0.500000 0.285402 0.250000
#
# Coordination Sequence:
#
# PCOD8152796 Si02
#       7
#     8   8   8   8   8   8   4
#     4  11  25  45  73  97 146 190 234 307 361 430
#     4  11  22  48  68 105 144 185 239 301 365 427
#     4  12  26  42  76 106 137 192 248 295 368 443
#     4  12  27  45  71 108 143 193 237 299 375 433
#     4  11  25  46  68 104 141 185 246 291 366 429
#     4  11  25  45  73  99 142 190 238 295 361 432
#     4  12  24  52  70  98 158 188 242 308 362 432
#
# _framework density 21.662811999999999
#
# number of rings (size 3 to 8) (size 9 to 14) (size 15 to 20)
#    0.000    0.615    7.692    0.923    5.385    3.077 
#    0.000    0.000    0.000    0.000    0.000    0.000 
#    0.000    0.000    0.000    0.000    0.000    0.000 
#
# Total GULP energy -322104.872163 kJ/mol
# GULP energy per Si atom -12388.648929 kJ/mol
# Density = 2.161351 g / cm^3
# Si number density = 21.662812 Si / 1000 Ang^3
#
#
#
# Elastic Constant Matrix: (Units=GPa)
#
#
# Indices 1 2 3 4 5 6 
#
# 1 127.6914 45.2233 21.9863 0.0000 -4.2958 0.0000
# 2 45.2233 75.3602 46.6321 0.0000 7.2789 0.0000
# 3 21.9863 46.6321 108.3962 0.0000 -5.5130 0.0000
# 4 0.0000 0.0000 0.0000 26.1441 0.0000 0.4268
# 5 -4.2958 7.2789 -5.5130 0.0000 27.9202 0.0000
# 6 0.0000 0.0000 0.0000 0.4268 0.0000 50.4685
#
#
#
# Elastic Compliance Matrix: (Units=1/GPa)
#
#
# Indices 1 2 3 4 5 6 
#
# 1 0.010343 -0.007344 0.001253 0.000000 0.003753 0.000000
# 2 -0.007344 0.024472 -0.009516 0.000000 -0.009389 0.000000
# 3 0.001253 -0.009516 0.013335 0.000000 0.005307 0.000000
# 4 0.000000 0.000000 0.000000 0.038255 0.000000 -0.000324
# 5 0.003753 -0.009389 0.005307 0.000000 0.039889 0.000000
# 6 0.000000 0.000000 0.000000 -0.000324 0.000000 0.019817
#
#
# Mechanical properties :
#
#
# Convention : Reuss Voigt Hill
#
# Bulk Modulus (GPa) = 59.04981 59.90349 59.47665
# Shear Modulus (GPa) = 27.32667 34.08032 30.70349
#
# Velocity S-wave (km/s) = 3.55555 3.97068 3.76884
# Velocity P-wave (km/s) = 6.64633 6.98101 6.81572
#
# Compressibility (1/GPa) = 0.01693486
#
# Stress axis : x y z
#
# Youngs Moduli (GPa) = 96.68276 40.86292 74.99115
#
# Poissons Ratio (x) = 0.30012 -0.09393
# Poissons Ratio (y) = 0.71008 0.71359
# Poissons Ratio (z) = -0.12110 0.38884
#
# Static dielectric constant tensor:
#      x y z
#    x 4.077370 0.000000 -0.207550 
#    y 0.000000 4.147440 0.000000 
#    z -0.207550 0.000000 3.583760 
# 
# 
# High freq. dielectric constant tensor:
#      x y z
#    x 1.866180 0.000000 -0.003880 
#    y 0.000000 1.864590 0.000000 
#    z -0.003880 0.000000 1.833390 
# 
# From -- ./inp_files/97111.got.cif
#   From: 2010.06.25/outbox.cif.g09.slc.cpg/sg15_49_cif.got.tgz:97111.got - 2010.06.28 07:06:18.
