data_PCOD8152058
_publ_section_title
;
Structure prediction by ZEFSAII (Michael W. Deem and Ramdas Pophale) SiO2 
 PCOD8152058
Probable space group: C 2/C
;
_chemical_formula_sum "Si O2"
_cell_formula_units_Z 48
_cell_length_a 13.014542
_cell_length_b 12.254670
_cell_length_c 16.562642
_cell_angle_alpha 90.000000
_cell_angle_beta 66.476043
_cell_angle_gamma 90.000000
_cell_volume 2422.026597
_symmetry_space_group_name_H-M "C 2/C"
_symmetry_group_IT_number 15
_symmetry_cell_setting 'monoclinic'
loop_
_space_group_symop_operation_xyz
x,y,z
-x,y,1/2-z
-x,-y,-z
x,-y,1/2+z
1/2+x,1/2+y,z
1/2-x,1/2+y,1/2-z
1/2-x,1/2-y,-z
1/2+x,1/2-y,1/2+z
loop_
_atom_site_type_symbol
_atom_site_label
_atom_site_fract_x
_atom_site_fract_y
_atom_site_fract_z
Si Si1 0.172111 0.049992 0.028899
Si Si2 0.651667 0.147742 0.648847
Si Si3 0.623237 0.078415 0.229031
Si Si4 0.525478 0.253134 0.553507
Si Si5 0.202266 0.346120 0.875277
Si Si6 0.802817 0.824483 0.550812
O O1 0.059570 0.120934 0.057533
O O2 0.226417 0.059947 0.101137
O O3 0.262969 0.102730 0.942916
O O4 0.142480 0.926855 0.013680
O O5 0.541819 0.188848 0.633435
O O6 0.712736 0.248006 0.674840
O O7 0.620250 0.052677 0.720559
O O8 0.500000 0.126383 0.250000
O O9 0.653776 0.100316 0.311037
O O10 0.709242 0.136502 0.142445
O O11 0.598435 0.197135 0.460572
O O12 0.395980 0.254241 0.568677
O O13 0.750000 0.750000 0.500000
#
# Coordination Sequence:
#
# PCOD8152058 Si02
#       6
#     8   8   8   8   8   8
#     4   8  17  35  57  78 102 135 177 221 269 317
#     4   8  18  35  56  78 101 139 181 213 264 330
#     4  11  23  36  50  77 114 144 174 223 275 317
#     4   9  17  36  61  78 101 143 186 219 260 326
#     4   9  18  36  58  78 104 141 180 222 269 314
#     4  11  22  34  53  83 111 142 183 224 265 318
#
# _framework density 19.818114000000001
#
# number of rings (size 3 to 8) (size 9 to 14) (size 15 to 20)
#    0.000    2.667    0.000    3.500    0.000    4.000 
#    0.000    7.500    0.000    0.000    0.000    0.000 
#    0.000    0.000    0.000    0.000    0.000    0.000 
#
# Total GULP energy -297515.680888 kJ/mol
# GULP energy per Si atom -12396.486704 kJ/mol
# Density = 1.977301 g / cm^3
# Si number density = 19.818114 Si / 1000 Ang^3
#
#
#
# Elastic Constant Matrix: (Units=GPa)
#
#
# Indices 1 2 3 4 5 6 
#
# 1 158.6744 49.1048 49.3580 0.0000 22.4485 0.0000
# 2 49.1048 95.1850 41.0854 0.0000 19.3939 0.0000
# 3 49.3580 41.0854 73.3553 0.0000 21.7148 0.0000
# 4 0.0000 0.0000 0.0000 27.6176 0.0000 5.7175
# 5 22.4485 19.3939 21.7148 0.0000 38.5477 0.0000
# 6 0.0000 0.0000 0.0000 5.7175 0.0000 26.9046
#
#
#
# Elastic Compliance Matrix: (Units=1/GPa)
#
#
# Indices 1 2 3 4 5 6 
#
# 1 0.008471 -0.002365 -0.003921 0.000000 -0.001534 0.000000
# 2 -0.002365 0.014836 -0.005900 0.000000 -0.002763 0.000000
# 3 -0.003921 -0.005900 0.021627 0.000000 -0.006931 0.000000
# 4 0.000000 0.000000 0.000000 0.037875 0.000000 -0.008049
# 5 -0.001534 -0.002763 -0.006931 0.000000 0.032130 0.000000
# 6 0.000000 0.000000 0.000000 -0.008049 0.000000 0.038879
#
#
# Mechanical properties :
#
#
# Convention : Reuss Voigt Hill
#
# Bulk Modulus (GPa) = 48.63448 67.36788 58.00118
# Shear Modulus (GPa) = 27.02080 31.12509 29.07294
#
# Velocity S-wave (km/s) = 3.69648 3.96730 3.83428
# Velocity P-wave (km/s) = 6.54311 7.41976 6.99518
#
# Compressibility (1/GPa) = 0.02056155
#
# Stress axis : x y z
#
# Youngs Moduli (GPa) = 118.05222 67.40571 46.23902
#
# Poissons Ratio (x) = 0.15941 0.18130
# Poissons Ratio (y) = 0.27919 0.27281
# Poissons Ratio (z) = 0.46287 0.39769
#
# Static dielectric constant tensor:
#      x y z
#    x 3.665530 0.000000 -0.118010 
#    y 0.000000 4.018620 0.000000 
#    z -0.118010 0.000000 4.152040 
# 
# 
# High freq. dielectric constant tensor:
#      x y z
#    x 1.779990 0.000000 0.008110 
#    y 0.000000 1.769530 0.000000 
#    z 0.008110 0.000000 1.758200 
# 
# From -- ./inp_files/177892.got.cif
#   From: 2010.06.25/outbox.cif.g09.slc.cpg/sg15_89_cif.got.tgz:177892.got - 2010.06.28 07:06:18.
