data_PCOD8152763
_publ_section_title
;
Structure prediction by ZEFSAII (Michael W. Deem and Ramdas Pophale) SiO2 
 PCOD8152763
Probable space group: C 2/C
;
_chemical_formula_sum "Si O2"
_cell_formula_units_Z 56
_cell_length_a 12.308440
_cell_length_b 8.104347
_cell_length_c 27.334010
_cell_angle_alpha 90.000000
_cell_angle_beta 62.019758
_cell_angle_gamma 90.000000
_cell_volume 2407.902590
_symmetry_space_group_name_H-M "C 2/C"
_symmetry_group_IT_number 15
_symmetry_cell_setting 'monoclinic'
loop_
_space_group_symop_operation_xyz
x,y,z
-x,y,1/2-z
-x,-y,-z
x,-y,1/2+z
1/2+x,1/2+y,z
1/2-x,1/2+y,1/2-z
1/2-x,1/2-y,-z
1/2+x,1/2-y,1/2+z
loop_
_atom_site_type_symbol
_atom_site_label
_atom_site_fract_x
_atom_site_fract_y
_atom_site_fract_z
Si Si1 0.224189 0.618636 0.643417
Si Si2 0.178412 0.179607 0.061042
Si Si3 0.655712 0.958159 0.309536
Si Si4 0.736911 0.127796 0.898288
Si Si5 0.950728 0.675450 0.311703
Si Si6 0.630355 0.664199 0.244841
Si Si7 0.062213 0.921671 0.939749
O O1 0.168595 0.679025 0.603729
O O2 0.142305 0.471671 0.682718
O O3 0.219025 0.764251 0.683633
O O4 0.363683 0.561227 0.605511
O O5 0.039368 0.141581 0.076180
O O6 0.252880 0.019736 0.064936
O O7 0.250000 0.250000 0.000000
O O8 0.560478 0.106859 0.321697
O O9 0.789356 0.004134 0.256602
O O10 0.666284 0.929472 0.364816
O O11 0.608882 0.790238 0.293764
O O12 0.876451 0.183708 0.856361
O O13 0.655985 0.277398 0.937843
O O14 0.000000 0.748173 0.250000
O O15 0.500000 0.611084 0.250000
O O16 0.000000 0.000000 0.000000
#
# Coordination Sequence:
#
# PCOD8152763 Si02
#       7
#     8   8   8   8   8   8   8
#     4  11  22  47  69 101 141 185 232 289 353 411
#     4  12  26  49  71 102 142 184 245 304 349 423
#     4  12  24  42  69 103 143 190 226 284 348 424
#     4  11  28  44  72 107 138 186 240 292 359 423
#     4  11  22  46  68 102 147 183 228 287 350 429
#     4  12  26  42  69 106 147 190 235 278 350 424
#     4  11  26  48  73 101 134 184 241 298 362 412
#
# _framework density 23.256754000000001
#
# number of rings (size 3 to 8) (size 9 to 14) (size 15 to 20)
#    0.000    0.571    5.714    1.714    4.000    2.857 
#    0.000    0.000    0.000    0.000    0.000    0.000 
#    0.000    0.000    0.000    0.000    0.000    0.000 
#
# Total GULP energy -347330.808652 kJ/mol
# GULP energy per Si atom -12404.671738 kJ/mol
# Density = 2.320382 g / cm^3
# Si number density = 23.256754 Si / 1000 Ang^3
#
#
#
# Elastic Constant Matrix: (Units=GPa)
#
#
# Indices 1 2 3 4 5 6 
#
# 1 133.3192 29.1426 31.9853 0.0000 -16.6601 0.0000
# 2 29.1426 68.3257 35.3886 0.0000 -1.2100 0.0000
# 3 31.9853 35.3886 120.3086 0.0000 -8.4184 0.0000
# 4 0.0000 0.0000 0.0000 30.4777 0.0000 -1.6303
# 5 -16.6601 -1.2100 -8.4184 0.0000 36.3925 0.0000
# 6 0.0000 0.0000 0.0000 -1.6303 0.0000 37.3797
#
#
#
# Elastic Compliance Matrix: (Units=1/GPa)
#
#
# Indices 1 2 3 4 5 6 
#
# 1 0.008935 -0.003125 -0.001196 0.000000 0.003709 0.000000
# 2 -0.003125 0.018373 -0.004707 0.000000 -0.001909 0.000000
# 3 -0.001196 -0.004707 0.010129 0.000000 0.001639 0.000000
# 4 0.000000 0.000000 0.000000 0.032888 0.000000 0.001434
# 5 0.003709 -0.001909 0.001639 0.000000 0.029492 0.000000
# 6 0.000000 0.000000 0.000000 0.001434 0.000000 0.026815
#
#
# Mechanical properties :
#
#
# Convention : Reuss Voigt Hill
#
# Bulk Modulus (GPa) = 51.60206 57.22070 54.41138
# Shear Modulus (GPa) = 33.07993 35.87912 34.47953
#
# Velocity S-wave (km/s) = 3.77554 3.93203 3.85458
# Velocity P-wave (km/s) = 6.42202 6.72844 6.57701
#
# Compressibility (1/GPa) = 0.01937907
#
# Stress axis : x y z
#
# Youngs Moduli (GPa) = 111.92452 54.42766 98.72368
#
# Poissons Ratio (x) = 0.17011 0.11812
# Poissons Ratio (y) = 0.34981 0.46469
# Poissons Ratio (z) = 0.13391 0.25619
#
# Static dielectric constant tensor:
#      x y z
#    x 4.344070 0.000000 -0.059840 
#    y 0.000000 5.728040 0.000000 
#    z -0.059840 0.000000 4.113920 
# 
# 
# High freq. dielectric constant tensor:
#      x y z
#    x 1.932050 0.000000 -0.007790 
#    y 0.000000 1.925140 0.000000 
#    z -0.007790 0.000000 1.912840 
# 
# From -- ./inp_files/310211.got.cif
#   From: 2010.06.25/outbox.cif.g09.slc.cpg/sg15_156_cif.got.tgz:310211.got - 2010.06.28 07:06:18.
