data_PCOD8152152
_publ_section_title
;
Structure prediction by ZEFSAII (Michael W. Deem and Ramdas Pophale) SiO2 
 PCOD8152152
Probable space group: C 2/C
;
_chemical_formula_sum "Si O2"
_cell_formula_units_Z 32
_cell_length_a 4.746849
_cell_length_b 18.273510
_cell_length_c 15.831178
_cell_angle_alpha 90.000000
_cell_angle_beta 91.124285
_cell_angle_gamma 90.000000
_cell_volume 1372.957228
_symmetry_space_group_name_H-M "C 2/C"
_symmetry_group_IT_number 15
_symmetry_cell_setting 'monoclinic'
loop_
_space_group_symop_operation_xyz
x,y,z
-x,y,1/2-z
-x,-y,-z
x,-y,1/2+z
1/2+x,1/2+y,z
1/2-x,1/2+y,1/2-z
1/2-x,1/2-y,-z
1/2+x,1/2-y,1/2+z
loop_
_atom_site_type_symbol
_atom_site_label
_atom_site_fract_x
_atom_site_fract_y
_atom_site_fract_z
Si Si1 0.423122 0.345025 0.156534
Si Si2 0.868116 0.986386 0.662338
Si Si3 0.617864 0.941251 0.936050
Si Si4 0.926453 0.686485 0.546334
O O1 0.500000 0.313602 0.250000
O O2 0.302519 0.427069 0.162186
O O3 0.704262 0.355526 0.103248
O O4 0.188908 0.291751 0.110540
O O5 0.568097 0.946695 0.650218
O O6 0.000000 0.959488 0.750000
O O7 0.059966 0.958531 0.585189
O O8 0.581788 0.861410 0.976068
O O9 0.500000 0.000000 0.000000
O O10 0.750000 0.750000 0.500000
#
# Coordination Sequence:
#
# PCOD8152152 Si02
#       4
#     8   8   8   8
#     4  11  22  41  66  94 126 166 221 273 325 392
#     4  11  22  38  64  98 127 165 217 276 334 383
#     4  12  21  39  64  93 130 164 214 271 330 384
#     4  12  25  41  63  96 130 174 218 263 324 399
#
# _framework density 23.307352000000002
#
# number of rings (size 3 to 8) (size 9 to 14) (size 15 to 20)
#    0.000    0.500    5.000    4.500    0.000    4.000 
#    0.000    5.000    0.000    0.000    0.000    0.000 
#    0.000    0.000    0.000    0.000    0.000    0.000 
#
# Total GULP energy -198330.354477 kJ/mol
# GULP energy per Si atom -12395.647155 kJ/mol
# Density = 2.325430 g / cm^3
# Si number density = 23.307352 Si / 1000 Ang^3
#
#
#
# Elastic Constant Matrix: (Units=GPa)
#
#
# Indices 1 2 3 4 5 6 
#
# 1 109.2776 10.9213 30.6770 0.0000 26.8233 0.0000
# 2 10.9213 66.0225 32.0647 0.0000 12.7563 0.0000
# 3 30.6770 32.0647 116.0557 0.0000 34.8379 0.0000
# 4 0.0000 0.0000 0.0000 17.7211 0.0000 5.1934
# 5 26.8233 12.7563 34.8379 0.0000 56.4445 0.0000
# 6 0.0000 0.0000 0.0000 5.1934 0.0000 38.7518
#
#
#
# Elastic Compliance Matrix: (Units=1/GPa)
#
#
# Indices 1 2 3 4 5 6 
#
# 1 0.010594 -0.000232 -0.001523 0.000000 -0.004042 0.000000
# 2 -0.000232 0.017564 -0.004459 0.000000 -0.001107 0.000000
# 3 -0.001523 -0.004459 0.011944 0.000000 -0.005641 0.000000
# 4 0.000000 0.000000 0.000000 0.058737 0.000000 -0.007872
# 5 -0.004042 -0.001107 -0.005641 0.000000 0.023369 0.000000
# 6 0.000000 0.000000 0.000000 -0.007872 0.000000 0.026860
#
#
# Mechanical properties :
#
#
# Convention : Reuss Voigt Hill
#
# Bulk Modulus (GPa) = 36.13413 48.74241 42.43827
# Shear Modulus (GPa) = 29.28757 37.09636 33.19196
#
# Velocity S-wave (km/s) = 3.54867 3.99383 3.77782
# Velocity P-wave (km/s) = 5.68575 6.49815 6.10548
#
# Compressibility (1/GPa) = 0.02767466
#
# Stress axis : x y z
#
# Youngs Moduli (GPa) = 94.39448 56.93385 83.72179
#
# Poissons Ratio (x) = 0.01320 0.12750
# Poissons Ratio (y) = 0.02188 0.37333
# Poissons Ratio (z) = 0.14375 0.25388
#
# Static dielectric constant tensor:
#      x y z
#    x 4.995670 0.000000 0.393450 
#    y 0.000000 3.775850 0.000000 
#    z 0.393450 0.000000 4.684500 
# 
# 
# High freq. dielectric constant tensor:
#      x y z
#    x 1.948790 0.000000 0.013680 
#    y 0.000000 1.867620 0.000000 
#    z 0.013680 0.000000 1.937580 
# 
# From -- ./inp_files/128275.got.cif
#   From: 2010.06.25/outbox.cif.g09.slc.cpg/sg15_65_cif.got.tgz:128275.got - 2010.06.28 07:06:18.
