data_PCOD8152753
_publ_section_title
;
Structure prediction by ZEFSAII (Michael W. Deem and Ramdas Pophale) SiO2 
 PCOD8152753
Probable space group: C 2/C
;
_chemical_formula_sum "Si O2"
_cell_formula_units_Z 60
_cell_length_a 12.636118
_cell_length_b 8.781797
_cell_length_c 25.585425
_cell_angle_alpha 90.000000
_cell_angle_beta 69.072348
_cell_angle_gamma 90.000000
_cell_volume 2651.865841
_symmetry_space_group_name_H-M "C 2/C"
_symmetry_group_IT_number 15
_symmetry_cell_setting 'monoclinic'
loop_
_space_group_symop_operation_xyz
x,y,z
-x,y,1/2-z
-x,-y,-z
x,-y,1/2+z
1/2+x,1/2+y,z
1/2-x,1/2+y,1/2-z
1/2-x,1/2-y,-z
1/2+x,1/2-y,1/2+z
loop_
_atom_site_type_symbol
_atom_site_label
_atom_site_fract_x
_atom_site_fract_y
_atom_site_fract_z
Si Si1 0.500000 0.441709 0.750000
Si Si2 0.415803 0.512224 0.562549
Si Si3 0.902047 0.527578 0.847267
Si Si4 0.800234 0.255225 0.283162
Si Si5 0.664675 0.036336 0.810894
Si Si6 0.776416 0.719206 0.935526
Si Si7 0.090774 0.986712 0.122978
Si Si8 0.748131 0.759122 0.618197
O O1 0.596071 0.339207 0.760837
O O2 0.442622 0.532508 0.809031
O O3 0.500000 0.500000 0.500000
O O4 0.341274 0.666056 0.571574
O O5 0.479431 0.514108 0.606883
O O6 0.339052 0.360645 0.571625
O O7 0.845022 0.669096 0.827642
O O8 0.866020 0.576563 0.913145
O O9 0.841793 0.373345 0.837495
O O10 0.035044 0.523478 0.815653
O O11 0.762960 0.386030 0.248819
O O12 0.700337 0.137583 0.314481
O O13 0.682896 0.144058 0.857069
O O14 0.830698 0.867461 0.899505
O O15 0.750000 0.750000 0.000000
O O16 0.169430 0.842266 0.093840
#
# Coordination Sequence:
#
# PCOD8152753 Si02
#       8
#     4   8   8   8   8   8   8   8
#     4  12  22  46  70 100 152 192 224 308 356 422
#     4  11  25  46  76 105 142 191 236 304 375 427
#     4  11  24  44  64  98 140 177 235 297 352 427
#     4  12  23  42  68  98 139 190 238 291 356 429
#     4  12  24  42  68  98 140 188 236 289 361 423
#     4  11  22  45  77 103 138 188 236 298 370 433
#     4  12  25  49  71 104 151 186 247 297 366 440
#     4  11  26  43  68 103 138 183 241 296 353 438
#
# _framework density 22.625579999999999
#
# number of rings (size 3 to 8) (size 9 to 14) (size 15 to 20)
#    0.000    0.533    5.333    2.400    0.000    5.867 
#    2.400    0.667    0.000    0.000    0.000    0.000 
#    0.000    0.000    0.000    0.000    0.000    0.000 
#
# Total GULP energy -371734.321927 kJ/mol
# GULP energy per Si atom -12391.144064 kJ/mol
# Density = 2.257408 g / cm^3
# Si number density = 22.625580 Si / 1000 Ang^3
#
#
#
# Elastic Constant Matrix: (Units=GPa)
#
#
# Indices 1 2 3 4 5 6 
#
# 1 126.4386 86.2385 40.1076 0.0000 -6.7348 0.0000
# 2 86.2385 129.7089 36.7765 0.0000 -12.7121 0.0000
# 3 40.1076 36.7765 102.6355 0.0000 -5.4625 0.0000
# 4 0.0000 0.0000 0.0000 21.4573 0.0000 -3.8261
# 5 -6.7348 -12.7121 -5.4625 0.0000 25.6039 0.0000
# 6 0.0000 0.0000 0.0000 -3.8261 0.0000 41.7734
#
#
#
# Elastic Compliance Matrix: (Units=1/GPa)
#
#
# Indices 1 2 3 4 5 6 
#
# 1 0.015089 -0.009422 -0.002587 0.000000 -0.001261 0.000000
# 2 -0.009422 0.014815 -0.001383 0.000000 0.004582 0.000000
# 3 -0.002587 -0.001383 0.011305 0.000000 0.001045 0.000000
# 4 0.000000 0.000000 0.000000 0.047378 0.000000 0.004339
# 5 -0.001261 0.004582 0.001045 0.000000 0.041223 0.000000
# 6 0.000000 0.000000 0.000000 0.004339 0.000000 0.024336
#
#
# Mechanical properties :
#
#
# Convention : Reuss Voigt Hill
#
# Bulk Modulus (GPa) = 69.32415 76.11424 72.71919
# Shear Modulus (GPa) = 26.91948 30.81094 28.86521
#
# Velocity S-wave (km/s) = 3.45306 3.69423 3.57568
# Velocity P-wave (km/s) = 6.82674 7.20488 7.01836
#
# Compressibility (1/GPa) = 0.01442499
#
# Stress axis : x y z
#
# Youngs Moduli (GPa) = 66.27372 67.49889 88.45336
#
# Poissons Ratio (x) = 0.63598 0.22886
# Poissons Ratio (y) = 0.62443 0.12231
# Poissons Ratio (z) = 0.17148 0.09333
#
# Static dielectric constant tensor:
#      x y z
#    x 4.313020 0.000000 -0.147590 
#    y 0.000000 4.321180 0.000000 
#    z -0.147590 0.000000 4.007940 
# 
# 
# High freq. dielectric constant tensor:
#      x y z
#    x 1.900400 0.000000 -0.011650 
#    y 0.000000 1.903770 0.000000 
#    z -0.011650 0.000000 1.877560 
# 
# From -- ./inp_files/310281.got.cif
#   From: 2010.06.25/outbox.cif.g09.slc.cpg/sg15_156_cif.got.tgz:310281.got - 2010.06.28 07:06:18.
