data_PCOD8152307
_publ_section_title
;
Structure prediction by ZEFSAII (Michael W. Deem and Ramdas Pophale) SiO2 
 PCOD8152307
Probable space group: C 2/C
;
_chemical_formula_sum "Si O2"
_cell_formula_units_Z 40
_cell_length_a 22.155393
_cell_length_b 8.136201
_cell_length_c 9.803818
_cell_angle_alpha 90.000000
_cell_angle_beta 74.954022
_cell_angle_gamma 90.000000
_cell_volume 1706.658442
_symmetry_space_group_name_H-M "C 2/C"
_symmetry_group_IT_number 15
_symmetry_cell_setting 'monoclinic'
loop_
_space_group_symop_operation_xyz
x,y,z
-x,y,1/2-z
-x,-y,-z
x,-y,1/2+z
1/2+x,1/2+y,z
1/2-x,1/2+y,1/2-z
1/2-x,1/2-y,-z
1/2+x,1/2-y,1/2+z
loop_
_atom_site_type_symbol
_atom_site_label
_atom_site_fract_x
_atom_site_fract_y
_atom_site_fract_z
Si Si1 0.243302 0.590922 0.148072
Si Si2 0.373076 0.693418 0.756969
Si Si3 0.154207 0.920404 0.531594
Si Si4 0.456914 0.006425 0.654437
Si Si5 0.662496 0.193873 0.759919
O O1 0.192744 0.731346 0.144629
O O2 0.307289 0.652301 0.181596
O O3 0.207714 0.459378 0.261976
O O4 0.273870 0.489751 0.004387
O O5 0.389794 0.550052 0.857401
O O6 0.367758 0.614274 0.609965
O O7 0.426222 0.833185 0.720120
O O8 0.154529 0.743382 0.605743
O O9 0.500000 0.073537 0.750000
O O10 0.405196 0.142413 0.645100
O O11 0.500000 0.000000 0.500000
#
# Coordination Sequence:
#
# PCOD8152307 Si02
#       5
#     8   8   8   8   8
#     4  11  22  40  67 108 142 178 222 287 362 412
#     4  11  26  42  73 102 143 186 230 290 345 422
#     4  12  22  43  65 108 141 178 224 285 361 413
#     4  11  27  51  73  98 138 192 245 283 345 417
#     4  11  23  42  73 102 143 181 228 291 349 423
#
# _framework density 23.437612000000001
#
# number of rings (size 3 to 8) (size 9 to 14) (size 15 to 20)
#    0.000    0.800    4.000    2.400    2.800    0.000 
#    0.000    5.000    0.000    0.000    0.000    0.000 
#    0.000    0.000    0.000    0.000    0.000    0.000 
#
# Total GULP energy -247763.793283 kJ/mol
# GULP energy per Si atom -12388.189664 kJ/mol
# Density = 2.338427 g / cm^3
# Si number density = 23.437612 Si / 1000 Ang^3
#
#
#
# Elastic Constant Matrix: (Units=GPa)
#
#
# Indices 1 2 3 4 5 6 
#
# 1 115.7121 47.0843 42.6245 0.0000 -28.3738 0.0000
# 2 47.0843 91.9755 21.1505 0.0000 -14.5100 0.0000
# 3 42.6245 21.1505 85.1038 0.0000 -27.9102 0.0000
# 4 0.0000 0.0000 0.0000 47.5211 0.0000 -1.5758
# 5 -28.3738 -14.5100 -27.9102 0.0000 29.3606 0.0000
# 6 0.0000 0.0000 0.0000 -1.5758 0.0000 27.3224
#
#
#
# Elastic Compliance Matrix: (Units=1/GPa)
#
#
# Indices 1 2 3 4 5 6 
#
# 1 0.013778 -0.005108 -0.003040 0.000000 0.007900 0.000000
# 2 -0.005108 0.013815 -0.000370 0.000000 0.001539 0.000000
# 3 -0.003040 -0.000370 0.017932 0.000000 0.013925 0.000000
# 4 0.000000 0.000000 0.000000 0.021084 0.000000 0.001216
# 5 0.007900 0.001539 0.013925 0.000000 0.055692 0.000000
# 6 0.000000 0.000000 0.000000 0.001216 0.000000 0.036670
#
#
# Mechanical properties :
#
#
# Convention : Reuss Voigt Hill
#
# Bulk Modulus (GPa) = 35.10226 57.16775 46.13500
# Shear Modulus (GPa) = 26.95377 32.96963 29.96170
#
# Velocity S-wave (km/s) = 3.39488 3.75467 3.57929
# Velocity P-wave (km/s) = 5.51147 6.57580 6.06702
#
# Compressibility (1/GPa) = 0.02848819
#
# Stress axis : x y z
#
# Youngs Moduli (GPa) = 72.58138 72.38409 55.76663
#
# Poissons Ratio (x) = 0.36971 0.16955
# Poissons Ratio (y) = 0.37072 0.02066
# Poissons Ratio (z) = 0.22067 0.02681
#
# Static dielectric constant tensor:
#      x y z
#    x 3.978570 0.000000 -0.181400 
#    y 0.000000 4.571530 0.000000 
#    z -0.181400 0.000000 4.170410 
# 
# 
# High freq. dielectric constant tensor:
#      x y z
#    x 1.896020 0.000000 -0.007360 
#    y 0.000000 1.949200 0.000000 
#    z -0.007360 0.000000 1.931760 
# 
# From -- ./inp_files/109571.got.cif
#   From: 2010.06.25/outbox.cif.g09.slc.cpg/sg15_55_cif.got.tgz:109571.got - 2010.06.28 07:06:18.
