data_PCOD8152268
_publ_section_title
;
Structure prediction by ZEFSAII (Michael W. Deem and Ramdas Pophale) SiO2 
 PCOD8152268
Probable space group: C 2/C
;
_chemical_formula_sum "Si O2"
_cell_formula_units_Z 48
_cell_length_a 20.583295
_cell_length_b 9.866522
_cell_length_c 18.719810
_cell_angle_alpha 90.000000
_cell_angle_beta 141.396573
_cell_angle_gamma 90.000000
_cell_volume 2371.994863
_symmetry_space_group_name_H-M "C 2/C"
_symmetry_group_IT_number 15
_symmetry_cell_setting 'monoclinic'
loop_
_space_group_symop_operation_xyz
x,y,z
-x,y,1/2-z
-x,-y,-z
x,-y,1/2+z
1/2+x,1/2+y,z
1/2-x,1/2+y,1/2-z
1/2-x,1/2-y,-z
1/2+x,1/2-y,1/2+z
loop_
_atom_site_type_symbol
_atom_site_label
_atom_site_fract_x
_atom_site_fract_y
_atom_site_fract_z
Si Si1 0.735624 0.247677 0.071094
Si Si2 0.545572 0.133449 0.957747
Si Si3 0.038268 0.113745 0.624186
Si Si4 0.398217 0.898081 0.830954
Si Si5 0.168995 0.996504 0.107198
Si Si6 0.047702 0.853600 0.713400
O O1 0.695264 0.392030 0.066195
O O2 0.841639 0.214762 0.201079
O O3 0.750000 0.250000 0.000000
O O4 0.660416 0.118839 0.022917
O O5 0.515811 0.285326 0.905989
O O6 0.463221 0.025306 0.855624
O O7 0.556208 0.128986 0.051254
O O8 0.067111 0.261863 0.680735
O O9 0.918475 0.105064 0.493293
O O10 0.123574 0.082579 0.636244
O O11 0.052098 0.013310 0.702942
O O12 0.274566 0.923384 0.720452
O O13 0.000000 0.822676 0.750000
#
# Coordination Sequence:
#
# PCOD8152268 Si02
#       6
#     8   8   8   8   8   8
#     4  12  22  40  67  94 127 171 225 270 314 387
#     4  11  22  40  62  97 124 170 220 265 321 389
#     4  11  23  40  63  95 132 167 215 275 327 391
#     4  11  24  39  66  96 133 165 215 277 330 383
#     4  11  22  40  63  93 129 171 216 267 332 382
#     4  12  23  42  68  93 130 179 222 266 324 395
#
# _framework density 20.236131
#
# number of rings (size 3 to 8) (size 9 to 14) (size 15 to 20)
#    0.000    0.667    6.667    2.000    0.000    4.000 
#    0.000    2.500    0.000    4.000    0.000    0.000 
#    0.000    0.000    0.000    0.000    0.000    0.000 
#
# Total GULP energy -297448.883351 kJ/mol
# GULP energy per Si atom -12393.703473 kJ/mol
# Density = 2.019007 g / cm^3
# Si number density = 20.236131 Si / 1000 Ang^3
#
#
#
# Elastic Constant Matrix: (Units=GPa)
#
#
# Indices 1 2 3 4 5 6 
#
# 1 90.4792 37.6360 34.9207 0.0000 14.3402 0.0000
# 2 37.6360 125.5476 48.2693 0.0000 17.4574 0.0000
# 3 34.9207 48.2693 105.3133 0.0000 23.0971 0.0000
# 4 0.0000 0.0000 0.0000 34.0331 0.0000 5.0527
# 5 14.3402 17.4574 23.0971 0.0000 38.0837 0.0000
# 6 0.0000 0.0000 0.0000 5.0527 0.0000 29.3188
#
#
#
# Elastic Compliance Matrix: (Units=1/GPa)
#
#
# Indices 1 2 3 4 5 6 
#
# 1 0.013600 -0.002699 -0.002792 0.000000 -0.002190 0.000000
# 2 -0.002699 0.010340 -0.003492 0.000000 -0.001606 0.000000
# 3 -0.002792 -0.003492 0.013195 0.000000 -0.005351 0.000000
# 4 0.000000 0.000000 0.000000 0.030155 0.000000 -0.005197
# 5 -0.002190 -0.001606 -0.005351 0.000000 0.031064 0.000000
# 6 0.000000 0.000000 0.000000 -0.005197 0.000000 0.035003
#
#
# Mechanical properties :
#
#
# Convention : Reuss Voigt Hill
#
# Bulk Modulus (GPa) = 52.16796 62.55469 57.36133
# Shear Modulus (GPa) = 31.70315 33.65471 32.67893
#
# Velocity S-wave (km/s) = 3.96240 4.08254 4.02292
# Velocity P-wave (km/s) = 6.83884 7.29399 7.07008
#
# Compressibility (1/GPa) = 0.01916885
#
# Stress axis : x y z
#
# Youngs Moduli (GPa) = 73.53131 96.71137 75.78376
#
# Poissons Ratio (x) = 0.26100 0.21160
# Poissons Ratio (y) = 0.19844 0.26465
# Poissons Ratio (z) = 0.20531 0.33774
#
# Static dielectric constant tensor:
#      x y z
#    x 3.337060 0.000000 0.026750 
#    y 0.000000 3.653730 0.000000 
#    z 0.026750 0.000000 3.472370 
# 
# 
# High freq. dielectric constant tensor:
#      x y z
#    x 1.779160 0.000000 0.024250 
#    y 0.000000 1.781650 0.000000 
#    z 0.024250 0.000000 1.807560 
# 
# From -- ./inp_files/252019.got.cif
#   From: 2010.06.25/outbox.cif.g09.slc.cpg/sg15_127_cif.got.tgz:252019.got - 2010.06.28 07:06:18.
