data_PCOD8152810
_publ_section_title
;
Structure prediction by ZEFSAII (Michael W. Deem and Ramdas Pophale) SiO2 
 PCOD8152810
Probable space group: C 2/C
;
_chemical_formula_sum "Si O2"
_cell_formula_units_Z 40
_cell_length_a 18.433466
_cell_length_b 14.393851
_cell_length_c 8.824826
_cell_angle_alpha 90.000000
_cell_angle_beta 49.279550
_cell_angle_gamma 90.000000
_cell_volume 1774.610089
_symmetry_space_group_name_H-M "C 2/C"
_symmetry_group_IT_number 15
_symmetry_cell_setting 'monoclinic'
loop_
_space_group_symop_operation_xyz
x,y,z
-x,y,1/2-z
-x,-y,-z
x,-y,1/2+z
1/2+x,1/2+y,z
1/2-x,1/2+y,1/2-z
1/2-x,1/2-y,-z
1/2+x,1/2-y,1/2+z
loop_
_atom_site_type_symbol
_atom_site_label
_atom_site_fract_x
_atom_site_fract_y
_atom_site_fract_z
Si Si1 0.956574 0.709420 0.159592
Si Si2 0.915419 0.792950 0.762148
Si Si3 0.099921 0.392629 0.047982
Si Si4 0.608204 0.396902 0.149971
Si Si5 0.302289 0.548803 0.280973
O O1 0.881498 0.788897 0.315722
O O2 0.000000 0.659771 0.250000
O O3 0.910301 0.630648 0.117038
O O4 0.042704 0.763921 0.957948
O O5 0.873100 0.703163 0.904426
O O6 0.834100 0.869523 0.852193
O O7 0.000000 0.836308 0.750000
O O8 0.000000 0.433642 0.250000
O O9 0.186969 0.464243 0.953402
O O10 0.500000 0.421898 0.250000
O O11 0.642234 0.455300 0.250420
O O12 0.678146 0.422854 0.917886
#
# Coordination Sequence:
#
# PCOD8152810 Si02
#       5
#     8   8   8   8   8
#     4   9  17  37  57  88 115 148 187 247 295 332
#     4   9  18  34  59  85 116 151 185 238 293 347
#     4   9  22  39  61  84 115 156 203 244 282 343
#     4  11  23  35  58  89 127 150 187 241 299 365
#     4  12  22  37  56  89 119 162 191 232 303 350
#
# _framework density 22.540164000000001
#
# number of rings (size 3 to 8) (size 9 to 14) (size 15 to 20)
#    0.000    2.400    4.000    1.800    5.600    0.800 
#    0.000    3.000    0.000    0.000    0.000    0.000 
#    0.000    0.000    0.000    0.000    0.000    0.000 
#
# Total GULP energy -247928.078198 kJ/mol
# GULP energy per Si atom -12396.403910 kJ/mol
# Density = 2.248886 g / cm^3
# Si number density = 22.540164 Si / 1000 Ang^3
#
#
#
# Elastic Constant Matrix: (Units=GPa)
#
#
# Indices 1 2 3 4 5 6 
#
# 1 119.0611 22.8456 53.9933 0.0000 -3.9373 0.0000
# 2 22.8456 20.1355 0.2347 0.0000 -3.7861 0.0000
# 3 53.9933 0.2347 89.3866 0.0000 2.9948 0.0000
# 4 0.0000 0.0000 0.0000 10.2629 0.0000 -3.5954
# 5 -3.9373 -3.7861 2.9948 0.0000 53.0426 0.0000
# 6 0.0000 0.0000 0.0000 -3.5954 0.0000 14.7842
#
#
#
# Elastic Compliance Matrix: (Units=1/GPa)
#
#
# Indices 1 2 3 4 5 6 
#
# 1 0.016446 -0.018457 -0.009901 0.000000 0.000462 0.000000
# 2 -0.018457 0.071059 0.010859 0.000000 0.003089 0.000000
# 3 -0.009901 0.010859 0.017171 0.000000 -0.000929 0.000000
# 4 0.000000 0.000000 0.000000 0.106513 0.000000 0.025903
# 5 0.000462 0.003089 -0.000929 0.000000 0.019160 0.000000
# 6 0.000000 0.000000 0.000000 0.025903 0.000000 0.073939
#
#
# Mechanical properties :
#
#
# Convention : Reuss Voigt Hill
#
# Bulk Modulus (GPa) = 14.35193 42.52560 28.43876
# Shear Modulus (GPa) = 13.79262 25.71857 19.75559
#
# Velocity S-wave (km/s) = 2.47637 3.38155 2.96372
# Velocity P-wave (km/s) = 3.81545 5.84415 4.93516
#
# Compressibility (1/GPa) = 0.06967705
#
# Stress axis : x y z
#
# Youngs Moduli (GPa) = 60.80501 14.07275 58.23880
#
# Poissons Ratio (x) = 0.25974 0.57663
# Poissons Ratio (y) = 1.12229 -0.63241
# Poissons Ratio (z) = 0.60204 -0.15281
#
# Static dielectric constant tensor:
#      x y z
#    x 4.123770 0.000000 0.242640 
#    y 0.000000 3.594340 0.000000 
#    z 0.242640 0.000000 3.975970 
# 
# 
# High freq. dielectric constant tensor:
#      x y z
#    x 1.889710 0.000000 0.019300 
#    y 0.000000 1.851320 0.000000 
#    z 0.019300 0.000000 1.884960 
# 
# From -- ./inp_files/48300.got.cif
#   From: 2010.06.25/outbox.cif.g09.slc.cpg/sg15_25_cif.got.tgz:48300.got - 2010.06.28 07:06:18.
