data_PCOD8152976
_publ_section_title
;
Structure prediction by ZEFSAII (Michael W. Deem and Ramdas Pophale) SiO2 
 PCOD8152976
Probable space group: C 2/C
;
_chemical_formula_sum "Si O2"
_cell_formula_units_Z 60
_cell_length_a 22.848088
_cell_length_b 9.096147
_cell_length_c 14.421799
_cell_angle_alpha 90.000000
_cell_angle_beta 67.757302
_cell_angle_gamma 90.000000
_cell_volume 2774.245180
_symmetry_space_group_name_H-M "C 2/C"
_symmetry_group_IT_number 15
_symmetry_cell_setting 'monoclinic'
loop_
_space_group_symop_operation_xyz
x,y,z
-x,y,1/2-z
-x,-y,-z
x,-y,1/2+z
1/2+x,1/2+y,z
1/2-x,1/2+y,1/2-z
1/2-x,1/2-y,-z
1/2+x,1/2-y,1/2+z
loop_
_atom_site_type_symbol
_atom_site_label
_atom_site_fract_x
_atom_site_fract_y
_atom_site_fract_z
Si Si1 0.500000 0.554799 0.250000
Si Si2 0.753661 0.102221 0.054692
Si Si3 0.729319 0.361577 0.612670
Si Si4 0.833751 0.829248 0.674277
Si Si5 0.352077 0.977722 0.248306
Si Si6 0.132344 0.704106 0.416477
Si Si7 0.897438 0.290150 0.366293
Si Si8 0.555707 0.520792 0.895911
O O1 0.443296 0.653617 0.323924
O O2 0.474609 0.445217 0.186081
O O3 0.814604 0.123988 0.082730
O O4 0.695972 0.069976 0.158686
O O5 0.750000 0.250000 0.000000
O O6 0.760966 0.978818 0.973058
O O7 0.703378 0.428341 0.725723
O O8 0.793936 0.277084 0.601355
O O9 0.677198 0.247389 0.605881
O O10 0.821364 0.657941 0.707912
O O11 0.908235 0.864642 0.636102
O O12 0.408461 0.918657 0.283016
O O13 0.381613 0.084678 0.153932
O O14 0.095014 0.655061 0.532423
O O15 0.106374 0.858702 0.396100
O O16 0.500000 0.500000 0.000000
#
# Coordination Sequence:
#
# PCOD8152976 Si02
#       8
#     4   8   8   8   8   8   8   8
#     4  12  24  52  70 102 144 190 260 288 360 432
#     4  12  26  38  68 109 150 185 237 299 363 448
#     4  11  23  41  69 105 144 194 231 292 381 426
#     4  11  26  44  69 101 151 191 242 294 375 439
#     4  11  25  43  65 106 146 191 235 298 375 425
#     4  12  24  42  75 105 146 181 243 303 370 438
#     4  11  24  45  73  97 143 196 240 289 363 446
#     4  12  27  47  75 105 136 200 250 306 354 440
#
# _framework density 21.627503999999998
#
# number of rings (size 3 to 8) (size 9 to 14) (size 15 to 20)
#    0.000    0.533    6.667    2.000    7.467    0.000 
#    0.000    3.333    0.000    0.000    0.000    0.000 
#    0.000    0.000    0.000    0.000    0.000    0.000 
#
# Total GULP energy -371747.351443 kJ/mol
# GULP energy per Si atom -12391.578381 kJ/mol
# Density = 2.157828 g / cm^3
# Si number density = 21.627504 Si / 1000 Ang^3
#
#
#
# Elastic Constant Matrix: (Units=GPa)
#
#
# Indices 1 2 3 4 5 6 
#
# 1 100.8280 44.8778 64.3787 0.0000 13.5874 0.0000
# 2 44.8778 94.1864 63.5764 0.0000 7.3751 0.0000
# 3 64.3787 63.5764 178.8386 0.0000 22.6267 0.0000
# 4 0.0000 0.0000 0.0000 34.2627 0.0000 7.0768
# 5 13.5874 7.3751 22.6267 0.0000 37.1008 0.0000
# 6 0.0000 0.0000 0.0000 7.0768 0.0000 31.1879
#
#
#
# Elastic Compliance Matrix: (Units=1/GPa)
#
#
# Indices 1 2 3 4 5 6 
#
# 1 0.014293 -0.004413 -0.003278 0.000000 -0.002358 0.000000
# 2 -0.004413 0.015334 -0.003989 0.000000 0.001001 0.000000
# 3 -0.003278 -0.003989 0.008601 0.000000 -0.003252 0.000000
# 4 0.000000 0.000000 0.000000 0.030621 0.000000 -0.006948
# 5 -0.002358 0.001001 -0.003252 0.000000 0.029602 0.000000
# 6 0.000000 0.000000 0.000000 -0.006948 0.000000 0.033640
#
#
# Mechanical properties :
#
#
# Convention : Reuss Voigt Hill
#
# Bulk Modulus (GPa) = 67.25895 79.94655 73.60275
# Shear Modulus (GPa) = 31.17040 33.91161 32.54100
#
# Velocity S-wave (km/s) = 3.80048 3.96408 3.88314
# Velocity P-wave (km/s) = 7.10102 7.61560 7.36281
#
# Compressibility (1/GPa) = 0.01486791
#
# Stress axis : x y z
#
# Youngs Moduli (GPa) = 69.96523 65.21304 116.26071
#
# Poissons Ratio (x) = 0.28778 0.38111
# Poissons Ratio (y) = 0.30875 0.46381
# Poissons Ratio (z) = 0.22935 0.26016
#
# Static dielectric constant tensor:
#      x y z
#    x 4.000380 0.000000 0.350810 
#    y 0.000000 3.575070 0.000000 
#    z 0.350810 0.000000 4.420860 
# 
# 
# High freq. dielectric constant tensor:
#      x y z
#    x 1.839110 0.000000 0.020840 
#    y 0.000000 1.825770 0.000000 
#    z 0.020840 0.000000 1.883950 
# 
# From -- ./inp_files/172333.got.cif
#   From: 2010.06.25/outbox.cif.g09.slc.cpg/sg15_87_cif.got.tgz:172333.got - 2010.06.28 07:06:18.
