data_PCOD8152087
_publ_section_title
;
Structure prediction by ZEFSAII (Michael W. Deem and Ramdas Pophale) SiO2 
 PCOD8152087
Probable space group: C 2/C
;
_chemical_formula_sum "Si O2"
_cell_formula_units_Z 32
_cell_length_a 12.885713
_cell_length_b 7.678589
_cell_length_c 17.753448
_cell_angle_alpha 90.000000
_cell_angle_beta 106.056561
_cell_angle_gamma 90.000000
_cell_volume 1688.072372
_symmetry_space_group_name_H-M "C 2/C"
_symmetry_group_IT_number 15
_symmetry_cell_setting 'monoclinic'
loop_
_space_group_symop_operation_xyz
x,y,z
-x,y,1/2-z
-x,-y,-z
x,-y,1/2+z
1/2+x,1/2+y,z
1/2-x,1/2+y,1/2-z
1/2-x,1/2-y,-z
1/2+x,1/2-y,1/2+z
loop_
_atom_site_type_symbol
_atom_site_label
_atom_site_fract_x
_atom_site_fract_y
_atom_site_fract_z
Si Si1 0.433024 0.096768 0.162621
Si Si2 0.001967 0.220421 0.339386
Si Si3 0.297808 0.676579 0.395951
Si Si4 0.363317 0.414659 0.068273
O O1 0.500000 0.144176 0.250000
O O2 0.305794 0.072435 0.157649
O O3 0.446881 0.257838 0.106958
O O4 0.471737 0.918233 0.132591
O O5 0.882723 0.185245 0.346101
O O6 0.000000 0.192784 0.250000
O O7 0.093017 0.097549 0.393225
O O8 0.352353 0.572649 0.476184
O O9 0.253888 0.865838 0.417724
#
# Coordination Sequence:
#
# PCOD8152087 Si02
#       4
#     8   8   8   8
#     4   9  20  39  54  85 115 141 191 229 271 339
#     4  11  22  36  59  86 112 148 188 226 284 333
#     4   9  21  41  56  84 115 143 193 230 271 341
#     4   9  20  42  57  81 116 148 186 233 276 328
#
# _framework density 18.956531999999999
#
# number of rings (size 3 to 8) (size 9 to 14) (size 15 to 20)
#    1.500    1.000    0.000    1.500    0.000    6.000 
#    4.500    0.000    0.000    0.000    0.000    0.000 
#    0.000    0.000    0.000    0.000    0.000    0.000 
#
# Total GULP energy -198251.805261 kJ/mol
# GULP energy per Si atom -12390.737829 kJ/mol
# Density = 1.891339 g / cm^3
# Si number density = 18.956532 Si / 1000 Ang^3
#
#
#
# Elastic Constant Matrix: (Units=GPa)
#
#
# Indices 1 2 3 4 5 6 
#
# 1 91.4135 -0.7726 50.0254 0.0000 -8.6955 0.0000
# 2 -0.7726 47.9066 39.6452 0.0000 9.0538 0.0000
# 3 50.0254 39.6452 133.5520 0.0000 12.9892 0.0000
# 4 0.0000 0.0000 0.0000 16.3155 0.0000 3.2855
# 5 -8.6955 9.0538 12.9892 0.0000 35.8004 0.0000
# 6 0.0000 0.0000 0.0000 3.2855 0.0000 16.8562
#
#
#
# Elastic Compliance Matrix: (Units=1/GPa)
#
#
# Indices 1 2 3 4 5 6 
#
# 1 0.016094 0.006183 -0.008388 0.000000 0.005389 0.000000
# 2 0.006183 0.030659 -0.011204 0.000000 -0.002187 0.000000
# 3 -0.008388 -0.011204 0.014386 0.000000 -0.004423 0.000000
# 4 0.000000 0.000000 0.000000 0.063796 0.000000 -0.012435
# 5 0.005389 -0.002187 -0.004423 0.000000 0.031399 0.000000
# 6 0.000000 0.000000 0.000000 -0.012435 0.000000 0.061749
#
#
# Mechanical properties :
#
#
# Convention : Reuss Voigt Hill
#
# Bulk Modulus (GPa) = 29.13761 50.07423 39.60592
# Shear Modulus (GPa) = 19.50510 26.05937 22.78224
#
# Velocity S-wave (km/s) = 3.21119 3.71170 3.47048
# Velocity P-wave (km/s) = 5.39936 6.69639 6.08255
#
# Compressibility (1/GPa) = 0.03431991
#
# Stress axis : x y z
#
# Youngs Moduli (GPa) = 62.13314 32.61669 69.51228
#
# Poissons Ratio (x) = -0.20166 0.58307
# Poissons Ratio (y) = -0.38415 0.77884
# Poissons Ratio (z) = 0.52118 0.36545
#
# Static dielectric constant tensor:
#      x y z
#    x 3.299770 0.000000 0.155250 
#    y 0.000000 3.333400 0.000000 
#    z 0.155250 0.000000 3.390790 
# 
# 
# High freq. dielectric constant tensor:
#      x y z
#    x 1.722550 0.000000 0.015730 
#    y 0.000000 1.723340 0.000000 
#    z 0.015730 0.000000 1.742530 
# 
# From -- ./inp_files/140560.got.cif
#   From: 2010.06.25/outbox.cif.g09.slc.cpg/sg15_71_cif.got.tgz:140560.got - 2010.06.28 07:06:18.
