data_PCOD8152040
_publ_section_title
;
Structure prediction by ZEFSAII (Michael W. Deem and Ramdas Pophale) SiO2 
 PCOD8152040
Probable space group: C 2/C
;
_chemical_formula_sum "Si O2"
_cell_formula_units_Z 48
_cell_length_a 16.827003
_cell_length_b 9.377828
_cell_length_c 14.924866
_cell_angle_alpha 90.000000
_cell_angle_beta 88.918055
_cell_angle_gamma 90.000000
_cell_volume 2354.735002
_symmetry_space_group_name_H-M "C 2/C"
_symmetry_group_IT_number 15
_symmetry_cell_setting 'monoclinic'
loop_
_space_group_symop_operation_xyz
x,y,z
-x,y,1/2-z
-x,-y,-z
x,-y,1/2+z
1/2+x,1/2+y,z
1/2-x,1/2+y,1/2-z
1/2-x,1/2-y,-z
1/2+x,1/2-y,1/2+z
loop_
_atom_site_type_symbol
_atom_site_label
_atom_site_fract_x
_atom_site_fract_y
_atom_site_fract_z
Si Si1 0.828785 0.483717 0.283388
Si Si2 0.003793 0.669797 0.499945
Si Si3 0.428541 0.239696 0.687204
Si Si4 0.160592 0.035373 0.212808
Si Si5 0.672027 0.237099 0.561032
Si Si6 0.929198 0.749178 0.316689
O O1 0.894903 0.412968 0.218305
O O2 0.747075 0.474778 0.231562
O O3 0.821179 0.401981 0.377292
O O4 0.854564 0.644972 0.302761
O O5 0.095340 0.720307 0.498949
O O6 0.000000 0.500000 0.500000
O O7 0.956853 0.732893 0.585374
O O8 0.960473 0.737702 0.416578
O O9 0.500000 0.283903 0.750000
O O10 0.363440 0.364194 0.702560
O O11 0.162361 0.122157 0.120522
O O12 0.098306 0.908561 0.202840
O O13 0.750000 0.250000 0.500000
O O14 0.000000 0.704190 0.250000
#
# Coordination Sequence:
#
# PCOD8152040 Si02
#       6
#     8   8   8   8   8   8
#     4  11  23  45  69  96 137 184 223 275 334 413
#     4  12  24  44  74 102 131 183 236 279 333 412
#     4  11  21  46  70  94 137 177 225 277 337 397
#     4  11  26  44  66 102 140 177 216 284 352 392
#     4  11  26  45  66 100 140 178 222 282 348 398
#     4  12  26  42  70 105 132 176 235 277 335 412
#
# _framework density 20.384459
#
# number of rings (size 3 to 8) (size 9 to 14) (size 15 to 20)
#    0.000    0.667    5.000    4.000    7.000    2.000 
#    0.000    2.500    0.000    0.000    0.000    0.000 
#    0.000    0.000    0.000    0.000    0.000    0.000 
#
# Total GULP energy -297747.222597 kJ/mol
# GULP energy per Si atom -12406.134275 kJ/mol
# Density = 2.033806 g / cm^3
# Si number density = 20.384459 Si / 1000 Ang^3
#
#
#
# Elastic Constant Matrix: (Units=GPa)
#
#
# Indices 1 2 3 4 5 6 
#
# 1 117.7852 30.6678 47.8660 0.0000 -3.2466 0.0000
# 2 30.6678 106.9385 32.6821 0.0000 -3.2528 0.0000
# 3 47.8660 32.6821 126.9645 0.0000 -9.9633 0.0000
# 4 0.0000 0.0000 0.0000 -69.0669 0.0000 128.9404
# 5 -3.2466 -3.2528 -9.9633 0.0000 47.5172 0.0000
# 6 0.0000 0.0000 0.0000 128.9404 0.0000 -132.0710
#
#
#
# Elastic Compliance Matrix: (Units=1/GPa)
#
#
# Indices 1 2 3 4 5 6 
#
# 1 0.010383 -0.001934 -0.003427 0.000000 -0.000142 0.000000
# 2 -0.001934 0.010511 -0.001963 0.000000 0.000176 0.000000
# 3 -0.003427 -0.001963 0.009806 0.000000 0.001688 0.000000
# 4 0.000000 0.000000 0.000000 0.017600 0.000000 0.017183
# 5 -0.000142 0.000176 0.001688 0.000000 0.021401 0.000000
# 6 0.000000 0.000000 0.000000 0.017183 0.000000 0.009204
#
#
# Mechanical properties :
#
#
# Convention : Reuss Voigt Hill
#
# Bulk Modulus (GPa) = 62.30207 63.79111 63.04659
# Shear Modulus (GPa) = 50.55378 -14.69264 17.93057
#
# Velocity S-wave (km/s) = 4.98538 -2.68764 2.96906
# Velocity P-wave (km/s) = 7.98552 4.66162 6.53832
#
# Compressibility (1/GPa) = 0.01605083
#
# Stress axis : x y z
#
# Youngs Moduli (GPa) = 96.31453 95.13800 101.97818
#
# Poissons Ratio (x) = 0.18403 0.34953
# Poissons Ratio (y) = 0.18631 0.20014
# Poissons Ratio (z) = 0.33012 0.18672
#
# Static dielectric constant tensor:
#      x y z
#    x 3.695770 0.000000 0.159130 
#    y 0.000000 3.768380 0.000000 
#    z 0.159130 0.000000 3.514280 
# 
# 
# High freq. dielectric constant tensor:
#      x y z
#    x 1.813420 0.000000 -0.001320 
#    y 0.000000 1.805860 0.000000 
#    z -0.001320 0.000000 1.794920 
# 
# From -- ./inp_files/159709.got.cif
#   From: 2010.06.25/outbox.cif.g09.slc.cpg/sg15_80_cif.got.tgz:159709.got - 2010.06.28 07:06:18.
