data_PCOD8152088
_publ_section_title
;
Structure prediction by ZEFSAII (Michael W. Deem and Ramdas Pophale) SiO2 
 PCOD8152088
Probable space group: C 2/C
;
_chemical_formula_sum "Si O2"
_cell_formula_units_Z 32
_cell_length_a 10.162946
_cell_length_b 9.834562
_cell_length_c 14.947573
_cell_angle_alpha 90.000000
_cell_angle_beta 69.628399
_cell_angle_gamma 90.000000
_cell_volume 1400.540234
_symmetry_space_group_name_H-M "C 2/C"
_symmetry_group_IT_number 15
_symmetry_cell_setting 'monoclinic'
loop_
_space_group_symop_operation_xyz
x,y,z
-x,y,1/2-z
-x,-y,-z
x,-y,1/2+z
1/2+x,1/2+y,z
1/2-x,1/2+y,1/2-z
1/2-x,1/2-y,-z
1/2+x,1/2-y,1/2+z
loop_
_atom_site_type_symbol
_atom_site_label
_atom_site_fract_x
_atom_site_fract_y
_atom_site_fract_z
Si Si1 0.218332 0.439115 0.955674
Si Si2 0.632197 0.980843 0.658345
Si Si3 0.374872 0.337164 0.075200
Si Si4 0.889349 0.169273 0.850501
O O1 0.162045 0.322771 0.903122
O O2 0.257348 0.567928 0.884861
O O3 0.104580 0.481802 0.059505
O O4 0.357924 0.379302 0.974691
O O5 0.500000 0.021472 0.750000
O O6 0.767265 0.068967 0.659539
O O7 0.666017 0.820420 0.656490
O O8 0.534133 0.348571 0.071134
O O9 0.000000 0.123287 0.750000
#
# Coordination Sequence:
#
# PCOD8152088 Si02
#       4
#     8   8   8   8
#     4   9  20  42  59  83 115 150 192 232 282 336
#     4   9  20  38  58  85 116 147 189 233 282 336
#     4   9  21  40  57  83 115 147 194 233 279 335
#     4  11  22  36  59  88 115 150 190 231 285 336
#
# _framework density 22.848324999999999
#
# number of rings (size 3 to 8) (size 9 to 14) (size 15 to 20)
#    1.500    1.000    0.000    1.500    0.000    6.000 
#    0.000    5.000    0.000    0.000    0.000    0.000 
#    0.000    0.000    0.000    0.000    0.000    0.000 
#
# Total GULP energy -198238.172323 kJ/mol
# GULP energy per Si atom -12389.885770 kJ/mol
# Density = 2.279632 g / cm^3
# Si number density = 22.848325 Si / 1000 Ang^3
#
#
#
# Elastic Constant Matrix: (Units=GPa)
#
#
# Indices 1 2 3 4 5 6 
#
# 1 19.3365 28.1312 -4.1010 0.0000 -8.6061 0.0000
# 2 28.1312 164.2350 59.3653 0.0000 -33.5958 0.0000
# 3 -4.1010 59.3653 96.1760 0.0000 -25.7108 0.0000
# 4 0.0000 0.0000 0.0000 23.4285 0.0000 -12.8658
# 5 -8.6061 -33.5958 -25.7108 0.0000 26.2373 0.0000
# 6 0.0000 0.0000 0.0000 -12.8658 0.0000 20.0841
#
#
#
# Elastic Compliance Matrix: (Units=1/GPa)
#
#
# Indices 1 2 3 4 5 6 
#
# 1 0.099600 -0.019480 0.024845 0.000000 0.032073 0.000000
# 2 -0.019480 0.012789 -0.008205 0.000000 0.001947 0.000000
# 3 0.024845 -0.008205 0.021532 0.000000 0.018744 0.000000
# 4 0.000000 0.000000 0.000000 0.065847 0.000000 0.042181
# 5 0.032073 0.001947 0.018744 0.000000 0.069495 0.000000
# 6 0.000000 0.000000 0.000000 0.042181 0.000000 0.076811
#
#
# Mechanical properties :
#
#
# Convention : Reuss Voigt Hill
#
# Bulk Modulus (GPa) = 7.79768 49.61539 28.70654
# Shear Modulus (GPa) = 12.67425 27.04011 19.85718
#
# Velocity S-wave (km/s) = 2.35779 3.44388 2.95123
# Velocity P-wave (km/s) = 3.29127 6.12993 4.91978
#
# Compressibility (1/GPa) = 0.12824322
#
# Stress axis : x y z
#
# Youngs Moduli (GPa) = 10.04015 78.18972 46.44204
#
# Poissons Ratio (x) = 1.52314 -1.15387
# Poissons Ratio (y) = 0.19558 0.38104
# Poissons Ratio (z) = -0.24945 0.64151
#
# Static dielectric constant tensor:
#      x y z
#    x 3.641740 0.000000 0.033990 
#    y 0.000000 4.224940 0.000000 
#    z 0.033990 0.000000 3.810800 
# 
# 
# High freq. dielectric constant tensor:
#      x y z
#    x 1.868660 0.000000 0.003720 
#    y 0.000000 1.918560 0.000000 
#    z 0.003720 0.000000 1.878450 
# 
# From -- ./inp_files/132017.got.cif
#   From: 2010.06.25/outbox.cif.g09.slc.cpg/sg15_67_cif.got.tgz:132017.got - 2010.06.28 07:06:18.
