data_PCOD8152802
_publ_section_title
;
Structure prediction by ZEFSAII (Michael W. Deem and Ramdas Pophale) SiO2 
 PCOD8152802
Probable space group: C 2/C
;
_chemical_formula_sum "Si O2"
_cell_formula_units_Z 56
_cell_length_a 9.499863
_cell_length_b 10.716629
_cell_length_c 27.168876
_cell_angle_alpha 90.000000
_cell_angle_beta 118.261097
_cell_angle_gamma 90.000000
_cell_volume 2436.262314
_symmetry_space_group_name_H-M "C 2/C"
_symmetry_group_IT_number 15
_symmetry_cell_setting 'monoclinic'
loop_
_space_group_symop_operation_xyz
x,y,z
-x,y,1/2-z
-x,-y,-z
x,-y,1/2+z
1/2+x,1/2+y,z
1/2-x,1/2+y,1/2-z
1/2-x,1/2-y,-z
1/2+x,1/2-y,1/2+z
loop_
_atom_site_type_symbol
_atom_site_label
_atom_site_fract_x
_atom_site_fract_y
_atom_site_fract_z
Si Si1 0.980518 0.638212 0.976827
Si Si2 0.084984 0.445863 0.390183
Si Si3 0.927504 0.180102 0.827927
Si Si4 0.106811 0.323517 0.220746
Si Si5 0.514237 0.604373 0.140963
Si Si6 0.232201 0.300536 0.893711
Si Si7 0.195022 0.263896 0.593369
O O1 0.800688 0.695724 0.943114
O O2 0.053677 0.630350 0.934636
O O3 0.000000 0.500000 0.000000
O O4 0.070657 0.732924 0.028035
O O5 0.143124 0.586968 0.408224
O O6 0.229367 0.372665 0.388671
O O7 0.931673 0.426814 0.328242
O O8 0.794624 0.177283 0.763726
O O9 0.886005 0.275288 0.866299
O O10 0.097435 0.235133 0.836598
O O11 0.954801 0.039969 0.849306
O O12 0.065269 0.183023 0.197374
O O13 0.000000 0.359987 0.250000
O O14 0.617154 0.651663 0.111898
O O15 0.324276 0.627423 0.103223
#
# Coordination Sequence:
#
# PCOD8152802 Si02
#       7
#     8   8   8   8   8   8   8
#     4  12  26  46  71 107 150 188 244 304 353 430
#     4  11  24  46  72 103 139 192 239 297 358 433
#     4  12  26  45  72 108 140 189 240 297 360 433
#     4  11  22  48  73  99 143 188 236 299 365 427
#     4  11  24  48  69 104 144 185 237 291 358 431
#     4  12  26  45  73 110 143 186 248 292 363 427
#     4  11  23  47  74  97 145 195 232 291 363 418
#
# _framework density 22.98603
#
# number of rings (size 3 to 8) (size 9 to 14) (size 15 to 20)
#    0.000    0.571    7.143    2.143    2.000    4.571 
#    2.571    0.000    0.000    0.000    0.000    0.000 
#    0.000    0.000    0.000    0.000    0.000    0.000 
#
# Total GULP energy -346971.817596 kJ/mol
# GULP energy per Si atom -12391.850628 kJ/mol
# Density = 2.293371 g / cm^3
# Si number density = 22.986030 Si / 1000 Ang^3
#
#
#
# Elastic Constant Matrix: (Units=GPa)
#
#
# Indices 1 2 3 4 5 6 
#
# 1 54.3428 26.4368 26.7850 0.0000 11.0826 0.0000
# 2 26.4368 91.6610 29.1512 0.0000 10.8361 0.0000
# 3 26.7850 29.1512 135.2536 0.0000 18.0198 0.0000
# 4 0.0000 0.0000 0.0000 32.9222 0.0000 1.0326
# 5 11.0826 10.8361 18.0198 0.0000 42.1424 0.0000
# 6 0.0000 0.0000 0.0000 1.0326 0.0000 25.0403
#
#
#
# Elastic Compliance Matrix: (Units=1/GPa)
#
#
# Indices 1 2 3 4 5 6 
#
# 1 0.023165 -0.005326 -0.002980 0.000000 -0.003448 0.000000
# 2 -0.005326 0.013106 -0.001599 0.000000 -0.001286 0.000000
# 3 -0.002980 -0.001599 0.008663 0.000000 -0.002509 0.000000
# 4 0.000000 0.000000 0.000000 0.030414 0.000000 -0.001254
# 5 -0.003448 -0.001286 -0.002509 0.000000 0.026039 0.000000
# 6 0.000000 0.000000 0.000000 -0.001254 0.000000 0.039987
#
#
# Mechanical properties :
#
#
# Convention : Reuss Voigt Hill
#
# Bulk Modulus (GPa) = 39.80234 49.55595 44.67914
# Shear Modulus (GPa) = 29.48837 33.27993 31.38415
#
# Velocity S-wave (km/s) = 3.58562 3.80917 3.69908
# Velocity P-wave (km/s) = 5.87330 6.39940 6.14199
#
# Compressibility (1/GPa) = 0.02512415
#
# Stress axis : x y z
#
# Youngs Moduli (GPa) = 43.16921 76.29933 115.43879
#
# Poissons Ratio (x) = 0.40635 0.34403
# Poissons Ratio (y) = 0.22991 0.18456
# Poissons Ratio (z) = 0.12865 0.12199
#
# Static dielectric constant tensor:
#      x y z
#    x 4.393650 0.000000 -0.138110 
#    y 0.000000 4.266200 0.000000 
#    z -0.138110 0.000000 5.227510 
# 
# 
# High freq. dielectric constant tensor:
#      x y z
#    x 1.911160 0.000000 0.012800 
#    y 0.000000 1.911480 0.000000 
#    z 0.012800 0.000000 1.906090 
# 
# From -- ./inp_files/307542.got.cif
#   From: 2010.06.25/outbox.cif.g09.slc.cpg/sg15_154_cif.got.tgz:307542.got - 2010.06.28 07:06:18.
