data_PCOD8152065
_publ_section_title
;
Structure prediction by ZEFSAII (Michael W. Deem and Ramdas Pophale) SiO2 
 PCOD8152065
Probable space group: C 2/C
;
_chemical_formula_sum "Si O2"
_cell_formula_units_Z 48
_cell_length_a 14.680895
_cell_length_b 18.202582
_cell_length_c 14.185940
_cell_angle_alpha 90.000000
_cell_angle_beta 140.042782
_cell_angle_gamma 90.000000
_cell_volume 2434.581888
_symmetry_space_group_name_H-M "C 2/C"
_symmetry_group_IT_number 15
_symmetry_cell_setting 'monoclinic'
loop_
_space_group_symop_operation_xyz
x,y,z
-x,y,1/2-z
-x,-y,-z
x,-y,1/2+z
1/2+x,1/2+y,z
1/2-x,1/2+y,1/2-z
1/2-x,1/2-y,-z
1/2+x,1/2-y,1/2+z
loop_
_atom_site_type_symbol
_atom_site_label
_atom_site_fract_x
_atom_site_fract_y
_atom_site_fract_z
Si Si1 0.370039 0.519021 0.331335
Si Si2 0.000000 0.983004 0.250000
Si Si3 0.493655 0.214160 0.448559
Si Si4 0.712984 0.671695 0.160165
Si Si5 0.611038 0.933814 0.072758
Si Si6 0.000000 0.757327 0.250000
Si Si7 0.724026 0.371449 0.463103
O O1 0.500000 0.500000 0.500000
O O2 0.418343 0.532323 0.261709
O O3 0.293120 0.592333 0.300293
O O4 0.254142 0.453009 0.243723
O O5 0.106841 0.933002 0.396706
O O6 0.560694 0.288316 0.544268
O O7 0.323467 0.218618 0.310844
O O8 0.542005 0.143846 0.549644
O O9 0.544861 0.209424 0.378256
O O10 0.776997 0.663198 0.104662
O O11 0.654032 0.914853 0.998374
O O12 0.500000 0.000000 0.000000
O O13 0.138536 0.808807 0.334656
#
# Coordination Sequence:
#
# PCOD8152065 Si02
#       7
#     8   4   8   8   8   4   8
#     4  11  22  39  61  86 114 157 205 243 301 350
#     4   9  18  34  60  86 113 150 200 256 285 354
#     4  11  22  35  55  86 120 158 189 241 302 362
#     4  11  22  37  58  90 118 158 197 244 304 366
#     4  11  22  37  53  84 122 154 193 243 294 356
#     4   9  18  34  56  88 121 158 194 236 309 378
#     4   9  18  33  57  85 120 154 193 239 300 362
#
# _framework density 19.715910999999998
#
# number of rings (size 3 to 8) (size 9 to 14) (size 15 to 20)
#    0.000    1.667    3.333    2.000    4.667    2.667 
#    0.000    0.000    0.000    1.000    4.333    0.000 
#    0.000    0.000    0.000    0.000    0.000    0.000 
#
# Total GULP energy -297337.073662 kJ/mol
# GULP energy per Si atom -12389.044736 kJ/mol
# Density = 1.967104 g / cm^3
# Si number density = 19.715911 Si / 1000 Ang^3
#
#
#
# Elastic Constant Matrix: (Units=GPa)
#
#
# Indices 1 2 3 4 5 6 
#
# 1 48.6297 26.5754 26.1465 0.0000 6.7139 0.0000
# 2 26.5754 96.9321 44.0160 0.0000 -4.9554 0.0000
# 3 26.1465 44.0160 121.1582 0.0001 11.6229 0.0000
# 4 0.0000 0.0000 0.0001 36.5633 0.0000 -0.8842
# 5 6.7139 -4.9554 11.6229 0.0000 19.2106 0.0000
# 6 0.0000 0.0000 0.0000 -0.8842 0.0000 33.2404
#
#
#
# Elastic Compliance Matrix: (Units=1/GPa)
#
#
# Indices 1 2 3 4 5 6 
#
# 1 0.026902 -0.006774 -0.002415 0.000000 -0.009688 0.000000
# 2 -0.006774 0.014814 -0.004792 0.000000 0.009088 0.000000
# 3 -0.002415 -0.004792 0.011204 0.000000 -0.007170 0.000000
# 4 0.000000 0.000000 0.000000 0.027367 0.000000 0.000728
# 5 -0.009688 0.009088 -0.007170 0.000000 0.062123 0.000000
# 6 0.000000 0.000000 0.000000 0.000728 0.000000 0.030103
#
#
# Mechanical properties :
#
#
# Convention : Reuss Voigt Hill
#
# Bulk Modulus (GPa) = 40.06844 51.13287 45.60065
# Shear Modulus (GPa) = 23.94700 29.13498 26.54099
#
# Velocity S-wave (km/s) = 3.48890 3.84831 3.67300
# Velocity P-wave (km/s) = 6.04953 6.76292 6.41615
#
# Compressibility (1/GPa) = 0.02495730
#
# Stress axis : x y z
#
# Youngs Moduli (GPa) = 37.17258 67.50250 89.25700
#
# Poissons Ratio (x) = 0.45727 0.21557
# Poissons Ratio (y) = 0.25181 0.42771
# Poissons Ratio (z) = 0.08978 0.32346
#
# Static dielectric constant tensor:
#      x y z
#    x 3.341880 0.000000 0.299340 
#    y 0.000000 3.733150 0.000000 
#    z 0.299340 0.000000 3.797950 
# 
# 
# High freq. dielectric constant tensor:
#      x y z
#    x 1.725500 0.000000 0.036990 
#    y 0.000000 1.769880 0.000000 
#    z 0.036990 0.000000 1.778140 
# 
# From -- ./inp_files/155098.got.cif
#   From: 2010.06.25/outbox.cif.g09.slc.cpg/sg15_78_cif.got.tgz:155098.got - 2010.06.28 07:06:18.
