data_PCOD8152945
_publ_section_title
;
Structure prediction by ZEFSAII (Michael W. Deem and Ramdas Pophale) SiO2 
 PCOD8152945
Probable space group: C 2/C
;
_chemical_formula_sum "Si O2"
_cell_formula_units_Z 40
_cell_length_a 12.314942
_cell_length_b 11.871971
_cell_length_c 24.676490
_cell_angle_alpha 90.000000
_cell_angle_beta 30.301596
_cell_angle_gamma 90.000000
_cell_volume 1820.305304
_symmetry_space_group_name_H-M "C 2/C"
_symmetry_group_IT_number 15
_symmetry_cell_setting 'monoclinic'
loop_
_space_group_symop_operation_xyz
x,y,z
-x,y,1/2-z
-x,-y,-z
x,-y,1/2+z
1/2+x,1/2+y,z
1/2-x,1/2+y,1/2-z
1/2-x,1/2-y,-z
1/2+x,1/2-y,1/2+z
loop_
_atom_site_type_symbol
_atom_site_label
_atom_site_fract_x
_atom_site_fract_y
_atom_site_fract_z
Si Si1 0.546952 0.043307 0.039056
Si Si2 0.548993 0.371651 0.468350
Si Si3 0.894550 0.665621 0.906000
Si Si4 0.157118 0.740381 0.321335
Si Si5 0.347434 0.282045 0.364472
O O1 0.765489 0.114358 0.936765
O O2 0.347772 0.125420 0.141323
O O3 0.500000 0.000000 0.000000
O O4 0.572927 0.947646 0.073157
O O5 0.500000 0.500000 0.500000
O O6 0.775582 0.352429 0.400471
O O7 0.583581 0.346184 0.389996
O O8 0.349381 0.293172 0.574775
O O9 0.114422 0.730916 0.801579
O O10 0.750000 0.750000 0.000000
O O11 0.992626 0.711606 0.343546
O O12 0.500000 0.325480 0.250000
#
# Coordination Sequence:
#
# PCOD8152945 Si02
#       5
#     8   8   8   8   8
#     4  11  24  44  67  95 132 175 220 275 340 404
#     4  11  23  41  65  96 132 172 220 281 340 398
#     4  12  25  42  66  99 131 169 223 279 332 402
#     4  11  24  44  65  94 133 175 221 273 338 413
#     4  11  23  43  67  94 130 177 224 272 338 413
#
# _framework density 21.974333999999999
#
# number of rings (size 3 to 8) (size 9 to 14) (size 15 to 20)
#    0.000    0.800    0.000   10.200    0.000    8.000 
#    0.000    2.000    0.000    0.000    0.000    0.000 
#    0.000    0.000    0.000    0.000    0.000    0.000 
#
# Total GULP energy -247896.470319 kJ/mol
# GULP energy per Si atom -12394.823516 kJ/mol
# Density = 2.192432 g / cm^3
# Si number density = 21.974334 Si / 1000 Ang^3
#
#
#
# Elastic Constant Matrix: (Units=GPa)
#
#
# Indices 1 2 3 4 5 6 
#
# 1 131.0789 38.8871 39.2050 0.0007 -11.2983 0.0003
# 2 38.8871 143.8140 76.5571 -0.0017 6.1793 0.0005
# 3 39.2050 76.5571 175.7649 -0.0081 8.2254 0.0025
# 4 0.0007 -0.0017 -0.0081 29.8653 0.0034 8.4184
# 5 -11.2983 6.1793 8.2254 0.0034 40.8318 0.0006
# 6 0.0003 0.0005 0.0025 8.4184 0.0006 45.1832
#
#
#
# Elastic Compliance Matrix: (Units=1/GPa)
#
#
# Indices 1 2 3 4 5 6 
#
# 1 0.008817 -0.001811 -0.001317 -0.000001 0.002979 0.000000
# 2 -0.001811 0.009438 -0.003651 0.000000 -0.001194 0.000000
# 3 -0.001317 -0.003651 0.007637 0.000002 -0.001350 -0.000001
# 4 -0.000001 0.000000 0.000002 0.035340 -0.000004 -0.006584
# 5 0.002979 -0.001194 -0.001350 -0.000004 0.025768 0.000000
# 6 0.000000 0.000000 -0.000001 -0.006584 0.000000 0.023359
#
#
# Mechanical properties :
#
#
# Convention : Reuss Voigt Hill
#
# Bulk Modulus (GPa) = 81.08197 84.43958 82.76078
# Shear Modulus (GPa) = 39.05413 42.91000 40.98206
#
# Velocity S-wave (km/s) = 4.22033 4.42377 4.32325
# Velocity P-wave (km/s) = 7.79274 8.03759 7.91611
#
# Compressibility (1/GPa) = 0.01233320
#
# Stress axis : x y z
#
# Youngs Moduli (GPa) = 113.41716 105.95520 130.94621
#
# Poissons Ratio (x) = 0.19187 0.17250
# Poissons Ratio (y) = 0.20538 0.47809
# Poissons Ratio (z) = 0.14941 0.38685
#
# Static dielectric constant tensor:
#      x y z
#    x 3.707930 -0.000010 0.472530 
#    y -0.000010 4.260240 0.000040 
#    z 0.472530 0.000040 3.599160 
# 
# 
# High freq. dielectric constant tensor:
#      x y z
#    x 1.882110 0.000000 0.003850 
#    y 0.000000 1.861470 0.000000 
#    z 0.003850 0.000000 1.871660 
# 
# From -- ./inp_files/292355.got.cif
#   From: 2010.06.25/outbox.cif.g09.slc.cpg/sg15_147_cif.got.tgz:292355.got - 2010.06.28 07:06:18.
