data_PCOD8152480
_publ_section_title
;
Structure prediction by ZEFSAII (Michael W. Deem and Ramdas Pophale) SiO2 
 PCOD8152480
Probable space group: C 2/C
;
_chemical_formula_sum "Si O2"
_cell_formula_units_Z 48
_cell_length_a 12.913780
_cell_length_b 27.419137
_cell_length_c 10.403486
_cell_angle_alpha 90.000000
_cell_angle_beta 144.270647
_cell_angle_gamma 90.000000
_cell_volume 2151.131934
_symmetry_space_group_name_H-M "C 2/C"
_symmetry_group_IT_number 15
_symmetry_cell_setting 'monoclinic'
loop_
_space_group_symop_operation_xyz
x,y,z
-x,y,1/2-z
-x,-y,-z
x,-y,1/2+z
1/2+x,1/2+y,z
1/2-x,1/2+y,1/2-z
1/2-x,1/2-y,-z
1/2+x,1/2-y,1/2+z
loop_
_atom_site_type_symbol
_atom_site_label
_atom_site_fract_x
_atom_site_fract_y
_atom_site_fract_z
Si Si1 0.203019 0.148213 0.954136
Si Si2 0.315455 0.026775 0.795714
Si Si3 0.832149 0.361010 0.297391
Si Si4 0.462434 0.706813 0.071506
Si Si5 0.331511 0.804181 0.826143
Si Si6 0.212662 0.459448 0.953399
O O1 0.287608 0.150976 0.899684
O O2 0.000000 0.165720 0.750000
O O3 0.317489 0.183653 0.160808
O O4 0.213955 0.092783 0.017734
O O5 0.343214 0.082058 0.777564
O O6 0.215888 0.998101 0.580272
O O7 0.211706 0.026083 0.828300
O O8 0.500000 0.000000 0.000000
O O9 0.022901 0.337955 0.457404
O O10 0.680764 0.336406 0.057388
O O11 0.500000 0.729520 0.250000
O O12 0.641882 0.684039 0.197060
O O13 0.384040 0.747786 0.897491
O O14 0.000000 0.456812 0.750000
#
# Coordination Sequence:
#
# PCOD8152480 Si02
#       6
#     8   8   8   8   8   8
#     4  11  22  42  67 100 136 172 222 284 336 393
#     4   9  18  38  64  95 130 174 223 270 328 402
#     4  11  24  45  70 100 137 176 222 280 335 399
#     4  12  27  47  64 100 135 176 228 277 332 398
#     4  12  24  45  72  92 133 180 219 276 339 395
#     4   9  18  37  62  91 132 168 225 270 331 400
#
# _framework density 22.313834
#
# number of rings (size 3 to 8) (size 9 to 14) (size 15 to 20)
#    0.000    1.333    3.333    4.000    0.000    0.667 
#   15.000    4.167    0.000    0.000    0.000    0.000 
#    0.000    0.000    0.000    0.000    0.000    0.000 
#
# Total GULP energy -297617.070301 kJ/mol
# GULP energy per Si atom -12400.711263 kJ/mol
# Density = 2.226305 g / cm^3
# Si number density = 22.313834 Si / 1000 Ang^3
#
#
#
# Elastic Constant Matrix: (Units=GPa)
#
#
# Indices 1 2 3 4 5 6 
#
# 1 53.8508 29.1798 36.9728 0.0000 -12.1469 0.0000
# 2 29.1798 145.6744 55.9893 0.0000 -13.6807 0.0000
# 3 36.9728 55.9893 104.2090 0.0000 10.5859 0.0000
# 4 0.0000 0.0000 0.0000 28.9247 0.0000 -6.3858
# 5 -12.1469 -13.6807 10.5859 0.0000 42.1860 0.0000
# 6 0.0000 0.0000 0.0000 -6.3858 0.0000 33.9657
#
#
#
# Elastic Compliance Matrix: (Units=1/GPa)
#
#
# Indices 1 2 3 4 5 6 
#
# 1 0.028943 -0.000496 -0.011116 0.000000 0.010963 0.000000
# 2 -0.000496 0.009401 -0.005306 0.000000 0.004237 0.000000
# 3 -0.011116 -0.005306 0.017332 0.000000 -0.009271 0.000000
# 4 0.000000 0.000000 0.000000 0.036070 0.000000 0.006781
# 5 0.010963 0.004237 -0.009271 0.000000 0.030562 0.000000
# 6 0.000000 0.000000 0.000000 0.006781 0.000000 0.030716
#
#
# Mechanical properties :
#
#
# Convention : Reuss Voigt Hill
#
# Bulk Modulus (GPa) = 45.78361 60.89089 53.33725
# Shear Modulus (GPa) = 25.75462 33.12143 29.43803
#
# Velocity S-wave (km/s) = 3.40104 3.85690 3.63612
# Velocity P-wave (km/s) = 5.99878 6.86891 6.44853
#
# Compressibility (1/GPa) = 0.02184188
#
# Stress axis : x y z
#
# Youngs Moduli (GPa) = 34.55026 106.37150 57.69531
#
# Poissons Ratio (x) = 0.05271 0.64136
# Poissons Ratio (y) = 0.01712 0.30611
# Poissons Ratio (z) = 0.38407 0.56436
#
# Static dielectric constant tensor:
#      x y z
#    x 5.193210 0.000000 -0.670470 
#    y 0.000000 4.060690 0.000000 
#    z -0.670470 0.000000 4.469170 
# 
# 
# High freq. dielectric constant tensor:
#      x y z
#    x 1.870400 0.000000 -0.005080 
#    y 0.000000 1.875070 0.000000 
#    z -0.005080 0.000000 1.880470 
# 
# From -- ./inp_files/101390.got.cif
#   From: 2010.06.25/outbox.cif.g09.slc.cpg/sg15_51_cif.got.tgz:101390.got - 2010.06.28 07:06:18.
