data_PCOD8152131
_publ_section_title
;
Structure prediction by ZEFSAII (Michael W. Deem and Ramdas Pophale) SiO2 
 PCOD8152131
Probable space group: C 2/C
;
_chemical_formula_sum "Si O2"
_cell_formula_units_Z 56
_cell_length_a 5.051628
_cell_length_b 29.341463
_cell_length_c 19.942719
_cell_angle_alpha 90.000000
_cell_angle_beta 78.997061
_cell_angle_gamma 90.000000
_cell_volume 2901.614694
_symmetry_space_group_name_H-M "C 2/C"
_symmetry_group_IT_number 15
_symmetry_cell_setting 'monoclinic'
loop_
_space_group_symop_operation_xyz
x,y,z
-x,y,1/2-z
-x,-y,-z
x,-y,1/2+z
1/2+x,1/2+y,z
1/2-x,1/2+y,1/2-z
1/2-x,1/2-y,-z
1/2+x,1/2-y,1/2+z
loop_
_atom_site_type_symbol
_atom_site_label
_atom_site_fract_x
_atom_site_fract_y
_atom_site_fract_z
Si Si1 0.791866 0.731865 0.895855
Si Si2 0.880740 0.898662 0.357499
Si Si3 0.599426 0.957130 0.173290
Si Si4 0.292219 0.823269 0.531422
Si Si5 0.308620 0.618419 0.015921
Si Si6 0.780214 0.516531 0.457421
Si Si7 0.154962 0.798003 0.178387
O O1 0.795060 0.785520 0.910527
O O2 0.502242 0.719122 0.879631
O O3 0.039969 0.720643 0.834569
O O4 0.832638 0.700697 0.958452
O O5 0.630988 0.930711 0.354785
O O6 0.889008 0.888155 0.435329
O O7 0.844377 0.852587 0.317615
O O8 0.155850 0.923053 0.322280
O O9 0.500000 0.976741 0.250000
O O10 0.684210 0.997716 0.119655
O O11 0.575531 0.844814 0.538288
O O12 0.071561 0.863180 0.541385
O O13 0.214780 0.570778 0.051804
O O14 0.500000 0.500000 0.500000
O O15 0.000000 0.500000 0.500000
O O16 0.000000 0.778010 0.250000
#
# Coordination Sequence:
#
# PCOD8152131 Si02
#       7
#     8   8   8   8   8   8   8
#     4  11  22  38  58  84 116 154 196 232 293 351
#     4  12  22  38  59  90 124 157 188 235 305 362
#     4  12  24  40  58  85 124 164 199 238 293 369
#     4  11  22  38  61  85 114 152 191 251 292 335
#     4  12  21  38  61  87 123 148 195 250 299 343
#     4  12  23  38  61  89 119 157 199 247 299 347
#     4  12  23  36  56  86 122 156 189 235 291 364
#
# _framework density 19.299600000000002
#
# number of rings (size 3 to 8) (size 9 to 14) (size 15 to 20)
#    0.000    0.286    5.714    5.143    0.000    2.286 
#    0.000    0.000    0.000    5.143    0.000    0.000 
#    0.000    0.000    0.000    0.000    0.000    0.000 
#
# Total GULP energy -347359.321060 kJ/mol
# GULP energy per Si atom -12405.690038 kJ/mol
# Density = 1.925567 g / cm^3
# Si number density = 19.299600 Si / 1000 Ang^3
#
#
#
# Elastic Constant Matrix: (Units=GPa)
#
#
# Indices 1 2 3 4 5 6 
#
# 1 95.6363 16.0535 10.7584 0.0000 -17.3052 0.0000
# 2 16.0535 102.4571 39.9242 0.0000 -13.9402 0.0000
# 3 10.7584 39.9242 89.8107 0.0000 -19.1276 0.0000
# 4 0.0000 0.0000 0.0000 22.2674 0.0000 -6.6525
# 5 -17.3052 -13.9402 -19.1276 0.0000 24.0551 0.0000
# 6 0.0000 0.0000 0.0000 -6.6525 0.0000 26.9300
#
#
#
# Elastic Compliance Matrix: (Units=1/GPa)
#
#
# Indices 1 2 3 4 5 6 
#
# 1 0.012129 -0.001047 0.000893 0.000000 0.008829 0.000000
# 2 -0.001047 0.012105 -0.004722 0.000000 0.002507 0.000000
# 3 0.000893 -0.004722 0.015266 0.000000 0.010045 0.000000
# 4 0.000000 0.000000 0.000000 0.048487 0.000000 0.011978
# 5 0.008829 0.002507 0.010045 0.000000 0.057363 0.000000
# 6 0.000000 0.000000 0.000000 0.011978 0.000000 0.040092
#
#
# Mechanical properties :
#
#
# Convention : Reuss Voigt Hill
#
# Bulk Modulus (GPa) = 33.61537 46.81957 40.21747
# Shear Modulus (GPa) = 24.37704 29.39504 26.88604
#
# Velocity S-wave (km/s) = 3.55785 3.90691 3.73646
# Velocity P-wave (km/s) = 5.85945 6.68311 6.28479
#
# Compressibility (1/GPa) = 0.02974829
#
# Stress axis : x y z
#
# Youngs Moduli (GPa) = 82.44575 82.60820 65.50534
#
# Poissons Ratio (x) = 0.08650 -0.05849
# Poissons Ratio (y) = 0.08633 0.30931
# Poissons Ratio (z) = -0.07362 0.39006
#
# Static dielectric constant tensor:
#      x y z
#    x 3.818290 0.000000 -0.017980 
#    y 0.000000 3.681440 0.000000 
#    z -0.017980 0.000000 3.477050 
# 
# 
# High freq. dielectric constant tensor:
#      x y z
#    x 1.773920 0.000000 -0.007900 
#    y 0.000000 1.746510 0.000000 
#    z -0.007900 0.000000 1.734430 
# 
# From -- ./inp_files/186489.got.cif
#   From: 2010.06.25/outbox.cif.g09.slc.cpg/sg15_94_cif.got.tgz:186489.got - 2010.06.28 07:06:18.
