data_PCOD8152665
_publ_section_title
;
Structure prediction by ZEFSAII (Michael W. Deem and Ramdas Pophale) SiO2 
 PCOD8152665
Probable space group: C 2/C
;
_chemical_formula_sum "Si O2"
_cell_formula_units_Z 40
_cell_length_a 16.399495
_cell_length_b 6.654401
_cell_length_c 16.848734
_cell_angle_alpha 90.000000
_cell_angle_beta 90.393118
_cell_angle_gamma 90.000000
_cell_volume 1838.639112
_symmetry_space_group_name_H-M "C 2/C"
_symmetry_group_IT_number 15
_symmetry_cell_setting 'monoclinic'
loop_
_space_group_symop_operation_xyz
x,y,z
-x,y,1/2-z
-x,-y,-z
x,-y,1/2+z
1/2+x,1/2+y,z
1/2-x,1/2+y,1/2-z
1/2-x,1/2-y,-z
1/2+x,1/2-y,1/2+z
loop_
_atom_site_type_symbol
_atom_site_label
_atom_site_fract_x
_atom_site_fract_y
_atom_site_fract_z
Si Si1 0.650923 0.309862 0.412524
Si Si2 0.708144 0.931506 0.638155
Si Si3 0.956868 0.125305 0.169314
Si Si4 0.064449 0.618079 0.553382
Si Si5 0.192888 0.419556 0.313304
O O1 0.728694 0.455870 0.419941
O O2 0.575282 0.422884 0.371251
O O3 0.625469 0.248884 0.500625
O O4 0.672469 0.115682 0.361969
O O5 0.617069 0.954723 0.603390
O O6 0.718865 0.028972 0.724621
O O7 0.731280 0.695803 0.644065
O O8 0.884576 0.275744 0.189906
O O9 0.000000 0.056944 0.250000
O O10 0.020785 0.231879 0.112451
O O11 0.000000 0.500000 0.500000
#
# Coordination Sequence:
#
# PCOD8152665 Si02
#       5
#     8   8   8   8   8
#     4  11  25  45  66 101 139 180 224 285 350 406
#     4  11  24  43  71  98 136 181 231 283 336 419
#     4  11  24  44  72 100 136 183 234 284 341 415
#     4  12  25  46  68 101 142 179 224 290 351 406
#     4  11  22  44  70 103 133 178 239 281 342 406
#
# _framework density 21.755220999999999
#
# number of rings (size 3 to 8) (size 9 to 14) (size 15 to 20)
#    0.000    0.800    6.000    1.200    0.000    3.200 
#    7.200    0.000    0.000    0.000    0.000    0.000 
#    0.000    0.000    0.000    0.000    0.000    0.000 
#
# Total GULP energy -248114.254147 kJ/mol
# GULP energy per Si atom -12405.712707 kJ/mol
# Density = 2.170571 g / cm^3
# Si number density = 21.755221 Si / 1000 Ang^3
#
#
#
# Elastic Constant Matrix: (Units=GPa)
#
#
# Indices 1 2 3 4 5 6 
#
# 1 113.7445 50.8089 52.3641 0.0000 7.9102 0.0000
# 2 50.8089 89.6926 47.6921 0.0000 17.1299 0.0000
# 3 52.3641 47.6921 94.8146 0.0000 -0.5422 0.0000
# 4 0.0000 0.0000 0.0000 19.0444 0.0000 3.4657
# 5 7.9102 17.1299 -0.5422 0.0000 52.4736 0.0000
# 6 0.0000 0.0000 0.0000 3.4657 0.0000 64.4140
#
#
#
# Elastic Compliance Matrix: (Units=1/GPa)
#
#
# Indices 1 2 3 4 5 6 
#
# 1 0.013219 -0.004797 -0.004891 0.000000 -0.000477 0.000000
# 2 -0.004797 0.018426 -0.006650 0.000000 -0.005361 0.000000
# 3 -0.004891 -0.006650 0.016610 0.000000 0.003080 0.000000
# 4 0.000000 0.000000 0.000000 0.053028 0.000000 -0.002853
# 5 -0.000477 -0.005361 0.003080 0.000000 0.020911 0.000000
# 6 0.000000 0.000000 0.000000 -0.002853 0.000000 0.015678
#
#
# Mechanical properties :
#
#
# Convention : Reuss Voigt Hill
#
# Bulk Modulus (GPa) = 64.17999 66.66467 65.42233
# Shear Modulus (GPa) = 28.45099 37.01217 32.73158
#
# Velocity S-wave (km/s) = 3.62024 4.12916 3.88305
# Velocity P-wave (km/s) = 6.85856 7.31046 7.08811
#
# Compressibility (1/GPa) = 0.01558118
#
# Stress axis : x y z
#
# Youngs Moduli (GPa) = 75.64937 54.27040 60.20304
#
# Poissons Ratio (x) = 0.26031 0.29442
# Poissons Ratio (y) = 0.36286 0.40035
# Poissons Ratio (z) = 0.36997 0.36090
#
# Static dielectric constant tensor:
#      x y z
#    x 4.198570 0.000000 -0.141950 
#    y 0.000000 4.044210 0.000000 
#    z -0.141950 0.000000 3.880630 
# 
# 
# High freq. dielectric constant tensor:
#      x y z
#    x 1.869320 0.000000 -0.009770 
#    y 0.000000 1.858800 0.000000 
#    z -0.009770 0.000000 1.861010 
# 
# From -- ./inp_files/207983.got.cif
#   From: 2010.06.25/outbox.cif.g09.slc.cpg/sg15_104_cif.got.tgz:207983.got - 2010.06.28 07:06:18.
