data_PCOD8152129
_publ_section_title
;
Structure prediction by ZEFSAII (Michael W. Deem and Ramdas Pophale) SiO2 
 PCOD8152129
Probable space group: C 2/C
;
_chemical_formula_sum "Si O2"
_cell_formula_units_Z 36
_cell_length_a 18.833606
_cell_length_b 8.971270
_cell_length_c 19.256910
_cell_angle_alpha 90.000000
_cell_angle_beta 30.683517
_cell_angle_gamma 90.000000
_cell_volume 1660.335198
_symmetry_space_group_name_H-M "C 2/C"
_symmetry_group_IT_number 15
_symmetry_cell_setting 'monoclinic'
loop_
_space_group_symop_operation_xyz
x,y,z
-x,y,1/2-z
-x,-y,-z
x,-y,1/2+z
1/2+x,1/2+y,z
1/2-x,1/2+y,1/2-z
1/2-x,1/2-y,-z
1/2+x,1/2-y,1/2+z
loop_
_atom_site_type_symbol
_atom_site_label
_atom_site_fract_x
_atom_site_fract_y
_atom_site_fract_z
Si Si1 0.500000 0.161596 0.250000
Si Si2 0.480123 0.402770 0.448968
Si Si3 0.785303 0.805531 0.334638
Si Si4 0.588021 0.364569 0.606878
Si Si5 0.655583 0.050603 0.524935
O O1 0.371001 0.262043 0.332440
O O2 0.460447 0.063041 0.349737
O O3 0.500000 0.500000 0.500000
O O4 0.341431 0.306112 0.573191
O O5 0.617205 0.303402 0.316401
O O6 0.477496 0.507484 0.384026
O O7 0.727365 0.972888 0.398096
O O8 0.500000 0.336756 0.750000
O O9 0.589524 0.210807 0.560250
O O10 0.742763 0.415621 0.496027
#
# Coordination Sequence:
#
# PCOD8152129 Si02
#       5
#     4   8   8   8   8
#     4  12  20  38  74 108 132 170 240 284 342 400
#     4  12  28  48  68  99 141 186 230 280 345 420
#     4  12  24  45  71 100 136 185 232 285 342 411
#     4  11  22  41  67 101 137 172 224 288 340 396
#     4  11  22  37  70 105 135 173 224 289 341 396
#
# _framework density 21.682369000000001
#
# number of rings (size 3 to 8) (size 9 to 14) (size 15 to 20)
#    0.000    0.444    7.778    2.000    0.000    1.778 
#    4.000    2.222    0.000    0.000    0.000    0.000 
#    0.000    0.000    0.000    0.000    0.000    0.000 
#
# Total GULP energy -223207.138033 kJ/mol
# GULP energy per Si atom -12400.396557 kJ/mol
# Density = 2.163302 g / cm^3
# Si number density = 21.682369 Si / 1000 Ang^3
#
#
#
# Elastic Constant Matrix: (Units=GPa)
#
#
# Indices 1 2 3 4 5 6 
#
# 1 61.6441 36.0733 42.8473 0.0000 1.6963 0.0000
# 2 36.0733 121.9846 60.5680 0.0001 -6.1230 0.0000
# 3 42.8473 60.5680 156.3194 0.0001 -6.2908 0.0000
# 4 0.0000 0.0001 0.0001 42.4479 0.0000 6.8205
# 5 1.6963 -6.1230 -6.2908 0.0000 20.4741 0.0000
# 6 0.0000 0.0000 0.0000 6.8205 0.0000 21.5933
#
#
#
# Elastic Compliance Matrix: (Units=1/GPa)
#
#
# Indices 1 2 3 4 5 6 
#
# 1 0.022127 -0.004544 -0.004488 0.000000 -0.004571 0.000000
# 2 -0.004544 0.011154 -0.002963 0.000000 0.002802 0.000000
# 3 -0.004488 -0.002963 0.008864 0.000000 0.002209 0.000000
# 4 0.000000 0.000000 0.000000 0.024818 0.000000 -0.007839
# 5 -0.004571 0.002802 0.002209 0.000000 0.050738 0.000000
# 6 0.000000 0.000000 0.000000 -0.007839 0.000000 0.048787
#
#
# Mechanical properties :
#
#
# Convention : Reuss Voigt Hill
#
# Bulk Modulus (GPa) = 55.08637 68.76948 61.92792
# Shear Modulus (GPa) = 25.44145 30.26702 27.85424
#
# Velocity S-wave (km/s) = 3.42917 3.74027 3.58809
# Velocity P-wave (km/s) = 6.41406 7.10200 6.76678
#
# Compressibility (1/GPa) = 0.01815331
#
# Stress axis : x y z
#
# Youngs Moduli (GPa) = 45.19394 89.65758 112.81038
#
# Poissons Ratio (x) = 0.40743 0.50632
# Poissons Ratio (y) = 0.20538 0.33428
# Poissons Ratio (z) = 0.20284 0.26568
#
# Static dielectric constant tensor:
#      x y z
#    x 3.491280 0.000000 -0.194070 
#    y 0.000000 4.250830 0.000000 
#    z -0.194070 0.000000 4.091190 
# 
# 
# High freq. dielectric constant tensor:
#      x y z
#    x 1.797160 0.000000 -0.013080 
#    y 0.000000 1.871060 0.000000 
#    z -0.013080 0.000000 1.872990 
# 
# From -- ./inp_files/102448.got.cif
#   From: 2010.06.25/outbox.cif.g09.slc.cpg/sg15_52_cif.got.tgz:102448.got - 2010.06.28 07:06:18.
