data_PCOD8152417
_publ_section_title
;
Structure prediction by ZEFSAII (Michael W. Deem and Ramdas Pophale) SiO2 
 PCOD8152417
Probable space group: C 2/C
;
_chemical_formula_sum "Si O2"
_cell_formula_units_Z 40
_cell_length_a 12.483112
_cell_length_b 7.990891
_cell_length_c 19.248744
_cell_angle_alpha 90.000000
_cell_angle_beta 109.920441
_cell_angle_gamma 90.000000
_cell_volume 1805.199913
_symmetry_space_group_name_H-M "C 2/C"
_symmetry_group_IT_number 15
_symmetry_cell_setting 'monoclinic'
loop_
_space_group_symop_operation_xyz
x,y,z
-x,y,1/2-z
-x,-y,-z
x,-y,1/2+z
1/2+x,1/2+y,z
1/2-x,1/2+y,1/2-z
1/2-x,1/2-y,-z
1/2+x,1/2-y,1/2+z
loop_
_atom_site_type_symbol
_atom_site_label
_atom_site_fract_x
_atom_site_fract_y
_atom_site_fract_z
Si Si1 0.231113 0.621670 0.935160
Si Si2 0.094955 0.143096 0.019842
Si Si3 0.936717 0.361593 0.617841
Si Si4 0.804250 0.673113 0.321125
Si Si5 0.738816 0.799345 0.162104
O O1 0.288797 0.450405 0.975356
O O2 0.100753 0.559402 0.894436
O O3 0.288375 0.686850 0.877090
O O4 0.250000 0.750000 0.000000
O O5 0.122626 0.233174 0.099597
O O6 0.062054 0.285446 0.958867
O O7 0.000000 0.000000 0.000000
O O8 0.854496 0.261172 0.651125
O O9 0.065103 0.349521 0.674028
O O10 0.732275 0.732359 0.239077
O O11 0.755102 0.499656 0.338807
#
# Coordination Sequence:
#
# PCOD8152417 Si02
#       5
#     8   8   8   8   8
#     4  11  23  41  69 101 132 172 231 276 332 410
#     4  11  22  41  68  96 133 176 220 274 336 398
#     4  11  24  44  68  98 133 179 223 276 340 404
#     4  12  25  45  68  96 140 177 222 289 340 398
#     4  11  25  44  66  99 136 175 228 278 339 407
#
# _framework density 22.158211000000001
#
# number of rings (size 3 to 8) (size 9 to 14) (size 15 to 20)
#    0.000    0.800    2.000    7.800    2.800    1.600 
#    0.000    0.000    0.000    0.000    0.000    0.000 
#    0.000    0.000    0.000    0.000    0.000    0.000 
#
# Total GULP energy -247963.097559 kJ/mol
# GULP energy per Si atom -12398.154878 kJ/mol
# Density = 2.210778 g / cm^3
# Si number density = 22.158211 Si / 1000 Ang^3
#
#
#
# Elastic Constant Matrix: (Units=GPa)
#
#
# Indices 1 2 3 4 5 6 
#
# 1 79.3690 24.2474 25.4674 0.0000 -2.7808 0.0000
# 2 24.2474 106.8584 22.5936 0.0000 1.5022 0.0000
# 3 25.4674 22.5936 111.2120 0.0000 4.8977 0.0000
# 4 0.0000 0.0000 0.0000 38.0141 0.0000 0.3849
# 5 -2.7808 1.5022 4.8977 0.0000 28.7848 0.0000
# 6 0.0000 0.0000 0.0000 0.3849 0.0000 41.3132
#
#
#
# Elastic Compliance Matrix: (Units=1/GPa)
#
#
# Indices 1 2 3 4 5 6 
#
# 1 0.014405 -0.002697 -0.002840 0.000000 0.002015 0.000000
# 2 -0.002697 0.010284 -0.001447 0.000000 -0.000551 0.000000
# 3 -0.002840 -0.001447 0.010020 0.000000 -0.001904 0.000000
# 4 0.000000 0.000000 0.000000 0.026309 0.000000 -0.000245
# 5 0.002015 -0.000551 -0.001904 0.000000 0.035288 0.000000
# 6 0.000000 0.000000 0.000000 -0.000245 0.000000 0.024208
#
#
# Mechanical properties :
#
#
# Convention : Reuss Voigt Hill
#
# Bulk Modulus (GPa) = 48.21268 49.11736 48.66502
# Shear Modulus (GPa) = 35.36217 36.63117 35.99667
#
# Velocity S-wave (km/s) = 3.99920 4.07032 4.03492
# Velocity P-wave (km/s) = 6.56737 6.65619 6.61193
#
# Compressibility (1/GPa) = 0.02074143
#
# Stress axis : x y z
#
# Youngs Moduli (GPa) = 69.42051 97.23983 99.80033
#
# Poissons Ratio (x) = 0.26222 0.28340
# Poissons Ratio (y) = 0.18720 0.14446
# Poissons Ratio (z) = 0.19713 0.14075
#
# Static dielectric constant tensor:
#      x y z
#    x 4.142560 0.000000 0.290440 
#    y 0.000000 4.587220 0.000000 
#    z 0.290440 0.000000 4.188710 
# 
# 
# High freq. dielectric constant tensor:
#      x y z
#    x 1.865050 0.000000 0.011050 
#    y 0.000000 1.886180 0.000000 
#    z 0.011050 0.000000 1.878520 
# 
# From -- ./inp_files/195176.got.cif
#   From: 2010.06.25/outbox.cif.g09.slc.cpg/sg15_98_cif.got.tgz:195176.got - 2010.06.28 07:06:18.
