data_PCOD8152989
_publ_section_title
;
Structure prediction by ZEFSAII (Michael W. Deem and Ramdas Pophale) SiO2 
 PCOD8152989
Probable space group: C 2/C
;
_chemical_formula_sum "Si O2"
_cell_formula_units_Z 48
_cell_length_a 18.710146
_cell_length_b 5.377912
_cell_length_c 22.868718
_cell_angle_alpha 90.000000
_cell_angle_beta 127.217624
_cell_angle_gamma 90.000000
_cell_volume 1832.455129
_symmetry_space_group_name_H-M "C 2/C"
_symmetry_group_IT_number 15
_symmetry_cell_setting 'monoclinic'
loop_
_space_group_symop_operation_xyz
x,y,z
-x,y,1/2-z
-x,-y,-z
x,-y,1/2+z
1/2+x,1/2+y,z
1/2-x,1/2+y,1/2-z
1/2-x,1/2-y,-z
1/2+x,1/2-y,1/2+z
loop_
_atom_site_type_symbol
_atom_site_label
_atom_site_fract_x
_atom_site_fract_y
_atom_site_fract_z
Si Si1 0.352405 0.385210 0.082672
Si Si2 0.939408 0.096028 0.023061
Si Si3 0.315122 0.941770 0.430853
Si Si4 0.124323 0.143583 0.142182
Si Si5 0.229808 0.281817 0.304574
Si Si6 0.593600 0.100918 0.828796
O O1 0.374148 0.392980 0.022953
O O2 0.244941 0.363022 0.042171
O O3 0.407965 0.148718 0.133169
O O4 0.386337 0.651594 0.123815
O O5 0.020069 0.152165 0.110118
O O6 0.882401 0.339086 0.981378
O O7 0.000000 0.000000 0.000000
O O8 0.242415 0.020743 0.344199
O O9 0.369882 0.730593 0.423590
O O10 0.179175 0.292212 0.217832
O O11 0.168842 0.872374 0.158495
O O12 0.172283 0.453185 0.320253
O O13 0.500000 0.138570 0.750000
#
# Coordination Sequence:
#
# PCOD8152989 Si02
#       6
#     8   8   8   8   8   8
#     4  11  26  47  73 105 147 198 244 304 370 439
#     4  12  27  46  72 109 143 192 251 307 367 440
#     4  11  24  47  70 104 146 193 242 298 368 446
#     4  12  23  43  72 105 143 187 241 304 364 433
#     4  11  23  41  71 105 140 189 241 297 367 433
#     4  11  24  45  73 108 147 192 248 302 367 442
#
# _framework density 26.194368000000001
#
# number of rings (size 3 to 8) (size 9 to 14) (size 15 to 20)
#    0.000    0.667    5.000    2.500    0.000    6.667 
#    0.000    3.333    0.000    0.000    0.000    0.000 
#    0.000    0.000    0.000    0.000    0.000    0.000 
#
# Total GULP energy -297428.187691 kJ/mol
# GULP energy per Si atom -12392.841154 kJ/mol
# Density = 2.613475 g / cm^3
# Si number density = 26.194368 Si / 1000 Ang^3
#
#
#
# Elastic Constant Matrix: (Units=GPa)
#
#
# Indices 1 2 3 4 5 6 
#
# 1 173.8714 44.8399 73.7155 0.0010 -9.0587 -0.0018
# 2 44.8399 102.7496 16.5342 0.0029 -3.7399 -0.0046
# 3 73.7155 16.5342 95.6089 0.0014 9.5664 -0.0018
# 4 0.0010 0.0029 0.0014 43.4000 0.0001 5.4769
# 5 -9.0587 -3.7399 9.5664 0.0001 55.8510 0.0004
# 6 -0.0018 -0.0046 -0.0018 5.4769 0.0004 38.8775
#
#
#
# Elastic Compliance Matrix: (Units=1/GPa)
#
#
# Indices 1 2 3 4 5 6 
#
# 1 0.009731 -0.002985 -0.007248 0.000000 0.002620 0.000000
# 2 -0.002985 0.010980 0.000384 -0.000001 0.000185 0.000001
# 3 -0.007248 0.000384 0.016377 0.000000 -0.003955 0.000001
# 4 0.000000 -0.000001 0.000000 0.023459 0.000000 -0.003305
# 5 0.002620 0.000185 -0.003955 0.000000 0.019020 0.000000
# 6 0.000000 0.000001 0.000001 -0.003305 0.000000 0.026187
#
#
# Mechanical properties :
#
#
# Convention : Reuss Voigt Hill
#
# Bulk Modulus (GPa) = 57.50666 71.37880 64.44273
# Shear Modulus (GPa) = 38.09568 43.43503 40.76535
#
# Velocity S-wave (km/s) = 3.81773 4.07650 3.94923
# Velocity P-wave (km/s) = 6.43699 7.03320 6.74169
#
# Compressibility (1/GPa) = 0.01738929
#
# Stress axis : x y z
#
# Youngs Moduli (GPa) = 102.76735 91.07552 61.06014
#
# Poissons Ratio (x) = 0.27183 0.44259
# Poissons Ratio (y) = 0.30673 -0.02344
# Poissons Ratio (z) = 0.74491 -0.03496
#
# Static dielectric constant tensor:
#      x y z
#    x 5.821950 -0.000010 0.224170 
#    y -0.000010 4.443880 0.000000 
#    z 0.224170 0.000000 5.405970 
# 
# 
# High freq. dielectric constant tensor:
#      x y z
#    x 2.078950 0.000000 -0.003740 
#    y 0.000000 2.043620 0.000000 
#    z -0.003740 0.000000 2.081090 
# 
# From -- ./inp_files/299995.got.cif
#   From: 2010.06.25/outbox.cif.g09.slc.cpg/sg15_150_cif.got.tgz:299995.got - 2010.06.28 07:06:18.
