data_PCOD8152263
_publ_section_title
;
Structure prediction by ZEFSAII (Michael W. Deem and Ramdas Pophale) SiO2 
 PCOD8152263
Probable space group: C 2/C
;
_chemical_formula_sum "Si O2"
_cell_formula_units_Z 64
_cell_length_a 14.306583
_cell_length_b 22.366525
_cell_length_c 16.684125
_cell_angle_alpha 90.000000
_cell_angle_beta 149.728202
_cell_angle_gamma 90.000000
_cell_volume 2691.267037
_symmetry_space_group_name_H-M "C 2/C"
_symmetry_group_IT_number 15
_symmetry_cell_setting 'monoclinic'
loop_
_space_group_symop_operation_xyz
x,y,z
-x,y,1/2-z
-x,-y,-z
x,-y,1/2+z
1/2+x,1/2+y,z
1/2-x,1/2+y,1/2-z
1/2-x,1/2-y,-z
1/2+x,1/2-y,1/2+z
loop_
_atom_site_type_symbol
_atom_site_label
_atom_site_fract_x
_atom_site_fract_y
_atom_site_fract_z
Si Si1 0.454058 0.065196 0.626390
Si Si2 0.778761 0.043941 0.584480
Si Si3 0.901927 0.908233 0.914810
Si Si4 0.297297 0.527926 0.774607
Si Si5 0.505452 0.173621 0.946034
Si Si6 0.045564 0.234062 0.865675
Si Si7 0.389607 0.701452 0.916389
Si Si8 0.007653 0.361634 0.629428
O O1 0.500000 0.086598 0.750000
O O2 0.638928 0.036587 0.724065
O O3 0.384283 0.123473 0.523633
O O4 0.288726 0.016485 0.509574
O O5 0.704529 0.038581 0.620437
O O6 0.670834 0.101924 0.467615
O O7 0.000000 0.050807 0.750000
O O8 0.690241 0.899393 0.783653
O O9 0.894136 0.962571 0.846175
O O10 0.031613 0.926051 0.086316
O O11 0.999493 0.848660 0.949105
O O12 0.317949 0.183398 0.757256
O O13 0.611664 0.236795 0.034579
O O14 0.465473 0.148591 0.004266
O O15 0.945204 0.298751 0.793886
O O16 0.000000 0.197031 0.750000
O O17 0.004849 0.200929 0.918060
O O18 0.250000 0.250000 0.000000
#
# Coordination Sequence:
#
# PCOD8152263 Si02
#       8
#     8   8   8   8   8   8   8   8
#     4  12  26  49  72 102 140 182 241 301 364 418
#     4  12  27  42  68 104 141 183 229 286 357 432
#     4  11  22  39  74 100 133 182 236 279 352 419
#     4  11  24  46  72 101 142 183 222 288 361 420
#     4  11  23  44  70  98 136 184 234 292 350 421
#     4  11  23  37  56  90 139 179 219 273 324 401
#     4  11  22  41  67  97 130 189 236 277 353 418
#     4  11  22  41  65  97 140 186 230 275 346 422
#
# _framework density 23.780621
#
# number of rings (size 3 to 8) (size 9 to 14) (size 15 to 20)
#    0.000    0.750    3.750    4.875    3.500    4.000 
#    0.000    0.625    0.000    0.750    0.000    0.000 
#    0.000    0.000    0.000    0.000    0.000    0.000 
#
# Total GULP energy -396478.862385 kJ/mol
# GULP energy per Si atom -12389.964450 kJ/mol
# Density = 2.372649 g / cm^3
# Si number density = 23.780621 Si / 1000 Ang^3
#
#
#
# Elastic Constant Matrix: (Units=GPa)
#
#
# Indices 1 2 3 4 5 6 
#
# 1 53.6097 3.7772 -0.4278 -0.0007 -8.5063 0.0002
# 2 3.7772 124.9664 12.2244 0.0004 -1.3175 0.0001
# 3 -0.4278 12.2244 90.4514 -0.0031 18.1776 0.0002
# 4 -0.0007 0.0004 -0.0031 41.7607 -0.0011 5.8798
# 5 -8.5063 -1.3175 18.1776 -0.0011 40.5589 0.0001
# 6 0.0002 0.0001 0.0002 5.8798 0.0001 12.2745
#
#
#
# Elastic Compliance Matrix: (Units=1/GPa)
#
#
# Indices 1 2 3 4 5 6 
#
# 1 0.019374 -0.000469 -0.000724 0.000000 0.004372 0.000000
# 2 -0.000469 0.008146 -0.001249 0.000000 0.000726 0.000000
# 3 -0.000724 -0.001249 0.012374 0.000001 -0.005738 -0.000001
# 4 0.000000 0.000000 0.000001 0.025678 0.000000 -0.012300
# 5 0.004372 0.000726 -0.005738 0.000000 0.028168 0.000000
# 6 0.000000 0.000000 -0.000001 -0.012300 0.000000 0.087362
#
#
# Mechanical properties :
#
#
# Convention : Reuss Voigt Hill
#
# Bulk Modulus (GPa) = 28.56187 33.35278 30.95733
# Shear Modulus (GPa) = 25.29646 35.81574 30.55610
#
# Velocity S-wave (km/s) = 3.26505 3.88505 3.58846
# Velocity P-wave (km/s) = 5.12354 5.84640 5.49687
#
# Compressibility (1/GPa) = 0.03501171
#
# Stress axis : x y z
#
# Youngs Moduli (GPa) = 51.61454 122.75726 80.81311
#
# Poissons Ratio (x) = 0.05754 0.05849
# Poissons Ratio (y) = 0.02419 0.10094
# Poissons Ratio (z) = 0.03736 0.15333
#
# Static dielectric constant tensor:
#      x y z
#    x 3.866050 0.000000 -0.083520 
#    y 0.000000 4.105820 0.000000 
#    z -0.083520 0.000000 4.273080 
# 
# 
# High freq. dielectric constant tensor:
#      x y z
#    x 1.892650 0.000000 -0.003820 
#    y 0.000000 1.965100 0.000000 
#    z -0.003820 0.000000 1.956680 
# 
# From -- ./inp_files/207367.got.cif
#   From: 2010.06.25/outbox.cif.g09.slc.cpg/sg15_104_cif.got.tgz:207367.got - 2010.06.28 07:06:18.
