data_PCOD8152834
_publ_section_title
;
Structure prediction by ZEFSAII (Michael W. Deem and Ramdas Pophale) SiO2 
 PCOD8152834
Probable space group: C 2/C
;
_chemical_formula_sum "Si O2"
_cell_formula_units_Z 56
_cell_length_a 26.622137
_cell_length_b 13.304741
_cell_length_c 21.022303
_cell_angle_alpha 90.000000
_cell_angle_beta 21.745563
_cell_angle_gamma 90.000000
_cell_volume 2758.677013
_symmetry_space_group_name_H-M "C 2/C"
_symmetry_group_IT_number 15
_symmetry_cell_setting 'monoclinic'
loop_
_space_group_symop_operation_xyz
x,y,z
-x,y,1/2-z
-x,-y,-z
x,-y,1/2+z
1/2+x,1/2+y,z
1/2-x,1/2+y,1/2-z
1/2-x,1/2-y,-z
1/2+x,1/2-y,1/2+z
loop_
_atom_site_type_symbol
_atom_site_label
_atom_site_fract_x
_atom_site_fract_y
_atom_site_fract_z
Si Si1 0.592645 0.758736 0.751916
Si Si2 0.357008 0.459570 0.693701
Si Si3 0.873024 0.237282 0.108351
Si Si4 0.000000 0.615948 0.250000
Si Si5 0.709164 0.618495 0.411747
Si Si6 0.655030 0.035766 0.829360
Si Si7 0.000000 0.944303 0.250000
Si Si8 0.788690 0.045320 0.907980
O O1 0.489483 0.808058 0.822339
O O2 0.697921 0.849343 0.639332
O O3 0.679717 0.664271 0.626652
O O4 0.522931 0.738701 0.902048
O O5 0.500000 0.500000 0.500000
O O6 0.363712 0.339159 0.678250
O O7 0.222071 0.499837 0.816774
O O8 0.344261 0.486969 0.781938
O O9 0.778862 0.197346 0.160849
O O10 0.832049 0.344256 0.185102
O O11 0.873228 0.538925 0.397116
O O12 0.752457 0.507935 0.336357
O O13 0.554912 0.616655 0.622109
O O14 0.500000 0.000000 0.000000
O O15 0.130533 0.003543 0.125449
#
# Coordination Sequence:
#
# PCOD8152834 Si02
#       8
#     8   8   8   4   8   8   4   8
#     4  12  20  35  58  91 130 159 198 248 314 379
#     4  11  23  42  62  90 125 169 206 253 314 366
#     4  11  23  39  65  92 127 160 208 258 311 371
#     4  12  25  34  58  95 128 168 197 256 322 371
#     4  11  23  38  60  91 124 168 201 250 306 371
#     4  11  23  40  63  93 126 163 207 258 312 366
#     4  12  23  42  58  87 126 166 203 244 310 379
#     4  12  24  38  59  88 129 160 205 253 307 383
#
# _framework density 20.299586000000001
#
# number of rings (size 3 to 8) (size 9 to 14) (size 15 to 20)
#    0.000    0.571    5.714    4.286    0.000    0.000 
#    0.000    0.000    0.000    1.714    0.000    0.000 
#    0.000    0.000    0.000    0.000    0.000    0.000 
#
# Total GULP energy -346962.877571 kJ/mol
# GULP energy per Si atom -12391.531342 kJ/mol
# Density = 2.025338 g / cm^3
# Si number density = 20.299586 Si / 1000 Ang^3
#
#
#
# Elastic Constant Matrix: (Units=GPa)
#
#
# Indices 1 2 3 4 5 6 
#
# 1 125.1132 44.2695 52.5288 0.0004 -11.4528 -0.0002
# 2 44.2695 124.0336 40.5827 0.0002 5.2578 -0.0001
# 3 52.5288 40.5827 114.0875 0.0006 -13.5791 -0.0004
# 4 0.0004 0.0002 0.0006 24.4306 -0.0004 6.1183
# 5 -11.4528 5.2578 -13.5791 -0.0004 39.7194 0.0002
# 6 -0.0002 -0.0001 -0.0004 6.1183 0.0002 18.9321
#
#
#
# Elastic Compliance Matrix: (Units=1/GPa)
#
#
# Indices 1 2 3 4 5 6 
#
# 1 0.010704 -0.002699 -0.003710 0.000000 0.002176 0.000000
# 2 -0.002699 0.010033 -0.002686 0.000000 -0.003025 0.000000
# 3 -0.003710 -0.002686 0.011825 0.000000 0.003329 0.000000
# 4 0.000000 0.000000 0.000000 0.044537 0.000000 -0.014393
# 5 0.002176 -0.003025 0.003329 0.000000 0.027342 0.000000
# 6 0.000000 0.000000 0.000000 -0.014393 0.000000 0.057472
#
#
# Mechanical properties :
#
#
# Convention : Reuss Voigt Hill
#
# Bulk Modulus (GPa) = 69.57684 70.88850 70.23267
# Shear Modulus (GPa) = 27.04265 31.67330 29.35797
#
# Velocity S-wave (km/s) = 3.65386 3.95434 3.80707
# Velocity P-wave (km/s) = 7.22152 7.47302 7.34835
#
# Compressibility (1/GPa) = 0.01437260
#
# Stress axis : x y z
#
# Youngs Moduli (GPa) = 93.41966 99.67351 84.56778
#
# Poissons Ratio (x) = 0.26903 0.31371
# Poissons Ratio (y) = 0.25215 0.22716
# Poissons Ratio (z) = 0.34654 0.26773
#
# Static dielectric constant tensor:
#      x y z
#    x 4.021690 0.000000 -0.236410 
#    y 0.000000 3.460570 0.000000 
#    z -0.236410 0.000000 3.838430 
# 
# 
# High freq. dielectric constant tensor:
#      x y z
#    x 1.806930 0.000000 -0.020840 
#    y 0.000000 1.746890 0.000000 
#    z -0.020840 0.000000 1.804650 
# 
# From -- ./inp_files/284615.got.cif
#   From: 2010.06.25/outbox.cif.g09.slc.cpg/sg15_143_cif.got.tgz:284615.got - 2010.06.28 07:06:18.
