data_PCOD8152492
_publ_section_title
;
Structure prediction by ZEFSAII (Michael W. Deem and Ramdas Pophale) SiO2 
 PCOD8152492
Probable space group: C 2/C
;
_chemical_formula_sum "Si O2"
_cell_formula_units_Z 64
_cell_length_a 11.633449
_cell_length_b 16.061504
_cell_length_c 17.410496
_cell_angle_alpha 90.000000
_cell_angle_beta 79.833606
_cell_angle_gamma 90.000000
_cell_volume 3202.086228
_symmetry_space_group_name_H-M "C 2/C"
_symmetry_group_IT_number 15
_symmetry_cell_setting 'monoclinic'
loop_
_space_group_symop_operation_xyz
x,y,z
-x,y,1/2-z
-x,-y,-z
x,-y,1/2+z
1/2+x,1/2+y,z
1/2-x,1/2+y,1/2-z
1/2-x,1/2-y,-z
1/2+x,1/2-y,1/2+z
loop_
_atom_site_type_symbol
_atom_site_label
_atom_site_fract_x
_atom_site_fract_y
_atom_site_fract_z
Si Si1 0.740836 0.538398 0.895389
Si Si2 0.012319 0.253625 0.611524
Si Si3 0.553119 0.719292 0.432794
Si Si4 0.510158 0.429715 0.336058
Si Si5 0.284102 0.145842 0.345422
Si Si6 0.239954 0.320363 0.825689
Si Si7 0.625449 0.573054 0.070155
Si Si8 0.418096 0.825061 0.329113
O O1 0.643560 0.559061 0.844177
O O2 0.774958 0.442433 0.887889
O O3 0.854115 0.592645 0.864971
O O4 0.696641 0.561802 0.984480
O O5 0.057003 0.248420 0.519662
O O6 0.027321 0.165581 0.651738
O O7 0.089558 0.317922 0.650036
O O8 0.879395 0.284005 0.626693
O O9 0.684646 0.707352 0.388453
O O10 0.483965 0.633016 0.431872
O O11 0.493103 0.791702 0.391253
O O12 0.500000 0.460081 0.250000
O O13 0.424500 0.484444 0.398391
O O14 0.274447 0.136602 0.254999
O O15 0.287051 0.391070 0.876843
O O16 0.330609 0.245090 0.808574
O O17 0.500000 0.852476 0.250000
#
# Coordination Sequence:
#
# PCOD8152492 Si02
#       8
#     8   8   8   8   8   8   8   8
#     4  12  24  44  65 100 132 169 218 273 326 382
#     4  12  25  43  66  96 135 172 213 266 334 392
#     4  11  22  42  68  97 127 172 223 265 325 384
#     4  12  23  39  66  99 129 171 222 270 319 385
#     4  12  25  42  65  97 141 172 207 270 338 385
#     4  11  23  44  67  96 129 178 218 265 326 386
#     4  11  23  41  71  97 128 170 224 275 313 381
#     4  11  23  41  70  96 127 170 228 273 313 384
#
# _framework density 19.986969999999999
#
# number of rings (size 3 to 8) (size 9 to 14) (size 15 to 20)
#    0.000    0.500    5.000    4.125    0.000    3.000 
#    0.000    5.000    0.000    0.000    0.000    0.000 
#    0.000    0.000    0.000    0.000    0.000    0.000 
#
# Total GULP energy -397083.073081 kJ/mol
# GULP energy per Si atom -12408.846034 kJ/mol
# Density = 1.994148 g / cm^3
# Si number density = 19.986970 Si / 1000 Ang^3
#
#
#
# Elastic Constant Matrix: (Units=GPa)
#
#
# Indices 1 2 3 4 5 6 
#
# 1 95.4344 45.9474 33.3009 0.0000 -3.5551 0.0000
# 2 45.9474 65.9204 17.8686 0.0000 1.0831 0.0000
# 3 33.3009 17.8686 88.2123 0.0000 -2.3724 0.0000
# 4 0.0000 0.0000 0.0000 64.8789 0.0000 -23.9253
# 5 -3.5551 1.0831 -2.3724 0.0000 31.9372 0.0000
# 6 0.0000 0.0000 0.0000 -23.9253 0.0000 45.1055
#
#
#
# Elastic Compliance Matrix: (Units=1/GPa)
#
#
# Indices 1 2 3 4 5 6 
#
# 1 0.017307 -0.010940 -0.004264 0.000000 0.001981 0.000000
# 2 -0.010940 0.022986 -0.000581 0.000000 -0.002040 0.000000
# 3 -0.004264 -0.000581 0.013078 0.000000 0.000516 0.000000
# 4 0.000000 0.000000 0.000000 0.019161 0.000000 0.010164
# 5 0.001981 -0.002040 0.000516 0.000000 0.031640 0.000000
# 6 0.000000 0.000000 0.000000 0.010164 0.000000 0.027561
#
#
# Mechanical properties :
#
#
# Convention : Reuss Voigt Hill
#
# Bulk Modulus (GPa) = 45.87094 49.31120 47.59107
# Shear Modulus (GPa) = 29.31322 38.54766 33.93044
#
# Velocity S-wave (km/s) = 3.83380 4.39639 4.12470
# Velocity P-wave (km/s) = 6.52668 7.10607 6.82253
#
# Compressibility (1/GPa) = 0.02180030
#
# Stress axis : x y z
#
# Youngs Moduli (GPa) = 57.77882 43.50424 76.46601
#
# Poissons Ratio (x) = 0.47594 0.32608
# Poissons Ratio (y) = 0.63211 0.04443
# Poissons Ratio (z) = 0.24639 0.02528
#
# Static dielectric constant tensor:
#      x y z
#    x 3.858790 0.000000 0.027650 
#    y 0.000000 3.634730 0.000000 
#    z 0.027650 0.000000 3.803770 
# 
# 
# High freq. dielectric constant tensor:
#      x y z
#    x 1.786090 0.000000 -0.001550 
#    y 0.000000 1.779920 0.000000 
#    z -0.001550 0.000000 1.798550 
# 
# From -- ./inp_files/198338.got.cif
#   From: 2010.06.25/outbox.cif.g09.slc.cpg/sg15_100_cif.got.tgz:198338.got - 2010.06.28 07:06:18.
