data_PCOD8152388
_publ_section_title
;
Structure prediction by ZEFSAII (Michael W. Deem and Ramdas Pophale) SiO2 
 PCOD8152388
Probable space group: C 2/C
;
_chemical_formula_sum "Si O2"
_cell_formula_units_Z 60
_cell_length_a 10.910084
_cell_length_b 18.122983
_cell_length_c 15.207690
_cell_angle_alpha 90.000000
_cell_angle_beta 90.361656
_cell_angle_gamma 90.000000
_cell_volume 3006.854247
_symmetry_space_group_name_H-M "C 2/C"
_symmetry_group_IT_number 15
_symmetry_cell_setting 'monoclinic'
loop_
_space_group_symop_operation_xyz
x,y,z
-x,y,1/2-z
-x,-y,-z
x,-y,1/2+z
1/2+x,1/2+y,z
1/2-x,1/2+y,1/2-z
1/2-x,1/2-y,-z
1/2+x,1/2-y,1/2+z
loop_
_atom_site_type_symbol
_atom_site_label
_atom_site_fract_x
_atom_site_fract_y
_atom_site_fract_z
Si Si1 0.506252 0.039660 0.406790
Si Si2 0.734808 0.405950 0.587082
Si Si3 0.000000 0.429128 0.250000
Si Si4 0.148094 0.070970 0.586751
Si Si5 0.360779 0.412887 0.100996
Si Si6 0.758700 0.340272 0.244108
Si Si7 0.764348 0.073247 0.105590
Si Si8 0.358187 0.317821 0.751154
O O1 0.617566 0.098024 0.406343
O O2 0.381932 0.084722 0.387492
O O3 0.500000 0.000000 0.500000
O O4 0.532607 0.978515 0.333740
O O5 0.693001 0.488971 0.608837
O O6 0.691991 0.381184 0.490262
O O7 0.674959 0.349475 0.653969
O O8 0.885515 0.377857 0.272520
O O9 0.206549 0.128933 0.653155
O O10 0.188673 0.095968 0.490131
O O11 0.002921 0.070620 0.592004
O O12 0.338120 0.353948 0.177828
O O13 0.291845 0.488118 0.126826
O O14 0.775970 0.253378 0.231542
O O15 0.832902 0.122077 0.176861
O O16 0.500000 0.295825 0.750000
#
# Coordination Sequence:
#
# PCOD8152388 Si02
#       8
#     8   8   4   8   8   8   8   8
#     4  12  20  40  68  96 124 151 208 264 308 365
#     4  11  22  41  67  96 121 160 207 261 312 357
#     4  12  20  40  62  90 124 160 208 256 298 378
#     4  11  22  41  67  94 123 158 208 261 309 365
#     4  11  22  41  67  94 123 158 208 261 309 365
#     4  12  24  41  63  88 127 170 207 246 312 369
#     4  11  22  41  67  96 121 160 207 261 312 357
#     4  12  26  43  62  91 129 168 206 250 307 374
#
# _framework density 19.954409999999999
#
# number of rings (size 3 to 8) (size 9 to 14) (size 15 to 20)
#    0.000    0.533    6.000    5.200    0.000    1.067 
#    4.800    0.000    0.000    0.000    0.000    0.000 
#    0.000    0.000    0.000    0.000    0.000    0.000 
#
# Total GULP energy -372207.617695 kJ/mol
# GULP energy per Si atom -12406.920590 kJ/mol
# Density = 1.990899 g / cm^3
# Si number density = 19.954410 Si / 1000 Ang^3
#
#
#
# Elastic Constant Matrix: (Units=GPa)
#
#
# Indices 1 2 3 4 5 6 
#
# 1 121.7583 -0.7668 6.0168 0.0000 -7.7859 0.0000
# 2 -0.7668 42.6310 40.4248 0.0000 -2.4831 0.0000
# 3 6.0168 40.4248 102.4165 0.0000 -5.5457 0.0000
# 4 0.0000 0.0000 0.0000 3.9052 0.0000 -4.0454
# 5 -7.7859 -2.4831 -5.5457 0.0000 35.5222 0.0000
# 6 0.0000 0.0000 0.0000 -4.0454 0.0000 25.0175
#
#
#
# Elastic Compliance Matrix: (Units=1/GPa)
#
#
# Indices 1 2 3 4 5 6 
#
# 1 0.008372 0.001006 -0.000792 0.000000 0.001782 0.000000
# 2 0.001006 0.037613 -0.014877 0.000000 0.000527 0.000000
# 3 -0.000792 -0.014877 0.015750 0.000000 0.001245 0.000000
# 4 0.000000 0.000000 0.000000 0.307592 0.000000 0.049739
# 5 0.001782 0.000527 0.001245 0.000000 0.028773 0.000000
# 6 0.000000 0.000000 0.000000 0.049739 0.000000 0.048015
#
#
# Mechanical properties :
#
#
# Convention : Reuss Voigt Hill
#
# Bulk Modulus (GPa) = 30.85606 39.79506 35.32556
# Shear Modulus (GPa) = 10.28289 27.63104 18.95696
#
# Velocity S-wave (km/s) = 2.27253 3.72520 3.08557
# Velocity P-wave (km/s) = 4.73103 6.20396 5.51688
#
# Compressibility (1/GPa) = 0.03240855
#
# Stress axis : x y z
#
# Youngs Moduli (GPa) = 119.43992 26.58675 63.49209
#
# Poissons Ratio (x) = -0.02674 0.05031
# Poissons Ratio (y) = -0.12012 0.94455
# Poissons Ratio (z) = 0.09464 0.39552
#
# Static dielectric constant tensor:
#      x y z
#    x 4.024590 0.000000 -0.045900 
#    y 0.000000 3.319120 0.000000 
#    z -0.045900 0.000000 3.724100 
# 
# 
# High freq. dielectric constant tensor:
#      x y z
#    x 1.802000 0.000000 -0.001380 
#    y 0.000000 1.745520 0.000000 
#    z -0.001380 0.000000 1.796250 
# 
# From -- ./inp_files/145653.got.cif
#   From: 2010.06.25/outbox.cif.g09.slc.cpg/sg15_73_cif.got.tgz:145653.got - 2010.06.28 07:06:18.
