data_PCOD8152630
_publ_section_title
;
Structure prediction by ZEFSAII (Michael W. Deem and Ramdas Pophale) SiO2 
 PCOD8152630
Probable space group: C 2/C
;
_chemical_formula_sum "Si O2"
_cell_formula_units_Z 40
_cell_length_a 10.104194
_cell_length_b 19.142918
_cell_length_c 15.694481
_cell_angle_alpha 90.000000
_cell_angle_beta 35.055039
_cell_angle_gamma 90.000000
_cell_volume 1743.585599
_symmetry_space_group_name_H-M "C 2/C"
_symmetry_group_IT_number 15
_symmetry_cell_setting 'monoclinic'
loop_
_space_group_symop_operation_xyz
x,y,z
-x,y,1/2-z
-x,-y,-z
x,-y,1/2+z
1/2+x,1/2+y,z
1/2-x,1/2+y,1/2-z
1/2-x,1/2-y,-z
1/2+x,1/2-y,1/2+z
loop_
_atom_site_type_symbol
_atom_site_label
_atom_site_fract_x
_atom_site_fract_y
_atom_site_fract_z
Si Si1 0.000000 0.464218 0.750000
Si Si2 0.595430 0.801261 0.023770
Si Si3 0.500000 0.597486 0.750000
Si Si4 0.871501 0.256675 0.670933
Si Si5 0.415988 0.953431 0.123526
Si Si6 0.755634 0.847869 0.531349
O O1 0.079757 0.508021 0.788781
O O2 0.218750 0.417406 0.605843
O O3 0.336452 0.771946 0.164002
O O4 0.573376 0.883906 0.056938
O O5 0.750000 0.750000 0.000000
O O6 0.707761 0.799370 0.870451
O O7 0.355612 0.557161 0.753382
O O8 0.695402 0.640050 0.595725
O O9 0.023358 0.193523 0.550384
O O10 0.019045 0.303572 0.658211
O O11 0.500000 0.000000 0.000000
#
# Coordination Sequence:
#
# PCOD8152630 Si02
#       6
#     4   8   4   8   8   8
#     4  12  26  45  74 109 150 188 258 304 374 452
#     4  12  26  44  70 104 149 190 240 306 378 440
#     4  12  22  49  70 101 148 194 244 304 372 446
#     4  11  22  44  73 103 142 181 245 304 372 442
#     4  12  27  51  72 107 154 199 244 308 380 452
#     4  11  22  43  77 106 133 190 244 309 366 445
#
# _framework density 22.941233
#
# number of rings (size 3 to 8) (size 9 to 14) (size 15 to 20)
#    0.000    0.400    6.000    1.800    2.800    4.000 
#   10.800    0.000    0.000    0.000    0.000    0.000 
#    0.000    0.000    0.000    0.000    0.000    0.000 
#
# Total GULP energy -247832.432834 kJ/mol
# GULP energy per Si atom -12391.621642 kJ/mol
# Density = 2.288902 g / cm^3
# Si number density = 22.941233 Si / 1000 Ang^3
#
#
#
# Elastic Constant Matrix: (Units=GPa)
#
#
# Indices 1 2 3 4 5 6 
#
# 1 123.8740 62.1229 27.8416 -0.0013 13.4268 -0.0048
# 2 62.1229 146.3854 52.3200 0.0063 7.7749 -0.0122
# 3 27.8416 52.3200 70.4286 -0.0197 17.5419 -0.0171
# 4 -0.0013 0.0063 -0.0197 37.6288 -0.0031 10.2248
# 5 13.4268 7.7749 17.5419 -0.0031 47.4562 0.0100
# 6 -0.0048 -0.0122 -0.0171 10.2248 0.0100 33.5348
#
#
#
# Elastic Compliance Matrix: (Units=1/GPa)
#
#
# Indices 1 2 3 4 5 6 
#
# 1 0.010504 -0.004151 -0.000549 0.000001 -0.002089 0.000000
# 2 -0.004151 0.010997 -0.007018 -0.000006 0.001967 0.000001
# 3 -0.000549 -0.007018 0.021262 0.000010 -0.006554 0.000007
# 4 0.000001 -0.000006 0.000010 0.028976 0.000001 -0.008835
# 5 -0.002089 0.001967 -0.006554 0.000001 0.023764 -0.000010
# 6 0.000000 0.000001 0.000007 -0.008835 -0.000010 0.032514
#
#
# Mechanical properties :
#
#
# Convention : Reuss Voigt Hill
#
# Bulk Modulus (GPa) = 51.73996 69.47300 60.60648
# Shear Modulus (GPa) = 31.66691 36.95087 34.30889
#
# Velocity S-wave (km/s) = 3.71934 4.01768 3.87138
# Velocity P-wave (km/s) = 6.40678 7.20216 6.81608
#
# Compressibility (1/GPa) = 0.01932742
#
# Stress axis : x y z
#
# Youngs Moduli (GPa) = 95.20165 90.93648 47.03242
#
# Poissons Ratio (x) = 0.37744 0.02580
# Poissons Ratio (y) = 0.39515 0.33009
# Poissons Ratio (z) = 0.05223 0.63822
#
# Static dielectric constant tensor:
#      x y z
#    x 4.131960 -0.000080 0.124310 
#    y -0.000080 4.419080 0.000030 
#    z 0.124310 0.000030 4.345940 
# 
# 
# High freq. dielectric constant tensor:
#      x y z
#    x 1.900400 0.000000 0.018230 
#    y 0.000000 1.908120 0.000000 
#    z 0.018230 0.000000 1.919070 
# 
# From -- ./inp_files/199715.got.cif
#   From: 2010.06.25/outbox.cif.g09.slc.cpg/sg15_100_cif.got.tgz:199715.got - 2010.06.28 07:06:18.
