data_PCOD8152243
_publ_section_title
;
Structure prediction by ZEFSAII (Michael W. Deem and Ramdas Pophale) SiO2 
 PCOD8152243
Probable space group: C 2/C
;
_chemical_formula_sum "Si O2"
_cell_formula_units_Z 64
_cell_length_a 18.051810
_cell_length_b 25.221984
_cell_length_c 9.298154
_cell_angle_alpha 90.000000
_cell_angle_beta 138.620295
_cell_angle_gamma 90.000000
_cell_volume 2798.520531
_symmetry_space_group_name_H-M "C 2/C"
_symmetry_group_IT_number 15
_symmetry_cell_setting 'monoclinic'
loop_
_space_group_symop_operation_xyz
x,y,z
-x,y,1/2-z
-x,-y,-z
x,-y,1/2+z
1/2+x,1/2+y,z
1/2-x,1/2+y,1/2-z
1/2-x,1/2-y,-z
1/2+x,1/2-y,1/2+z
loop_
_atom_site_type_symbol
_atom_site_label
_atom_site_fract_x
_atom_site_fract_y
_atom_site_fract_z
Si Si1 0.521950 0.584876 0.940265
Si Si2 0.540963 0.265881 0.956849
Si Si3 0.833950 0.129959 0.850255
Si Si4 0.080137 0.488040 0.250129
Si Si5 0.619903 0.894024 0.869833
Si Si6 0.910695 0.795486 0.012818
Si Si7 0.818516 0.334265 0.825297
Si Si8 0.722008 0.409898 0.924378
O O1 0.500000 0.556872 0.750000
O O2 0.409514 0.586670 0.873416
O O3 0.562417 0.643256 0.966657
O O4 0.625760 0.560201 0.186126
O O5 0.628672 0.310344 0.139243
O O6 0.582704 0.206221 0.996703
O O7 0.500000 0.290321 0.750000
O O8 0.430180 0.263342 0.894806
O O9 0.707361 0.127349 0.612340
O O10 0.838317 0.118225 0.027728
O O11 0.126621 0.542671 0.381402
O O12 0.187667 0.451103 0.378116
O O13 0.000000 0.459389 0.250000
O O14 0.000000 0.500000 0.000000
O O15 0.500000 0.873173 0.750000
O O16 0.645821 0.874466 0.746972
O O17 0.782003 0.794969 0.874986
O O18 0.000000 0.768457 0.250000
O O19 0.786166 0.366035 0.922142
#
# Coordination Sequence:
#
# PCOD8152243 Si02
#       8
#     8   8   8   8   8   8   8   8
#     4   9  18  37  64  93 127 171 215 261 321 384
#     4  11  24  39  59  90 129 169 210 261 324 388
#     4  11  22  40  65  94 133 173 214 267 328 388
#     4  11  24  44  67  93 130 172 214 269 342 396
#     4  11  25  44  66  95 126 166 219 273 327 394
#     4   9  19  37  59  85 120 166 208 251 314 377
#     4  11  24  40  63  93 126 167 216 266 320 390
#     4  11  22  39  67  97 130 172 220 270 326 392
#
# _framework density 22.869226999999999
#
# number of rings (size 3 to 8) (size 9 to 14) (size 15 to 20)
#    0.000    1.500    0.000    7.875    0.000    8.000 
#    0.000    0.625    0.000    8.250    0.000    0.000 
#    0.000    0.000    0.000    0.000    0.000    0.000 
#
# Total GULP energy -396551.826571 kJ/mol
# GULP energy per Si atom -12392.244580 kJ/mol
# Density = 2.281718 g / cm^3
# Si number density = 22.869227 Si / 1000 Ang^3
#
#
#
# Elastic Constant Matrix: (Units=GPa)
#
#
# Indices 1 2 3 4 5 6 
#
# 1 141.9407 18.0789 23.6889 0.0000 -6.7144 0.0000
# 2 18.0789 50.1302 17.1651 0.0000 6.9123 0.0000
# 3 23.6889 17.1651 115.6821 0.0000 1.6907 0.0000
# 4 0.0000 0.0000 0.0000 41.4463 0.0000 -6.8284
# 5 -6.7144 6.9123 1.6907 0.0000 45.4090 0.0000
# 6 0.0000 0.0000 0.0000 -6.8284 0.0000 29.0322
#
#
#
# Elastic Compliance Matrix: (Units=1/GPa)
#
#
# Indices 1 2 3 4 5 6 
#
# 1 0.007647 -0.002560 -0.001209 0.000000 0.001565 0.000000
# 2 -0.002560 0.022313 -0.002733 0.000000 -0.003673 0.000000
# 3 -0.001209 -0.002733 0.009299 0.000000 -0.000109 0.000000
# 4 0.000000 0.000000 0.000000 0.025100 0.000000 0.005904
# 5 0.001565 -0.003673 -0.000109 0.000000 0.022817 0.000000
# 6 0.000000 0.000000 0.000000 0.005904 0.000000 0.035833
#
#
# Mechanical properties :
#
#
# Convention : Reuss Voigt Hill
#
# Bulk Modulus (GPa) = 38.08635 47.29098 42.68867
# Shear Modulus (GPa) = 34.53867 39.76550 37.15209
#
# Velocity S-wave (km/s) = 3.89043 4.17444 4.03494
# Velocity P-wave (km/s) = 6.07213 6.63011 6.35725
#
# Compressibility (1/GPa) = 0.02625613
#
# Stress axis : x y z
#
# Youngs Moduli (GPa) = 130.76949 44.81593 107.53751
#
# Poissons Ratio (x) = 0.11471 0.13001
# Poissons Ratio (y) = 0.33473 0.29391
# Poissons Ratio (z) = 0.15810 0.12248
#
# Static dielectric constant tensor:
#      x y z
#    x 4.356260 0.000000 0.026430 
#    y 0.000000 3.680320 0.000000 
#    z 0.026430 0.000000 4.548100 
# 
# 
# High freq. dielectric constant tensor:
#      x y z
#    x 1.918670 0.000000 -0.001290 
#    y 0.000000 1.866080 0.000000 
#    z -0.001290 0.000000 1.913910 
# 
# From -- ./inp_files/52860.got.cif
#   From: 2010.06.25/outbox.cif.g09.slc.cpg/sg15_27_cif.got.tgz:52860.got - 2010.06.28 07:06:18.
