data_PCOD8152776
_publ_section_title
;
Structure prediction by ZEFSAII (Michael W. Deem and Ramdas Pophale) SiO2 
 PCOD8152776
Probable space group: C 2/C
;
_chemical_formula_sum "Si O2"
_cell_formula_units_Z 56
_cell_length_a 15.469714
_cell_length_b 11.425534
_cell_length_c 29.733061
_cell_angle_alpha 90.000000
_cell_angle_beta 31.845474
_cell_angle_gamma 90.000000
_cell_volume 2772.860555
_symmetry_space_group_name_H-M "C 2/C"
_symmetry_group_IT_number 15
_symmetry_cell_setting 'monoclinic'
loop_
_space_group_symop_operation_xyz
x,y,z
-x,y,1/2-z
-x,-y,-z
x,-y,1/2+z
1/2+x,1/2+y,z
1/2-x,1/2+y,1/2-z
1/2-x,1/2-y,-z
1/2+x,1/2-y,1/2+z
loop_
_atom_site_type_symbol
_atom_site_label
_atom_site_fract_x
_atom_site_fract_y
_atom_site_fract_z
Si Si1 0.099592 0.235077 0.368171
Si Si2 0.297967 0.688757 0.933779
Si Si3 0.049422 0.406302 0.132379
Si Si4 0.042522 0.362796 0.781051
Si Si5 0.139207 0.939339 0.566450
Si Si6 0.503108 0.861051 0.995462
Si Si7 0.852996 0.786388 0.848309
O O1 0.285551 0.201082 0.292422
O O2 0.035282 0.302856 0.439909
O O3 0.082018 0.319100 0.332417
O O4 0.997787 0.114857 0.405890
O O5 0.408787 0.768274 0.853642
O O6 0.398215 0.571704 0.902354
O O7 0.129044 0.669734 0.983030
O O8 0.250000 0.750000 0.000000
O O9 0.125333 0.347030 0.143888
O O10 0.958538 0.525624 0.185673
O O11 0.188050 0.434006 0.034914
O O12 0.000000 0.406260 0.750000
O O13 0.148014 0.867072 0.607833
O O14 0.678750 0.809596 0.900803
O O15 0.500000 0.000000 0.000000
O O16 0.000000 0.821429 0.750000
#
# Coordination Sequence:
#
# PCOD8152776 Si02
#       7
#     8   8   8   8   8   8   8
#     4  11  24  45  74 100 134 191 235 287 357 417
#     4  12  26  44  67 104 143 182 227 292 354 420
#     4  11  22  47  70  96 141 184 232 287 353 423
#     4  12  27  45  67 105 147 180 231 298 347 416
#     4  11  22  46  73  95 136 188 233 286 353 417
#     4  12  23  45  74 101 138 186 235 287 357 412
#     4  11  23  42  71 106 136 178 244 291 340 419
#
# _framework density 20.195751000000001
#
# number of rings (size 3 to 8) (size 9 to 14) (size 15 to 20)
#    0.000    0.571    7.143    1.286    2.000    4.000 
#    2.571    2.143    0.000    0.000    0.000    0.000 
#    0.000    0.000    0.000    0.000    0.000    0.000 
#
# Total GULP energy -347242.549821 kJ/mol
# GULP energy per Si atom -12401.519636 kJ/mol
# Density = 2.014979 g / cm^3
# Si number density = 20.195751 Si / 1000 Ang^3
#
#
#
# Elastic Constant Matrix: (Units=GPa)
#
#
# Indices 1 2 3 4 5 6 
#
# 1 118.1738 47.6303 47.5641 -0.0002 -13.5113 -0.0001
# 2 47.6303 120.3483 42.0543 -0.0004 -7.5584 -0.0002
# 3 47.5641 42.0543 135.9202 -0.0023 -5.8125 -0.0008
# 4 -0.0002 -0.0004 -0.0023 20.1357 -0.0004 1.6577
# 5 -13.5113 -7.5584 -5.8125 -0.0004 36.1448 0.0000
# 6 -0.0001 -0.0002 -0.0008 1.6577 0.0000 35.7075
#
#
#
# Elastic Compliance Matrix: (Units=1/GPa)
#
#
# Indices 1 2 3 4 5 6 
#
# 1 0.011263 -0.003289 -0.002792 0.000000 0.003073 0.000000
# 2 -0.003289 0.010358 -0.002028 0.000000 0.000610 0.000000
# 3 -0.002792 -0.002028 0.008961 0.000001 -0.000027 0.000000
# 4 0.000000 0.000000 0.000001 0.049854 0.000001 -0.002314
# 5 0.003073 0.000610 -0.000027 0.000001 0.028939 0.000000
# 6 0.000000 0.000000 0.000000 -0.002314 0.000000 0.028113
#
#
# Mechanical properties :
#
#
# Convention : Reuss Voigt Hill
#
# Bulk Modulus (GPa) = 69.62051 72.10440 70.86246
# Shear Modulus (GPa) = 31.54730 34.21049 32.87890
#
# Velocity S-wave (km/s) = 3.95660 4.12022 4.03924
# Velocity P-wave (km/s) = 7.44450 7.64299 7.54440
#
# Compressibility (1/GPa) = 0.01436358
#
# Stress axis : x y z
#
# Youngs Moduli (GPa) = 88.78651 96.54628 111.59872
#
# Poissons Ratio (x) = 0.31752 0.31163
# Poissons Ratio (y) = 0.29200 0.22629
# Poissons Ratio (z) = 0.24793 0.19577
#
# Static dielectric constant tensor:
#      x y z
#    x 6.685850 0.000070 23.615730 
#    y 0.000070 3.942310 0.000600 
#    z 23.615730 0.000600 194.975230 
# 
# 
# High freq. dielectric constant tensor:
#      x y z
#    x 1.796340 0.000000 0.003140 
#    y 0.000000 1.800180 0.000000 
#    z 0.003140 0.000000 1.791460 
# 
# From -- ./inp_files/313704.got.cif
#   From: 2010.06.25/outbox.cif.g09.slc.cpg/sg15_157_cif.got.tgz:313704.got - 2010.06.28 07:06:18.
