data_PCOD8152830
_publ_section_title
;
Structure prediction by ZEFSAII (Michael W. Deem and Ramdas Pophale) SiO2 
 PCOD8152830
Probable space group: C 2/C
;
_chemical_formula_sum "Si O2"
_cell_formula_units_Z 44
_cell_length_a 11.718075
_cell_length_b 18.575269
_cell_length_c 9.917119
_cell_angle_alpha 90.000000
_cell_angle_beta 80.850888
_cell_angle_gamma 90.000000
_cell_volume 2131.161269
_symmetry_space_group_name_H-M "C 2/C"
_symmetry_group_IT_number 15
_symmetry_cell_setting 'monoclinic'
loop_
_space_group_symop_operation_xyz
x,y,z
-x,y,1/2-z
-x,-y,-z
x,-y,1/2+z
1/2+x,1/2+y,z
1/2-x,1/2+y,1/2-z
1/2-x,1/2-y,-z
1/2+x,1/2-y,1/2+z
loop_
_atom_site_type_symbol
_atom_site_label
_atom_site_fract_x
_atom_site_fract_y
_atom_site_fract_z
Si Si1 0.181151 0.290447 0.690451
Si Si2 0.870251 0.553910 0.224186
Si Si3 0.834432 0.804852 0.058524
Si Si4 0.187626 0.557455 0.563295
Si Si5 0.078050 0.247113 0.446093
Si Si6 0.500000 0.145902 0.750000
O O1 0.157007 0.361750 0.779756
O O2 0.165548 0.219317 0.785231
O O3 0.086864 0.285975 0.589277
O O4 0.308446 0.300668 0.601421
O O5 0.786852 0.510548 0.343443
O O6 0.000000 0.538970 0.250000
O O7 0.842863 0.525925 0.078679
O O8 0.795873 0.887589 0.046868
O O9 0.750000 0.750000 0.000000
O O10 0.961142 0.799875 0.966549
O O11 0.075396 0.598493 0.636858
O O12 0.081606 0.305716 0.327428
#
# Coordination Sequence:
#
# PCOD8152830 Si02
#       6
#     8   8   8   8   8   4
#     4  11  23  40  64  97 128 167 219 269 324 378
#     4  12  25  41  62  94 135 172 215 273 326 390
#     4  12  21  42  64  95 127 168 218 267 321 381
#     4  12  26  39  66  94 132 172 216 268 332 385
#     4  11  23  37  68  96 128 165 219 272 320 384
#     4  12  20  40  64  96 128 168 204 268 328 390
#
# _framework density 20.64602
#
# number of rings (size 3 to 8) (size 9 to 14) (size 15 to 20)
#    0.000    0.364    6.364    3.273    2.545    0.000 
#    0.000    0.909    0.000    0.000    0.000    0.000 
#    0.000    0.000    0.000    0.000    0.000    0.000 
#
# Total GULP energy -272840.553765 kJ/mol
# GULP energy per Si atom -12401.843353 kJ/mol
# Density = 2.059903 g / cm^3
# Si number density = 20.646020 Si / 1000 Ang^3
#
#
#
# Elastic Constant Matrix: (Units=GPa)
#
#
# Indices 1 2 3 4 5 6 
#
# 1 91.7618 20.6534 21.6928 0.0000 -2.6740 0.0000
# 2 20.6534 74.2606 30.8521 0.0000 8.7401 0.0000
# 3 21.6928 30.8521 138.9489 0.0000 29.5149 0.0000
# 4 0.0000 0.0000 0.0000 41.5314 0.0000 -7.7374
# 5 -2.6740 8.7401 29.5149 0.0000 39.9193 0.0000
# 6 0.0000 0.0000 0.0000 -7.7374 0.0000 18.7640
#
#
#
# Elastic Compliance Matrix: (Units=1/GPa)
#
#
# Indices 1 2 3 4 5 6 
#
# 1 0.012071 -0.002927 -0.001830 0.000000 0.002802 0.000000
# 2 -0.002927 0.015575 -0.002652 0.000000 -0.001645 0.000000
# 3 -0.001830 -0.002652 0.009460 0.000000 -0.006536 0.000000
# 4 0.000000 0.000000 0.000000 0.026082 0.000000 0.010755
# 5 0.002802 -0.001645 -0.006536 0.000000 0.030431 0.000000
# 6 0.000000 0.000000 0.000000 0.010755 0.000000 0.057728
#
#
# Mechanical properties :
#
#
# Convention : Reuss Voigt Hill
#
# Bulk Modulus (GPa) = 44.86521 50.15198 47.50860
# Shear Modulus (GPa) = 28.80281 35.49447 32.14864
#
# Velocity S-wave (km/s) = 3.73913 4.15081 3.95034
# Velocity P-wave (km/s) = 6.35762 6.87869 6.62328
#
# Compressibility (1/GPa) = 0.02228898
#
# Stress axis : x y z
#
# Youngs Moduli (GPa) = 82.84478 64.20345 105.71060
#
# Poissons Ratio (x) = 0.18790 0.19344
# Poissons Ratio (y) = 0.24246 0.28034
# Poissons Ratio (z) = 0.15160 0.17026
#
# Static dielectric constant tensor:
#      x y z
#    x 3.770580 0.000000 0.015300 
#    y 0.000000 3.720150 0.000000 
#    z 0.015300 0.000000 4.008280 
# 
# 
# High freq. dielectric constant tensor:
#      x y z
#    x 1.798170 0.000000 0.004680 
#    y 0.000000 1.785090 0.000000 
#    z 0.004680 0.000000 1.831730 
# 
# From -- ./inp_files/30826.got.cif
#   From: 2010.06.25/outbox.cif.g09.slc.cpg/sg15_16_cif.got.tgz:30826.got - 2010.06.28 07:06:18.
