data_PCOD8152915
_publ_section_title
;
Structure prediction by ZEFSAII (Michael W. Deem and Ramdas Pophale) SiO2 
 PCOD8152915
Probable space group: C 2/C
;
_chemical_formula_sum "Si O2"
_cell_formula_units_Z 40
_cell_length_a 18.117726
_cell_length_b 10.250329
_cell_length_c 14.524827
_cell_angle_alpha 90.000000
_cell_angle_beta 41.504030
_cell_angle_gamma 90.000000
_cell_volume 1787.522664
_symmetry_space_group_name_H-M "C 2/C"
_symmetry_group_IT_number 15
_symmetry_cell_setting 'monoclinic'
loop_
_space_group_symop_operation_xyz
x,y,z
-x,y,1/2-z
-x,-y,-z
x,-y,1/2+z
1/2+x,1/2+y,z
1/2-x,1/2+y,1/2-z
1/2-x,1/2-y,-z
1/2+x,1/2-y,1/2+z
loop_
_atom_site_type_symbol
_atom_site_label
_atom_site_fract_x
_atom_site_fract_y
_atom_site_fract_z
Si Si1 0.941405 0.634535 0.467518
Si Si2 0.909456 0.885022 0.586703
Si Si3 0.673788 0.061224 0.564419
Si Si4 0.398000 0.330132 0.797412
Si Si5 0.328835 0.979535 0.729323
O O1 0.919069 0.790689 0.487356
O O2 0.899964 0.550474 0.417834
O O3 0.879686 0.591029 0.617844
O O4 0.075025 0.629023 0.351343
O O5 0.929258 0.802767 0.662083
O O6 0.783346 0.932757 0.713112
O O7 0.000000 0.000000 0.500000
O O8 0.610172 0.198841 0.632103
O O9 0.788025 0.080721 0.402615
O O10 0.705765 0.024890 0.637624
O O11 0.500000 0.408373 0.750000
#
# Coordination Sequence:
#
# PCOD8152915 Si02
#       5
#     8   8   8   8   8
#     4  11  25  43  71 105 144 188 239 296 358 435
#     4  12  27  45  72 107 148 186 238 304 363 427
#     4  11  23  44  69 103 140 189 241 299 352 435
#     4  11  23  40  71 103 140 182 248 296 356 426
#     4  11  24  44  71 102 142 187 238 294 364 420
#
# _framework density 22.377337000000001
#
# number of rings (size 3 to 8) (size 9 to 14) (size 15 to 20)
#    0.000    0.800    4.000    3.000    5.600    0.800 
#    0.000    4.000    0.000    0.000    0.000    0.000 
#    0.000    0.000    0.000    0.000    0.000    0.000 
#
# Total GULP energy -247806.497062 kJ/mol
# GULP energy per Si atom -12390.324853 kJ/mol
# Density = 2.232640 g / cm^3
# Si number density = 22.377337 Si / 1000 Ang^3
#
#
#
# Elastic Constant Matrix: (Units=GPa)
#
#
# Indices 1 2 3 4 5 6 
#
# 1 126.2088 31.5217 43.2804 0.0000 -10.3398 0.0000
# 2 31.5217 82.0401 35.3636 0.0000 -8.0160 0.0000
# 3 43.2804 35.3636 87.7420 0.0000 -13.7621 0.0000
# 4 0.0000 0.0000 0.0000 1.8793 0.0000 9.6040
# 5 -10.3398 -8.0160 -13.7621 0.0000 61.6961 0.0000
# 6 0.0000 0.0000 0.0000 9.6040 0.0000 33.8493
#
#
#
# Elastic Compliance Matrix: (Units=1/GPa)
#
#
# Indices 1 2 3 4 5 6 
#
# 1 0.009825 -0.002022 -0.003953 0.000000 0.000502 0.000000
# 2 -0.002022 0.015191 -0.005045 0.000000 0.000509 0.000000
# 3 -0.003953 -0.005045 0.015724 0.000000 0.002189 0.000000
# 4 0.000000 0.000000 0.000000 -1.182491 0.000000 0.335506
# 5 0.000502 0.000509 0.002189 0.000000 0.016847 0.000000
# 6 0.000000 0.000000 0.000000 0.335506 0.000000 -0.065650
#
#
# Mechanical properties :
#
#
# Convention : Reuss Voigt Hill
#
# Bulk Modulus (GPa) = 53.47738 57.36912 55.42325
# Shear Modulus (GPa) = -4.30188 31.87327 13.78569
#
# Velocity S-wave (km/s) = -1.38802 3.77816 2.48474
# Velocity P-wave (km/s) = 4.62397 6.68771 5.74920
#
# Compressibility (1/GPa) = 0.01869949
#
# Stress axis : x y z
#
# Youngs Moduli (GPa) = 101.78092 65.83025 63.59899
#
# Poissons Ratio (x) = 0.13312 0.25138
# Poissons Ratio (y) = 0.20582 0.32086
# Poissons Ratio (z) = 0.40230 0.33212
#
# Static dielectric constant tensor:
#      x y z
#    x 4.050730 0.000000 -0.054300 
#    y 0.000000 3.804590 0.000000 
#    z -0.054300 0.000000 4.146020 
# 
# 
# High freq. dielectric constant tensor:
#      x y z
#    x 1.890790 0.000000 -0.004730 
#    y 0.000000 1.854160 0.000000 
#    z -0.004730 0.000000 1.899770 
# 
# From -- ./inp_files/160673.got.cif
#   From: 2010.06.25/outbox.cif.g09.slc.cpg/sg15_81_cif.got.tgz:160673.got - 2010.06.28 07:06:18.
