data_PCOD8152785
_publ_section_title
;
Structure prediction by ZEFSAII (Michael W. Deem and Ramdas Pophale) SiO2 
 PCOD8152785
Probable space group: C 2/C
;
_chemical_formula_sum "Si O2"
_cell_formula_units_Z 44
_cell_length_a 12.066652
_cell_length_b 8.294963
_cell_length_c 21.981148
_cell_angle_alpha 90.000000
_cell_angle_beta 58.966886
_cell_angle_gamma 90.000000
_cell_volume 1885.238464
_symmetry_space_group_name_H-M "C 2/C"
_symmetry_group_IT_number 15
_symmetry_cell_setting 'monoclinic'
loop_
_space_group_symop_operation_xyz
x,y,z
-x,y,1/2-z
-x,-y,-z
x,-y,1/2+z
1/2+x,1/2+y,z
1/2-x,1/2+y,1/2-z
1/2-x,1/2-y,-z
1/2+x,1/2-y,1/2+z
loop_
_atom_site_type_symbol
_atom_site_label
_atom_site_fract_x
_atom_site_fract_y
_atom_site_fract_z
Si Si1 0.928282 0.434512 0.078726
Si Si2 0.271722 0.330697 0.819143
Si Si3 0.824225 0.660883 0.924851
Si Si4 0.769822 0.119931 0.125496
Si Si5 0.374736 0.567986 0.698679
Si Si6 0.000000 0.279180 0.750000
O O1 0.865784 0.591298 0.126088
O O2 0.821742 0.296563 0.091858
O O3 0.029408 0.368545 0.098343
O O4 0.000000 0.500000 0.000000
O O5 0.338693 0.275056 0.862336
O O6 0.359554 0.462607 0.763165
O O7 0.249495 0.183155 0.778826
O O8 0.750416 0.493732 0.927925
O O9 0.750000 0.750000 0.000000
O O10 0.634878 0.122775 0.202995
O O11 0.884927 0.039469 0.134647
O O12 0.493909 0.679488 0.687286
#
# Coordination Sequence:
#
# PCOD8152785 Si02
#       6
#     8   8   8   8   8   4
#     4  12  25  47  71 102 147 186 239 293 347 433
#     4  11  22  47  67 103 140 179 236 288 354 422
#     4  11  26  47  70 102 141 190 237 288 355 429
#     4  11  27  45  72 106 141 186 239 294 358 425
#     4  11  23  43  70 103 140 177 229 296 355 415
#     4  12  22  42  72 102 140 178 232 288 360 416
#
# _framework density 23.339223
#
# number of rings (size 3 to 8) (size 9 to 14) (size 15 to 20)
#    0.000    0.727    5.455    1.091    2.545    1.455 
#    0.000    0.000    0.000    0.000    0.000    0.000 
#    0.000    0.000    0.000    0.000    0.000    0.000 
#
# Total GULP energy -272614.284730 kJ/mol
# GULP energy per Si atom -12391.558397 kJ/mol
# Density = 2.328610 g / cm^3
# Si number density = 23.339223 Si / 1000 Ang^3
#
#
#
# Elastic Constant Matrix: (Units=GPa)
#
#
# Indices 1 2 3 4 5 6 
#
# 1 118.7754 44.6243 25.7605 0.0000 19.9956 0.0000
# 2 44.6243 124.1603 45.0256 0.0000 11.5639 0.0000
# 3 25.7605 45.0256 59.3907 0.0000 13.7586 0.0000
# 4 0.0000 0.0000 0.0000 41.2504 0.0000 8.3588
# 5 19.9956 11.5639 13.7586 0.0000 32.9090 0.0000
# 6 0.0000 0.0000 0.0000 8.3588 0.0000 48.6330
#
#
#
# Elastic Compliance Matrix: (Units=1/GPa)
#
#
# Indices 1 2 3 4 5 6 
#
# 1 0.010607 -0.002895 -0.001272 0.000000 -0.004896 0.000000
# 2 -0.002895 0.011904 -0.007980 0.000000 0.000913 0.000000
# 3 -0.001272 -0.007980 0.025035 0.000000 -0.006890 0.000000
# 4 0.000000 0.000000 0.000000 0.025117 0.000000 -0.004317
# 5 -0.004896 0.000913 -0.006890 0.000000 0.035921 0.000000
# 6 0.000000 0.000000 0.000000 -0.004317 0.000000 0.021304
#
#
# Mechanical properties :
#
#
# Convention : Reuss Voigt Hill
#
# Bulk Modulus (GPa) = 43.00691 59.23859 51.12275
# Shear Modulus (GPa) = 30.87704 37.01954 33.94829
#
# Velocity S-wave (km/s) = 3.64121 3.98697 3.81801
# Velocity P-wave (km/s) = 6.01205 6.82871 6.43335
#
# Compressibility (1/GPa) = 0.02325208
#
# Stress axis : x y z
#
# Youngs Moduli (GPa) = 94.27773 84.00882 39.94367
#
# Poissons Ratio (x) = 0.24321 0.05080
# Poissons Ratio (y) = 0.27294 0.31875
# Poissons Ratio (z) = 0.11990 0.67039
#
# Static dielectric constant tensor:
#      x y z
#    x 4.330930 0.000000 0.307260 
#    y 0.000000 4.627070 0.000000 
#    z 0.307260 0.000000 3.821950 
# 
# 
# High freq. dielectric constant tensor:
#      x y z
#    x 1.935960 0.000000 0.023390 
#    y 0.000000 1.946180 0.000000 
#    z 0.023390 0.000000 1.889900 
# 
# From -- ./inp_files/236138.got.cif
#   From: 2010.06.25/outbox.cif.g09.slc.cpg/sg15_119_cif.got.tgz:236138.got - 2010.06.28 07:06:18.
