data_PCOD8152937
_publ_section_title
;
Structure prediction by ZEFSAII (Michael W. Deem and Ramdas Pophale) SiO2 
 PCOD8152937
Probable space group: C 2/C
;
_chemical_formula_sum "Si O2"
_cell_formula_units_Z 52
_cell_length_a 15.246797
_cell_length_b 26.901833
_cell_length_c 9.070433
_cell_angle_alpha 90.000000
_cell_angle_beta 42.738332
_cell_angle_gamma 90.000000
_cell_volume 2524.847345
_symmetry_space_group_name_H-M "C 2/C"
_symmetry_group_IT_number 15
_symmetry_cell_setting 'monoclinic'
loop_
_space_group_symop_operation_xyz
x,y,z
-x,y,1/2-z
-x,-y,-z
x,-y,1/2+z
1/2+x,1/2+y,z
1/2-x,1/2+y,1/2-z
1/2-x,1/2-y,-z
1/2+x,1/2-y,1/2+z
loop_
_atom_site_type_symbol
_atom_site_label
_atom_site_fract_x
_atom_site_fract_y
_atom_site_fract_z
Si Si1 0.976340 0.777210 0.453175
Si Si2 0.292598 0.106277 0.215613
Si Si3 0.710437 0.007751 0.089505
Si Si4 0.000000 0.564099 0.750000
Si Si5 0.710578 0.217455 0.190880
Si Si6 0.374518 0.531076 0.623133
Si Si7 0.021426 0.877573 0.897565
O O1 0.822752 0.767227 0.669935
O O2 0.018375 0.824417 0.493642
O O3 0.000000 0.786931 0.250000
O O4 0.064129 0.733011 0.411678
O O5 0.305397 0.060705 0.312062
O O6 0.293708 0.157224 0.311718
O O7 0.163472 0.104550 0.274937
O O8 0.413431 0.101276 0.955435
O O9 0.584074 0.972931 0.249659
O O10 0.831247 0.977999 0.008942
O O11 0.748922 0.016399 0.872764
O O12 0.750000 0.250000 0.000000
O O13 0.500000 0.500000 0.500000
O O14 0.412672 0.587762 0.604942
O O15 0.000000 0.879138 0.750000
#
# Coordination Sequence:
#
# PCOD8152937 Si02
#       7
#     8   8   8   4   8   8   8
#     4   9  20  40  66  92 130 163 214 277 329 398
#     4  11  24  43  69  90 138 182 213 282 335 390
#     4  12  25  42  63  96 132 178 219 277 322 400
#     4  12  24  48  60  96 140 176 232 260 336 408
#     4   9  20  42  65  96 126 164 219 272 330 400
#     4  12  23  38  65  92 129 164 219 268 329 392
#     4  11  23  41  64  99 128 168 221 273 338 393
#
# _framework density 20.595303000000001
#
# number of rings (size 3 to 8) (size 9 to 14) (size 15 to 20)
#    0.000    1.231    3.077    2.769    6.462    0.000 
#   11.077    1.538    0.000    0.000    0.000    0.000 
#    0.000    0.000    0.000    0.000    0.000    0.000 
#
# Total GULP energy -322126.061557 kJ/mol
# GULP energy per Si atom -12389.463906 kJ/mol
# Density = 2.054843 g / cm^3
# Si number density = 20.595303 Si / 1000 Ang^3
#
#
#
# Elastic Constant Matrix: (Units=GPa)
#
#
# Indices 1 2 3 4 5 6 
#
# 1 116.0344 63.4707 22.4507 0.0000 -18.8927 0.0000
# 2 63.4707 133.9773 32.8805 0.0000 -13.3366 0.0000
# 3 22.4507 32.8805 70.8863 0.0000 -6.6587 0.0000
# 4 0.0000 0.0000 0.0000 30.1685 0.0000 -2.9522
# 5 -18.8927 -13.3366 -6.6587 0.0000 33.3231 0.0000
# 6 0.0000 0.0000 0.0000 -2.9522 0.0000 42.0270
#
#
#
# Elastic Compliance Matrix: (Units=1/GPa)
#
#
# Indices 1 2 3 4 5 6 
#
# 1 0.012417 -0.005138 -0.001102 0.000000 0.004764 0.000000
# 2 -0.005138 0.010783 -0.003305 0.000000 0.000742 0.000000
# 3 -0.001102 -0.003305 0.016108 0.000000 0.001271 0.000000
# 4 0.000000 0.000000 0.000000 0.033377 0.000000 0.002345
# 5 0.004764 0.000742 0.001271 0.000000 0.033261 0.000000
# 6 0.000000 0.000000 0.000000 0.002345 0.000000 0.023959
#
#
# Mechanical properties :
#
#
# Convention : Reuss Voigt Hill
#
# Bulk Modulus (GPa) = 49.45754 62.05576 55.75665
# Shear Modulus (GPa) = 32.10589 34.57680 33.34135
#
# Velocity S-wave (km/s) = 3.95257 4.10184 4.02790
# Velocity P-wave (km/s) = 6.70048 7.25465 6.98307
#
# Compressibility (1/GPa) = 0.02021936
#
# Stress axis : x y z
#
# Youngs Moduli (GPa) = 80.53173 92.73898 62.07931
#
# Poissons Ratio (x) = 0.47650 0.06842
# Poissons Ratio (y) = 0.41377 0.20515
# Poissons Ratio (z) = 0.08875 0.30647
#
# Static dielectric constant tensor:
#      x y z
#    x 4.019040 0.000000 -0.233660 
#    y 0.000000 3.991750 0.000000 
#    z -0.233660 0.000000 3.874690 
# 
# 
# High freq. dielectric constant tensor:
#      x y z
#    x 1.818610 0.000000 -0.016310 
#    y 0.000000 1.809900 0.000000 
#    z -0.016310 0.000000 1.790620 
# 
# From -- ./inp_files/43388.got.cif
#   From: 2010.06.25/outbox.cif.g09.slc.cpg/sg15_22_cif.got.tgz:43388.got - 2010.06.28 07:06:18.
