data_PCOD8152403
_publ_section_title
;
Structure prediction by ZEFSAII (Michael W. Deem and Ramdas Pophale) SiO2 
 PCOD8152403
Probable space group: C 2/C
;
_chemical_formula_sum "Si O2"
_cell_formula_units_Z 48
_cell_length_a 11.981177
_cell_length_b 8.849410
_cell_length_c 22.545971
_cell_angle_alpha 90.000000
_cell_angle_beta 66.952568
_cell_angle_gamma 90.000000
_cell_volume 2199.662451
_symmetry_space_group_name_H-M "C 2/C"
_symmetry_group_IT_number 15
_symmetry_cell_setting 'monoclinic'
loop_
_space_group_symop_operation_xyz
x,y,z
-x,y,1/2-z
-x,-y,-z
x,-y,1/2+z
1/2+x,1/2+y,z
1/2-x,1/2+y,1/2-z
1/2-x,1/2-y,-z
1/2+x,1/2-y,1/2+z
loop_
_atom_site_type_symbol
_atom_site_label
_atom_site_fract_x
_atom_site_fract_y
_atom_site_fract_z
Si Si1 0.686271 0.864913 0.853171
Si Si2 0.227950 0.408677 0.575255
Si Si3 0.496522 0.948837 0.318336
Si Si4 0.921542 0.047074 0.609540
Si Si5 0.094303 0.871681 0.774352
Si Si6 0.799882 0.068699 0.930645
O O1 0.611973 0.721776 0.892237
O O2 0.789520 0.812644 0.785840
O O3 0.595053 0.972210 0.838182
O O4 0.743699 0.950483 0.896905
O O5 0.363788 0.449430 0.568396
O O6 0.198715 0.235558 0.598632
O O7 0.217240 0.431091 0.506807
O O8 0.136346 0.521407 0.627352
O O9 0.500000 0.009165 0.250000
O O10 0.522139 0.770755 0.316255
O O11 0.064751 0.019914 0.580126
O O12 0.865359 0.987545 0.683306
O O13 0.000000 0.957800 0.750000
#
# Coordination Sequence:
#
# PCOD8152403 Si02
#       6
#     8   8   8   8   8   8
#     4  12  24  43  70 104 137 181 229 284 343 408
#     4  11  25  48  70  99 140 182 228 284 342 408
#     4  11  24  44  70 101 139 181 226 283 348 405
#     4  12  24  45  69 102 138 180 230 282 343 404
#     4  11  22  41  67  99 141 172 227 285 337 405
#     4  11  26  48  69 102 138 181 233 279 341 413
#
# _framework density 21.821529000000002
#
# number of rings (size 3 to 8) (size 9 to 14) (size 15 to 20)
#    0.000    0.667    3.333    5.500    0.000    3.333 
#    3.000    0.000    0.000    0.000    0.000    0.000 
#    0.000    0.000    0.000    0.000    0.000    0.000 
#
# Total GULP energy -297744.312439 kJ/mol
# GULP energy per Si atom -12406.013018 kJ/mol
# Density = 2.177186 g / cm^3
# Si number density = 21.821529 Si / 1000 Ang^3
#
#
#
# Elastic Constant Matrix: (Units=GPa)
#
#
# Indices 1 2 3 4 5 6 
#
# 1 136.2395 46.0306 29.3736 0.0000 13.6644 0.0000
# 2 46.0306 102.4727 42.4000 0.0000 17.3008 0.0000
# 3 29.3736 42.4000 95.1741 0.0000 4.3987 0.0000
# 4 0.0000 0.0000 0.0000 29.1099 0.0000 0.7646
# 5 13.6644 17.3008 4.3987 0.0000 32.6784 0.0000
# 6 0.0000 0.0000 0.0000 0.7646 0.0000 37.1027
#
#
#
# Elastic Compliance Matrix: (Units=1/GPa)
#
#
# Indices 1 2 3 4 5 6 
#
# 1 0.008860 -0.003149 -0.001245 0.000000 -0.001870 0.000000
# 2 -0.003149 0.014219 -0.005107 0.000000 -0.005524 0.000000
# 3 -0.001245 -0.005107 0.013099 0.000000 0.001461 0.000000
# 4 0.000000 0.000000 0.000000 0.034371 0.000000 -0.000708
# 5 -0.001870 -0.005524 0.001461 0.000000 0.034111 0.000000
# 6 0.000000 0.000000 0.000000 -0.000708 0.000000 0.026967
#
#
# Mechanical properties :
#
#
# Convention : Reuss Voigt Hill
#
# Bulk Modulus (GPa) = 58.22380 63.27719 60.75050
# Shear Modulus (GPa) = 31.97847 34.18367 33.08107
#
# Velocity S-wave (km/s) = 3.83228 3.96221 3.89779
# Velocity P-wave (km/s) = 6.80599 7.07055 6.93953
#
# Compressibility (1/GPa) = 0.01717511
#
# Stress axis : x y z
#
# Youngs Moduli (GPa) = 112.86735 70.32804 76.34067
#
# Poissons Ratio (x) = 0.22146 0.09506
# Poissons Ratio (y) = 0.35541 0.38991
# Poissons Ratio (z) = 0.14054 0.35920
#
# Static dielectric constant tensor:
#      x y z
#    x 4.207750 0.000000 0.086210 
#    y 0.000000 3.828590 0.000000 
#    z 0.086210 0.000000 3.971100 
# 
# 
# High freq. dielectric constant tensor:
#      x y z
#    x 1.877500 0.000000 0.005090 
#    y 0.000000 1.855310 0.000000 
#    z 0.005090 0.000000 1.856230 
# 
# From -- ./inp_files/267738.got.cif
#   From: 2010.06.25/outbox.cif.g09.slc.cpg/sg15_134_cif.got.tgz:267738.got - 2010.06.28 07:06:18.
