data_PCOD8152635
_publ_section_title
;
Structure prediction by ZEFSAII (Michael W. Deem and Ramdas Pophale) SiO2 
 PCOD8152635
Probable space group: C 2/C
;
_chemical_formula_sum "Si O2"
_cell_formula_units_Z 64
_cell_length_a 18.451000
_cell_length_b 19.019451
_cell_length_c 14.863519
_cell_angle_alpha 90.000000
_cell_angle_beta 142.467540
_cell_angle_gamma 90.000000
_cell_volume 3177.657731
_symmetry_space_group_name_H-M "C 2/C"
_symmetry_group_IT_number 15
_symmetry_cell_setting 'monoclinic'
loop_
_space_group_symop_operation_xyz
x,y,z
-x,y,1/2-z
-x,-y,-z
x,-y,1/2+z
1/2+x,1/2+y,z
1/2-x,1/2+y,1/2-z
1/2-x,1/2-y,-z
1/2+x,1/2-y,1/2+z
loop_
_atom_site_type_symbol
_atom_site_label
_atom_site_fract_x
_atom_site_fract_y
_atom_site_fract_z
Si Si1 0.285423 0.449506 0.397114
Si Si2 0.843055 0.087156 0.335273
Si Si3 0.372696 0.477165 0.667307
Si Si4 0.367935 0.206145 0.139523
Si Si5 0.415530 0.663902 0.909855
Si Si6 0.883368 0.678630 0.361519
Si Si7 0.749732 0.892366 0.105089
Si Si8 0.922539 0.567774 0.917646
O O1 0.327312 0.523832 0.392118
O O2 0.287723 0.444789 0.507361
O O3 0.363788 0.386037 0.435474
O O4 0.146258 0.434518 0.244380
O O5 0.870995 0.058435 0.263184
O O6 0.727131 0.135603 0.207385
O O7 0.949501 0.137841 0.475340
O O8 0.500000 0.469912 0.750000
O O9 0.338657 0.558607 0.638063
O O10 0.500000 0.240298 0.250000
O O11 0.361682 0.181379 0.234575
O O12 0.250000 0.250000 0.000000
O O13 0.352808 0.139529 0.059044
O O14 0.405098 0.745414 0.929106
O O15 0.336219 0.663383 0.740158
O O16 0.005644 0.639081 0.502547
O O17 0.681031 0.939613 0.110092
O O18 0.000000 0.500000 0.000000
#
# Coordination Sequence:
#
# PCOD8152635 Si02
#       8
#     8   8   8   8   8   8   8   8
#     4  11  23  44  72  98 131 178 226 292 337 401
#     4  12  24  45  71 102 133 181 233 275 354 414
#     4  12  23  42  70 105 134 172 236 296 339 404
#     4  12  26  42  63 103 142 180 229 276 354 437
#     4  11  24  41  68  98 136 178 223 281 343 412
#     4  12  26  43  69  96 140 189 217 288 350 415
#     4  11  23  40  65  96 137 173 218 278 347 412
#     4  11  22  44  64  95 132 178 227 269 332 412
#
# _framework density 20.140620999999999
#
# number of rings (size 3 to 8) (size 9 to 14) (size 15 to 20)
#    0.000    0.500    7.500    1.875    5.250    0.500 
#    0.000    2.500    2.750    0.000    0.000    0.000 
#    0.000    0.000    0.000    0.000    0.000    0.000 
#
# Total GULP energy -396584.651169 kJ/mol
# GULP energy per Si atom -12393.270349 kJ/mol
# Density = 2.009478 g / cm^3
# Si number density = 20.140621 Si / 1000 Ang^3
#
#
#
# Elastic Constant Matrix: (Units=GPa)
#
#
# Indices 1 2 3 4 5 6 
#
# 1 71.2461 24.1695 37.0926 0.0000 6.9506 0.0000
# 2 24.1695 119.2421 36.8412 0.0000 6.0529 0.0000
# 3 37.0926 36.8412 128.5096 0.0000 6.2468 0.0000
# 4 0.0000 0.0000 0.0000 41.3514 0.0000 11.1928
# 5 6.9506 6.0529 6.2468 0.0000 30.2757 0.0000
# 6 0.0000 0.0000 0.0000 11.1928 0.0000 13.6491
#
#
#
# Elastic Compliance Matrix: (Units=1/GPa)
#
#
# Indices 1 2 3 4 5 6 
#
# 1 0.017200 -0.002038 -0.004251 0.000000 -0.002664 0.000000
# 2 -0.002038 0.009494 -0.002085 0.000000 -0.001000 0.000000
# 3 -0.004251 -0.002085 0.009635 0.000000 -0.000595 0.000000
# 4 0.000000 0.000000 0.000000 0.031082 0.000000 -0.025489
# 5 -0.002664 -0.001000 -0.000595 0.000000 0.033964 0.000000
# 6 0.000000 0.000000 0.000000 -0.025489 0.000000 0.094167
#
#
# Mechanical properties :
#
#
# Convention : Reuss Voigt Hill
#
# Bulk Modulus (GPa) = 51.06666 57.24493 54.15580
# Shear Modulus (GPa) = 22.85010 31.78154 27.31582
#
# Velocity S-wave (km/s) = 3.37193 3.97669 3.68673
# Velocity P-wave (km/s) = 6.36946 7.04058 6.71341
#
# Compressibility (1/GPa) = 0.01958225
#
# Stress axis : x y z
#
# Youngs Moduli (GPa) = 58.13890 105.32637 103.78646
#
# Poissons Ratio (x) = 0.21463 0.44119
# Poissons Ratio (y) = 0.11847 0.21640
# Poissons Ratio (z) = 0.24714 0.21961
#
# Static dielectric constant tensor:
#      x y z
#    x 3.792600 0.000000 -0.284750 
#    y 0.000000 3.625270 0.000000 
#    z -0.284750 0.000000 5.382520 
# 
# 
# High freq. dielectric constant tensor:
#      x y z
#    x 1.775580 0.000000 0.011580 
#    y 0.000000 1.782460 0.000000 
#    z 0.011580 0.000000 1.810620 
# 
# From -- ./inp_files/163277.got.cif
#   From: 2010.06.25/outbox.cif.g09.slc.cpg/sg15_82_cif.got.tgz:163277.got - 2010.06.28 07:06:18.
