data_PCOD8152089
_publ_section_title
;
Structure prediction by ZEFSAII (Michael W. Deem and Ramdas Pophale) SiO2 
 PCOD8152089
Probable space group: C 2/C
;
_chemical_formula_sum "Si O2"
_cell_formula_units_Z 56
_cell_length_a 10.440857
_cell_length_b 29.115085
_cell_length_c 11.579640
_cell_angle_alpha 90.000000
_cell_angle_beta 50.783971
_cell_angle_gamma 90.000000
_cell_volume 2727.223574
_symmetry_space_group_name_H-M "C 2/C"
_symmetry_group_IT_number 15
_symmetry_cell_setting 'monoclinic'
loop_
_space_group_symop_operation_xyz
x,y,z
-x,y,1/2-z
-x,-y,-z
x,-y,1/2+z
1/2+x,1/2+y,z
1/2-x,1/2+y,1/2-z
1/2-x,1/2-y,-z
1/2+x,1/2-y,1/2+z
loop_
_atom_site_type_symbol
_atom_site_label
_atom_site_fract_x
_atom_site_fract_y
_atom_site_fract_z
Si Si1 0.347669 0.613700 0.622225
Si Si2 0.099292 0.295136 0.007740
Si Si3 0.190256 0.881673 0.617024
Si Si4 0.855503 0.454387 0.672336
Si Si5 0.240837 0.711787 0.682892
Si Si6 0.196256 0.448644 0.398541
Si Si7 0.890949 0.041013 0.003360
O O1 0.273211 0.605912 0.537197
O O2 0.361517 0.668326 0.635210
O O3 0.234658 0.591189 0.785240
O O4 0.525582 0.590259 0.525062
O O5 0.176975 0.343124 0.918660
O O6 0.150781 0.258352 0.878760
O O7 0.169700 0.287452 0.094814
O O8 0.900423 0.291872 0.137518
O O9 0.223400 0.927941 0.668262
O O10 0.000000 0.865440 0.750000
O O11 0.860676 0.507632 0.639448
O O12 0.790161 0.454382 0.839737
O O13 0.036943 0.431721 0.562147
O O14 0.354089 0.463301 0.387528
O O15 0.000000 0.000000 0.000000
#
# Coordination Sequence:
#
# PCOD8152089 Si02
#       7
#     8   8   8   8   8   8   8
#     4  11  22  37  60  87 124 161 205 247 311 365
#     4   9  19  32  54  81 126 153 196 242 309 365
#     4  11  22  36  59  91 125 161 203 253 310 378
#     4  11  24  39  59  87 121 164 208 255 305 361
#     4   9  19  33  53  86 116 162 192 244 303 371
#     4  11  25  40  59  86 122 165 207 259 308 358
#     4  12  23  40  61  86 119 163 212 257 300 363
#
# _framework density 20.533704
#
# number of rings (size 3 to 8) (size 9 to 14) (size 15 to 20)
#    0.000    1.429    2.857    2.571    6.000    1.714 
#    0.000    0.000    0.000    0.000    0.000   18.000 
#    0.000    0.000    0.000    0.000    0.000    0.000 
#
# Total GULP energy -346886.213129 kJ/mol
# GULP energy per Si atom -12388.793326 kJ/mol
# Density = 2.048697 g / cm^3
# Si number density = 20.533704 Si / 1000 Ang^3
#
#
#
# Elastic Constant Matrix: (Units=GPa)
#
#
# Indices 1 2 3 4 5 6 
#
# 1 55.0806 26.9427 30.2200 0.0000 0.2271 0.0000
# 2 26.9427 99.8534 41.3149 0.0000 -8.8354 0.0000
# 3 30.2200 41.3149 128.9327 0.0000 -25.2246 0.0000
# 4 0.0000 0.0000 0.0000 35.3954 0.0000 -5.1943
# 5 0.2271 -8.8354 -25.2246 0.0000 29.5966 0.0000
# 6 0.0000 0.0000 0.0000 -5.1943 0.0000 25.8217
#
#
#
# Elastic Compliance Matrix: (Units=1/GPa)
#
#
# Indices 1 2 3 4 5 6 
#
# 1 0.023281 -0.004691 -0.005115 0.000000 -0.005939 0.000000
# 2 -0.004691 0.012494 -0.002601 0.000000 0.001549 0.000000
# 3 -0.005115 -0.002601 0.011574 0.000000 0.009127 0.000000
# 4 0.000000 0.000000 0.000000 0.029112 0.000000 0.005856
# 5 -0.005939 0.001549 0.009127 0.000000 0.042074 0.000000
# 6 0.000000 0.000000 0.000000 0.005856 0.000000 0.039905
#
#
# Mechanical properties :
#
#
# Convention : Reuss Voigt Hill
#
# Bulk Modulus (GPa) = 44.37689 53.42465 48.90077
# Shear Modulus (GPa) = 26.21027 30.52202 28.36614
#
# Velocity S-wave (km/s) = 3.57662 3.85961 3.72081
# Velocity P-wave (km/s) = 6.22213 6.77766 6.50583
#
# Compressibility (1/GPa) = 0.02253425
#
# Stress axis : x y z
#
# Youngs Moduli (GPa) = 42.95398 80.04146 86.40009
#
# Poissons Ratio (x) = 0.37544 0.44198
# Poissons Ratio (y) = 0.20148 0.22472
# Poissons Ratio (z) = 0.21973 0.20818
#
# Static dielectric constant tensor:
#      x y z
#    x 3.337920 0.000000 -0.273250 
#    y 0.000000 3.716140 0.000000 
#    z -0.273250 0.000000 4.220920 
# 
# 
# High freq. dielectric constant tensor:
#      x y z
#    x 1.758500 0.000000 -0.020020 
#    y 0.000000 1.796890 0.000000 
#    z -0.020020 0.000000 1.823210 
# 
# From -- ./inp_files/91964.got.cif
#   From: 2010.06.25/outbox.cif.g09.slc.cpg/sg15_46_cif.got.tgz:91964.got - 2010.06.28 07:06:18.
