data_PCOD8152022
_publ_section_title
;
Structure prediction by ZEFSAII (Michael W. Deem and Ramdas Pophale) SiO2 
 PCOD8152022
Probable space group: C 2/C
;
_chemical_formula_sum "Si O2"
_cell_formula_units_Z 56
_cell_length_a 24.323818
_cell_length_b 12.927862
_cell_length_c 15.608858
_cell_angle_alpha 90.000000
_cell_angle_beta 30.102614
_cell_angle_gamma 90.000000
_cell_volume 2461.750284
_symmetry_space_group_name_H-M "C 2/C"
_symmetry_group_IT_number 15
_symmetry_cell_setting 'monoclinic'
loop_
_space_group_symop_operation_xyz
x,y,z
-x,y,1/2-z
-x,-y,-z
x,-y,1/2+z
1/2+x,1/2+y,z
1/2-x,1/2+y,1/2-z
1/2-x,1/2-y,-z
1/2+x,1/2-y,1/2+z
loop_
_atom_site_type_symbol
_atom_site_label
_atom_site_fract_x
_atom_site_fract_y
_atom_site_fract_z
Si Si1 0.542441 0.804324 0.010758
Si Si2 0.820765 0.423384 0.294627
Si Si3 0.191077 0.406086 0.539310
Si Si4 0.903676 0.770346 0.235900
Si Si5 0.186491 0.529080 0.377662
Si Si6 0.432248 0.440435 0.519659
Si Si7 0.087349 0.875005 0.565319
O O1 0.416634 0.840121 0.178906
O O2 0.559314 0.686229 0.016565
O O3 0.604356 0.805419 0.835739
O O4 0.605597 0.874238 0.994716
O O5 0.814086 0.506042 0.380725
O O6 0.840902 0.477091 0.176219
O O7 0.708302 0.357951 0.441031
O O8 0.108481 0.310089 0.669180
O O9 0.313441 0.360443 0.365609
O O10 0.156178 0.451329 0.494878
O O11 0.020892 0.827964 0.069789
O O12 0.309471 0.571703 0.220799
O O13 0.500000 0.500000 0.500000
O O14 0.428155 0.504624 0.436772
O O15 0.000000 0.834731 0.750000
#
# Coordination Sequence:
#
# PCOD8152022 Si02
#       7
#     8   8   8   8   8   8   8
#     4  12  26  46  70 106 148 193 242 305 375 441
#     4  11  26  49  71 103 155 189 238 316 368 447
#     4  11  24  46  77 107 146 194 251 307 372 440
#     4  11  23  45  76 107 141 187 252 312 360 433
#     4  11  25  45  71 102 150 196 239 300 387 439
#     4  11  21  45  72 101 142 191 241 315 367 428
#     4  11  26  43  72 106 141 193 248 294 372 448
#
# _framework density 22.748042000000002
#
# number of rings (size 3 to 8) (size 9 to 14) (size 15 to 20)
#    0.000    0.857    4.286    2.143    4.000    0.571 
#    0.000    2.857    0.000    0.000    0.000    0.000 
#    0.000    0.000    0.000    0.000    0.000    0.000 
#
# Total GULP energy -347153.471122 kJ/mol
# GULP energy per Si atom -12398.338254 kJ/mol
# Density = 2.269627 g / cm^3
# Si number density = 22.748042 Si / 1000 Ang^3
#
#
#
# Elastic Constant Matrix: (Units=GPa)
#
#
# Indices 1 2 3 4 5 6 
#
# 1 106.4337 52.3880 57.8472 0.0000 -4.0625 0.0000
# 2 52.3880 114.4221 57.8450 0.0000 -1.9244 0.0000
# 3 57.8472 57.8450 121.4233 0.0000 1.3298 0.0000
# 4 0.0000 0.0000 0.0000 36.0192 0.0000 0.1038
# 5 -4.0625 -1.9244 1.3298 0.0000 43.1174 0.0000
# 6 0.0000 0.0000 0.0000 0.1038 0.0000 39.3983
#
#
#
# Elastic Compliance Matrix: (Units=1/GPa)
#
#
# Indices 1 2 3 4 5 6 
#
# 1 0.014003 -0.003965 -0.004797 0.000000 0.001290 0.000000
# 2 -0.003965 0.012655 -0.004143 0.000000 0.000319 0.000000
# 3 -0.004797 -0.004143 0.012506 0.000000 -0.001023 0.000000
# 4 0.000000 0.000000 0.000000 0.027763 0.000000 -0.000073
# 5 0.001290 0.000319 -0.001023 0.000000 0.023360 0.000000
# 6 0.000000 0.000000 0.000000 -0.000073 0.000000 0.025382
#
#
# Mechanical properties :
#
#
# Convention : Reuss Voigt Hill
#
# Bulk Modulus (GPa) = 74.88099 75.38218 75.13159
# Shear Modulus (GPa) = 34.26305 35.32024 34.79164
#
# Velocity S-wave (km/s) = 3.88519 3.94467 3.91504
# Velocity P-wave (km/s) = 7.28802 7.34555 7.31684
#
# Compressibility (1/GPa) = 0.01335452
#
# Stress axis : x y z
#
# Youngs Moduli (GPa) = 71.41185 79.02148 79.96271
#
# Poissons Ratio (x) = 0.31330 0.38355
# Poissons Ratio (y) = 0.28313 0.33131
# Poissons Ratio (z) = 0.34254 0.32741
#
# Static dielectric constant tensor:
#      x y z
#    x 4.039350 0.000000 0.028330 
#    y 0.000000 4.065500 0.000000 
#    z 0.028330 0.000000 4.236980 
# 
# 
# High freq. dielectric constant tensor:
#      x y z
#    x 1.892410 0.000000 0.004030 
#    y 0.000000 1.901210 0.000000 
#    z 0.004030 0.000000 1.907460 
# 
# From -- ./inp_files/173786.got.cif
#   From: 2010.06.25/outbox.cif.g09.slc.cpg/sg15_87_cif.got.tgz:173786.got - 2010.06.28 07:06:18.
