data_PCOD8152223
_publ_section_title
;
Structure prediction by ZEFSAII (Michael W. Deem and Ramdas Pophale) SiO2 
 PCOD8152223
Probable space group: C 2/C
;
_chemical_formula_sum "Si O2"
_cell_formula_units_Z 52
_cell_length_a 19.714438
_cell_length_b 9.723356
_cell_length_c 16.986321
_cell_angle_alpha 90.000000
_cell_angle_beta 43.270784
_cell_angle_gamma 90.000000
_cell_volume 2231.895708
_symmetry_space_group_name_H-M "C 2/C"
_symmetry_group_IT_number 15
_symmetry_cell_setting 'monoclinic'
loop_
_space_group_symop_operation_xyz
x,y,z
-x,y,1/2-z
-x,-y,-z
x,-y,1/2+z
1/2+x,1/2+y,z
1/2-x,1/2+y,1/2-z
1/2-x,1/2-y,-z
1/2+x,1/2-y,1/2+z
loop_
_atom_site_type_symbol
_atom_site_label
_atom_site_fract_x
_atom_site_fract_y
_atom_site_fract_z
Si Si1 0.079682 0.322898 0.287198
Si Si2 0.162968 0.869447 0.579545
Si Si3 0.500000 0.578314 0.750000
Si Si4 0.342576 0.927250 0.680762
Si Si5 0.043582 0.166229 0.875396
Si Si6 0.122621 0.103102 0.374522
Si Si7 0.140573 0.377447 0.010927
O O1 0.130101 0.255206 0.167876
O O2 0.145919 0.437795 0.275340
O O3 0.066013 0.196451 0.358685
O O4 0.971723 0.392338 0.360886
O O5 0.166703 0.788185 0.492254
O O6 0.268980 0.939252 0.511983
O O7 0.082587 0.985530 0.639606
O O8 0.547796 0.670222 0.777286
O O9 0.429258 0.819116 0.622684
O O10 0.237054 0.858033 0.789381
O O11 0.349617 0.953681 0.581032
O O12 0.119011 0.054460 0.847512
O O13 0.932852 0.127308 0.996430
#
# Coordination Sequence:
#
# PCOD8152223 Si02
#       7
#     8   8   4   8   8   8   8
#     4  12  22  43  64  97 136 169 218 276 318 393
#     4  11  23  40  69  95 126 173 226 270 314 403
#     4  12  22  48  64  92 132 174 224 266 320 400
#     4  12  25  41  66 103 134 167 218 277 333 384
#     4  11  25  43  67  95 132 172 215 272 323 390
#     4  11  23  42  69  95 129 174 221 262 321 396
#     4  11  22  39  66 100 128 167 219 274 332 373
#
# _framework density 23.298580999999999
#
# number of rings (size 3 to 8) (size 9 to 14) (size 15 to 20)
#    0.000    0.615    6.154    1.385    2.154    1.231 
#    2.769    0.769    0.000    0.000    0.000    0.000 
#    0.000    0.000    0.000    0.000    0.000    0.000 
#
# Total GULP energy -322125.616787 kJ/mol
# GULP energy per Si atom -12389.446800 kJ/mol
# Density = 2.324555 g / cm^3
# Si number density = 23.298581 Si / 1000 Ang^3
#
#
#
# Elastic Constant Matrix: (Units=GPa)
#
#
# Indices 1 2 3 4 5 6 
#
# 1 87.3708 8.0459 16.9619 0.0000 -15.4772 0.0000
# 2 8.0459 61.9160 1.5633 0.0001 9.2146 -0.0001
# 3 16.9619 1.5633 62.9763 0.0000 -15.9402 0.0000
# 4 0.0000 0.0001 0.0000 14.3206 0.0000 4.4829
# 5 -15.4772 9.2146 -15.9402 0.0000 48.6341 0.0000
# 6 0.0000 -0.0001 0.0000 4.4829 0.0000 24.3770
#
#
#
# Elastic Compliance Matrix: (Units=1/GPa)
#
#
# Indices 1 2 3 4 5 6 
#
# 1 0.012769 -0.002142 -0.002459 0.000000 0.003664 0.000000
# 2 -0.002142 0.017080 -0.000914 0.000000 -0.004218 0.000000
# 3 -0.002459 -0.000914 0.017894 0.000000 0.005256 0.000000
# 4 0.000000 0.000000 0.000000 0.074095 0.000000 -0.013626
# 5 0.003664 -0.004218 0.005256 0.000000 0.024249 0.000000
# 6 0.000000 0.000000 0.000000 -0.013626 0.000000 0.043528
#
#
# Mechanical properties :
#
#
# Convention : Reuss Voigt Hill
#
# Bulk Modulus (GPa) = 27.23897 29.48945 28.36421
# Shear Modulus (GPa) = 23.48688 29.84579 26.66634
#
# Velocity S-wave (km/s) = 3.17848 3.58301 3.38679
# Velocity P-wave (km/s) = 5.01866 5.45911 5.24351
#
# Compressibility (1/GPa) = 0.03671211
#
# Stress axis : x y z
#
# Youngs Moduli (GPa) = 78.31411 58.54758 55.88395
#
# Poissons Ratio (x) = 0.12544 0.13740
# Poissons Ratio (y) = 0.16779 0.05111
# Poissons Ratio (z) = 0.19255 0.05354
#
# Static dielectric constant tensor:
#      x y z
#    x 4.395250 0.000000 -0.047160 
#    y 0.000000 3.855670 0.000000 
#    z -0.047160 0.000000 4.325760 
# 
# 
# High freq. dielectric constant tensor:
#      x y z
#    x 1.934590 0.000000 -0.011190 
#    y 0.000000 1.883450 0.000000 
#    z -0.011190 0.000000 1.925270 
# 
# From -- ./inp_files/214249.got.cif
#   From: 2010.06.25/outbox.cif.g09.slc.cpg/sg15_108_cif.got.tgz:214249.got - 2010.06.28 07:06:18.
