data_PCOD8152831
_publ_section_title
;
Structure prediction by ZEFSAII (Michael W. Deem and Ramdas Pophale) SiO2 
 PCOD8152831
Probable space group: C 2/C
;
_chemical_formula_sum "Si O2"
_cell_formula_units_Z 64
_cell_length_a 28.946571
_cell_length_b 14.052994
_cell_length_c 9.139302
_cell_angle_alpha 90.000000
_cell_angle_beta 99.675523
_cell_angle_gamma 90.000000
_cell_volume 3664.856480
_symmetry_space_group_name_H-M "C 2/C"
_symmetry_group_IT_number 15
_symmetry_cell_setting 'monoclinic'
loop_
_space_group_symop_operation_xyz
x,y,z
-x,y,1/2-z
-x,-y,-z
x,-y,1/2+z
1/2+x,1/2+y,z
1/2-x,1/2+y,1/2-z
1/2-x,1/2-y,-z
1/2+x,1/2-y,1/2+z
loop_
_atom_site_type_symbol
_atom_site_label
_atom_site_fract_x
_atom_site_fract_y
_atom_site_fract_z
Si Si1 0.367459 0.165677 0.764304
Si Si2 0.048149 0.601727 0.203404
Si Si3 0.252859 0.486848 0.659742
Si Si4 0.047959 0.601833 0.849043
Si Si5 0.310953 0.997927 0.622123
Si Si6 0.716133 0.693624 0.876003
Si Si7 0.774382 0.221118 0.157574
Si Si8 0.133188 0.312974 0.898366
O O1 0.412505 0.177980 0.681409
O O2 0.326147 0.237656 0.704708
O O3 0.350299 0.059244 0.722636
O O4 0.382607 0.177726 0.941065
O O5 0.060283 0.500583 0.284374
O O6 0.088021 0.677591 0.269755
O O7 0.000000 0.639181 0.250000
O O8 0.044622 0.594045 0.024235
O O9 0.238110 0.505797 0.818048
O O10 0.203772 0.466399 0.547095
O O11 0.279466 0.578978 0.609377
O O12 0.283842 0.391710 0.675144
O O13 0.000000 0.638281 0.750000
O O14 0.328405 0.891035 0.622296
O O15 0.734060 0.733034 0.733894
O O16 0.661123 0.714953 0.880749
O O17 0.750000 0.750000 0.000000
O O18 0.750000 0.250000 0.000000
#
# Coordination Sequence:
#
# PCOD8152831 Si02
#       8
#     8   8   8   8   8   8   8   8
#     4  12  23  36  52  82 111 152 192 233 284 337
#     4  11  23  38  58  83 110 146 187 236 286 346
#     4  12  22  36  52  76 112 156 196 238 272 329
#     4  11  23  38  58  82 113 143 187 236 288 345
#     4  12  20  32  53  74 108 150 191 226 271 325
#     4  12  21  38  53  77 111 157 197 230 280 339
#     4  12  23  34  53  81 115 149 197 240 284 334
#     4  12  23  35  56  77 112 152 196 228 282 342
#
# _framework density 17.463168
#
# number of rings (size 3 to 8) (size 9 to 14) (size 15 to 20)
#    0.000    0.250    8.750    3.000    3.500    0.000 
#    0.000    0.000    0.000    0.000    0.000    0.875 
#    0.000    4.000    0.000    0.000    0.000    0.000 
#
# Total GULP energy -396518.871428 kJ/mol
# GULP energy per Si atom -12391.214732 kJ/mol
# Density = 1.742342 g / cm^3
# Si number density = 17.463168 Si / 1000 Ang^3
#
#
#
# Elastic Constant Matrix: (Units=GPa)
#
#
# Indices 1 2 3 4 5 6 
#
# 1 111.3593 29.2400 45.4802 0.0000 -3.5786 0.0000
# 2 29.2400 68.2539 21.5125 0.0000 -3.1378 0.0000
# 3 45.4802 21.5125 134.2849 0.0000 -4.6054 0.0000
# 4 0.0000 0.0000 0.0000 16.1844 0.0000 -0.1178
# 5 -3.5786 -3.1378 -4.6054 0.0000 30.4796 0.0000
# 6 0.0000 0.0000 0.0000 -0.1178 0.0000 27.9501
#
#
#
# Elastic Compliance Matrix: (Units=1/GPa)
#
#
# Indices 1 2 3 4 5 6 
#
# 1 0.011303 -0.003812 -0.003202 0.000000 0.000451 0.000000
# 2 -0.003812 0.016761 -0.001357 0.000000 0.001073 0.000000
# 3 -0.003202 -0.001357 0.008777 0.000000 0.000810 0.000000
# 4 0.000000 0.000000 0.000000 0.061790 0.000000 0.000260
# 5 0.000451 0.001073 0.000810 0.000000 0.033095 0.000000
# 6 0.000000 0.000000 0.000000 0.000260 0.000000 0.035779
#
#
# Mechanical properties :
#
#
# Convention : Reuss Voigt Hill
#
# Bulk Modulus (GPa) = 49.75604 56.26261 53.00932
# Shear Modulus (GPa) = 26.18524 29.43386 27.80955
#
# Velocity S-wave (km/s) = 3.87648 4.10992 3.99490
# Velocity P-wave (km/s) = 6.97065 7.40336 7.19026
#
# Compressibility (1/GPa) = 0.02009806
#
# Stress axis : x y z
#
# Youngs Moduli (GPa) = 88.47069 59.66060 113.94003
#
# Poissons Ratio (x) = 0.22745 0.36484
# Poissons Ratio (y) = 0.33728 0.15464
# Poissons Ratio (z) = 0.28328 0.08097
#
# Static dielectric constant tensor:
#      x y z
#    x 3.334690 0.000000 -0.141610 
#    y 0.000000 3.136550 0.000000 
#    z -0.141610 0.000000 3.552390 
# 
# 
# High freq. dielectric constant tensor:
#      x y z
#    x 1.661350 0.000000 -0.007870 
#    y 0.000000 1.638340 0.000000 
#    z -0.007870 0.000000 1.702410 
# 
# From -- ./inp_files/66237.got.cif
#   From: 2010.06.25/outbox.cif.g09.slc.cpg/sg15_34_cif.got.tgz:66237.got - 2010.06.28 07:06:18.
