data_PCOD8152497
_publ_section_title
;
Structure prediction by ZEFSAII (Michael W. Deem and Ramdas Pophale) SiO2 
 PCOD8152497
Probable space group: C 2/C
;
_chemical_formula_sum "Si O2"
_cell_formula_units_Z 56
_cell_length_a 9.208037
_cell_length_b 15.437322
_cell_length_c 25.381088
_cell_angle_alpha 90.000000
_cell_angle_beta 45.341190
_cell_angle_gamma 90.000000
_cell_volume 2566.286217
_symmetry_space_group_name_H-M "C 2/C"
_symmetry_group_IT_number 15
_symmetry_cell_setting 'monoclinic'
loop_
_space_group_symop_operation_xyz
x,y,z
-x,y,1/2-z
-x,-y,-z
x,-y,1/2+z
1/2+x,1/2+y,z
1/2-x,1/2+y,1/2-z
1/2-x,1/2-y,-z
1/2+x,1/2-y,1/2+z
loop_
_atom_site_type_symbol
_atom_site_label
_atom_site_fract_x
_atom_site_fract_y
_atom_site_fract_z
Si Si1 0.448157 0.781361 0.604886
Si Si2 0.384178 0.150682 0.830129
Si Si3 0.913448 0.022231 0.464810
Si Si4 0.024774 0.588113 0.900410
Si Si5 0.239901 0.641600 0.949429
Si Si6 0.280224 0.034685 0.310069
Si Si7 0.231997 0.935511 0.706029
O O1 0.300129 0.715990 0.611086
O O2 0.619839 0.726364 0.590879
O O3 0.548164 0.844200 0.536412
O O4 0.331468 0.839825 0.678025
O O5 0.500000 0.189942 0.750000
O O6 0.526171 0.144676 0.846137
O O7 0.308357 0.054753 0.834758
O O8 0.869817 0.938880 0.438964
O O9 0.709923 0.078487 0.521556
O O10 0.000000 0.000000 0.500000
O O11 0.092175 0.079495 0.389691
O O12 0.157006 0.632449 0.911679
O O13 0.129263 0.495195 0.866254
O O14 0.500000 0.085021 0.250000
O O15 0.218439 0.019811 0.266141
O O16 0.000000 0.927807 0.750000
#
# Coordination Sequence:
#
# PCOD8152497 Si02
#       7
#     8   8   8   8   8   8   8
#     4  11  25  46  64  97 144 181 218 285 357 406
#     4  11  22  45  70  94 136 186 224 274 353 411
#     4  12  21  41  74 102 134 182 229 287 337 405
#     4  12  24  43  75 103 133 181 246 279 332 412
#     4  11  25  42  70 101 139 178 233 286 339 409
#     4  11  22  42  68  99 133 178 230 275 340 419
#     4  12  25  42  70 104 138 176 233 295 338 400
#
# _framework density 21.821415999999999
#
# number of rings (size 3 to 8) (size 9 to 14) (size 15 to 20)
#    0.000    0.571    7.143    1.714    2.000    0.571 
#    0.000    2.857    0.000    0.000    0.000    0.000 
#    0.000    0.000    0.000    0.000    0.000    0.000 
#
# Total GULP energy -347001.901439 kJ/mol
# GULP energy per Si atom -12392.925051 kJ/mol
# Density = 2.177175 g / cm^3
# Si number density = 21.821416 Si / 1000 Ang^3
#
#
#
# Elastic Constant Matrix: (Units=GPa)
#
#
# Indices 1 2 3 4 5 6 
#
# 1 165.5164 42.3541 73.7278 0.0011 18.8932 -0.0008
# 2 42.3541 48.4000 28.1221 -0.0004 5.9442 -0.0006
# 3 73.7278 28.1221 147.5147 0.0025 -13.5513 -0.0071
# 4 0.0011 -0.0004 0.0025 14.6197 -0.0027 -2.3319
# 5 18.8932 5.9442 -13.5513 -0.0027 50.0847 0.0008
# 6 -0.0008 -0.0006 -0.0071 -2.3319 0.0008 19.6832
#
#
#
# Elastic Compliance Matrix: (Units=1/GPa)
#
#
# Indices 1 2 3 4 5 6 
#
# 1 0.009850 -0.005646 -0.004231 -0.000001 -0.004190 -0.000001
# 2 -0.005646 0.027304 -0.002549 0.000001 -0.001800 0.000000
# 3 -0.004231 -0.002549 0.009798 0.000000 0.004550 0.000003
# 4 -0.000001 0.000001 0.000000 0.069718 0.000004 0.008260
# 5 -0.004190 -0.001800 0.004550 0.000004 0.022991 0.000001
# 6 -0.000001 0.000000 0.000003 0.008260 0.000001 0.051783
#
#
# Mechanical properties :
#
#
# Convention : Reuss Voigt Hill
#
# Bulk Modulus (GPa) = 45.25111 72.20436 58.72773
# Shear Modulus (GPa) = 22.35507 31.35932 26.85720
#
# Velocity S-wave (km/s) = 3.20418 3.79501 3.51204
# Velocity P-wave (km/s) = 5.87121 7.23625 6.58918
#
# Compressibility (1/GPa) = 0.02209891
#
# Stress axis : x y z
#
# Youngs Moduli (GPa) = 101.52664 36.62482 102.06505
#
# Poissons Ratio (x) = 0.20678 0.43188
# Poissons Ratio (y) = 0.57322 0.26013
# Poissons Ratio (z) = 0.42960 0.09335
#
# Static dielectric constant tensor:
#      x y z
#    x 4.030800 0.000010 -0.445210 
#    y 0.000010 3.621180 0.000000 
#    z -0.445210 0.000000 4.320600 
# 
# 
# High freq. dielectric constant tensor:
#      x y z
#    x 1.869740 0.000000 -0.013230 
#    y 0.000000 1.820690 0.000000 
#    z -0.013230 0.000000 1.877060 
# 
# From -- ./inp_files/265493.got.cif
#   From: 2010.06.25/outbox.cif.g09.slc.cpg/sg15_133_cif.got.tgz:265493.got - 2010.06.28 07:06:18.
