data_PCOD8152354
_publ_section_title
;
Structure prediction by ZEFSAII (Michael W. Deem and Ramdas Pophale) SiO2 
 PCOD8152354
Probable space group: C 2/C
;
_chemical_formula_sum "Si O2"
_cell_formula_units_Z 48
_cell_length_a 14.910325
_cell_length_b 15.793438
_cell_length_c 14.455497
_cell_angle_alpha 90.000000
_cell_angle_beta 142.309271
_cell_angle_gamma 90.000000
_cell_volume 2081.237033
_symmetry_space_group_name_H-M "C 2/C"
_symmetry_group_IT_number 15
_symmetry_cell_setting 'monoclinic'
loop_
_space_group_symop_operation_xyz
x,y,z
-x,y,1/2-z
-x,-y,-z
x,-y,1/2+z
1/2+x,1/2+y,z
1/2-x,1/2+y,1/2-z
1/2-x,1/2-y,-z
1/2+x,1/2-y,1/2+z
loop_
_atom_site_type_symbol
_atom_site_label
_atom_site_fract_x
_atom_site_fract_y
_atom_site_fract_z
Si Si1 0.325546 0.503215 0.843353
Si Si2 0.000000 0.130810 0.750000
Si Si3 0.337860 0.680637 0.787270
Si Si4 0.713304 0.514383 0.483886
Si Si5 0.461348 0.757032 0.401354
Si Si6 0.890754 0.438395 0.963346
Si Si7 0.000000 0.159874 0.250000
O O1 0.286260 0.583667 0.748170
O O2 0.257060 0.428172 0.723058
O O3 0.500000 0.500000 0.000000
O O4 0.239300 0.511708 0.869959
O O5 0.926046 0.194353 0.763747
O O6 0.880388 0.070574 0.605228
O O7 0.195829 0.739627 0.676187
O O8 0.442541 0.693100 0.960496
O O9 0.853430 0.517382 0.531255
O O10 0.627273 0.601331 0.394370
O O11 0.539892 0.847626 0.461656
O O12 0.439115 0.721229 0.280311
O O13 0.000000 0.500000 0.000000
#
# Coordination Sequence:
#
# PCOD8152354 Si02
#       7
#     8   4   8   8   8   8   4
#     4  12  23  44  72 100 134 186 234 281 346 421
#     4  11  22  44  72  97 136 180 244 277 334 420
#     4  12  26  46  68 104 139 186 228 293 349 419
#     4  11  22  40  74 103 132 185 234 281 349 422
#     4  12  28  44  69 105 149 180 228 293 363 419
#     4  12  26  46  67 103 145 180 230 292 344 417
#     4  11  24  42  70 111 140 182 226 293 366 418
#
# _framework density 23.063205
#
# number of rings (size 3 to 8) (size 9 to 14) (size 15 to 20)
#    0.000    0.333    6.667    2.000    4.667    2.667 
#    0.000    1.667    0.000    0.000    0.000    0.000 
#    0.000    0.000    0.000    0.000    0.000    0.000 
#
# Total GULP energy -297620.145155 kJ/mol
# GULP energy per Si atom -12400.839381 kJ/mol
# Density = 2.301071 g / cm^3
# Si number density = 23.063205 Si / 1000 Ang^3
#
#
#
# Elastic Constant Matrix: (Units=GPa)
#
#
# Indices 1 2 3 4 5 6 
#
# 1 198.3089 30.3191 33.6931 0.0000 -8.9715 -0.0001
# 2 30.3191 69.7338 9.1478 0.0000 -0.0773 -0.0001
# 3 33.6931 9.1478 70.0706 -0.0001 -4.9356 -0.0001
# 4 0.0000 0.0000 -0.0001 26.0984 0.0001 -3.8543
# 5 -8.9715 -0.0773 -4.9356 0.0001 40.1249 0.0000
# 6 -0.0001 -0.0001 -0.0001 -3.8543 0.0000 34.4036
#
#
#
# Elastic Compliance Matrix: (Units=1/GPa)
#
#
# Indices 1 2 3 4 5 6 
#
# 1 0.005843 -0.002218 -0.002450 0.000000 0.001001 0.000000
# 2 -0.002218 0.015434 -0.000990 0.000000 -0.000588 0.000000
# 3 -0.002450 -0.000990 0.015676 0.000000 0.001379 0.000000
# 4 0.000000 0.000000 0.000000 0.038961 0.000000 0.004365
# 5 0.001001 -0.000588 0.001379 0.000000 0.025314 0.000000
# 6 0.000000 0.000000 0.000000 0.004365 0.000000 0.029556
#
#
# Mechanical properties :
#
#
# Convention : Reuss Voigt Hill
#
# Bulk Modulus (GPa) = 39.00510 53.82592 46.41551
# Shear Modulus (GPa) = 33.19067 37.78893 35.48980
#
# Velocity S-wave (km/s) = 3.79769 4.05222 3.92702
# Velocity P-wave (km/s) = 6.01489 6.72927 6.38208
#
# Compressibility (1/GPa) = 0.02563767
#
# Stress axis : x y z
#
# Youngs Moduli (GPa) = 171.13807 64.79275 63.79367
#
# Poissons Ratio (x) = 0.14372 0.15627
# Poissons Ratio (y) = 0.37960 0.06314
# Poissons Ratio (z) = 0.41922 0.06413
#
# Static dielectric constant tensor:
#      x y z
#    x 4.578530 0.000000 -0.045370 
#    y 0.000000 4.049860 0.000000 
#    z -0.045370 0.000000 4.267400 
# 
# 
# High freq. dielectric constant tensor:
#      x y z
#    x 1.930550 0.000000 -0.004250 
#    y 0.000000 1.902080 0.000000 
#    z -0.004250 0.000000 1.903740 
# 
# From -- ./inp_files/155297.got.cif
#   From: 2010.06.25/outbox.cif.g09.slc.cpg/sg15_78_cif.got.tgz:155297.got - 2010.06.28 07:06:18.
