data_PCOD8152133
_publ_section_title
;
Structure prediction by ZEFSAII (Michael W. Deem and Ramdas Pophale) SiO2 
 PCOD8152133
Probable space group: C 2/C
;
_chemical_formula_sum "Si O2"
_cell_formula_units_Z 56
_cell_length_a 26.474842
_cell_length_b 15.069552
_cell_length_c 25.672135
_cell_angle_alpha 90.000000
_cell_angle_beta 162.938268
_cell_angle_gamma 90.000000
_cell_volume 3005.097748
_symmetry_space_group_name_H-M "C 2/C"
_symmetry_group_IT_number 15
_symmetry_cell_setting 'monoclinic'
loop_
_space_group_symop_operation_xyz
x,y,z
-x,y,1/2-z
-x,-y,-z
x,-y,1/2+z
1/2+x,1/2+y,z
1/2-x,1/2+y,1/2-z
1/2-x,1/2-y,-z
1/2+x,1/2-y,1/2+z
loop_
_atom_site_type_symbol
_atom_site_label
_atom_site_fract_x
_atom_site_fract_y
_atom_site_fract_z
Si Si1 0.454449 0.102257 0.044740
Si Si2 0.606799 0.175796 0.624033
Si Si3 0.467262 0.379553 0.160977
Si Si4 0.250753 0.140009 0.300508
Si Si5 0.902957 0.005497 0.800023
Si Si6 0.765270 0.997243 0.806808
Si Si7 0.419086 0.812947 0.726797
O O1 0.462604 0.171309 0.004210
O O2 0.268401 0.059538 0.856854
O O3 0.608756 0.031225 0.190630
O O4 0.469944 0.148156 0.116263
O O5 0.448917 0.160503 0.508533
O O6 0.670067 0.274444 0.694874
O O7 0.750630 0.102316 0.779465
O O8 0.500000 0.418207 0.250000
O O9 0.519119 0.463392 0.177511
O O10 0.588944 0.293291 0.273146
O O11 0.271906 0.350831 0.958415
O O12 0.247740 0.055822 0.259228
O O13 0.147255 0.100632 0.248846
O O14 0.049463 0.024681 0.987054
O O15 0.500000 0.836652 0.750000
#
# Coordination Sequence:
#
# PCOD8152133 Si02
#       7
#     8   8   8   8   8   8   8
#     4  11  22  38  59  87 120 162 196 245 291 349
#     4  11  23  39  58  85 126 158 205 241 295 349
#     4  11  23  39  59  88 117 156 200 246 299 358
#     4  11  23  37  58  85 117 161 198 249 287 350
#     4  12  22  37  61  83 118 157 196 242 296 348
#     4  11  22  41  55  86 123 154 210 236 291 354
#     4  11  22  40  59  87 122 154 201 246 293 360
#
# _framework density 18.635000999999999
#
# number of rings (size 3 to 8) (size 9 to 14) (size 15 to 20)
#    0.000    0.857    4.286    5.571    4.000    1.143 
#    0.000    0.000    0.000    0.000    0.000    5.000 
#    0.000    0.000    0.000    0.000    0.000    0.000 
#
# Total GULP energy -347023.270580 kJ/mol
# GULP energy per Si atom -12393.688235 kJ/mol
# Density = 1.859259 g / cm^3
# Si number density = 18.635001 Si / 1000 Ang^3
#
#
#
# Elastic Constant Matrix: (Units=GPa)
#
#
# Indices 1 2 3 4 5 6 
#
# 1 92.9247 52.8496 33.1113 -0.0256 -5.0602 -0.0118
# 2 52.8496 104.5596 28.9079 -0.0377 1.9102 -0.0169
# 3 33.1113 28.9079 115.0398 0.0056 9.6414 -0.0035
# 4 -0.0256 -0.0377 0.0056 30.2036 0.0077 2.3004
# 5 -5.0602 1.9102 9.6414 0.0077 29.9979 -0.0026
# 6 -0.0118 -0.0169 -0.0035 2.3004 -0.0026 31.7464
#
#
#
# Elastic Compliance Matrix: (Units=1/GPa)
#
#
# Indices 1 2 3 4 5 6 
#
# 1 0.016384 -0.007476 -0.003195 0.000004 0.004267 0.000002
# 2 -0.007476 0.013690 -0.001140 0.000011 -0.001766 0.000003
# 3 -0.003195 -0.001140 0.010213 -0.000005 -0.003749 -0.000001
# 4 0.000004 0.000011 -0.000005 0.033292 -0.000007 -0.002412
# 5 0.004267 -0.001766 -0.003749 -0.000007 0.035373 0.000004
# 6 0.000002 0.000003 -0.000001 -0.002412 0.000004 0.031674
#
#
# Mechanical properties :
#
#
# Convention : Reuss Voigt Hill
#
# Bulk Modulus (GPa) = 60.00587 60.25130 60.12859
# Shear Modulus (GPa) = 29.44579 31.56659 30.50619
#
# Velocity S-wave (km/s) = 3.97940 4.12022 4.05042
# Velocity P-wave (km/s) = 7.30648 7.41872 7.36282
#
# Compressibility (1/GPa) = 0.01666504
#
# Stress axis : x y z
#
# Youngs Moduli (GPa) = 61.03547 73.04503 97.91547
#
# Poissons Ratio (x) = 0.54608 0.31281
# Poissons Ratio (y) = 0.45630 0.11166
# Poissons Ratio (z) = 0.19499 0.08330
#
# Static dielectric constant tensor:
#      x y z
#    x 3.613140 -0.000050 0.177770 
#    y -0.000050 3.531900 -0.000050 
#    z 0.177770 -0.000050 3.708840 
# 
# 
# High freq. dielectric constant tensor:
#      x y z
#    x 1.702320 0.000000 0.015730 
#    y 0.000000 1.706490 -0.000010 
#    z 0.015730 -0.000010 1.749310 
# 
# From -- ./inp_files/282071.got.cif
#   From: 2010.06.25/outbox.cif.g09.slc.cpg/sg15_142_cif.got.tgz:282071.got - 2010.06.28 07:06:18.
