data_PCOD8152047
_publ_section_title
;
Structure prediction by ZEFSAII (Michael W. Deem and Ramdas Pophale) SiO2 
 PCOD8152047
Probable space group: C 2/C
;
_chemical_formula_sum "Si O2"
_cell_formula_units_Z 64
_cell_length_a 14.794585
_cell_length_b 11.667737
_cell_length_c 26.959243
_cell_angle_alpha 90.000000
_cell_angle_beta 137.349257
_cell_angle_gamma 90.000000
_cell_volume 3153.001035
_symmetry_space_group_name_H-M "C 2/C"
_symmetry_group_IT_number 15
_symmetry_cell_setting 'monoclinic'
loop_
_space_group_symop_operation_xyz
x,y,z
-x,y,1/2-z
-x,-y,-z
x,-y,1/2+z
1/2+x,1/2+y,z
1/2-x,1/2+y,1/2-z
1/2-x,1/2-y,-z
1/2+x,1/2-y,1/2+z
loop_
_atom_site_type_symbol
_atom_site_label
_atom_site_fract_x
_atom_site_fract_y
_atom_site_fract_z
Si Si1 0.128033 0.264120 0.414113
Si Si2 0.393818 0.973512 0.587595
Si Si3 0.646356 0.402435 0.831442
Si Si4 0.732946 0.605868 0.932408
Si Si5 0.116691 0.122535 0.148791
Si Si6 0.666736 0.154424 0.182764
Si Si7 0.488947 0.376400 0.398650
Si Si8 0.174551 0.844596 0.559345
O O1 0.250000 0.250000 0.500000
O O2 0.100681 0.396459 0.391283
O O3 0.161242 0.201216 0.376114
O O4 0.999712 0.213038 0.389558
O O5 0.328641 0.968197 0.506651
O O6 0.542388 0.925720 0.644771
O O7 0.308062 0.902384 0.592394
O O8 0.500000 0.398529 0.750000
O O9 0.669642 0.524923 0.865692
O O10 0.755017 0.393884 0.832510
O O11 0.615105 0.664083 0.916830
O O12 0.816517 0.706869 0.940636
O O13 0.242233 0.157973 0.232085
O O14 0.161183 0.118725 0.110256
O O15 0.064176 0.997228 0.142902
O O16 0.626561 0.283851 0.153407
O O17 0.541895 0.385959 0.476579
#
# Coordination Sequence:
#
# PCOD8152047 Si02
#       8
#     8   8   8   8   8   8   8   8
#     4  12  25  46  71 100 136 174 233 281 335 411
#     4  11  24  45  69 102 136 174 224 290 330 405
#     4  12  26  46  67  99 138 185 220 283 355 401
#     4  11  21  46  72  98 133 174 232 276 335 401
#     4  12  28  43  66 104 135 184 223 278 348 405
#     4  12  27  44  68 100 139 177 228 282 342 402
#     4  11  22  47  70  93 138 179 222 280 328 410
#     4  11  24  44  71 101 133 176 233 270 342 398
#
# _framework density 20.298120999999998
#
# number of rings (size 3 to 8) (size 9 to 14) (size 15 to 20)
#    0.000    0.500    6.250    1.875    7.000    2.000 
#    0.000    0.000    0.000    0.000    0.000    0.000 
#    0.000    0.000    0.000    0.000    0.000    0.000 
#
# Total GULP energy -397028.640505 kJ/mol
# GULP energy per Si atom -12407.145016 kJ/mol
# Density = 2.025192 g / cm^3
# Si number density = 20.298121 Si / 1000 Ang^3
#
#
#
# Elastic Constant Matrix: (Units=GPa)
#
#
# Indices 1 2 3 4 5 6 
#
# 1 88.4239 28.2401 60.9873 0.0000 5.0891 0.0000
# 2 28.2401 112.5930 30.5218 0.0000 2.9244 0.0000
# 3 60.9873 30.5218 154.6835 0.0000 4.9636 0.0000
# 4 0.0000 0.0000 0.0000 20.7523 0.0000 -9.8233
# 5 5.0891 2.9244 4.9636 0.0000 30.1353 0.0000
# 6 0.0000 0.0000 0.0000 -9.8233 0.0000 15.4741
#
#
#
# Elastic Compliance Matrix: (Units=1/GPa)
#
#
# Indices 1 2 3 4 5 6 
#
# 1 0.016222 -0.002439 -0.005865 0.000000 -0.001537 0.000000
# 2 -0.002439 0.009761 -0.000952 0.000000 -0.000379 0.000000
# 3 -0.005865 -0.000952 0.008978 0.000000 -0.000396 0.000000
# 4 0.000000 0.000000 0.000000 0.068889 0.000000 0.043732
# 5 -0.001537 -0.000379 -0.000396 0.000000 0.033545 0.000000
# 6 0.000000 0.000000 0.000000 0.043732 0.000000 0.092387
#
#
# Mechanical properties :
#
#
# Convention : Reuss Voigt Hill
#
# Bulk Modulus (GPa) = 60.79721 66.13320 63.46521
# Shear Modulus (GPa) = 19.70232 29.00240 24.35236
#
# Velocity S-wave (km/s) = 3.11890 3.78408 3.46748
# Velocity P-wave (km/s) = 6.55646 7.19333 6.88227
#
# Compressibility (1/GPa) = 0.01644812
#
# Stress axis : x y z
#
# Youngs Moduli (GPa) = 61.64515 102.44600 111.38399
#
# Poissons Ratio (x) = 0.24985 0.65330
# Poissons Ratio (y) = 0.15034 0.10608
# Poissons Ratio (z) = 0.36157 0.09757
#
# Static dielectric constant tensor:
#      x y z
#    x 3.735950 0.000000 0.083530 
#    y 0.000000 3.660270 0.000000 
#    z 0.083530 0.000000 3.728280 
# 
# 
# High freq. dielectric constant tensor:
#      x y z
#    x 1.797580 0.000000 0.003600 
#    y 0.000000 1.805410 0.000000 
#    z 0.003600 0.000000 1.800360 
# 
# From -- ./inp_files/296153.got.cif
#   From: 2010.06.25/outbox.cif.g09.slc.cpg/sg15_149_cif.got.tgz:296153.got - 2010.06.28 07:06:18.
