data_PCOD8152415
_publ_section_title
;
Structure prediction by ZEFSAII (Michael W. Deem and Ramdas Pophale) SiO2 
 PCOD8152415
Probable space group: C 2/C
;
_chemical_formula_sum "Si O2"
_cell_formula_units_Z 40
_cell_length_a 15.551015
_cell_length_b 24.970654
_cell_length_c 8.194411
_cell_angle_alpha 90.000000
_cell_angle_beta 36.764931
_cell_angle_gamma 90.000000
_cell_volume 1904.560522
_symmetry_space_group_name_H-M "C 2/C"
_symmetry_group_IT_number 15
_symmetry_cell_setting 'monoclinic'
loop_
_space_group_symop_operation_xyz
x,y,z
-x,y,1/2-z
-x,-y,-z
x,-y,1/2+z
1/2+x,1/2+y,z
1/2-x,1/2+y,1/2-z
1/2-x,1/2-y,-z
1/2+x,1/2-y,1/2+z
loop_
_atom_site_type_symbol
_atom_site_label
_atom_site_fract_x
_atom_site_fract_y
_atom_site_fract_z
Si Si1 0.837466 0.254531 0.031979
Si Si2 0.343729 0.932413 0.554445
Si Si3 0.177367 0.855820 0.337056
Si Si4 0.659125 0.048700 0.060646
Si Si5 0.130073 0.159237 0.286778
O O1 0.000000 0.244120 0.750000
O O2 0.750000 0.250000 0.000000
O O3 0.810889 0.315411 0.121899
O O4 0.798882 0.212193 0.236703
O O5 0.342026 0.940982 0.747722
O O6 0.217422 0.890558 0.721686
O O7 0.300306 0.987051 0.530182
O O8 0.500000 0.912409 0.250000
O O9 0.134936 0.846420 0.586680
O O10 0.043171 0.843031 0.418028
O O11 0.230808 0.915112 0.210467
O O12 0.500000 0.062483 0.250000
#
# Coordination Sequence:
#
# PCOD8152415 Si02
#       5
#     8   8   8   8   8
#     4  12  24  43  67  95 132 173 223 273 331 392
#     4  11  23  41  67  97 131 171 217 270 327 398
#     4  11  24  44  66  95 132 174 219 275 327 394
#     4  11  22  41  68  96 131 170 219 267 330 395
#     4  11  25  43  64  95 135 171 223 269 331 394
#
# _framework density 21.002220999999999
#
# number of rings (size 3 to 8) (size 9 to 14) (size 15 to 20)
#    0.000    0.800    2.000    7.200    0.000    2.400 
#    3.600    0.000    0.000    0.000    0.000    0.000 
#    0.000    0.000    0.000    0.000    0.000    0.000 
#
# Total GULP energy -247787.495692 kJ/mol
# GULP energy per Si atom -12389.374785 kJ/mol
# Density = 2.095442 g / cm^3
# Si number density = 21.002221 Si / 1000 Ang^3
#
#
#
# Elastic Constant Matrix: (Units=GPa)
#
#
# Indices 1 2 3 4 5 6 
#
# 1 136.6227 45.7186 37.4651 0.0000 0.6637 0.0000
# 2 45.7186 110.5483 39.8825 0.0000 -7.0362 0.0000
# 3 37.4651 39.8825 76.7628 0.0000 1.7677 0.0000
# 4 0.0000 0.0000 0.0000 41.5594 0.0000 0.4801
# 5 0.6637 -7.0362 1.7677 0.0000 24.3025 0.0000
# 6 0.0000 0.0000 0.0000 0.4801 0.0000 41.9492
#
#
#
# Elastic Compliance Matrix: (Units=1/GPa)
#
#
# Indices 1 2 3 4 5 6 
#
# 1 0.009052 -0.002718 -0.002987 0.000000 -0.000817 0.000000
# 2 -0.002718 0.012281 -0.005147 0.000000 0.004004 0.000000
# 3 -0.002987 -0.005147 0.017220 0.000000 -0.002661 0.000000
# 4 0.000000 0.000000 0.000000 0.024065 0.000000 -0.000275
# 5 -0.000817 0.004004 -0.002661 0.000000 0.042523 0.000000
# 6 0.000000 0.000000 0.000000 -0.000275 0.000000 0.023842
#
#
# Mechanical properties :
#
#
# Convention : Reuss Voigt Hill
#
# Bulk Modulus (GPa) = 59.34508 63.34071 61.34289
# Shear Modulus (GPa) = 31.98902 34.95338 33.47120
#
# Velocity S-wave (km/s) = 3.90696 4.08397 3.99645
# Velocity P-wave (km/s) = 6.97641 7.24313 7.11102
#
# Compressibility (1/GPa) = 0.01685060
#
# Stress axis : x y z
#
# Youngs Moduli (GPa) = 110.47254 81.42350 58.07122
#
# Poissons Ratio (x) = 0.22130 0.17346
# Poissons Ratio (y) = 0.30026 0.29887
# Poissons Ratio (z) = 0.32998 0.41905
#
# Static dielectric constant tensor:
#      x y z
#    x 4.111450 0.000000 -0.647330 
#    y 0.000000 3.893650 0.000000 
#    z -0.647330 0.000000 5.311700 
# 
# 
# High freq. dielectric constant tensor:
#      x y z
#    x 1.844460 0.000000 0.006360 
#    y 0.000000 1.827840 0.000000 
#    z 0.006360 0.000000 1.825430 
# 
# From -- ./inp_files/41928.got.cif
#   From: 2010.06.25/outbox.cif.g09.slc.cpg/sg15_21_cif.got.tgz:41928.got - 2010.06.28 07:06:18.
