data_PCOD8152769
_publ_section_title
;
Structure prediction by ZEFSAII (Michael W. Deem and Ramdas Pophale) SiO2 
 PCOD8152769
Probable space group: C 2/C
;
_chemical_formula_sum "Si O2"
_cell_formula_units_Z 48
_cell_length_a 11.968891
_cell_length_b 13.818028
_cell_length_c 15.039072
_cell_angle_alpha 90.000000
_cell_angle_beta 54.632733
_cell_angle_gamma 90.000000
_cell_volume 2028.256791
_symmetry_space_group_name_H-M "C 2/C"
_symmetry_group_IT_number 15
_symmetry_cell_setting 'monoclinic'
loop_
_space_group_symop_operation_xyz
x,y,z
-x,y,1/2-z
-x,-y,-z
x,-y,1/2+z
1/2+x,1/2+y,z
1/2-x,1/2+y,1/2-z
1/2-x,1/2-y,-z
1/2+x,1/2-y,1/2+z
loop_
_atom_site_type_symbol
_atom_site_label
_atom_site_fract_x
_atom_site_fract_y
_atom_site_fract_z
Si Si1 0.788042 0.271652 0.745387
Si Si2 0.207121 0.508405 0.217318
Si Si3 0.753581 0.478615 0.998281
Si Si4 0.526685 0.405902 0.339438
Si Si5 0.722705 0.825349 0.937454
Si Si6 0.092562 0.374424 0.418485
O O1 0.825677 0.378285 0.759937
O O2 0.924122 0.205303 0.675793
O O3 0.718075 0.280341 0.680539
O O4 0.682037 0.221535 0.861254
O O5 0.362825 0.479990 0.170449
O O6 0.107618 0.447745 0.327867
O O7 0.178744 0.487291 0.126111
O O8 0.617316 0.415092 0.041938
O O9 0.703030 0.574144 0.074261
O O10 0.861710 0.422365 0.009882
O O11 0.500000 0.434258 0.250000
O O12 0.750000 0.750000 0.000000
O O13 0.562603 0.845439 0.998802
#
# Coordination Sequence:
#
# PCOD8152769 Si02
#       6
#     8   8   8   8   8   8
#     4  11  25  44  72 107 146 191 249 302 371 450
#     4  11  25  45  75 106 145 201 241 310 380 436
#     4  12  25  47  74 103 149 198 241 318 377 437
#     4  11  22  46  71 106 150 186 251 307 366 451
#     4  12  27  48  76 107 143 201 250 309 375 441
#     4  11  26  51  68 112 154 184 256 308 367 456
#
# _framework density 23.665644
#
# number of rings (size 3 to 8) (size 9 to 14) (size 15 to 20)
#    0.000    0.667    5.000    3.000    4.667    4.667 
#    0.000    0.000    0.000    0.000    0.000    0.000 
#    0.000    0.000    0.000    0.000    0.000    0.000 
#
# Total GULP energy -297618.051900 kJ/mol
# GULP energy per Si atom -12400.752163 kJ/mol
# Density = 2.361178 g / cm^3
# Si number density = 23.665644 Si / 1000 Ang^3
#
#
#
# Elastic Constant Matrix: (Units=GPa)
#
#
# Indices 1 2 3 4 5 6 
#
# 1 107.8806 45.6555 34.7839 0.0000 23.9049 0.0000
# 2 45.6555 127.5759 8.6360 0.0000 -0.3848 0.0000
# 3 34.7839 8.6360 72.5733 0.0000 35.7691 0.0000
# 4 0.0000 0.0000 0.0000 34.5867 0.0000 10.4317
# 5 23.9049 -0.3848 35.7691 0.0000 49.2104 0.0000
# 6 0.0000 0.0000 0.0000 10.4317 0.0000 45.3990
#
#
#
# Elastic Compliance Matrix: (Units=1/GPa)
#
#
# Indices 1 2 3 4 5 6 
#
# 1 0.013262 -0.004479 -0.004100 0.000000 -0.003497 0.000000
# 2 -0.004479 0.009458 -0.000136 0.000000 0.002349 0.000000
# 3 -0.004100 -0.000136 0.023030 0.000000 -0.014749 0.000000
# 4 0.000000 0.000000 0.000000 0.031066 0.000000 -0.007138
# 5 -0.003497 0.002349 -0.014749 0.000000 0.032759 0.000000
# 6 0.000000 0.000000 0.000000 -0.007138 0.000000 0.023667
#
#
# Mechanical properties :
#
#
# Convention : Reuss Voigt Hill
#
# Bulk Modulus (GPa) = 35.31172 54.02007 44.66589
# Shear Modulus (GPa) = 31.22851 40.43619 35.83235
#
# Velocity S-wave (km/s) = 3.63653 4.13806 3.89538
# Velocity P-wave (km/s) = 5.70841 6.76072 6.25673
#
# Compressibility (1/GPa) = 0.02831921
#
# Stress axis : x y z
#
# Youngs Moduli (GPa) = 75.40418 105.73396 43.42256
#
# Poissons Ratio (x) = 0.47359 0.17801
# Poissons Ratio (y) = 0.33774 0.00592
# Poissons Ratio (z) = 0.30912 0.01441
#
# Static dielectric constant tensor:
#      x y z
#    x 4.280190 0.000000 0.163070 
#    y 0.000000 4.441580 0.000000 
#    z 0.163070 0.000000 4.499690 
# 
# 
# High freq. dielectric constant tensor:
#      x y z
#    x 1.934880 0.000000 0.014680 
#    y 0.000000 1.949370 0.000000 
#    z 0.014680 0.000000 1.941640 
# 
# From -- ./inp_files/144064.got.cif
#   From: 2010.06.25/outbox.cif.g09.slc.cpg/sg15_73_cif.got.tgz:144064.got - 2010.06.28 07:06:18.
