data_PCOD8152043
_publ_section_title
;
Structure prediction by ZEFSAII (Michael W. Deem and Ramdas Pophale) SiO2 
 PCOD8152043
Probable space group: C 2/C
;
_chemical_formula_sum "Si O2"
_cell_formula_units_Z 44
_cell_length_a 17.595728
_cell_length_b 8.884957
_cell_length_c 17.419678
_cell_angle_alpha 90.000000
_cell_angle_beta 47.174380
_cell_angle_gamma 90.000000
_cell_volume 1997.372108
_symmetry_space_group_name_H-M "C 2/C"
_symmetry_group_IT_number 15
_symmetry_cell_setting 'monoclinic'
loop_
_space_group_symop_operation_xyz
x,y,z
-x,y,1/2-z
-x,-y,-z
x,-y,1/2+z
1/2+x,1/2+y,z
1/2-x,1/2+y,1/2-z
1/2-x,1/2-y,-z
1/2+x,1/2-y,1/2+z
loop_
_atom_site_type_symbol
_atom_site_label
_atom_site_fract_x
_atom_site_fract_y
_atom_site_fract_z
Si Si1 0.366576 0.487566 0.414230
Si Si2 0.000000 0.759626 0.250000
Si Si3 0.162829 0.515532 0.141309
Si Si4 0.158732 0.331263 0.293052
Si Si5 0.422018 0.187681 0.934242
Si Si6 0.751391 0.056334 0.342015
O O1 0.457037 0.361381 0.350349
O O2 0.267775 0.426056 0.528847
O O3 0.409664 0.638369 0.421877
O O4 0.337635 0.517499 0.345589
O O5 0.094779 0.657538 0.215195
O O6 0.194469 0.417842 0.192283
O O7 0.096913 0.413325 0.127868
O O8 0.197305 0.159746 0.259152
O O9 0.211345 0.402635 0.331720
O O10 0.035851 0.340619 0.388190
O O11 0.342987 0.146380 0.055265
#
# Coordination Sequence:
#
# PCOD8152043 Si02
#       6
#     8   4   8   8   8   8
#     4  11  23  44  69  96 128 179 227 263 321 404
#     4  12  24  36  66 104 126 158 222 288 312 368
#     4  11  22  42  68  93 131 169 228 272 319 388
#     4  12  23  42  65  97 134 170 215 278 338 384
#     4  11  21  46  71  90 123 186 232 253 317 420
#     4  11  25  41  65  97 134 173 212 279 337 387
#
# _framework density 22.028945
#
# number of rings (size 3 to 8) (size 9 to 14) (size 15 to 20)
#    0.000    0.727    5.455    3.273    2.545    0.000 
#    0.000    0.909    0.000    0.000    0.000    0.000 
#    0.000    0.000    0.000    0.000    0.000    0.000 
#
# Total GULP energy -272916.377279 kJ/mol
# GULP energy per Si atom -12405.289876 kJ/mol
# Density = 2.197881 g / cm^3
# Si number density = 22.028945 Si / 1000 Ang^3
#
#
#
# Elastic Constant Matrix: (Units=GPa)
#
#
# Indices 1 2 3 4 5 6 
#
# 1 47.7703 19.0192 14.4502 0.0000 4.0067 0.0000
# 2 19.0192 96.6696 37.3341 0.0000 -12.2127 0.0000
# 3 14.4502 37.3341 74.3088 0.0000 -24.8439 0.0000
# 4 0.0000 0.0000 0.0000 51.6883 0.0000 -5.1937
# 5 4.0067 -12.2127 -24.8439 0.0000 29.1299 0.0000
# 6 0.0000 0.0000 0.0000 -5.1937 0.0000 37.0187
#
#
#
# Elastic Compliance Matrix: (Units=1/GPa)
#
#
# Indices 1 2 3 4 5 6 
#
# 1 0.025336 -0.003787 -0.006603 0.000000 -0.010704 0.000000
# 2 -0.003787 0.013402 -0.005517 0.000000 0.001434 0.000000
# 3 -0.006603 -0.005517 0.023842 0.000000 0.018929 0.000000
# 4 0.000000 0.000000 0.000000 0.019623 0.000000 0.002753
# 5 -0.010704 0.001434 0.018929 0.000000 0.052547 0.000000
# 6 0.000000 0.000000 0.000000 0.002753 0.000000 0.027400
#
#
# Mechanical properties :
#
#
# Convention : Reuss Voigt Hill
#
# Bulk Modulus (GPa) = 32.50423 40.03954 36.27189
# Shear Modulus (GPa) = 24.48347 33.43040 28.95693
#
# Velocity S-wave (km/s) = 3.33742 3.89982 3.62953
# Velocity P-wave (km/s) = 5.44412 6.20431 5.83660
#
# Compressibility (1/GPa) = 0.03076523
#
# Stress axis : x y z
#
# Youngs Moduli (GPa) = 39.46888 74.61818 41.94273
#
# Poissons Ratio (x) = 0.28258 0.27695
# Poissons Ratio (y) = 0.14947 0.23141
# Poissons Ratio (z) = 0.26062 0.41169
#
# Static dielectric constant tensor:
#      x y z
#    x 3.723650 0.000000 -0.209150 
#    y 0.000000 4.130590 0.000000 
#    z -0.209150 0.000000 4.103600 
# 
# 
# High freq. dielectric constant tensor:
#      x y z
#    x 1.844930 0.000000 -0.021640 
#    y 0.000000 1.874620 0.000000 
#    z -0.021640 0.000000 1.876610 
# 
# From -- ./inp_files/159201.got.cif
#   From: 2010.06.25/outbox.cif.g09.slc.cpg/sg15_80_cif.got.tgz:159201.got - 2010.06.28 07:06:18.
