data_PCOD8152475
_publ_section_title
;
Structure prediction by ZEFSAII (Michael W. Deem and Ramdas Pophale) SiO2 
 PCOD8152475
Probable space group: C 2/C
;
_chemical_formula_sum "Si O2"
_cell_formula_units_Z 52
_cell_length_a 11.109406
_cell_length_b 14.851855
_cell_length_c 22.348446
_cell_angle_alpha 90.000000
_cell_angle_beta 43.501973
_cell_angle_gamma 90.000000
_cell_volume 2538.322687
_symmetry_space_group_name_H-M "C 2/C"
_symmetry_group_IT_number 15
_symmetry_cell_setting 'monoclinic'
loop_
_space_group_symop_operation_xyz
x,y,z
-x,y,1/2-z
-x,-y,-z
x,-y,1/2+z
1/2+x,1/2+y,z
1/2-x,1/2+y,1/2-z
1/2-x,1/2-y,-z
1/2+x,1/2-y,1/2+z
loop_
_atom_site_type_symbol
_atom_site_label
_atom_site_fract_x
_atom_site_fract_y
_atom_site_fract_z
Si Si1 0.878017 0.300397 0.598274
Si Si2 0.443700 0.728838 0.446860
Si Si3 0.975064 0.967020 0.886820
Si Si4 0.718404 0.616431 0.846361
Si Si5 0.020347 0.621198 0.648795
Si Si6 0.916945 0.527091 0.467771
Si Si7 0.500000 0.392401 0.750000
O O1 0.970199 0.269267 0.503097
O O2 0.875800 0.209971 0.639441
O O3 0.673672 0.334572 0.668835
O O4 0.011550 0.374024 0.576811
O O5 0.250000 0.750000 0.500000
O O6 0.485644 0.624398 0.421527
O O7 0.548526 0.789012 0.360194
O O8 0.040883 0.952306 0.794410
O O9 0.094750 0.032139 0.882514
O O10 0.789878 0.017202 0.951613
O O11 0.887976 0.596539 0.747632
O O12 0.783396 0.629583 0.892433
O O13 0.012842 0.538609 0.607214
O O14 0.000000 0.500000 0.500000
#
# Coordination Sequence:
#
# PCOD8152475 Si02
#       7
#     8   8   8   8   8   8   4
#     4  12  23  37  65  89 126 159 209 253 312 359
#     4  12  19  40  64  92 114 166 210 255 290 370
#     4  12  25  38  65  92 124 160 211 251 311 365
#     4  11  25  40  60  97 124 165 198 262 308 370
#     4  11  22  42  66  88 130 157 209 255 313 355
#     4  12  22  41  64  92 122 168 203 259 300 366
#     4  12  20  40  64  94 112 164 216 252 292 378
#
# _framework density 20.485968
#
# number of rings (size 3 to 8) (size 9 to 14) (size 15 to 20)
#    0.000    0.308    7.692    2.769    0.000    3.077 
#    0.000    0.000    0.000    1.846    0.000    0.000 
#    0.000    0.000    0.000    0.000    0.000    0.000 
#
# Total GULP energy -322138.629752 kJ/mol
# GULP energy per Si atom -12389.947298 kJ/mol
# Density = 2.043934 g / cm^3
# Si number density = 20.485968 Si / 1000 Ang^3
#
#
#
# Elastic Constant Matrix: (Units=GPa)
#
#
# Indices 1 2 3 4 5 6 
#
# 1 69.9408 65.7377 43.4364 0.0000 -1.3661 0.0000
# 2 65.7377 184.2224 55.7350 0.0000 -9.0557 0.0000
# 3 43.4364 55.7350 88.9103 0.0003 4.4672 0.0000
# 4 0.0000 0.0000 0.0003 28.1079 0.0000 -0.4996
# 5 -1.3661 -9.0557 4.4672 0.0000 25.9246 0.0000
# 6 0.0000 0.0000 0.0000 -0.4996 0.0000 38.8967
#
#
#
# Elastic Compliance Matrix: (Units=1/GPa)
#
#
# Indices 1 2 3 4 5 6 
#
# 1 0.025789 -0.006612 -0.008480 0.000000 0.000511 0.000000
# 2 -0.006612 0.008649 -0.002346 0.000000 0.003077 0.000000
# 3 -0.008480 -0.002346 0.017072 0.000000 -0.004208 0.000000
# 4 0.000000 0.000000 0.000000 0.035585 0.000000 0.000457
# 5 0.000511 0.003077 -0.004208 0.000000 0.040400 0.000000
# 6 0.000000 0.000000 0.000000 0.000457 0.000000 0.025715
#
#
# Mechanical properties :
#
#
# Convention : Reuss Voigt Hill
#
# Bulk Modulus (GPa) = 60.11717 74.76575 67.44146
# Shear Modulus (GPa) = 25.82252 30.46344 28.14298
#
# Velocity S-wave (km/s) = 3.55420 3.86040 3.71046
# Velocity P-wave (km/s) = 6.80091 7.51302 7.16582
#
# Compressibility (1/GPa) = 0.01663418
#
# Stress axis : x y z
#
# Youngs Moduli (GPa) = 38.77693 115.62607 58.57529
#
# Poissons Ratio (x) = 0.76449 0.49670
# Poissons Ratio (y) = 0.25638 0.13742
# Poissons Ratio (z) = 0.32882 0.27125
#
# Static dielectric constant tensor:
#      x y z
#    x 6.128880 0.000020 -0.061710 
#    y 0.000020 3.958990 -0.000040 
#    z -0.061710 -0.000040 4.801490 
# 
# 
# High freq. dielectric constant tensor:
#      x y z
#    x 1.768180 0.000000 0.018100 
#    y 0.000000 1.813650 0.000000 
#    z 0.018100 0.000000 1.816030 
# 
# From -- ./inp_files/269891.got.cif
#   From: 2010.06.25/outbox.cif.g09.slc.cpg/sg15_135_cif.got.tgz:269891.got - 2010.06.28 07:06:18.
