data_PCOD8152407
_publ_section_title
;
Structure prediction by ZEFSAII (Michael W. Deem and Ramdas Pophale) SiO2 
 PCOD8152407
Probable space group: C 2/C
;
_chemical_formula_sum "Si O2"
_cell_formula_units_Z 64
_cell_length_a 14.160390
_cell_length_b 18.484396
_cell_length_c 18.873658
_cell_angle_alpha 90.000000
_cell_angle_beta 141.054105
_cell_angle_gamma 90.000000
_cell_volume 3105.284763
_symmetry_space_group_name_H-M "C 2/C"
_symmetry_group_IT_number 15
_symmetry_cell_setting 'monoclinic'
loop_
_space_group_symop_operation_xyz
x,y,z
-x,y,1/2-z
-x,-y,-z
x,-y,1/2+z
1/2+x,1/2+y,z
1/2-x,1/2+y,1/2-z
1/2-x,1/2-y,-z
1/2+x,1/2-y,1/2+z
loop_
_atom_site_type_symbol
_atom_site_label
_atom_site_fract_x
_atom_site_fract_y
_atom_site_fract_z
Si Si1 0.082208 0.453266 0.488255
Si Si2 0.349538 0.836894 0.324636
Si Si3 0.645220 0.002535 0.375432
Si Si4 0.628992 0.417289 0.770360
Si Si5 0.505047 0.313013 0.924230
Si Si6 0.934750 0.071475 0.498069
Si Si7 0.324668 0.839649 0.152951
Si Si8 0.593254 0.577917 0.732470
O O1 0.140719 0.506025 0.459186
O O2 0.212802 0.402638 0.598436
O O3 0.000000 0.500000 0.500000
O O4 0.974538 0.397996 0.385458
O O5 0.428313 0.763462 0.394168
O O6 0.271157 0.828767 0.202399
O O7 0.232885 0.865493 0.316013
O O8 0.500000 0.029673 0.250000
O O9 0.686042 0.922061 0.375713
O O10 0.761723 0.059202 0.413081
O O11 0.500000 0.431576 0.750000
O O12 0.573471 0.351161 0.689453
O O13 0.651881 0.496492 0.748554
O O14 0.459530 0.361354 0.962817
O O15 0.689168 0.302960 0.026778
O O16 0.997003 0.097672 0.608996
O O17 0.000000 0.000000 0.500000
O O18 0.500000 0.809018 0.250000
O O19 0.500000 0.586115 0.750000
#
# Coordination Sequence:
#
# PCOD8152407 Si02
#       8
#     8   8   8   8   8   8   8   8
#     4  12  25  42  67  99 137 178 225 283 337 400
#     4  12  26  44  65 101 140 180 224 277 350 403
#     4  11  22  41  68 104 131 176 235 277 339 398
#     4  11  24  41  67 104 135 172 234 281 331 406
#     4  12  27  42  69 103 139 183 227 279 341 410
#     4  12  22  41  72  97 132 176 234 279 330 405
#     4  11  22  44  69  95 137 181 220 274 339 413
#     4  11  22  44  74  96 128 180 232 286 338 396
#
# _framework density 20.610026999999999
#
# number of rings (size 3 to 8) (size 9 to 14) (size 15 to 20)
#    0.000    0.500    7.500    2.250    3.500    1.000 
#    0.000    1.250    0.000    0.000    0.000    0.000 
#    0.000    0.000    0.000    0.000    0.000    0.000 
#
# Total GULP energy -396469.995444 kJ/mol
# GULP energy per Si atom -12389.687358 kJ/mol
# Density = 2.056312 g / cm^3
# Si number density = 20.610027 Si / 1000 Ang^3
#
#
#
# Elastic Constant Matrix: (Units=GPa)
#
#
# Indices 1 2 3 4 5 6 
#
# 1 105.8764 36.1687 40.7559 0.0001 6.4301 0.0000
# 2 36.1687 86.3676 19.4588 0.0001 11.2850 0.0000
# 3 40.7559 19.4588 123.3141 0.0002 14.5763 0.0001
# 4 0.0001 0.0001 0.0002 22.4084 0.0001 3.3988
# 5 6.4301 11.2850 14.5763 0.0001 43.2607 0.0000
# 6 0.0000 0.0000 0.0001 3.3988 0.0000 25.8293
#
#
#
# Elastic Compliance Matrix: (Units=1/GPa)
#
#
# Indices 1 2 3 4 5 6 
#
# 1 0.012236 -0.004420 -0.003403 0.000000 0.000481 0.000000
# 2 -0.004420 0.013889 -0.000396 0.000000 -0.002833 0.000000
# 3 -0.003403 -0.000396 0.009607 0.000000 -0.002628 0.000000
# 4 0.000000 0.000000 0.000000 0.045535 0.000000 -0.005992
# 5 0.000481 -0.002833 -0.002628 0.000000 0.024669 0.000000
# 6 0.000000 0.000000 0.000000 -0.005992 0.000000 0.039504
#
#
# Mechanical properties :
#
#
# Convention : Reuss Voigt Hill
#
# Bulk Modulus (GPa) = 51.83214 56.48055 54.15635
# Shear Modulus (GPa) = 29.70719 32.91132 31.30926
#
# Velocity S-wave (km/s) = 3.80069 4.00041 3.90183
# Velocity P-wave (km/s) = 6.66813 6.98581 6.82882
#
# Compressibility (1/GPa) = 0.01929305
#
# Stress axis : x y z
#
# Youngs Moduli (GPa) = 81.72718 72.00052 104.08729
#
# Poissons Ratio (x) = 0.31825 0.35425
# Poissons Ratio (y) = 0.36125 0.04121
# Poissons Ratio (z) = 0.27815 0.02851
#
# Static dielectric constant tensor:
#      x y z
#    x 3.990760 0.000000 0.190910 
#    y 0.000000 -4.398200 0.000020 
#    z 0.190910 0.000020 3.373660 
# 
# 
# High freq. dielectric constant tensor:
#      x y z
#    x 1.809680 0.000000 0.003910 
#    y 0.000000 1.774100 0.000000 
#    z 0.003910 0.000000 1.829570 
# 
# From -- ./inp_files/206464.got.cif
#   From: 2010.06.25/outbox.cif.g09.slc.cpg/sg15_104_cif.got.tgz:206464.got - 2010.06.28 07:06:18.
