data_PCOD8152479
_publ_section_title
;
Structure prediction by ZEFSAII (Michael W. Deem and Ramdas Pophale) SiO2 
 PCOD8152479
Probable space group: C 2/C
;
_chemical_formula_sum "Si O2"
_cell_formula_units_Z 56
_cell_length_a 9.969305
_cell_length_b 25.364280
_cell_length_c 12.306192
_cell_angle_alpha 90.000000
_cell_angle_beta 58.104415
_cell_angle_gamma 90.000000
_cell_volume 2641.953345
_symmetry_space_group_name_H-M "C 2/C"
_symmetry_group_IT_number 15
_symmetry_cell_setting 'monoclinic'
loop_
_space_group_symop_operation_xyz
x,y,z
-x,y,1/2-z
-x,-y,-z
x,-y,1/2+z
1/2+x,1/2+y,z
1/2-x,1/2+y,1/2-z
1/2-x,1/2-y,-z
1/2+x,1/2-y,1/2+z
loop_
_atom_site_type_symbol
_atom_site_label
_atom_site_fract_x
_atom_site_fract_y
_atom_site_fract_z
Si Si1 0.132579 0.580980 0.515631
Si Si2 0.943342 0.320636 0.158633
Si Si3 0.034819 0.059420 0.020156
Si Si4 0.085804 0.147786 0.827614
Si Si5 0.707802 0.923216 0.737412
Si Si6 0.928307 0.254038 0.961595
Si Si7 0.500000 0.165710 0.250000
Si Si8 0.500000 0.989478 0.250000
O O1 0.306622 0.567732 0.481426
O O2 0.124642 0.571703 0.390300
O O3 0.081721 0.640832 0.558292
O O4 0.010413 0.545159 0.635964
O O5 0.775167 0.350493 0.234733
O O6 0.000000 0.298470 0.250000
O O7 0.932222 0.270519 0.085274
O O8 0.896487 0.078312 0.161002
O O9 0.037501 0.095424 0.912048
O O10 0.000000 0.000000 0.000000
O O11 0.000000 0.144158 0.750000
O O12 0.024811 0.200077 0.913847
O O13 0.653457 0.871522 0.693709
O O14 0.656051 0.974667 0.691284
O O15 0.006391 0.298776 0.854270
O O16 0.750000 0.250000 0.000000
#
# Coordination Sequence:
#
# PCOD8152479 Si02
#       8
#     8   8   8   8   8   8   4   4
#     4  12  23  46  69  97 146 191 237 303 373 432
#     4  12  25  47  76 108 152 195 240 306 379 449
#     4  12  26  48  66 102 148 190 248 305 368 446
#     4  12  26  45  78 110 143 197 249 304 375 449
#     4  11  25  40  69 103 137 185 242 301 372 427
#     4  12  23  46  76 110 146 190 244 305 366 453
#     4  11  22  42  68 106 140 178 231 302 366 438
#     4  11  22  42  66  98 136 184 243 294 362 444
#
# _framework density 21.196438000000001
#
# number of rings (size 3 to 8) (size 9 to 14) (size 15 to 20)
#    0.000    0.286    7.143    1.714    0.000    1.714 
#    0.000    0.000    0.000    0.000    0.000    0.000 
#    0.000    0.000    0.000    0.000    0.000    0.000 
#
# Total GULP energy -347271.447235 kJ/mol
# GULP energy per Si atom -12402.551687 kJ/mol
# Density = 2.114819 g / cm^3
# Si number density = 21.196438 Si / 1000 Ang^3
#
#
#
# Elastic Constant Matrix: (Units=GPa)
#
#
# Indices 1 2 3 4 5 6 
#
# 1 115.1277 34.4807 23.8111 0.0000 1.1683 0.0000
# 2 34.4807 132.5673 44.2742 0.0000 7.7883 0.0000
# 3 23.8111 44.2742 110.3703 0.0000 16.4966 0.0000
# 4 0.0000 0.0000 0.0000 25.1523 0.0000 8.3888
# 5 1.1683 7.7883 16.4966 0.0000 47.0403 0.0000
# 6 0.0000 0.0000 0.0000 8.3888 0.0000 29.2222
#
#
#
# Elastic Compliance Matrix: (Units=1/GPa)
#
#
# Indices 1 2 3 4 5 6 
#
# 1 0.009577 -0.002085 -0.001315 0.000000 0.000568 0.000000
# 2 -0.002085 0.009167 -0.003175 0.000000 -0.000353 0.000000
# 3 -0.001315 -0.003175 0.011117 0.000000 -0.003340 0.000000
# 4 0.000000 0.000000 0.000000 0.043967 0.000000 -0.012622
# 5 0.000568 -0.000353 -0.003340 0.000000 0.022474 0.000000
# 6 0.000000 0.000000 0.000000 -0.012622 0.000000 0.037844
#
#
# Mechanical properties :
#
#
# Convention : Reuss Voigt Hill
#
# Bulk Modulus (GPa) = 59.83958 62.57744 61.20851
# Shear Modulus (GPa) = 32.70874 37.31624 35.01249
#
# Velocity S-wave (km/s) = 3.93252 4.20038 4.06866
# Velocity P-wave (km/s) = 6.99370 7.28773 7.14223
#
# Compressibility (1/GPa) = 0.01671135
#
# Stress axis : x y z
#
# Youngs Moduli (GPa) = 104.42067 109.09107 89.95464
#
# Poissons Ratio (x) = 0.22748 0.11825
# Poissons Ratio (y) = 0.21774 0.28557
# Poissons Ratio (z) = 0.13726 0.34632
#
# Static dielectric constant tensor:
#      x y z
#    x 3.642830 0.000000 -0.508080 
#    y 0.000000 3.957450 0.000000 
#    z -0.508080 0.000000 3.192160 
# 
# 
# High freq. dielectric constant tensor:
#      x y z
#    x 1.837700 0.000000 -0.003750 
#    y 0.000000 1.837600 0.000000 
#    z -0.003750 0.000000 1.839080 
# 
# From -- ./inp_files/81307.got.cif
#   From: 2010.06.25/outbox.cif.g09.slc.cpg/sg15_41_cif.got.tgz:81307.got - 2010.06.28 07:06:18.
