data_PCOD8152698
_publ_section_title
;
Structure prediction by ZEFSAII (Michael W. Deem and Ramdas Pophale) SiO2 
 PCOD8152698
Probable space group: C 2/C
;
_chemical_formula_sum "Si O2"
_cell_formula_units_Z 52
_cell_length_a 16.799431
_cell_length_b 10.364503
_cell_length_c 20.630635
_cell_angle_alpha 90.000000
_cell_angle_beta 43.824905
_cell_angle_gamma 90.000000
_cell_volume 2487.415627
_symmetry_space_group_name_H-M "C 2/C"
_symmetry_group_IT_number 15
_symmetry_cell_setting 'monoclinic'
loop_
_space_group_symop_operation_xyz
x,y,z
-x,y,1/2-z
-x,-y,-z
x,-y,1/2+z
1/2+x,1/2+y,z
1/2-x,1/2+y,1/2-z
1/2-x,1/2-y,-z
1/2+x,1/2-y,1/2+z
loop_
_atom_site_type_symbol
_atom_site_label
_atom_site_fract_x
_atom_site_fract_y
_atom_site_fract_z
Si Si1 0.315696 0.115418 0.455102
Si Si2 0.953696 0.883399 0.705355
Si Si3 0.683860 0.362352 0.501727
Si Si4 0.869689 0.524665 0.560391
Si Si5 0.229595 0.253847 0.845507
Si Si6 0.500000 0.797855 0.750000
Si Si7 0.165523 0.142939 0.748343
O O1 0.250000 0.250000 0.500000
O O2 0.377697 0.083707 0.484983
O O3 0.415936 0.114149 0.342449
O O4 0.222062 0.005642 0.497636
O O5 0.867753 0.760866 0.757470
O O6 0.000000 0.917993 0.750000
O O7 0.052760 0.843136 0.598324
O O8 0.888260 0.002405 0.710157
O O9 0.750000 0.250000 0.500000
O O10 0.697198 0.355245 0.416380
O O11 0.805924 0.388892 0.601642
O O12 0.797855 0.627191 0.646372
O O13 0.000000 0.500000 0.500000
O O14 0.167093 0.222252 0.814546
O O15 0.584115 0.713203 0.744801
#
# Coordination Sequence:
#
# PCOD8152698 Si02
#       7
#     8   8   8   8   8   4   8
#     4  12  25  45  74 107 141 193 251 292 357 439
#     4  11  22  44  74  96 147 198 235 295 368 443
#     4  12  24  44  72 103 142 190 237 294 367 431
#     4  11  24  45  70 101 152 188 233 303 371 428
#     4  11  26  43  70 109 138 189 245 295 370 432
#     4  12  24  44  76 102 140 190 244 306 354 436
#     4  11  24  45  70 104 146 192 241 299 367 430
#
# _framework density 20.905232000000002
#
# number of rings (size 3 to 8) (size 9 to 14) (size 15 to 20)
#    0.000    0.615    5.385    2.769    2.154    5.538 
#    0.000    0.000    0.000    0.000    0.000    0.000 
#    0.000    0.000    0.000    0.000    0.000    0.000 
#
# Total GULP energy -322382.146540 kJ/mol
# GULP energy per Si atom -12399.313328 kJ/mol
# Density = 2.085765 g / cm^3
# Si number density = 20.905232 Si / 1000 Ang^3
#
#
#
# Elastic Constant Matrix: (Units=GPa)
#
#
# Indices 1 2 3 4 5 6 
#
# 1 143.3810 46.2027 68.7840 0.0000 5.3551 0.0000
# 2 46.2027 89.7011 46.0650 0.0000 5.8295 0.0000
# 3 68.7840 46.0650 173.8292 0.0000 -10.7789 0.0000
# 4 0.0000 0.0000 0.0000 31.7121 0.0000 1.1799
# 5 5.3551 5.8295 -10.7789 0.0000 45.9357 0.0000
# 6 0.0000 0.0000 0.0000 1.1799 0.0000 35.2207
#
#
#
# Elastic Compliance Matrix: (Units=1/GPa)
#
#
# Indices 1 2 3 4 5 6 
#
# 1 0.009513 -0.003278 -0.002982 0.000000 -0.001393 0.000000
# 2 -0.003278 0.014317 -0.002624 0.000000 -0.002051 0.000000
# 3 -0.002982 -0.002624 0.007784 0.000000 0.002507 0.000000
# 4 0.000000 0.000000 0.000000 0.031573 0.000000 -0.001058
# 5 -0.001393 -0.002051 0.002507 0.000000 0.022780 0.000000
# 6 0.000000 0.000000 0.000000 -0.001058 0.000000 0.028428
#
#
# Mechanical properties :
#
#
# Convention : Reuss Voigt Hill
#
# Bulk Modulus (GPa) = 72.22439 81.00164 76.61302
# Shear Modulus (GPa) = 36.55507 38.96433 37.75970
#
# Velocity S-wave (km/s) = 4.18617 4.32192 4.25459
# Velocity P-wave (km/s) = 7.61504 7.98352 7.80146
#
# Compressibility (1/GPa) = 0.01384574
#
# Stress axis : x y z
#
# Youngs Moduli (GPa) = 105.11511 69.84464 128.47459
#
# Poissons Ratio (x) = 0.22896 0.38312
# Poissons Ratio (y) = 0.34458 0.33714
# Poissons Ratio (z) = 0.31346 0.18328
#
# Static dielectric constant tensor:
#      x y z
#    x 4.003330 0.000000 0.087500 
#    y 0.000000 3.926360 0.000000 
#    z 0.087500 0.000000 3.991690 
# 
# 
# High freq. dielectric constant tensor:
#      x y z
#    x 1.821110 0.000000 -0.004480 
#    y 0.000000 1.812870 0.000000 
#    z -0.004480 0.000000 1.839270 
# 
# From -- ./inp_files/248554.got.cif
#   From: 2010.06.25/outbox.cif.g09.slc.cpg/sg15_125_cif.got.tgz:248554.got - 2010.06.28 07:06:18.
