data_PCOD8152990
_publ_section_title
;
Structure prediction by ZEFSAII (Michael W. Deem and Ramdas Pophale) SiO2 
 PCOD8152990
Probable space group: C 2/C
;
_chemical_formula_sum "Si O2"
_cell_formula_units_Z 40
_cell_length_a 15.712636
_cell_length_b 14.841798
_cell_length_c 8.512459
_cell_angle_alpha 90.000000
_cell_angle_beta 65.013471
_cell_angle_gamma 90.000000
_cell_volume 1799.342799
_symmetry_space_group_name_H-M "C 2/C"
_symmetry_group_IT_number 15
_symmetry_cell_setting 'monoclinic'
loop_
_space_group_symop_operation_xyz
x,y,z
-x,y,1/2-z
-x,-y,-z
x,-y,1/2+z
1/2+x,1/2+y,z
1/2-x,1/2+y,1/2-z
1/2-x,1/2-y,-z
1/2+x,1/2-y,1/2+z
loop_
_atom_site_type_symbol
_atom_site_label
_atom_site_fract_x
_atom_site_fract_y
_atom_site_fract_z
Si Si1 0.211184 0.729268 0.858155
Si Si2 0.264550 0.054959 0.846020
Si Si3 0.497481 0.235263 0.939553
Si Si4 0.944734 0.073855 0.450855
Si Si5 0.829367 0.380516 0.618916
O O1 0.240860 0.627983 0.789046
O O2 0.252060 0.802346 0.704471
O O3 0.098912 0.733863 0.940289
O O4 0.250000 0.750000 0.000000
O O5 0.310151 0.963137 0.749451
O O6 0.160149 0.037268 0.993532
O O7 0.327185 0.090781 0.939138
O O8 0.500000 0.222636 0.750000
O O9 0.446308 0.328350 0.032076
O O10 0.434357 0.156517 0.066715
O O11 0.000000 0.090010 0.250000
O O12 0.000000 0.000000 0.500000
#
# Coordination Sequence:
#
# PCOD8152990 Si02
#       5
#     8   8   8   8   8
#     4  12  26  46  71 108 148 191 247 305 370 436
#     4  12  24  45  75 107 148 199 241 308 372 440
#     4  11  23  46  75 103 144 197 242 303 368 437
#     4  11  23  41  71 106 138 184 244 300 365 424
#     4  12  25  48  74 106 150 192 253 303 369 447
#
# _framework density 22.230339000000001
#
# number of rings (size 3 to 8) (size 9 to 14) (size 15 to 20)
#    0.000    0.400    4.000    6.600    0.000    3.200 
#    0.000    0.000    0.000    0.000    0.000    0.000 
#    0.000    0.000    0.000    0.000    0.000    0.000 
#
# Total GULP energy -248072.958441 kJ/mol
# GULP energy per Si atom -12403.647922 kJ/mol
# Density = 2.217974 g / cm^3
# Si number density = 22.230339 Si / 1000 Ang^3
#
#
#
# Elastic Constant Matrix: (Units=GPa)
#
#
# Indices 1 2 3 4 5 6 
#
# 1 170.3715 56.5727 56.7317 0.0000 -13.9135 0.0000
# 2 56.5727 162.5887 56.6684 0.0000 -21.5378 0.0000
# 3 56.7317 56.6684 85.6832 0.0000 -10.4936 0.0000
# 4 0.0000 0.0000 0.0000 50.9881 0.0000 -6.3609
# 5 -13.9135 -21.5378 -10.4936 0.0000 37.2097 0.0000
# 6 0.0000 0.0000 0.0000 -6.3609 0.0000 37.1965
#
#
#
# Elastic Compliance Matrix: (Units=1/GPa)
#
#
# Indices 1 2 3 4 5 6 
#
# 1 0.007737 -0.001053 -0.004295 0.000000 0.001072 0.000000
# 2 -0.001053 0.008534 -0.004547 0.000000 0.003264 0.000000
# 3 -0.004295 -0.004547 0.017611 0.000000 0.000729 0.000000
# 4 0.000000 0.000000 0.000000 0.020040 0.000000 0.003427
# 5 0.001072 0.003264 0.000729 0.000000 0.029370 0.000000
# 6 0.000000 0.000000 0.000000 0.003427 0.000000 0.027470
#
#
# Mechanical properties :
#
#
# Convention : Reuss Voigt Hill
#
# Bulk Modulus (GPa) = 70.96330 84.28767 77.62549
# Shear Modulus (GPa) = 36.96844 41.65689 39.31266
#
# Velocity S-wave (km/s) = 4.08238 4.33352 4.20983
# Velocity P-wave (km/s) = 7.36290 7.93959 7.65668
#
# Compressibility (1/GPa) = 0.01409179
#
# Stress axis : x y z
#
# Youngs Moduli (GPa) = 129.25028 117.17659 56.78186
#
# Poissons Ratio (x) = 0.12340 0.24387
# Poissons Ratio (y) = 0.13611 0.25820
# Poissons Ratio (z) = 0.55512 0.53283
#
# Static dielectric constant tensor:
#      x y z
#    x 3.954110 0.000000 -0.196110 
#    y 0.000000 4.009210 0.000000 
#    z -0.196110 0.000000 3.923950 
# 
# 
# High freq. dielectric constant tensor:
#      x y z
#    x 1.876440 0.000000 -0.014050 
#    y 0.000000 1.893450 0.000000 
#    z -0.014050 0.000000 1.872760 
# 
# From -- ./inp_files/37793.got.cif
#   From: 2010.06.25/outbox.cif.g09.slc.cpg/sg15_19_cif.got.tgz:37793.got - 2010.06.28 07:06:18.
