data_PCOD8152806
_publ_section_title
;
Structure prediction by ZEFSAII (Michael W. Deem and Ramdas Pophale) SiO2 
 PCOD8152806
Probable space group: C 2/C
;
_chemical_formula_sum "Si O2"
_cell_formula_units_Z 44
_cell_length_a 8.845658
_cell_length_b 25.533247
_cell_length_c 10.636013
_cell_angle_alpha 90.000000
_cell_angle_beta 56.343784
_cell_angle_gamma 90.000000
_cell_volume 1999.565244
_symmetry_space_group_name_H-M "C 2/C"
_symmetry_group_IT_number 15
_symmetry_cell_setting 'monoclinic'
loop_
_space_group_symop_operation_xyz
x,y,z
-x,y,1/2-z
-x,-y,-z
x,-y,1/2+z
1/2+x,1/2+y,z
1/2-x,1/2+y,1/2-z
1/2-x,1/2-y,-z
1/2+x,1/2-y,1/2+z
loop_
_atom_site_type_symbol
_atom_site_label
_atom_site_fract_x
_atom_site_fract_y
_atom_site_fract_z
Si Si1 0.767720 0.859246 0.009203
Si Si2 0.847600 0.482465 0.670431
Si Si3 0.000000 0.567569 0.750000
Si Si4 0.500000 0.110841 0.250000
Si Si5 0.500000 0.432104 0.750000
Si Si6 0.146211 0.200731 0.775948
Si Si7 0.997152 0.693902 0.047119
O O1 0.592656 0.896985 0.101897
O O2 0.824915 0.832183 0.111417
O O3 0.943403 0.892617 0.887740
O O4 0.692516 0.819810 0.937444
O O5 0.656210 0.474734 0.695646
O O6 0.000000 0.500000 0.500000
O O7 0.839332 0.530904 0.770271
O O8 0.864366 0.427903 0.739757
O O9 0.575009 0.148618 0.104446
O O10 0.342888 0.208268 0.622785
O O11 0.000000 0.172441 0.750000
O O12 0.054729 0.256037 0.847869
#
# Coordination Sequence:
#
# PCOD8152806 Si02
#       7
#     8   8   4   4   4   8   8
#     4  12  26  47  73 104 142 196 240 298 365 435
#     4  11  24  46  72 105 144 188 240 303 356 431
#     4  11  22  50  69 100 148 181 240 293 368 424
#     4  11  24  44  78  97 151 196 232 299 362 412
#     4  12  26  44  77 105 141 187 246 294 372 438
#     4  12  28  44  73 107 148 187 248 298 360 433
#     4  12  25  48  70 105 149 194 239 300 360 429
#
# _framework density 22.004784999999998
#
# number of rings (size 3 to 8) (size 9 to 14) (size 15 to 20)
#    0.000    0.364    6.364    1.091    5.091    0.727 
#    1.636    0.000    0.000    0.000    0.000    0.000 
#    0.000    0.000    0.000    0.000    0.000    0.000 
#
# Total GULP energy -272577.817244 kJ/mol
# GULP energy per Si atom -12389.900784 kJ/mol
# Density = 2.195470 g / cm^3
# Si number density = 22.004785 Si / 1000 Ang^3
#
#
#
# Elastic Constant Matrix: (Units=GPa)
#
#
# Indices 1 2 3 4 5 6 
#
# 1 139.7120 47.5318 49.0289 0.0000 8.3615 0.0000
# 2 47.5318 110.8811 44.0002 0.0000 5.9072 0.0000
# 3 49.0289 44.0002 108.5302 0.0000 1.5144 0.0000
# 4 0.0000 0.0000 0.0000 26.3224 0.0000 -23.2577
# 5 8.3615 5.9072 1.5144 0.0000 39.6021 0.0000
# 6 0.0000 0.0000 0.0000 -23.2577 0.0000 -15.6111
#
#
#
# Elastic Compliance Matrix: (Units=1/GPa)
#
#
# Indices 1 2 3 4 5 6 
#
# 1 0.009226 -0.002660 -0.003069 0.000000 -0.001434 0.000000
# 2 -0.002660 0.011597 -0.003485 0.000000 -0.001035 0.000000
# 3 -0.003069 -0.003485 0.012004 0.000000 0.000709 0.000000
# 4 0.000000 0.000000 0.000000 0.016401 0.000000 -0.024434
# 5 -0.001434 -0.001035 0.000709 0.000000 0.025681 0.000000
# 6 0.000000 0.000000 0.000000 -0.024434 0.000000 -0.027654
#
#
# Mechanical properties :
#
#
# Convention : Reuss Voigt Hill
#
# Bulk Modulus (GPa) = 69.46102 71.13833 70.29968
# Shear Modulus (GPa) = 70.93874 24.63352 47.78613
#
# Velocity S-wave (km/s) = 5.68400 3.34947 4.66512
# Velocity P-wave (km/s) = 8.64361 6.88167 7.81247
#
# Compressibility (1/GPa) = 0.01439656
#
# Stress axis : x y z
#
# Youngs Moduli (GPa) = 108.39479 86.22621 83.30793
#
# Poissons Ratio (x) = 0.22940 0.25568
# Poissons Ratio (y) = 0.28838 0.29037
# Poissons Ratio (z) = 0.33267 0.30054
#
# Static dielectric constant tensor:
#      x y z
#    x 4.294990 0.000000 0.110370 
#    y 0.000000 4.268830 0.000000 
#    z 0.110370 0.000000 4.106090 
# 
# 
# High freq. dielectric constant tensor:
#      x y z
#    x 1.864150 0.000000 0.019680 
#    y 0.000000 1.876810 0.000000 
#    z 0.019680 0.000000 1.872150 
# 
# From -- ./inp_files/79730.got.cif
#   From: 2010.06.25/outbox.cif.g09.slc.cpg/sg15_40_cif.got.tgz:79730.got - 2010.06.28 07:06:18.
