data_PCOD8152021
_publ_section_title
;
Structure prediction by ZEFSAII (Michael W. Deem and Ramdas Pophale) SiO2 
 PCOD8152021
Probable space group: C 2/C
;
_chemical_formula_sum "Si O2"
_cell_formula_units_Z 48
_cell_length_a 27.599091
_cell_length_b 8.129787
_cell_length_c 15.542145
_cell_angle_alpha 90.000000
_cell_angle_beta 139.322711
_cell_angle_gamma 90.000000
_cell_volume 2272.991545
_symmetry_space_group_name_H-M "C 2/C"
_symmetry_group_IT_number 15
_symmetry_cell_setting 'monoclinic'
loop_
_space_group_symop_operation_xyz
x,y,z
-x,y,1/2-z
-x,-y,-z
x,-y,1/2+z
1/2+x,1/2+y,z
1/2-x,1/2+y,1/2-z
1/2-x,1/2-y,-z
1/2+x,1/2-y,1/2+z
loop_
_atom_site_type_symbol
_atom_site_label
_atom_site_fract_x
_atom_site_fract_y
_atom_site_fract_z
Si Si1 0.823701 0.368789 0.269799
Si Si2 0.044012 0.680909 0.885900
Si Si3 0.797532 0.416194 0.562249
Si Si4 0.515047 0.690845 0.021529
Si Si5 0.034616 0.335479 0.716978
Si Si6 0.703327 0.898270 0.605068
O O1 0.798928 0.472356 0.151324
O O2 0.902361 0.271696 0.363667
O O3 0.764728 0.231016 0.216802
O O4 0.823311 0.489032 0.350949
O O5 0.000000 0.774286 0.750000
O O6 0.031872 0.759535 0.960484
O O7 0.017096 0.494634 0.856161
O O8 0.130022 0.698588 0.976544
O O9 0.750000 0.250000 0.500000
O O10 0.880850 0.374141 0.648211
O O11 0.763365 0.512009 0.434389
O O12 0.500000 0.500000 0.000000
O O13 0.469200 0.746921 0.877863
O O14 0.000000 0.228390 0.750000
#
# Coordination Sequence:
#
# PCOD8152021 Si02
#       6
#     8   8   8   8   8   8
#     4  12  26  44  67 100 140 177 223 285 346 412
#     4  11  21  45  71  90 124 179 224 272 337 402
#     4  12  25  44  70  98 134 178 226 281 344 414
#     4  12  26  41  68 100 134 171 229 288 333 394
#     4  11  21  45  71  91 126 177 227 272 336 409
#     4  12  25  44  67  96 135 176 222 275 346 413
#
# _framework density 21.117543000000001
#
# number of rings (size 3 to 8) (size 9 to 14) (size 15 to 20)
#    0.000    0.333    6.667    3.000    4.667    0.667 
#    0.000    0.000    0.000    0.000    0.000    0.000 
#    0.000    0.000    0.000    0.000    0.000    0.000 
#
# Total GULP energy -297342.081231 kJ/mol
# GULP energy per Si atom -12389.253385 kJ/mol
# Density = 2.106948 g / cm^3
# Si number density = 21.117543 Si / 1000 Ang^3
#
#
#
# Elastic Constant Matrix: (Units=GPa)
#
#
# Indices 1 2 3 4 5 6 
#
# 1 106.0612 39.3765 28.8437 0.0000 -20.8834 0.0000
# 2 39.3765 82.3587 33.0286 0.0000 -3.1715 0.0000
# 3 28.8437 33.0286 79.1483 0.0000 -11.8301 0.0000
# 4 0.0000 0.0000 0.0000 50.6891 0.0000 -25.6556
# 5 -20.8834 -3.1715 -11.8301 0.0000 63.6862 0.0000
# 6 0.0000 0.0000 0.0000 -25.6556 0.0000 64.9078
#
#
#
# Elastic Compliance Matrix: (Units=1/GPa)
#
#
# Indices 1 2 3 4 5 6 
#
# 1 0.012527 -0.005084 -0.001921 0.000000 0.003498 0.000000
# 2 -0.005084 0.016657 -0.005372 0.000000 -0.001836 0.000000
# 3 -0.001921 -0.005372 0.015883 0.000000 0.002053 0.000000
# 4 0.000000 0.000000 0.000000 0.024662 0.000000 0.009748
# 5 0.003498 -0.001836 0.002053 0.000000 0.017139 0.000000
# 6 0.000000 0.000000 0.000000 0.009748 0.000000 0.019259
#
#
# Mechanical properties :
#
#
# Convention : Reuss Voigt Hill
#
# Bulk Modulus (GPa) = 49.23145 52.22955 50.73050
# Shear Modulus (GPa) = 36.32317 46.94457 41.63387
#
# Velocity S-wave (km/s) = 4.15184 4.72000 4.44501
# Velocity P-wave (km/s) = 6.80789 7.38180 7.10065
#
# Compressibility (1/GPa) = 0.02031222
#
# Stress axis : x y z
#
# Youngs Moduli (GPa) = 79.82599 60.03577 62.95962
#
# Poissons Ratio (x) = 0.30525 0.12093
# Poissons Ratio (y) = 0.40587 0.33824
# Poissons Ratio (z) = 0.15332 0.32253
#
# Static dielectric constant tensor:
#      x y z
#    x 7.820420 0.000000 -4.669080 
#    y 0.000000 3.984500 0.000000 
#    z -4.669080 0.000000 9.804040 
# 
# 
# High freq. dielectric constant tensor:
#      x y z
#    x 1.850940 0.000000 -0.011350 
#    y 0.000000 1.810890 0.000000 
#    z -0.011350 0.000000 1.847180 
# 
# From -- ./inp_files/176906.got.cif
#   From: 2010.06.25/outbox.cif.g09.slc.cpg/sg15_89_cif.got.tgz:176906.got - 2010.06.28 07:06:18.
