data_PCOD8152112
_publ_section_title
;
Structure prediction by ZEFSAII (Michael W. Deem and Ramdas Pophale) SiO2 
 PCOD8152112
Probable space group: C 2/C
;
_chemical_formula_sum "Si O2"
_cell_formula_units_Z 48
_cell_length_a 9.029961
_cell_length_b 21.787558
_cell_length_c 13.315517
_cell_angle_alpha 90.000000
_cell_angle_beta 114.902258
_cell_angle_gamma 90.000000
_cell_volume 2376.144681
_symmetry_space_group_name_H-M "C 2/C"
_symmetry_group_IT_number 15
_symmetry_cell_setting 'monoclinic'
loop_
_space_group_symop_operation_xyz
x,y,z
-x,y,1/2-z
-x,-y,-z
x,-y,1/2+z
1/2+x,1/2+y,z
1/2-x,1/2+y,1/2-z
1/2-x,1/2-y,-z
1/2+x,1/2-y,1/2+z
loop_
_atom_site_type_symbol
_atom_site_label
_atom_site_fract_x
_atom_site_fract_y
_atom_site_fract_z
Si Si1 0.297649 0.584692 0.907087
Si Si2 0.369171 0.312572 0.299738
Si Si3 0.337726 0.587375 0.147028
Si Si4 0.854598 0.503891 0.782105
Si Si5 0.458009 0.869186 0.369313
Si Si6 0.322764 0.792628 0.933072
O O1 0.421547 0.634810 0.895781
O O2 0.293348 0.524664 0.834939
O O3 0.118633 0.619646 0.843733
O O4 0.343001 0.565541 0.032479
O O5 0.500000 0.314262 0.250000
O O6 0.185365 0.324031 0.208207
O O7 0.381144 0.246660 0.355628
O O8 0.500000 0.567393 0.250000
O O9 0.190028 0.553400 0.161331
O O10 0.317555 0.660791 0.144806
O O11 0.892209 0.561366 0.868190
O O12 0.000000 0.483480 0.750000
O O13 0.527745 0.835896 0.488543
O O14 0.250000 0.750000 0.000000
#
# Coordination Sequence:
#
# PCOD8152112 Si02
#       6
#     8   8   8   8   8   8
#     4   9  20  41  63  86 120 178 209 239 329 393
#     4  11  22  37  62  95 124 158 214 263 315 375
#     4  11  24  39  64  96 124 167 217 270 317 374
#     4   9  20  39  63  90 125 166 216 258 316 387
#     4   9  20  40  66  85 123 178 209 245 321 394
#     4  11  23  38  64  90 122 173 218 256 315 389
#
# _framework density 20.200790999999999
#
# number of rings (size 3 to 8) (size 9 to 14) (size 15 to 20)
#    0.000    2.000    3.333    1.500    2.333   10.667 
#    0.000    3.333    0.000    0.000    0.000    0.000 
#    0.000    0.000    0.000    0.000    0.000    0.000 
#
# Total GULP energy -297342.018126 kJ/mol
# GULP energy per Si atom -12389.250755 kJ/mol
# Density = 2.015481 g / cm^3
# Si number density = 20.200791 Si / 1000 Ang^3
#
#
#
# Elastic Constant Matrix: (Units=GPa)
#
#
# Indices 1 2 3 4 5 6 
#
# 1 75.7266 41.4103 55.5787 0.0000 -13.7523 0.0000
# 2 41.4103 109.4373 44.1720 0.0000 -16.3577 0.0000
# 3 55.5787 44.1720 114.1266 0.0000 -7.2918 0.0000
# 4 0.0000 0.0000 0.0000 33.7656 0.0000 -13.1964
# 5 -13.7523 -16.3577 -7.2918 0.0000 31.1455 0.0000
# 6 0.0000 0.0000 0.0000 -13.1964 0.0000 26.7052
#
#
#
# Elastic Compliance Matrix: (Units=1/GPa)
#
#
# Indices 1 2 3 4 5 6 
#
# 1 0.023517 -0.004193 -0.009448 0.000000 0.005970 0.000000
# 2 -0.004193 0.012326 -0.002470 0.000000 0.004044 0.000000
# 3 -0.009448 -0.002470 0.014182 0.000000 -0.002149 0.000000
# 4 0.000000 0.000000 0.000000 0.036705 0.000000 0.018138
# 5 0.005970 0.004044 -0.002149 0.000000 0.036364 0.000000
# 6 0.000000 0.000000 0.000000 0.018138 0.000000 0.046409
#
#
# Mechanical properties :
#
#
# Convention : Reuss Voigt Hill
#
# Bulk Modulus (GPa) = 56.17351 64.62361 60.39856
# Shear Modulus (GPa) = 24.07799 28.86524 26.47162
#
# Velocity S-wave (km/s) = 3.45618 3.78420 3.62391
# Velocity P-wave (km/s) = 6.61777 7.15218 6.89016
#
# Compressibility (1/GPa) = 0.01780198
#
# Stress axis : x y z
#
# Youngs Moduli (GPa) = 42.52296 81.13136 70.51048
#
# Poissons Ratio (x) = 0.34015 0.66620
# Poissons Ratio (y) = 0.17828 0.17419
# Poissons Ratio (z) = 0.40177 0.20043
#
# Static dielectric constant tensor:
#      x y z
#    x 3.397550 0.000000 0.047240 
#    y 0.000000 3.701900 0.000000 
#    z 0.047240 0.000000 3.732380 
# 
# 
# High freq. dielectric constant tensor:
#      x y z
#    x 1.760250 0.000000 -0.002980 
#    y 0.000000 1.788110 0.000000 
#    z -0.002980 0.000000 1.792400 
# 
# From -- ./inp_files/136949.got.cif
#   From: 2010.06.25/outbox.cif.g09.slc.cpg/sg15_69_cif.got.tgz:136949.got - 2010.06.28 07:06:18.
