data_PCOD8152660
_publ_section_title
;
Structure prediction by ZEFSAII (Michael W. Deem and Ramdas Pophale) SiO2 
 PCOD8152660
Probable space group: C 2/C
;
_chemical_formula_sum "Si O2"
_cell_formula_units_Z 48
_cell_length_a 20.790979
_cell_length_b 13.441134
_cell_length_c 27.376216
_cell_angle_alpha 90.000000
_cell_angle_beta 162.462201
_cell_angle_gamma 90.000000
_cell_volume 2305.333323
_symmetry_space_group_name_H-M "C 2/C"
_symmetry_group_IT_number 15
_symmetry_cell_setting 'monoclinic'
loop_
_space_group_symop_operation_xyz
x,y,z
-x,y,1/2-z
-x,-y,-z
x,-y,1/2+z
1/2+x,1/2+y,z
1/2-x,1/2+y,1/2-z
1/2-x,1/2-y,-z
1/2+x,1/2-y,1/2+z
loop_
_atom_site_type_symbol
_atom_site_label
_atom_site_fract_x
_atom_site_fract_y
_atom_site_fract_z
Si Si1 0.833072 0.708813 0.340784
Si Si2 0.783237 0.931716 0.572075
Si Si3 0.450598 0.602296 0.518890
Si Si4 0.163187 0.468407 0.727365
Si Si5 0.757840 0.551619 0.569494
Si Si6 0.367217 0.753602 0.977732
O O1 0.847929 0.598570 0.329405
O O2 0.862975 0.703432 0.420305
O O3 0.011332 0.780256 0.444670
O O4 0.607503 0.759076 0.168873
O O5 0.576057 0.997045 0.434112
O O6 0.000000 0.983319 0.750000
O O7 0.806217 0.914707 0.530872
O O8 0.772990 0.823250 0.589048
O O9 0.676337 0.560472 0.662665
O O10 0.258206 0.595975 0.340547
O O11 0.385981 0.543881 0.521037
O O12 0.718133 0.640374 0.579674
O O13 0.000000 0.517507 0.750000
#
# Coordination Sequence:
#
# PCOD8152660 Si02
#       6
#     8   8   8   8   8   8
#     4  12  23  41  71 101 130 170 227 277 322 380
#     4  12  26  42  63 103 142 169 216 279 341 388
#     4  11  22  44  69  96 131 178 228 264 319 406
#     4  11  23  44  69  94 135 178 224 268 323 400
#     4  12  23  43  70  95 137 183 216 262 335 408
#     4  12  23  40  66 104 138 168 212 283 338 390
#
# _framework density 20.821285
#
# number of rings (size 3 to 8) (size 9 to 14) (size 15 to 20)
#    0.000    0.333    6.667    4.000    0.000    2.000 
#    0.000    1.667    0.000    0.000    0.000    0.000 
#    0.000    0.000    0.000    0.000    0.000    0.000 
#
# Total GULP energy -297646.753426 kJ/mol
# GULP energy per Si atom -12401.948059 kJ/mol
# Density = 2.077389 g / cm^3
# Si number density = 20.821285 Si / 1000 Ang^3
#
#
#
# Elastic Constant Matrix: (Units=GPa)
#
#
# Indices 1 2 3 4 5 6 
#
# 1 117.6084 28.9572 28.9756 -0.1049 -17.3769 0.0659
# 2 28.9572 53.0210 10.3561 -0.4278 3.2901 0.0973
# 3 28.9756 10.3561 133.7133 -0.3184 6.8188 0.1838
# 4 -0.1049 -0.4278 -0.3184 25.1989 -0.0728 5.9737
# 5 -17.3769 3.2901 6.8188 -0.0728 40.9686 0.0011
# 6 0.0659 0.0973 0.1838 5.9737 0.0011 31.6702
#
#
#
# Elastic Compliance Matrix: (Units=1/GPa)
#
#
# Indices 1 2 3 4 5 6 
#
# 1 0.011427 -0.006149 -0.002292 -0.000075 0.005722 0.000022
# 2 -0.006149 0.022531 -0.000188 0.000372 -0.004385 -0.000125
# 3 -0.002292 -0.000188 0.008108 0.000097 -0.002306 -0.000060
# 4 -0.000075 0.000372 0.000097 0.041550 -0.000004 -0.007839
# 5 0.005722 -0.004385 -0.002306 -0.000004 0.027572 0.000015
# 6 0.000022 -0.000125 -0.000060 -0.007839 0.000015 0.033055
#
#
# Mechanical properties :
#
#
# Convention : Reuss Voigt Hill
#
# Bulk Modulus (GPa) = 40.30940 48.99116 44.65028
# Shear Modulus (GPa) = 29.45200 35.30446 32.37823
#
# Velocity S-wave (km/s) = 3.76508 4.12223 3.94770
# Velocity P-wave (km/s) = 6.18893 6.79981 6.50155
#
# Compressibility (1/GPa) = 0.02480811
#
# Stress axis : x y z
#
# Youngs Moduli (GPa) = 87.51442 44.38413 123.33760
#
# Poissons Ratio (x) = 0.27290 0.28268
# Poissons Ratio (y) = 0.53810 0.02317
# Poissons Ratio (z) = 0.20058 0.00834
#
# Static dielectric constant tensor:
#      x y z
#    x 3.757790 -0.000140 0.045450 
#    y -0.000140 3.587800 -0.000720 
#    z 0.045450 -0.000720 3.962050 
# 
# 
# High freq. dielectric constant tensor:
#      x y z
#    x 1.812290 -0.000020 -0.002350 
#    y -0.000020 1.797880 -0.000090 
#    z -0.002350 -0.000090 1.831430 
# 
# From -- ./inp_files/300971.got.cif
#   From: 2010.06.25/outbox.cif.g09.slc.cpg/sg15_151_cif.got.tgz:300971.got - 2010.06.28 07:06:18.
