data_PCOD8152494
_publ_section_title
;
Structure prediction by ZEFSAII (Michael W. Deem and Ramdas Pophale) SiO2 
 PCOD8152494
Probable space group: C 2/C
;
_chemical_formula_sum "Si O2"
_cell_formula_units_Z 40
_cell_length_a 7.394749
_cell_length_b 15.382591
_cell_length_c 21.889709
_cell_angle_alpha 90.000000
_cell_angle_beta 50.352452
_cell_angle_gamma 90.000000
_cell_volume 1917.231777
_symmetry_space_group_name_H-M "C 2/C"
_symmetry_group_IT_number 15
_symmetry_cell_setting 'monoclinic'
loop_
_space_group_symop_operation_xyz
x,y,z
-x,y,1/2-z
-x,-y,-z
x,-y,1/2+z
1/2+x,1/2+y,z
1/2-x,1/2+y,1/2-z
1/2-x,1/2-y,-z
1/2+x,1/2-y,1/2+z
loop_
_atom_site_type_symbol
_atom_site_label
_atom_site_fract_x
_atom_site_fract_y
_atom_site_fract_z
Si Si1 0.361089 0.155434 0.985396
Si Si2 0.944240 0.438936 0.828495
Si Si3 0.268805 0.435368 0.332499
Si Si4 0.562220 0.502326 0.576006
Si Si5 0.658138 0.155944 0.034303
O O1 0.586386 0.140619 0.892186
O O2 0.250000 0.250000 0.000000
O O3 0.168136 0.080814 0.017075
O O4 0.434157 0.141343 0.039843
O O5 0.716078 0.498709 0.869242
O O6 0.913014 0.355768 0.879609
O O7 0.000000 0.399648 0.750000
O O8 0.149149 0.500081 0.810051
O O9 0.500000 0.394067 0.250000
O O10 0.346898 0.491635 0.374181
O O11 0.637949 0.587271 0.522910
O O12 0.750000 0.250000 0.000000
#
# Coordination Sequence:
#
# PCOD8152494 Si02
#       5
#     8   8   8   8   8
#     4  11  23  42  69 100 135 184 234 281 334 411
#     4  12  23  39  72  98 135 179 226 285 354 402
#     4  11  22  43  67  97 138 176 225 288 348 399
#     4  11  22  42  68  97 131 180 234 274 339 409
#     4  11  23  41  66 102 136 174 234 282 332 413
#
# _framework density 20.863412
#
# number of rings (size 3 to 8) (size 9 to 14) (size 15 to 20)
#    0.000    0.800    6.000    3.000    2.800    0.000 
#    0.000    9.000    0.000    2.400    0.000    0.000 
#    0.000    0.000    0.000    0.000    0.000    0.000 
#
# Total GULP energy -247956.682801 kJ/mol
# GULP energy per Si atom -12397.834140 kJ/mol
# Density = 2.081593 g / cm^3
# Si number density = 20.863412 Si / 1000 Ang^3
#
#
#
# Elastic Constant Matrix: (Units=GPa)
#
#
# Indices 1 2 3 4 5 6 
#
# 1 92.9261 22.7551 60.2507 0.0016 3.7438 -0.0016
# 2 22.7551 142.0317 68.5368 0.0011 -6.2927 -0.0018
# 3 60.2507 68.5368 173.2150 0.0000 8.0945 -0.0017
# 4 0.0016 0.0011 0.0000 20.2852 -0.0009 -2.5675
# 5 3.7438 -6.2927 8.0945 -0.0009 45.1438 0.0012
# 6 -0.0016 -0.0018 -0.0017 -2.5675 0.0012 29.3143
#
#
#
# Elastic Compliance Matrix: (Units=1/GPa)
#
#
# Indices 1 2 3 4 5 6 
#
# 1 0.013900 0.000109 -0.004866 -0.000001 -0.000265 0.000000
# 2 0.000109 0.008858 -0.003631 0.000000 0.001877 0.000000
# 3 -0.004866 -0.003631 0.008982 0.000001 -0.001713 0.000000
# 4 -0.000001 0.000000 0.000001 0.049850 0.000001 0.004366
# 5 -0.000265 0.001877 -0.001713 0.000001 0.022742 -0.000001
# 6 0.000000 0.000000 0.000000 0.004366 -0.000001 0.034495
#
#
# Mechanical properties :
#
#
# Convention : Reuss Voigt Hill
#
# Bulk Modulus (GPa) = 66.81738 79.02868 72.92303
# Shear Modulus (GPa) = 31.13496 36.05734 33.59615
#
# Velocity S-wave (km/s) = 3.86725 4.16174 4.01720
# Velocity P-wave (km/s) = 7.21363 7.81375 7.51968
#
# Compressibility (1/GPa) = 0.01496617
#
# Stress axis : x y z
#
# Youngs Moduli (GPa) = 71.94241 112.88836 111.32970
#
# Poissons Ratio (x) = -0.01234 0.54171
# Poissons Ratio (y) = -0.00786 0.40421
# Poissons Ratio (z) = 0.35006 0.40987
#
# Static dielectric constant tensor:
#      x y z
#    x 4.204300 0.000000 0.184640 
#    y 0.000000 3.676400 0.000010 
#    z 0.184640 0.000010 4.065680 
# 
# 
# High freq. dielectric constant tensor:
#      x y z
#    x 1.844610 0.000000 0.007750 
#    y 0.000000 1.790560 0.000000 
#    z 0.007750 0.000000 1.817380 
# 
# From -- ./inp_files/188447.got.cif
#   From: 2010.06.25/outbox.cif.g09.slc.cpg/sg15_95_cif.got.tgz:188447.got - 2010.06.28 07:06:18.
