data_PCOD8152745
_publ_section_title
;
Structure prediction by ZEFSAII (Michael W. Deem and Ramdas Pophale) SiO2 
 PCOD8152745
Probable space group: C 2/C
;
_chemical_formula_sum "Si O2"
_cell_formula_units_Z 64
_cell_length_a 18.800225
_cell_length_b 8.578634
_cell_length_c 28.320950
_cell_angle_alpha 90.000000
_cell_angle_beta 38.576056
_cell_angle_gamma 90.000000
_cell_volume 2848.146585
_symmetry_space_group_name_H-M "C 2/C"
_symmetry_group_IT_number 15
_symmetry_cell_setting 'monoclinic'
loop_
_space_group_symop_operation_xyz
x,y,z
-x,y,1/2-z
-x,-y,-z
x,-y,1/2+z
1/2+x,1/2+y,z
1/2-x,1/2+y,1/2-z
1/2-x,1/2-y,-z
1/2+x,1/2-y,1/2+z
loop_
_atom_site_type_symbol
_atom_site_label
_atom_site_fract_x
_atom_site_fract_y
_atom_site_fract_z
Si Si1 0.725407 0.373252 0.229389
Si Si2 0.586475 0.684853 0.965625
Si Si3 0.869273 0.665531 0.145444
Si Si4 0.998748 0.979008 0.698948
Si Si5 0.881590 0.765379 0.942852
Si Si6 0.834710 0.852925 0.602119
Si Si7 0.608123 0.083056 0.054446
Si Si8 0.689359 0.721244 0.598637
O O1 0.821560 0.501975 0.187732
O O2 0.686883 0.315232 0.300454
O O3 0.625432 0.456603 0.250980
O O4 0.783005 0.219401 0.176696
O O5 0.647507 0.821398 0.903098
O O6 0.627938 0.533170 0.915081
O O7 0.613703 0.665251 0.006647
O O8 0.453787 0.730894 0.028002
O O9 0.001374 0.681167 0.091663
O O10 0.049987 0.871327 0.630325
O O11 0.000000 0.890913 0.750000
O O12 0.075687 0.129017 0.669608
O O13 0.934450 0.593192 0.915172
O O14 0.750000 0.750000 0.000000
O O15 0.733684 0.828578 0.617572
O O16 0.661298 0.154954 0.073427
O O17 0.712211 0.093781 0.963464
#
# Coordination Sequence:
#
# PCOD8152745 Si02
#       8
#     8   8   8   8   8   8   8   8
#     4  12  28  46  71 103 153 190 239 296 367 451
#     4  11  27  44  75 105 142 189 242 306 355 421
#     4  12  27  46  70 105 143 196 240 299 367 431
#     4  12  27  49  72 101 147 194 236 299 375 443
#     4  12  27  46  72 109 142 186 244 306 362 426
#     4  11  24  45  70 106 142 185 237 299 354 436
#     4  11  24  43  75 104 138 183 246 304 345 435
#     4  11  22  45  74 103 134 189 243 294 360 428
#
# _framework density 22.470752999999998
#
# number of rings (size 3 to 8) (size 9 to 14) (size 15 to 20)
#    0.000    0.500    5.000    2.250   12.250    1.000 
#    0.000    0.625    0.000    0.000    0.000    0.000 
#    0.000    0.000    0.000    0.000    0.000    0.000 
#
# Total GULP energy -396528.620106 kJ/mol
# GULP energy per Si atom -12391.519378 kJ/mol
# Density = 2.241961 g / cm^3
# Si number density = 22.470753 Si / 1000 Ang^3
#
#
#
# Elastic Constant Matrix: (Units=GPa)
#
#
# Indices 1 2 3 4 5 6 
#
# 1 78.7670 12.8728 34.5009 0.0007 11.5667 0.0029
# 2 12.8728 68.8072 48.8914 -0.0004 11.5990 0.0050
# 3 34.5009 48.8914 100.0905 0.0012 8.7463 -0.0018
# 4 0.0007 -0.0004 0.0012 42.3480 -0.0003 -3.4439
# 5 11.5667 11.5990 8.7463 -0.0003 45.7385 0.0011
# 6 0.0029 0.0050 -0.0018 -3.4439 0.0011 27.2221
#
#
#
# Elastic Compliance Matrix: (Units=1/GPa)
#
#
# Indices 1 2 3 4 5 6 
#
# 1 0.015483 0.001902 -0.005982 0.000000 -0.003254 -0.000002
# 2 0.001902 0.023101 -0.011579 0.000000 -0.004125 -0.000005
# 3 -0.005982 -0.011579 0.017615 0.000000 0.001081 0.000004
# 4 0.000000 0.000000 0.000000 0.023859 0.000000 0.003018
# 5 -0.003254 -0.004125 0.001081 0.000000 0.023526 0.000000
# 6 -0.000002 -0.000005 0.000004 0.003018 0.000000 0.037117
#
#
# Mechanical properties :
#
#
# Convention : Reuss Voigt Hill
#
# Bulk Modulus (GPa) = 40.19221 48.91053 44.55137
# Shear Modulus (GPa) = 27.73000 33.15504 30.44252
#
# Velocity S-wave (km/s) = 3.51671 3.84536 3.68470
# Velocity P-wave (km/s) = 5.86643 6.44432 6.16215
#
# Compressibility (1/GPa) = 0.02488044
#
# Stress axis : x y z
#
# Youngs Moduli (GPa) = 64.58833 43.28909 56.77135
#
# Poissons Ratio (x) = -0.08235 0.33959
# Poissons Ratio (y) = -0.12287 0.65737
# Poissons Ratio (z) = 0.38635 0.50125
#
# Static dielectric constant tensor:
#      x y z
#    x 4.112370 -0.000010 0.003680 
#    y -0.000010 3.982400 0.000000 
#    z 0.003680 0.000000 4.304560 
# 
# 
# High freq. dielectric constant tensor:
#      x y z
#    x 1.895450 0.000000 -0.002240 
#    y 0.000000 1.878250 0.000000 
#    z -0.002240 0.000000 1.897150 
# 
# From -- ./inp_files/315694.got.cif
#   From: 2010.06.25/outbox.cif.g09.slc.cpg/sg15_158_cif.got.tgz:315694.got - 2010.06.28 07:06:18.
