data_PCOD8152462
_publ_section_title
;
Structure prediction by ZEFSAII (Michael W. Deem and Ramdas Pophale) SiO2 
 PCOD8152462
Probable space group: C 2/C
;
_chemical_formula_sum "Si O2"
_cell_formula_units_Z 56
_cell_length_a 21.159752
_cell_length_b 20.799404
_cell_length_c 8.769775
_cell_angle_alpha 90.000000
_cell_angle_beta 134.042688
_cell_angle_gamma 90.000000
_cell_volume 2774.414238
_symmetry_space_group_name_H-M "C 2/C"
_symmetry_group_IT_number 15
_symmetry_cell_setting 'monoclinic'
loop_
_space_group_symop_operation_xyz
x,y,z
-x,y,1/2-z
-x,-y,-z
x,-y,1/2+z
1/2+x,1/2+y,z
1/2-x,1/2+y,1/2-z
1/2-x,1/2-y,-z
1/2+x,1/2-y,1/2+z
loop_
_atom_site_type_symbol
_atom_site_label
_atom_site_fract_x
_atom_site_fract_y
_atom_site_fract_z
Si Si1 0.103912 0.383178 0.671166
Si Si2 0.500000 0.817500 0.750000
Si Si3 0.000000 0.550521 0.750000
Si Si4 0.209087 0.737044 0.268418
Si Si5 0.681068 0.985023 0.987963
Si Si6 0.756098 0.408189 0.113188
Si Si7 0.357075 0.224474 0.797348
Si Si8 0.898404 0.820422 0.599473
O O1 0.070196 0.360397 0.778681
O O2 0.020165 0.404755 0.429994
O O3 0.157522 0.329533 0.670814
O O4 0.172829 0.439828 0.824174
O O5 0.447027 0.773352 0.543630
O O6 0.917534 0.504747 0.634914
O O7 0.250000 0.750000 0.500000
O O8 0.283066 0.735181 0.261850
O O9 0.140950 0.795776 0.127337
O O10 0.733983 0.047899 0.020955
O O11 0.728342 0.948842 0.206176
O O12 0.824282 0.348639 0.215893
O O13 0.655274 0.383662 0.940242
O O14 0.380198 0.260234 0.680457
O O15 0.000000 0.838536 0.750000
#
# Coordination Sequence:
#
# PCOD8152462 Si02
#       8
#     8   4   4   8   8   8   8   8
#     4  12  24  38  61  91 132 169 214 257 318 390
#     4  12  21  38  62  94 134 170 207 268 314 390
#     4  12  27  36  60  98 132 172 217 258 320 402
#     4  11  22  42  64  95 132 172 212 267 327 387
#     4  12  24  42  61  92 132 172 211 262 327 393
#     4  11  24  44  66  92 131 172 212 268 326 388
#     4  11  24  41  66  96 133 171 215 263 329 388
#     4  11  26  45  68  96 128 173 224 275 323 383
#
# _framework density 20.184441
#
# number of rings (size 3 to 8) (size 9 to 14) (size 15 to 20)
#    0.000    0.571    4.286    5.143    7.000    0.000 
#    0.000    0.714    0.000    0.000    0.000    0.000 
#    0.000    0.000    0.000    0.000    0.000    0.000 
#
# Total GULP energy -347241.876296 kJ/mol
# GULP energy per Si atom -12401.495582 kJ/mol
# Density = 2.013850 g / cm^3
# Si number density = 20.184441 Si / 1000 Ang^3
#
#
#
# Elastic Constant Matrix: (Units=GPa)
#
#
# Indices 1 2 3 4 5 6 
#
# 1 101.6514 60.4485 34.4246 0.0000 15.8355 0.0000
# 2 60.4485 113.0934 40.6710 0.0000 5.3935 0.0000
# 3 34.4246 40.6710 110.1501 0.0000 9.2240 0.0000
# 4 0.0000 0.0000 0.0000 38.0647 0.0000 -0.0619
# 5 15.8355 5.3935 9.2240 0.0000 37.6841 0.0000
# 6 0.0000 0.0000 0.0000 -0.0619 0.0000 31.6975
#
#
#
# Elastic Compliance Matrix: (Units=1/GPa)
#
#
# Indices 1 2 3 4 5 6 
#
# 1 0.015684 -0.007531 -0.001694 0.000000 -0.005098 0.000000
# 2 -0.007531 0.013823 -0.002909 0.000000 0.001898 0.000000
# 3 -0.001694 -0.002909 0.010809 0.000000 -0.001518 0.000000
# 4 0.000000 0.000000 0.000000 0.026271 0.000000 0.000051
# 5 -0.005098 0.001898 -0.001518 0.000000 0.028778 0.000000
# 6 0.000000 0.000000 0.000000 0.000051 0.000000 0.031548
#
#
# Mechanical properties :
#
#
# Convention : Reuss Voigt Hill
#
# Bulk Modulus (GPa) = 62.31337 66.22034 64.26686
# Shear Modulus (GPa) = 31.94254 34.11266 33.02760
#
# Velocity S-wave (km/s) = 3.98242 4.11548 4.04950
# Velocity P-wave (km/s) = 7.21701 7.44726 7.33304
#
# Compressibility (1/GPa) = 0.01604792
#
# Stress axis : x y z
#
# Youngs Moduli (GPa) = 63.76108 72.34278 92.51304
#
# Poissons Ratio (x) = 0.54478 0.15672
# Poissons Ratio (y) = 0.48015 0.26916
# Poissons Ratio (z) = 0.10802 0.21047
#
# Static dielectric constant tensor:
#      x y z
#    x 3.648300 0.000000 -0.026430 
#    y 0.000000 3.764450 0.000000 
#    z -0.026430 0.000000 3.872800 
# 
# 
# High freq. dielectric constant tensor:
#      x y z
#    x 1.782550 0.000000 -0.013640 
#    y 0.000000 1.782850 0.000000 
#    z -0.013640 0.000000 1.796940 
# 
# From -- ./inp_files/57942.got.cif
#   From: 2010.06.25/outbox.cif.g09.slc.cpg/sg15_29_cif.got.tgz:57942.got - 2010.06.28 07:06:18.
