data_PCOD8152466
_publ_section_title
;
Structure prediction by ZEFSAII (Michael W. Deem and Ramdas Pophale) SiO2 
 PCOD8152466
Probable space group: C 2/C
;
_chemical_formula_sum "Si O2"
_cell_formula_units_Z 48
_cell_length_a 8.676145
_cell_length_b 17.737410
_cell_length_c 16.470116
_cell_angle_alpha 90.000000
_cell_angle_beta 115.942064
_cell_angle_gamma 90.000000
_cell_volume 2279.227955
_symmetry_space_group_name_H-M "C 2/C"
_symmetry_group_IT_number 15
_symmetry_cell_setting 'monoclinic'
loop_
_space_group_symop_operation_xyz
x,y,z
-x,y,1/2-z
-x,-y,-z
x,-y,1/2+z
1/2+x,1/2+y,z
1/2-x,1/2+y,1/2-z
1/2-x,1/2-y,-z
1/2+x,1/2-y,1/2+z
loop_
_atom_site_type_symbol
_atom_site_label
_atom_site_fract_x
_atom_site_fract_y
_atom_site_fract_z
Si Si1 0.777160 0.324010 0.897470
Si Si2 0.803170 0.255719 0.729111
Si Si3 0.515140 0.567201 0.943614
Si Si4 0.993327 0.218019 0.455721
Si Si5 0.683385 0.998653 0.581839
Si Si6 0.184215 0.086491 0.750755
O O1 0.765010 0.307054 0.798804
O O2 0.620043 0.285935 0.908237
O O3 0.753282 0.413028 0.904157
O O4 0.953805 0.291020 0.977414
O O5 0.696784 0.278925 0.624791
O O6 0.744682 0.171030 0.735721
O O7 0.000000 0.262910 0.750000
O O8 0.694079 0.556716 0.937762
O O9 0.347331 0.559208 0.848149
O O10 0.500000 0.500000 0.000000
O O11 0.503988 0.647322 0.983935
O O12 0.500000 0.000000 0.500000
O O13 0.680923 0.030768 0.673655
O O14 0.000000 0.083947 0.750000
#
# Coordination Sequence:
#
# PCOD8152466 Si02
#       6
#     8   8   8   8   8   8
#     4  11  24  43  64  99 132 172 225 276 339 404
#     4  11  24  41  65  96 127 172 225 277 338 399
#     4  11  22  42  65  93 130 179 215 261 336 409
#     4  11  24  42  68  93 135 176 219 279 339 407
#     4  11  24  41  67  95 131 169 220 277 332 396
#     4   9  21  42  62  90 130 173 213 265 335 399
#
# _framework density 21.059763
#
# number of rings (size 3 to 8) (size 9 to 14) (size 15 to 20)
#    0.000    1.333    3.333    1.500    4.667    2.000 
#    0.000    0.833    0.000    0.000    0.000    0.000 
#    0.000    0.000    0.000    0.000    0.000    0.000 
#
# Total GULP energy -297550.718932 kJ/mol
# GULP energy per Si atom -12397.946622 kJ/mol
# Density = 2.101183 g / cm^3
# Si number density = 21.059763 Si / 1000 Ang^3
#
#
#
# Elastic Constant Matrix: (Units=GPa)
#
#
# Indices 1 2 3 4 5 6 
#
# 1 56.1411 22.8143 42.4474 0.0000 6.4766 0.0000
# 2 22.8143 89.0452 40.7570 0.0000 -7.9797 0.0000
# 3 42.4474 40.7570 182.5652 0.0000 12.7317 0.0000
# 4 0.0000 0.0000 0.0000 44.2309 0.0000 -3.3473
# 5 6.4766 -7.9797 12.7317 0.0000 34.7919 0.0000
# 6 0.0000 0.0000 0.0000 -3.3473 0.0000 29.5077
#
#
#
# Elastic Compliance Matrix: (Units=1/GPa)
#
#
# Indices 1 2 3 4 5 6 
#
# 1 0.023162 -0.004379 -0.004143 0.000000 -0.003800 0.000000
# 2 -0.004379 0.013901 -0.002426 0.000000 0.004891 0.000000
# 3 -0.004143 -0.002426 0.007150 0.000000 -0.002402 0.000000
# 4 0.000000 0.000000 0.000000 0.022804 0.000000 0.002587
# 5 -0.003800 0.004891 -0.002402 0.000000 0.031450 0.000000
# 6 0.000000 0.000000 0.000000 0.002587 0.000000 0.034183
#
#
# Mechanical properties :
#
#
# Convention : Reuss Voigt Hill
#
# Bulk Modulus (GPa) = 44.80807 59.97652 52.39230
# Shear Modulus (GPa) = 30.86685 36.48830 33.67757
#
# Velocity S-wave (km/s) = 3.83257 4.16698 4.00327
# Velocity P-wave (km/s) = 6.39591 7.18976 6.80442
#
# Compressibility (1/GPa) = 0.02231741
#
# Stress axis : x y z
#
# Youngs Moduli (GPa) = 43.17342 71.93703 139.86217
#
# Poissons Ratio (x) = 0.31499 0.57943
# Poissons Ratio (y) = 0.18905 0.33936
# Poissons Ratio (z) = 0.17886 0.17455
#
# Static dielectric constant tensor:
#      x y z
#    x 3.944970 0.000000 -0.258500 
#    y 0.000000 3.924560 0.000000 
#    z -0.258500 0.000000 4.400150 
# 
# 
# High freq. dielectric constant tensor:
#      x y z
#    x 1.801220 0.000000 -0.003880 
#    y 0.000000 1.831160 0.000000 
#    z -0.003880 0.000000 1.851100 
# 
# From -- ./inp_files/190602.got.cif
#   From: 2010.06.25/outbox.cif.g09.slc.cpg/sg15_96_cif.got.tgz:190602.got - 2010.06.28 07:06:18.
