data_PCOD8152984
_publ_section_title
;
Structure prediction by ZEFSAII (Michael W. Deem and Ramdas Pophale) SiO2 
 PCOD8152984
Probable space group: C 2/C
;
_chemical_formula_sum "Si O2"
_cell_formula_units_Z 32
_cell_length_a 13.532622
_cell_length_b 8.207524
_cell_length_c 25.885006
_cell_angle_alpha 90.000000
_cell_angle_beta 157.344212
_cell_angle_gamma 90.000000
_cell_volume 1107.444470
_symmetry_space_group_name_H-M "C 2/C"
_symmetry_group_IT_number 15
_symmetry_cell_setting 'monoclinic'
loop_
_space_group_symop_operation_xyz
x,y,z
-x,y,1/2-z
-x,-y,-z
x,-y,1/2+z
1/2+x,1/2+y,z
1/2-x,1/2+y,1/2-z
1/2-x,1/2-y,-z
1/2+x,1/2-y,1/2+z
loop_
_atom_site_type_symbol
_atom_site_label
_atom_site_fract_x
_atom_site_fract_y
_atom_site_fract_z
Si Si1 0.907195 0.880534 0.040987
Si Si2 0.717054 0.180698 0.256719
Si Si3 0.040947 0.317615 0.036407
Si Si4 0.938999 0.342051 0.160423
O O1 0.927780 0.739339 0.096807
O O2 0.949153 0.806186 0.005454
O O3 0.169810 0.999035 0.175102
O O4 0.636218 0.986892 0.905390
O O5 0.721049 0.295044 0.309822
O O6 0.856154 0.235687 0.271235
O O7 0.812942 0.268651 0.965171
O O8 0.000000 0.500000 0.000000
O O9 0.000000 0.371495 0.250000
#
# Coordination Sequence:
#
# PCOD8152984 Si02
#       4
#     8   8   8   8
#     4  11  23  44  70 101 137 181 235 278 351 412
#     4  11  23  41  70  97 137 187 227 285 349 404
#     4  11  23  43  67  97 135 178 231 290 344 410
#     4  11  23  43  71  99 144 186 225 286 350 410
#
# _framework density 28.895354000000001
#
# number of rings (size 3 to 8) (size 9 to 14) (size 15 to 20)
#    0.000    1.000    2.500    7.500    0.000    0.000 
#    0.000   12.500    0.000    0.000    0.000    0.000 
#    0.000    0.000    0.000    0.000    0.000    0.000 
#
# Total GULP energy -198236.674302 kJ/mol
# GULP energy per Si atom -12389.792144 kJ/mol
# Density = 2.882959 g / cm^3
# Si number density = 28.895354 Si / 1000 Ang^3
#
#
#
# Elastic Constant Matrix: (Units=GPa)
#
#
# Indices 1 2 3 4 5 6 
#
# 1 109.5909 73.4456 69.9149 -0.0009 -30.8430 0.0002
# 2 73.4456 170.6674 59.7381 -0.0001 -19.3341 0.0009
# 3 69.9149 59.7381 221.5942 0.0070 -21.3656 -0.0058
# 4 -0.0009 -0.0001 0.0070 45.4461 0.0009 -29.8250
# 5 -30.8430 -19.3341 -21.3656 0.0009 55.2245 -0.0014
# 6 0.0002 0.0009 -0.0058 -29.8250 -0.0014 49.1736
#
#
#
# Elastic Compliance Matrix: (Units=1/GPa)
#
#
# Indices 1 2 3 4 5 6 
#
# 1 0.016374 -0.005250 -0.003164 0.000001 0.006083 0.000000
# 2 -0.005250 0.008301 -0.000607 0.000000 -0.000260 0.000000
# 3 -0.003164 -0.000607 0.005696 -0.000001 0.000224 0.000000
# 4 0.000001 0.000000 -0.000001 0.036554 0.000000 0.022171
# 5 0.006083 -0.000260 0.000224 0.000000 0.021501 0.000001
# 6 0.000000 0.000000 0.000000 0.022171 0.000001 0.033783
#
#
# Mechanical properties :
#
#
# Convention : Reuss Voigt Hill
#
# Bulk Modulus (GPa) = 81.10333 100.89440 90.99886
# Shear Modulus (GPa) = 34.63537 49.88576 42.26056
#
# Velocity S-wave (km/s) = 3.46591 4.15954 3.82846
# Velocity P-wave (km/s) = 6.64421 7.61984 7.14869
#
# Compressibility (1/GPa) = 0.01232995
#
# Stress axis : x y z
#
# Youngs Moduli (GPa) = 61.07388 120.46232 175.55260
#
# Poissons Ratio (x) = 0.63238 0.55551
# Poissons Ratio (y) = 0.32061 0.10651
# Poissons Ratio (z) = 0.19326 0.07309
#
# Static dielectric constant tensor:
#      x y z
#    x 5.587280 0.000010 0.248610 
#    y 0.000010 5.969350 0.000050 
#    z 0.248610 0.000050 8.545100 
# 
# 
# High freq. dielectric constant tensor:
#      x y z
#    x 2.199350 0.000000 0.025650 
#    y 0.000000 2.209280 0.000000 
#    z 0.025650 0.000000 2.245950 
# 
# From -- ./inp_files/93415.got.cif
#   From: 2010.06.25/outbox.cif.g09.slc.cpg/sg15_47_cif.got.tgz:93415.got - 2010.06.28 07:06:18.
