data_PCOD8152614
_publ_section_title
;
Structure prediction by ZEFSAII (Michael W. Deem and Ramdas Pophale) SiO2 
 PCOD8152614
Probable space group: C 2/C
;
_chemical_formula_sum "Si O2"
_cell_formula_units_Z 48
_cell_length_a 8.590031
_cell_length_b 26.726699
_cell_length_c 14.383118
_cell_angle_alpha 90.000000
_cell_angle_beta 141.630246
_cell_angle_gamma 90.000000
_cell_volume 2049.739276
_symmetry_space_group_name_H-M "C 2/C"
_symmetry_group_IT_number 15
_symmetry_cell_setting 'monoclinic'
loop_
_space_group_symop_operation_xyz
x,y,z
-x,y,1/2-z
-x,-y,-z
x,-y,1/2+z
1/2+x,1/2+y,z
1/2-x,1/2+y,1/2-z
1/2-x,1/2-y,-z
1/2+x,1/2-y,1/2+z
loop_
_atom_site_type_symbol
_atom_site_label
_atom_site_fract_x
_atom_site_fract_y
_atom_site_fract_z
Si Si1 0.753212 0.954450 0.410350
Si Si2 0.898508 0.682510 0.904109
Si Si3 0.911943 0.035938 0.601963
Si Si4 0.715655 0.294657 0.651105
Si Si5 0.402257 0.649552 0.579127
Si Si6 0.925941 0.869326 0.617738
O O1 0.500000 0.931341 0.250000
O O2 0.874479 0.977878 0.373665
O O3 0.917598 0.909798 0.531621
O O4 0.701462 0.995499 0.469287
O O5 0.889726 0.740458 0.871328
O O6 0.673654 0.650133 0.754310
O O7 0.827488 0.679861 0.980156
O O8 0.160543 0.659052 0.998481
O O9 0.000000 0.028204 0.750000
O O10 0.814474 0.091820 0.535720
O O11 0.551299 0.322300 0.495620
O O12 0.655092 0.329714 0.711110
O O13 0.000000 0.292469 0.750000
O O14 0.000000 0.895747 0.750000
#
# Coordination Sequence:
#
# PCOD8152614 Si02
#       6
#     8   8   8   8   8   8
#     4  11  26  48  72 104 144 181 234 300 358 422
#     4  11  24  43  71 101 143 188 241 294 353 419
#     4  11  23  47  71 104 135 182 238 285 356 426
#     4  12  25  44  69 101 145 189 242 292 348 426
#     4  11  22  43  72 102 137 189 239 291 350 425
#     4  12  27  46  68 107 145 191 237 297 359 419
#
# _framework density 23.417611999999998
#
# number of rings (size 3 to 8) (size 9 to 14) (size 15 to 20)
#    0.000    0.667    5.000    3.500    2.333    1.333 
#    6.000    0.000    0.000    0.000    0.000    0.000 
#    0.000    0.000    0.000    0.000    0.000    0.000 
#
# Total GULP energy -297368.748394 kJ/mol
# GULP energy per Si atom -12390.364516 kJ/mol
# Density = 2.336431 g / cm^3
# Si number density = 23.417612 Si / 1000 Ang^3
#
#
#
# Elastic Constant Matrix: (Units=GPa)
#
#
# Indices 1 2 3 4 5 6 
#
# 1 86.5639 16.8490 40.1478 0.0000 -11.1410 0.0000
# 2 16.8490 136.4633 40.1706 0.0000 -7.5234 0.0000
# 3 40.1478 40.1706 86.9905 0.0000 -6.9519 0.0000
# 4 0.0000 0.0000 0.0000 28.5111 0.0000 -4.7134
# 5 -11.1410 -7.5234 -6.9519 0.0000 40.7632 0.0000
# 6 0.0000 0.0000 0.0000 -4.7134 0.0000 35.9361
#
#
#
# Elastic Compliance Matrix: (Units=1/GPa)
#
#
# Indices 1 2 3 4 5 6 
#
# 1 0.015057 0.000326 -0.006859 0.000000 0.003006 0.000000
# 2 0.000326 0.008521 -0.004007 0.000000 0.000978 0.000000
# 3 -0.006859 -0.004007 0.016528 0.000000 0.000204 0.000000
# 4 0.000000 0.000000 0.000000 0.035851 0.000000 0.004702
# 5 0.003006 0.000978 0.000204 0.000000 0.025569 0.000000
# 6 0.000000 0.000000 0.000000 0.004702 0.000000 0.028444
#
#
# Mechanical properties :
#
#
# Convention : Reuss Voigt Hill
#
# Bulk Modulus (GPa) = 52.56290 56.03919 54.30104
# Shear Modulus (GPa) = 31.76760 35.23210 33.49985
#
# Velocity S-wave (km/s) = 3.68716 3.88301 3.78635
# Velocity P-wave (km/s) = 6.37350 6.63973 6.50798
#
# Compressibility (1/GPa) = 0.01902483
#
# Stress axis : x y z
#
# Youngs Moduli (GPa) = 66.41496 117.35341 60.50353
#
# Poissons Ratio (x) = -0.03823 0.41501
# Poissons Ratio (y) = -0.02164 0.24245
# Poissons Ratio (z) = 0.45556 0.47025
#
# Static dielectric constant tensor:
#      x y z
#    x 4.393720 0.000000 -0.298060 
#    y 0.000000 4.177980 0.000000 
#    z -0.298060 0.000000 4.212510 
# 
# 
# High freq. dielectric constant tensor:
#      x y z
#    x 1.928710 0.000000 -0.019130 
#    y 0.000000 1.932510 0.000000 
#    z -0.019130 0.000000 1.921250 
# 
# From -- ./inp_files/139040.got.cif
#   From: 2010.06.25/outbox.cif.g09.slc.cpg/sg15_70_cif.got.tgz:139040.got - 2010.06.28 07:06:18.
