data_PCOD8152310
_publ_section_title
;
Structure prediction by ZEFSAII (Michael W. Deem and Ramdas Pophale) SiO2 
 PCOD8152310
Probable space group: C 2/C
;
_chemical_formula_sum "Si O2"
_cell_formula_units_Z 40
_cell_length_a 12.063606
_cell_length_b 17.260636
_cell_length_c 17.729125
_cell_angle_alpha 90.000000
_cell_angle_beta 147.670474
_cell_angle_gamma 90.000000
_cell_volume 1974.252896
_symmetry_space_group_name_H-M "C 2/C"
_symmetry_group_IT_number 15
_symmetry_cell_setting 'monoclinic'
loop_
_space_group_symop_operation_xyz
x,y,z
-x,y,1/2-z
-x,-y,-z
x,-y,1/2+z
1/2+x,1/2+y,z
1/2-x,1/2+y,1/2-z
1/2-x,1/2-y,-z
1/2+x,1/2-y,1/2+z
loop_
_atom_site_type_symbol
_atom_site_label
_atom_site_fract_x
_atom_site_fract_y
_atom_site_fract_z
Si Si1 0.103963 0.717495 0.980996
Si Si2 0.570463 0.951000 0.112891
Si Si3 0.000546 0.874028 0.337293
Si Si4 0.547133 0.087409 0.362487
Si Si5 0.168949 0.728640 0.187010
O O1 0.067031 0.625542 0.952907
O O2 0.886429 0.762916 0.854751
O O3 0.250000 0.750000 0.000000
O O4 0.211823 0.735046 0.122605
O O5 0.811853 0.931781 0.244497
O O6 0.544752 0.002867 0.172839
O O7 0.500000 0.000000 0.000000
O O8 0.208969 0.917189 0.481124
O O9 0.000000 0.849544 0.250000
O O10 0.987296 0.796043 0.378108
O O11 0.500000 0.111163 0.250000
O O12 0.439368 0.147714 0.357007
#
# Coordination Sequence:
#
# PCOD8152310 Si02
#       5
#     8   8   8   8   8
#     4  11  24  42  67  93 132 176 219 266 336 395
#     4  11  23  44  63  93 135 174 221 269 328 406
#     4  11  22  40  67  91 128 172 212 265 333 392
#     4  12  24  40  66  97 127 170 220 275 330 387
#     4  11  22  41  64  95 131 163 224 271 318 397
#
# _framework density 20.260829000000001
#
# number of rings (size 3 to 8) (size 9 to 14) (size 15 to 20)
#    0.000    0.800    4.000    4.200    0.000    5.600 
#    3.600    0.000    0.000    0.000    0.000    0.000 
#    0.000    0.000    0.000    0.000    0.000    0.000 
#
# Total GULP energy -248127.007612 kJ/mol
# GULP energy per Si atom -12406.350381 kJ/mol
# Density = 2.021471 g / cm^3
# Si number density = 20.260829 Si / 1000 Ang^3
#
#
#
# Elastic Constant Matrix: (Units=GPa)
#
#
# Indices 1 2 3 4 5 6 
#
# 1 135.7503 59.3218 37.3673 0.0005 -8.4045 -0.0003
# 2 59.3218 132.6215 45.6645 0.0029 15.1459 0.0002
# 3 37.3673 45.6645 92.5476 0.0050 -2.4580 0.0003
# 4 0.0005 0.0029 0.0050 21.3113 0.0006 -7.5173
# 5 -8.4045 15.1459 -2.4580 0.0006 41.4701 -0.0005
# 6 -0.0003 0.0002 0.0003 -7.5173 -0.0005 30.8480
#
#
#
# Elastic Compliance Matrix: (Units=1/GPa)
#
#
# Indices 1 2 3 4 5 6 
#
# 1 0.009919 -0.004194 -0.001845 0.000001 0.003433 0.000000
# 2 -0.004194 0.011423 -0.004083 0.000000 -0.005264 0.000000
# 3 -0.001845 -0.004083 0.013616 -0.000003 0.001924 -0.000001
# 4 0.000001 0.000000 -0.000003 0.051336 0.000000 0.012510
# 5 0.003433 -0.005264 0.001924 0.000000 0.026846 0.000000
# 6 0.000000 0.000000 -0.000001 0.012510 0.000000 0.035466
#
#
# Mechanical properties :
#
#
# Convention : Reuss Voigt Hill
#
# Bulk Modulus (GPa) = 67.95496 71.73628 69.84562
# Shear Modulus (GPa) = 28.77633 33.29693 31.03663
#
# Velocity S-wave (km/s) = 3.77277 4.05830 3.91814
# Velocity P-wave (km/s) = 7.25198 7.57912 7.41735
#
# Compressibility (1/GPa) = 0.01471563
#
# Stress axis : x y z
#
# Youngs Moduli (GPa) = 100.81227 87.54142 73.44471
#
# Poissons Ratio (x) = 0.36714 0.13548
# Poissons Ratio (y) = 0.42279 0.29986
# Poissons Ratio (z) = 0.18596 0.35742
#
# Static dielectric constant tensor:
#      x y z
#    x 3.822170 0.000000 -0.038090 
#    y 0.000000 3.790150 0.000000 
#    z -0.038090 0.000000 3.741380 
# 
# 
# High freq. dielectric constant tensor:
#      x y z
#    x 1.801810 0.000000 -0.000990 
#    y 0.000000 1.795660 0.000000 
#    z -0.000990 0.000000 1.797890 
# 
# From -- ./inp_files/29045.got.cif
#   From: 2010.06.25/outbox.cif.g09.slc.cpg/sg15_15_cif.got.tgz:29045.got - 2010.06.28 07:06:18.
