data_PCOD8152018
_publ_section_title
;
Structure prediction by ZEFSAII (Michael W. Deem and Ramdas Pophale) SiO2 
 PCOD8152018
Probable space group: C 2/C
;
_chemical_formula_sum "Si O2"
_cell_formula_units_Z 44
_cell_length_a 16.705338
_cell_length_b 8.520257
_cell_length_c 26.601419
_cell_angle_alpha 90.000000
_cell_angle_beta 31.187997
_cell_angle_gamma 90.000000
_cell_volume 1960.716965
_symmetry_space_group_name_H-M "C 2/C"
_symmetry_group_IT_number 15
_symmetry_cell_setting 'monoclinic'
loop_
_space_group_symop_operation_xyz
x,y,z
-x,y,1/2-z
-x,-y,-z
x,-y,1/2+z
1/2+x,1/2+y,z
1/2-x,1/2+y,1/2-z
1/2-x,1/2-y,-z
1/2+x,1/2-y,1/2+z
loop_
_atom_site_type_symbol
_atom_site_label
_atom_site_fract_x
_atom_site_fract_y
_atom_site_fract_z
Si Si1 0.990297 0.670937 0.929092
Si Si2 0.427610 0.938775 0.217971
Si Si3 0.713737 0.542482 0.583661
Si Si4 0.000000 0.805538 0.750000
Si Si5 0.792280 0.974673 0.022857
Si Si6 0.779154 0.183300 0.117665
O O1 0.102597 0.613963 0.823243
O O2 0.091545 0.724404 0.921340
O O3 0.876851 0.808418 0.970719
O O4 0.887289 0.521446 0.999950
O O5 0.378397 0.799781 0.282731
O O6 0.333870 0.096359 0.282096
O O7 0.610024 0.957401 0.130427
O O8 0.593345 0.408712 0.661123
O O9 0.685236 0.578310 0.539817
O O10 0.683523 0.694331 0.634442
O O11 0.862549 0.064563 0.033605
#
# Coordination Sequence:
#
# PCOD8152018 Si02
#       6
#     8   8   8   4   8   8
#     4  11  23  46  68  99 138 183 218 277 346 406
#     4  11  22  43  68  98 132 181 227 273 327 413
#     4  11  24  41  68  99 133 184 228 272 333 409
#     4  12  20  40  72  92 132 176 240 268 326 404
#     4  11  21  45  70  94 131 184 228 267 334 412
#     4  12  25  40  68 105 141 166 225 294 335 383
#
# _framework density 22.440771999999999
#
# number of rings (size 3 to 8) (size 9 to 14) (size 15 to 20)
#    0.000    0.727    5.455    2.727    2.545    1.455 
#    0.000    3.636    0.000    0.000    0.000    0.000 
#    0.000    0.000    0.000    0.000    0.000    0.000 
#
# Total GULP energy -272767.812646 kJ/mol
# GULP energy per Si atom -12398.536938 kJ/mol
# Density = 2.238970 g / cm^3
# Si number density = 22.440772 Si / 1000 Ang^3
#
#
#
# Elastic Constant Matrix: (Units=GPa)
#
#
# Indices 1 2 3 4 5 6 
#
# 1 124.9482 32.4508 43.2060 0.0035 28.0976 -0.0043
# 2 32.4508 99.8659 32.6314 0.0051 20.5549 -0.0061
# 3 43.2060 32.6314 73.5807 -0.0001 24.4867 0.0017
# 4 0.0035 0.0051 -0.0001 32.1570 0.0002 15.2203
# 5 28.0976 20.5549 24.4867 0.0002 26.1165 -0.0005
# 6 -0.0043 -0.0061 0.0017 15.2203 -0.0005 41.2651
#
#
#
# Elastic Compliance Matrix: (Units=1/GPa)
#
#
# Indices 1 2 3 4 5 6 
#
# 1 0.011278 -0.000828 -0.003538 -0.000002 -0.008164 0.000002
# 2 -0.000828 0.012535 -0.003032 -0.000003 -0.006132 0.000003
# 3 -0.003538 -0.003032 0.021733 0.000002 -0.014184 -0.000003
# 4 -0.000002 -0.000003 0.000002 0.037675 0.000002 -0.013896
# 5 -0.008164 -0.006132 -0.014184 0.000002 0.065198 -0.000001
# 6 0.000002 0.000003 -0.000003 -0.013896 -0.000001 0.029359
#
#
# Mechanical properties :
#
#
# Convention : Reuss Voigt Hill
#
# Bulk Modulus (GPa) = 32.52114 57.21903 44.87008
# Shear Modulus (GPa) = 24.65187 32.58149 28.61668
#
# Velocity S-wave (km/s) = 3.31800 3.81450 3.57488
# Velocity P-wave (km/s) = 5.40392 6.70475 6.08917
#
# Compressibility (1/GPa) = 0.03074923
#
# Stress axis : x y z
#
# Youngs Moduli (GPa) = 88.67034 79.77374 46.01324
#
# Poissons Ratio (x) = 0.06607 0.16279
# Poissons Ratio (y) = 0.07344 0.13952
# Poissons Ratio (z) = 0.31371 0.24189
#
# Static dielectric constant tensor:
#      x y z
#    x 4.003800 0.000000 0.418820 
#    y 0.000000 4.184360 0.000000 
#    z 0.418820 0.000000 4.006250 
# 
# 
# High freq. dielectric constant tensor:
#      x y z
#    x 1.882300 0.000000 0.034420 
#    y 0.000000 1.890450 0.000000 
#    z 0.034420 0.000000 1.872330 
# 
# From -- ./inp_files/315473.got.cif
#   From: 2010.06.25/outbox.cif.g09.slc.cpg/sg15_158_cif.got.tgz:315473.got - 2010.06.28 07:06:18.
