data_PCOD8152722
_publ_section_title
;
Structure prediction by ZEFSAII (Michael W. Deem and Ramdas Pophale) SiO2 
 PCOD8152722
Probable space group: C 2/C
;
_chemical_formula_sum "Si O2"
_cell_formula_units_Z 56
_cell_length_a 9.720564
_cell_length_b 11.113738
_cell_length_c 27.662597
_cell_angle_alpha 90.000000
_cell_angle_beta 121.231410
_cell_angle_gamma 90.000000
_cell_volume 2555.355870
_symmetry_space_group_name_H-M "C 2/C"
_symmetry_group_IT_number 15
_symmetry_cell_setting 'monoclinic'
loop_
_space_group_symop_operation_xyz
x,y,z
-x,y,1/2-z
-x,-y,-z
x,-y,1/2+z
1/2+x,1/2+y,z
1/2-x,1/2+y,1/2-z
1/2-x,1/2-y,-z
1/2+x,1/2-y,1/2+z
loop_
_atom_site_type_symbol
_atom_site_label
_atom_site_fract_x
_atom_site_fract_y
_atom_site_fract_z
Si Si1 0.847370 0.435418 0.494990
Si Si2 0.469753 0.915753 0.295682
Si Si3 0.168546 0.925702 0.294471
Si Si4 0.032633 0.620933 0.378516
Si Si5 0.152786 0.839055 0.947790
Si Si6 0.690747 0.230123 0.599223
Si Si7 0.313772 0.320290 0.658464
O O1 0.885944 0.390933 0.554968
O O2 0.693336 0.524197 0.470562
O O3 0.810092 0.320922 0.455124
O O4 0.000000 0.500000 0.500000
O O5 0.500000 0.983028 0.250000
O O6 0.275735 0.908228 0.265614
O O7 0.564963 0.789111 0.308674
O O8 0.522705 0.989944 0.352418
O O9 0.285815 0.873973 0.357453
O O10 0.000000 0.860848 0.250000
O O11 0.118081 0.058542 0.304369
O O12 0.150556 0.691612 0.364815
O O13 0.864880 0.693975 0.351341
O O14 0.209285 0.827764 0.903076
O O15 0.964188 0.811816 0.918037
O O16 0.250000 0.750000 0.000000
#
# Coordination Sequence:
#
# PCOD8152722 Si02
#       7
#     8   8   8   8   8   8   8
#     4  12  21  42  69  96 137 180 220 273 339 413
#     4  11  25  46  70  98 133 181 237 283 343 407
#     4  11  25  45  69  98 133 179 232 286 342 409
#     4  11  26  42  67 103 143 170 223 286 344 408
#     4  12  22  37  72  98 133 180 223 274 336 415
#     4  12  25  42  65 105 137 175 226 282 346 412
#     4  11  22  45  69  97 131 181 231 274 341 412
#
# _framework density 21.914757000000002
#
# number of rings (size 3 to 8) (size 9 to 14) (size 15 to 20)
#    0.000    0.571    5.714    2.571    2.000    3.429 
#    2.571    0.000    0.000    0.000    0.000    0.000 
#    0.000    0.000    0.000    0.000    0.000    0.000 
#
# Total GULP energy -347022.983802 kJ/mol
# GULP energy per Si atom -12393.677993 kJ/mol
# Density = 2.186488 g / cm^3
# Si number density = 21.914757 Si / 1000 Ang^3
#
#
#
# Elastic Constant Matrix: (Units=GPa)
#
#
# Indices 1 2 3 4 5 6 
#
# 1 152.6940 57.5628 51.9219 0.0000 13.8195 0.0000
# 2 57.5628 91.8910 15.6597 0.0000 10.9484 0.0000
# 3 51.9219 15.6597 101.4551 0.0000 -1.5645 0.0000
# 4 0.0000 0.0000 0.0000 4.6646 0.0000 6.4266
# 5 13.8195 10.9484 -1.5645 0.0000 43.2085 0.0000
# 6 0.0000 0.0000 0.0000 6.4266 0.0000 46.1914
#
#
#
# Elastic Compliance Matrix: (Units=1/GPa)
#
#
# Indices 1 2 3 4 5 6 
#
# 1 0.010311 -0.005450 -0.004468 0.000000 -0.002079 0.000000
# 2 -0.005450 0.014431 0.000532 0.000000 -0.001894 0.000000
# 3 -0.004468 0.000532 0.012088 0.000000 0.001732 0.000000
# 4 0.000000 0.000000 0.000000 0.265221 0.000000 -0.036900
# 5 -0.002079 -0.001894 0.001732 0.000000 0.024351 0.000000
# 6 0.000000 0.000000 0.000000 -0.036900 0.000000 0.026783
#
#
# Mechanical properties :
#
#
# Convention : Reuss Voigt Hill
#
# Bulk Modulus (GPa) = 55.37279 66.25874 60.81577
# Shear Modulus (GPa) = 13.22838 33.53929 23.38384
#
# Velocity S-wave (km/s) = 2.45955 3.91633 3.27010
# Velocity P-wave (km/s) = 5.77824 7.12395 6.48609
#
# Compressibility (1/GPa) = 0.01805941
#
# Stress axis : x y z
#
# Youngs Moduli (GPa) = 96.98491 69.29325 82.72991
#
# Poissons Ratio (x) = 0.37765 0.36961
# Poissons Ratio (y) = 0.52857 -0.04405
# Poissons Ratio (z) = 0.43330 -0.03689
#
# Static dielectric constant tensor:
#      x y z
#    x 4.584190 0.000000 -0.096230 
#    y 0.000000 4.352980 0.000000 
#    z -0.096230 0.000000 4.182850 
# 
# 
# High freq. dielectric constant tensor:
#      x y z
#    x 1.875370 0.000000 -0.001400 
#    y 0.000000 1.848530 0.000000 
#    z -0.001400 0.000000 1.876220 
# 
# From -- ./inp_files/307540.got.cif
#   From: 2010.06.25/outbox.cif.g09.slc.cpg/sg15_154_cif.got.tgz:307540.got - 2010.06.28 07:06:18.
