data_PCOD8152288
_publ_section_title
;
Structure prediction by ZEFSAII (Michael W. Deem and Ramdas Pophale) SiO2 
 PCOD8152288
Probable space group: C 2/C
;
_chemical_formula_sum "Si O2"
_cell_formula_units_Z 64
_cell_length_a 15.871312
_cell_length_b 12.612107
_cell_length_c 26.908212
_cell_angle_alpha 90.000000
_cell_angle_beta 143.718013
_cell_angle_gamma 90.000000
_cell_volume 3187.357359
_symmetry_space_group_name_H-M "C 2/C"
_symmetry_group_IT_number 15
_symmetry_cell_setting 'monoclinic'
loop_
_space_group_symop_operation_xyz
x,y,z
-x,y,1/2-z
-x,-y,-z
x,-y,1/2+z
1/2+x,1/2+y,z
1/2-x,1/2+y,1/2-z
1/2-x,1/2-y,-z
1/2+x,1/2-y,1/2+z
loop_
_atom_site_type_symbol
_atom_site_label
_atom_site_fract_x
_atom_site_fract_y
_atom_site_fract_z
Si Si1 0.119888 0.679438 0.701783
Si Si2 0.831857 0.766954 0.090136
Si Si3 0.589239 0.987674 0.615468
Si Si4 0.644843 0.182465 0.220761
Si Si5 0.328800 0.289450 0.586241
Si Si6 0.668123 0.097079 0.332621
Si Si7 0.777615 0.514085 0.925048
Si Si8 0.330928 0.867879 0.169170
O O1 0.063106 0.579311 0.643860
O O2 0.236041 0.729002 0.721938
O O3 0.211823 0.647111 0.794044
O O4 0.995344 0.763038 0.657140
O O5 0.765856 0.685322 0.099301
O O6 0.996568 0.739915 0.161480
O O7 0.818340 0.885693 0.105023
O O8 0.750000 0.750000 0.000000
O O9 0.434546 0.966523 0.520015
O O10 0.640089 0.882032 0.667330
O O11 0.705855 0.008241 0.627301
O O12 0.709256 0.109025 0.294798
O O13 0.250000 0.250000 0.500000
O O14 0.299204 0.411593 0.586746
O O15 0.266277 0.221712 0.602727
O O16 0.500000 0.105333 0.250000
O O17 0.721450 0.981859 0.376641
O O18 0.500000 0.864797 0.250000
#
# Coordination Sequence:
#
# PCOD8152288 Si02
#       8
#     8   8   8   8   8   8   8   8
#     4  11  22  40  65  95 125 163 212 262 319 377
#     4  11  23  39  64  93 125 167 209 258 316 384
#     4  11  22  41  67  90 127 174 210 263 324 380
#     4  11  22  40  65  95 125 163 212 262 319 377
#     4  11  23  39  64  93 125 167 209 258 316 384
#     4   9  19  36  62  88 117 158 208 251 304 373
#     4  11  24  41  62  97 132 166 214 266 324 384
#     4   9  19  36  62  88 117 158 208 251 304 373
#
# _framework density 20.079331
#
# number of rings (size 3 to 8) (size 9 to 14) (size 15 to 20)
#    0.000    1.500    3.750    1.500    3.500    1.000 
#    0.000    6.875    0.000    1.500    0.000    0.000 
#    0.000    0.000    0.000    0.000    0.000    0.000 
#
# Total GULP energy -396538.126412 kJ/mol
# GULP energy per Si atom -12391.816450 kJ/mol
# Density = 2.003363 g / cm^3
# Si number density = 20.079331 Si / 1000 Ang^3
#
#
#
# Elastic Constant Matrix: (Units=GPa)
#
#
# Indices 1 2 3 4 5 6 
#
# 1 94.0103 39.4219 29.7627 0.0000 -19.7668 0.0000
# 2 39.4219 140.4030 34.1304 0.0000 -13.0000 0.0000
# 3 29.7627 34.1304 66.1832 0.0000 -20.8555 0.0000
# 4 0.0000 0.0000 0.0000 28.0029 0.0000 -9.7039
# 5 -19.7668 -13.0000 -20.8555 0.0000 37.4149 0.0000
# 6 0.0000 0.0000 0.0000 -9.7039 0.0000 21.5968
#
#
#
# Elastic Compliance Matrix: (Units=1/GPa)
#
#
# Indices 1 2 3 4 5 6 
#
# 1 0.013756 -0.002615 -0.003437 0.000000 0.004443 0.000000
# 2 -0.002615 0.008651 -0.003364 0.000000 -0.000251 0.000000
# 3 -0.003437 -0.003364 0.021168 0.000000 0.008814 0.000000
# 4 0.000000 0.000000 0.000000 0.042296 0.000000 0.019005
# 5 0.004443 -0.000251 0.008814 0.000000 0.033900 0.000000
# 6 0.000000 0.000000 0.000000 0.019005 0.000000 0.054842
#
#
# Mechanical properties :
#
#
# Convention : Reuss Voigt Hill
#
# Bulk Modulus (GPa) = 40.41895 56.35852 48.38873
# Shear Modulus (GPa) = 24.78977 30.55503 27.67240
#
# Velocity S-wave (km/s) = 3.51749 3.90515 3.71638
# Velocity P-wave (km/s) = 6.05560 6.96150 6.52429
#
# Compressibility (1/GPa) = 0.02474087
#
# Stress axis : x y z
#
# Youngs Moduli (GPa) = 72.69394 115.58939 47.24125
#
# Poissons Ratio (x) = 0.30232 0.16239
# Poissons Ratio (y) = 0.19013 0.15894
# Poissons Ratio (z) = 0.24988 0.38889
#
# Static dielectric constant tensor:
#      x y z
#    x 4.611960 0.000000 -0.693510 
#    y 0.000000 3.822640 0.000000 
#    z -0.693510 0.000000 3.640530 
# 
# 
# High freq. dielectric constant tensor:
#      x y z
#    x 1.789950 0.000000 -0.028430 
#    y 0.000000 1.793650 0.000000 
#    z -0.028430 0.000000 1.765360 
# 
# From -- ./inp_files/248598.got.cif
#   From: 2010.06.25/outbox.cif.g09.slc.cpg/sg15_125_cif.got.tgz:248598.got - 2010.06.28 07:06:18.
