data_PCOD8152738
_publ_section_title
;
Structure prediction by ZEFSAII (Michael W. Deem and Ramdas Pophale) SiO2 
 PCOD8152738
Probable space group: C 2/C
;
_chemical_formula_sum "Si O2"
_cell_formula_units_Z 64
_cell_length_a 11.930737
_cell_length_b 14.099296
_cell_length_c 30.262432
_cell_angle_alpha 90.000000
_cell_angle_beta 35.093756
_cell_angle_gamma 90.000000
_cell_volume 2926.664831
_symmetry_space_group_name_H-M "C 2/C"
_symmetry_group_IT_number 15
_symmetry_cell_setting 'monoclinic'
loop_
_space_group_symop_operation_xyz
x,y,z
-x,y,1/2-z
-x,-y,-z
x,-y,1/2+z
1/2+x,1/2+y,z
1/2-x,1/2+y,1/2-z
1/2-x,1/2-y,-z
1/2+x,1/2-y,1/2+z
loop_
_atom_site_type_symbol
_atom_site_label
_atom_site_fract_x
_atom_site_fract_y
_atom_site_fract_z
Si Si1 0.665446 0.992402 0.810873
Si Si2 0.093542 0.188264 0.263621
Si Si3 0.667330 0.755576 0.664089
Si Si4 0.239638 0.739279 0.431913
Si Si5 0.601770 0.653957 0.814901
Si Si6 0.055741 0.109320 0.930434
Si Si7 0.228401 0.558678 0.099110
Si Si8 0.520425 0.853636 0.077351
O O1 0.820650 0.914695 0.776733
O O2 0.502651 0.940457 0.834088
O O3 0.778359 0.069314 0.745584
O O4 0.546479 0.038654 0.890532
O O5 0.261415 0.254807 0.227560
O O6 0.000000 0.234498 0.250000
O O7 0.921014 0.179278 0.354896
O O8 0.500000 0.793436 0.750000
O O9 0.587624 0.682129 0.652756
O O10 0.780684 0.844849 0.607536
O O11 0.821731 0.705166 0.646111
O O12 0.113080 0.790211 0.434553
O O13 0.317969 0.821886 0.439125
O O14 0.107024 0.661891 0.500325
O O15 0.530102 0.623834 0.886586
O O16 0.223995 0.032875 0.886540
O O17 0.854341 0.063939 0.013422
#
# Coordination Sequence:
#
# PCOD8152738 Si02
#       8
#     8   8   8   8   8   8   8   8
#     4  12  26  45  66 107 137 179 231 290 337 408
#     4  12  25  44  71 100 138 184 230 280 347 415
#     4  12  24  44  68 102 135 186 234 280 343 410
#     4  11  22  45  72 100 133 188 225 277 351 415
#     4  12  26  45  73  99 143 183 228 289 347 408
#     4  11  24  45  71 106 138 176 232 294 349 404
#     4  11  25  43  71 105 138 175 234 298 340 406
#     4  11  24  43  73  95 142 180 227 278 345 414
#
# _framework density 21.867895000000001
#
# number of rings (size 3 to 8) (size 9 to 14) (size 15 to 20)
#    0.000    0.500    7.500    0.000    3.500    1.500 
#    2.250    0.625    0.000    0.000    0.000    0.000 
#    0.000    0.000    0.000    0.000    0.000    0.000 
#
# Total GULP energy -396869.909731 kJ/mol
# GULP energy per Si atom -12402.184679 kJ/mol
# Density = 2.181812 g / cm^3
# Si number density = 21.867895 Si / 1000 Ang^3
#
#
#
# Elastic Constant Matrix: (Units=GPa)
#
#
# Indices 1 2 3 4 5 6 
#
# 1 69.0963 10.6287 5.1045 -0.0016 8.5237 0.0004
# 2 10.6287 75.2162 15.2753 -0.0004 0.6491 -0.0006
# 3 5.1045 15.2753 87.5487 -0.0003 9.1939 0.0011
# 4 -0.0016 -0.0004 -0.0003 41.1735 0.0022 -1.5074
# 5 8.5237 0.6491 9.1939 0.0022 31.9656 -0.0011
# 6 0.0004 -0.0006 0.0011 -1.5074 -0.0011 22.7517
#
#
#
# Elastic Compliance Matrix: (Units=1/GPa)
#
#
# Indices 1 2 3 4 5 6 
#
# 1 0.015298 -0.002106 -0.000104 0.000001 -0.004007 0.000000
# 2 -0.002106 0.014079 -0.002436 0.000000 0.000976 0.000001
# 3 -0.000104 -0.002436 0.012214 0.000000 -0.003436 -0.000001
# 4 0.000001 0.000000 0.000000 0.024347 -0.000002 0.001613
# 5 -0.004007 0.000976 -0.003436 -0.000002 0.033320 0.000002
# 6 0.000000 0.000001 -0.000001 0.001613 0.000002 0.044060
#
#
# Mechanical properties :
#
#
# Convention : Reuss Voigt Hill
#
# Bulk Modulus (GPa) = 30.96033 32.65313 31.80673
# Shear Modulus (GPa) = 30.60411 32.56835 31.58623
#
# Velocity S-wave (km/s) = 3.74505 3.86336 3.80466
# Velocity P-wave (km/s) = 5.73490 5.90467 5.82041
#
# Compressibility (1/GPa) = 0.03229940
#
# Stress axis : x y z
#
# Youngs Moduli (GPa) = 65.36600 71.02796 81.87232
#
# Poissons Ratio (x) = 0.14960 0.00849
# Poissons Ratio (y) = 0.13767 0.19946
# Poissons Ratio (z) = 0.00678 0.17304
#
# Static dielectric constant tensor:
#      x y z
#    x 3.867530 0.000000 -0.023160 
#    y 0.000000 3.938450 0.000000 
#    z -0.023160 0.000000 4.041100 
# 
# 
# High freq. dielectric constant tensor:
#      x y z
#    x 1.857030 0.000000 -0.006460 
#    y 0.000000 1.849600 0.000000 
#    z -0.006460 0.000000 1.870820 
# 
# From -- ./inp_files/311166.got.cif
#   From: 2010.06.25/outbox.cif.g09.slc.cpg/sg15_156_cif.got.tgz:311166.got - 2010.06.28 07:06:18.
