data_PCOD8152602
_publ_section_title
;
Structure prediction by ZEFSAII (Michael W. Deem and Ramdas Pophale) SiO2 
 PCOD8152602
Probable space group: C 2/C
;
_chemical_formula_sum "Si O2"
_cell_formula_units_Z 60
_cell_length_a 14.662735
_cell_length_b 17.579398
_cell_length_c 12.058671
_cell_angle_alpha 90.000000
_cell_angle_beta 113.705499
_cell_angle_gamma 90.000000
_cell_volume 2846.004642
_symmetry_space_group_name_H-M "C 2/C"
_symmetry_group_IT_number 15
_symmetry_cell_setting 'monoclinic'
loop_
_space_group_symop_operation_xyz
x,y,z
-x,y,1/2-z
-x,-y,-z
x,-y,1/2+z
1/2+x,1/2+y,z
1/2-x,1/2+y,1/2-z
1/2-x,1/2-y,-z
1/2+x,1/2-y,1/2+z
loop_
_atom_site_type_symbol
_atom_site_label
_atom_site_fract_x
_atom_site_fract_y
_atom_site_fract_z
Si Si1 0.500000 0.249470 0.250000
Si Si2 0.821854 0.678470 0.039586
Si Si3 0.888193 0.800322 0.401602
Si Si4 0.722405 0.084782 0.861072
Si Si5 0.759522 0.919693 0.809703
Si Si6 0.952661 0.823993 0.843629
Si Si7 0.080140 0.352025 0.130371
Si Si8 0.637338 0.871115 0.547426
O O1 0.431523 0.198587 0.137588
O O2 0.431406 0.298843 0.298035
O O3 0.771391 0.616226 0.089948
O O4 0.750000 0.750000 0.000000
O O5 0.837558 0.643174 0.926166
O O6 0.789817 0.848848 0.345722
O O7 0.852446 0.719292 0.431660
O O8 0.968856 0.840403 0.520424
O O9 0.615148 0.095771 0.749847
O O10 0.775873 0.007114 0.850414
O O11 0.708605 0.095547 0.986035
O O12 0.858118 0.878713 0.812809
O O13 0.670635 0.912054 0.676943
O O14 0.925783 0.735100 0.831642
O O15 0.000000 0.846623 0.750000
O O16 0.977223 0.388242 0.037030
#
# Coordination Sequence:
#
# PCOD8152602 Si02
#       8
#     4   8   8   8   8   8   8   8
#     4  12  20  42  66 102 122 164 220 274 310 368
#     4  12  21  42  69  94 130 166 219 265 310 385
#     4  11  22  43  71  95 123 168 225 266 314 371
#     4  12  27  42  64  99 133 172 209 266 326 390
#     4  12  26  43  64  99 136 171 206 261 338 382
#     4  11  22  43  71  95 124 168 222 271 312 376
#     4  11  22  43  70  96 121 170 227 266 312 374
#     4  11  23  46  66  93 128 171 221 267 312 377
#
# _framework density 21.082184999999999
#
# number of rings (size 3 to 8) (size 9 to 14) (size 15 to 20)
#    0.000    0.533    5.333    4.800    1.867    1.067 
#    6.000    0.000    0.000    0.000    0.000    0.000 
#    0.000    0.000    0.000    0.000    0.000    0.000 
#
# Total GULP energy -372076.837302 kJ/mol
# GULP energy per Si atom -12402.561243 kJ/mol
# Density = 2.103420 g / cm^3
# Si number density = 21.082185 Si / 1000 Ang^3
#
#
#
# Elastic Constant Matrix: (Units=GPa)
#
#
# Indices 1 2 3 4 5 6 
#
# 1 95.8674 32.6052 20.8331 0.0000 -20.8631 0.0000
# 2 32.6052 71.9816 28.7230 0.0000 -4.9142 0.0000
# 3 20.8331 28.7230 91.4986 0.0000 -11.1493 0.0000
# 4 0.0000 0.0000 0.0000 15.8682 0.0000 2.3706
# 5 -20.8631 -4.9142 -11.1493 0.0000 44.9299 0.0000
# 6 0.0000 0.0000 0.0000 2.3706 0.0000 6.8049
#
#
#
# Elastic Compliance Matrix: (Units=1/GPa)
#
#
# Indices 1 2 3 4 5 6 
#
# 1 0.013679 -0.005537 -0.000697 0.000000 0.005573 0.000000
# 2 -0.005537 0.018135 -0.004644 0.000000 -0.001740 0.000000
# 3 -0.000697 -0.004644 0.012832 0.000000 0.002353 0.000000
# 4 0.000000 0.000000 0.000000 0.066479 0.000000 -0.023160
# 5 0.005573 -0.001740 0.002353 0.000000 0.025238 0.000000
# 6 0.000000 0.000000 0.000000 -0.023160 0.000000 0.155022
#
#
# Mechanical properties :
#
#
# Convention : Reuss Voigt Hill
#
# Bulk Modulus (GPa) = 43.68927 47.07447 45.38187
# Shear Modulus (GPa) = 15.58737 25.33299 20.46018
#
# Velocity S-wave (km/s) = 2.72207 3.47021 3.11866
# Velocity P-wave (km/s) = 5.53605 6.19952 5.87715
#
# Compressibility (1/GPa) = 0.02288891
#
# Stress axis : x y z
#
# Youngs Moduli (GPa) = 73.10646 55.14182 77.92757
#
# Poissons Ratio (x) = 0.30534 0.05432
# Poissons Ratio (y) = 0.40482 0.36191
# Poissons Ratio (z) = 0.05096 0.25609
#
# Static dielectric constant tensor:
#      x y z
#    x 3.623030 0.000000 0.448510 
#    y 0.000000 -4.738070 0.000000 
#    z 0.448510 0.000000 3.248020 
# 
# 
# High freq. dielectric constant tensor:
#      x y z
#    x 1.837490 0.000000 -0.004930 
#    y 0.000000 1.795950 0.000000 
#    z -0.004930 0.000000 1.848820 
# 
# From -- ./inp_files/98811.got.cif
#   From: 2010.06.25/outbox.cif.g09.slc.cpg/sg15_50_cif.got.tgz:98811.got - 2010.06.28 07:06:18.
