data_PCOD8152425
_publ_section_title
;
Structure prediction by ZEFSAII (Michael W. Deem and Ramdas Pophale) SiO2 
 PCOD8152425
Probable space group: C 2/C
;
_chemical_formula_sum "Si O2"
_cell_formula_units_Z 32
_cell_length_a 10.444255
_cell_length_b 15.848310
_cell_length_c 16.105579
_cell_angle_alpha 90.000000
_cell_angle_beta 34.281354
_cell_angle_gamma 90.000000
_cell_volume 1501.562806
_symmetry_space_group_name_H-M "C 2/C"
_symmetry_group_IT_number 15
_symmetry_cell_setting 'monoclinic'
loop_
_space_group_symop_operation_xyz
x,y,z
-x,y,1/2-z
-x,-y,-z
x,-y,1/2+z
1/2+x,1/2+y,z
1/2-x,1/2+y,1/2-z
1/2-x,1/2-y,-z
1/2+x,1/2-y,1/2+z
loop_
_atom_site_type_symbol
_atom_site_label
_atom_site_fract_x
_atom_site_fract_y
_atom_site_fract_z
Si Si1 0.003985 0.571042 0.369686
Si Si2 0.345889 0.362002 0.571913
Si Si3 0.337738 0.110677 0.763897
Si Si4 0.736222 0.173675 0.870770
O O1 0.797982 0.585788 0.417205
O O2 0.918835 0.599851 0.505922
O O3 0.226958 0.625556 0.225288
O O4 0.068244 0.473354 0.329708
O O5 0.595584 0.401840 0.438206
O O6 0.342647 0.263177 0.549563
O O7 0.500000 0.145581 0.750000
O O8 0.308215 0.176504 0.704312
O O9 0.000000 0.156268 0.750000
#
# Coordination Sequence:
#
# PCOD8152425 Si02
#       4
#     8   8   8   8
#     4  11  22  41  69 101 128 176 226 278 320 394
#     4  11  22  42  73  95 132 177 233 265 331 396
#     4  12  26  42  65 100 144 176 212 279 350 393
#     4  12  23  43  71 104 128 175 236 280 315 400
#
# _framework density 21.311129000000001
#
# number of rings (size 3 to 8) (size 9 to 14) (size 15 to 20)
#    0.000    0.500    7.500    3.750    0.000    1.000 
#    0.000    1.250    0.000    0.000    0.000    0.000 
#    0.000    0.000    0.000    0.000    0.000    0.000 
#
# Total GULP energy -198386.977811 kJ/mol
# GULP energy per Si atom -12399.186113 kJ/mol
# Density = 2.126262 g / cm^3
# Si number density = 21.311129 Si / 1000 Ang^3
#
#
#
# Elastic Constant Matrix: (Units=GPa)
#
#
# Indices 1 2 3 4 5 6 
#
# 1 119.6686 19.6090 60.6394 -0.0047 -3.3254 0.0125
# 2 19.6090 75.4120 21.2034 0.0366 -11.2172 -0.0035
# 3 60.6394 21.2034 126.8990 0.0525 -12.9711 -0.0210
# 4 -0.0047 0.0366 0.0525 26.7176 -0.0128 -2.4683
# 5 -3.3254 -11.2172 -12.9711 -0.0128 34.5607 -0.0044
# 6 0.0125 -0.0035 -0.0210 -2.4683 -0.0044 17.9845
#
#
#
# Elastic Compliance Matrix: (Units=1/GPa)
#
#
# Indices 1 2 3 4 5 6 
#
# 1 0.011245 -0.001662 -0.005241 0.000013 -0.001425 -0.000013
# 2 -0.001662 0.014654 -0.001232 -0.000016 0.004134 0.000001
# 3 -0.005241 -0.001232 0.010917 -0.000018 0.003193 0.000014
# 4 0.000013 -0.000016 -0.000018 0.037909 0.000004 0.005203
# 5 -0.001425 0.004134 0.003193 0.000004 0.031338 0.000014
# 6 -0.000013 0.000001 0.000014 0.005203 0.000014 0.056317
#
#
# Mechanical properties :
#
#
# Convention : Reuss Voigt Hill
#
# Bulk Modulus (GPa) = 48.67222 58.32036 53.49629
# Shear Modulus (GPa) = 26.95419 30.55442 28.75430
#
# Velocity S-wave (km/s) = 3.56025 3.79057 3.67722
# Velocity P-wave (km/s) = 6.30785 6.82521 6.57162
#
# Compressibility (1/GPa) = 0.02054560
#
# Stress axis : x y z
#
# Youngs Moduli (GPa) = 88.92682 68.24110 91.59897
#
# Poissons Ratio (x) = 0.11343 0.48011
# Poissons Ratio (y) = 0.14782 0.11282
# Poissons Ratio (z) = 0.46611 0.08405
#
# Static dielectric constant tensor:
#      x y z
#    x 3.673160 -0.000010 0.091860 
#    y -0.000010 3.699540 0.000060 
#    z 0.091860 0.000060 4.308010 
# 
# 
# High freq. dielectric constant tensor:
#      x y z
#    x 1.815620 0.000000 0.003140 
#    y 0.000000 1.829330 0.000000 
#    z 0.003140 0.000000 1.855650 
# 
# From -- ./inp_files/27908.got.cif
#   From: 2010.06.25/outbox.cif.g09.slc.cpg/sg15_14_cif.got.tgz:27908.got - 2010.06.28 07:06:18.
