data_PCOD8152779
_publ_section_title
;
Structure prediction by ZEFSAII (Michael W. Deem and Ramdas Pophale) SiO2 
 PCOD8152779
Probable space group: C 2/C
;
_chemical_formula_sum "Si O2"
_cell_formula_units_Z 64
_cell_length_a 14.118167
_cell_length_b 17.995636
_cell_length_c 17.905520
_cell_angle_alpha 90.000000
_cell_angle_beta 139.293824
_cell_angle_gamma 90.000000
_cell_volume 2966.880195
_symmetry_space_group_name_H-M "C 2/C"
_symmetry_group_IT_number 15
_symmetry_cell_setting 'monoclinic'
loop_
_space_group_symop_operation_xyz
x,y,z
-x,y,1/2-z
-x,-y,-z
x,-y,1/2+z
1/2+x,1/2+y,z
1/2-x,1/2+y,1/2-z
1/2-x,1/2-y,-z
1/2+x,1/2-y,1/2+z
loop_
_atom_site_type_symbol
_atom_site_label
_atom_site_fract_x
_atom_site_fract_y
_atom_site_fract_z
Si Si1 0.052064 0.438420 0.473272
Si Si2 0.299341 0.825304 0.269585
Si Si3 0.640963 0.952841 0.375241
Si Si4 0.642684 0.422222 0.788665
Si Si5 0.394424 0.324637 0.875956
Si Si6 0.881661 0.048683 0.472605
Si Si7 0.218914 0.804805 0.051193
Si Si8 0.562090 0.583022 0.711877
O O1 0.090448 0.487869 0.423337
O O2 0.199675 0.395224 0.586938
O O3 0.000000 0.500000 0.500000
O O4 0.934498 0.375700 0.378555
O O5 0.291603 0.746465 0.307106
O O6 0.305855 0.804342 0.184132
O O7 0.152129 0.865672 0.208473
O O8 0.500000 0.921121 0.250000
O O9 0.751497 0.886655 0.462520
O O10 0.723600 0.010982 0.371617
O O11 0.500000 0.396079 0.750000
O O12 0.626879 0.387136 0.698590
O O13 0.655720 0.511566 0.792537
O O14 0.364751 0.367002 0.935143
O O15 0.553964 0.290802 0.971977
O O16 0.923377 0.051629 0.584394
O O17 0.000000 0.000000 0.500000
O O18 0.250000 0.750000 0.000000
O O19 0.500000 0.623466 0.750000
#
# Coordination Sequence:
#
# PCOD8152779 Si02
#       8
#     8   8   8   8   8   8   8   8
#     4  12  26  44  70 104 144 189 240 302 368 435
#     4  12  27  47  70 110 152 191 242 315 379 442
#     4  12  25  44  70 107 142 186 247 306 367 432
#     4  11  24  42  71 108 137 185 253 295 357 452
#     4  12  27  41  72 102 143 192 241 298 377 442
#     4  12  23  46  73 104 141 193 248 299 367 450
#     4  12  26  47  70 102 149 193 234 299 389 453
#     4  11  22  46  77 101 138 199 255 305 367 443
#
# _framework density 21.571482
#
# number of rings (size 3 to 8) (size 9 to 14) (size 15 to 20)
#    0.000    0.250    6.250    3.000    7.000    0.000 
#    0.000    1.250    0.000    0.000    0.000    0.000 
#    0.000    0.000    0.000    0.000    0.000    0.000 
#
# Total GULP energy -396450.121548 kJ/mol
# GULP energy per Si atom -12389.066298 kJ/mol
# Density = 2.152238 g / cm^3
# Si number density = 21.571482 Si / 1000 Ang^3
#
#
#
# Elastic Constant Matrix: (Units=GPa)
#
#
# Indices 1 2 3 4 5 6 
#
# 1 108.6534 45.5973 33.4467 0.0000 -12.6329 0.0000
# 2 45.5973 102.0221 24.8871 0.0000 -6.2098 0.0000
# 3 33.4467 24.8871 104.8871 0.0000 -5.8841 0.0001
# 4 0.0000 0.0000 0.0000 33.3865 0.0000 -7.8963
# 5 -12.6329 -6.2098 -5.8841 0.0000 40.6464 0.0001
# 6 0.0000 0.0000 0.0001 -7.8963 0.0001 36.0553
#
#
#
# Elastic Compliance Matrix: (Units=1/GPa)
#
#
# Indices 1 2 3 4 5 6 
#
# 1 0.012305 -0.004685 -0.002659 0.000000 0.002724 0.000000
# 2 -0.004685 0.012250 -0.001401 0.000000 0.000213 0.000000
# 3 -0.002659 -0.001401 0.010743 0.000000 0.000515 0.000000
# 4 0.000000 0.000000 0.000000 0.031588 0.000000 0.006918
# 5 0.002724 0.000213 0.000515 0.000000 0.025556 0.000000
# 6 0.000000 0.000000 0.000000 0.006918 0.000000 0.029250
#
#
# Mechanical properties :
#
#
# Convention : Reuss Voigt Hill
#
# Bulk Modulus (GPa) = 56.15387 58.15833 57.15610
# Shear Modulus (GPa) = 34.45426 36.12640 35.29033
#
# Velocity S-wave (km/s) = 4.00085 4.09679 4.04910
# Velocity P-wave (km/s) = 6.88698 7.02833 6.95801
#
# Compressibility (1/GPa) = 0.01780821
#
# Stress axis : x y z
#
# Youngs Moduli (GPa) = 81.26770 81.63029 93.08085
#
# Poissons Ratio (x) = 0.38244 0.24754
# Poissons Ratio (y) = 0.38074 0.13039
# Poissons Ratio (z) = 0.21613 0.11435
#
# Static dielectric constant tensor:
#      x y z
#    x 3.995330 0.000000 -0.171090 
#    y 0.000000 3.740840 0.000000 
#    z -0.171090 0.000000 4.510950 
# 
# 
# High freq. dielectric constant tensor:
#      x y z
#    x 1.845060 0.000000 -0.008620 
#    y 0.000000 1.825650 0.000000 
#    z -0.008620 0.000000 1.867390 
# 
# From -- ./inp_files/206465.got.cif
#   From: 2010.06.25/outbox.cif.g09.slc.cpg/sg15_104_cif.got.tgz:206465.got - 2010.06.28 07:06:18.
