data_PCOD8152185
_publ_section_title
;
Structure prediction by ZEFSAII (Michael W. Deem and Ramdas Pophale) SiO2 
 PCOD8152185
Probable space group: C 2/C
;
_chemical_formula_sum "Si O2"
_cell_formula_units_Z 48
_cell_length_a 15.820274
_cell_length_b 9.127784
_cell_length_c 27.100859
_cell_angle_alpha 90.000000
_cell_angle_beta 143.506086
_cell_angle_gamma 90.000000
_cell_volume 2327.489122
_symmetry_space_group_name_H-M "C 2/C"
_symmetry_group_IT_number 15
_symmetry_cell_setting 'monoclinic'
loop_
_space_group_symop_operation_xyz
x,y,z
-x,y,1/2-z
-x,-y,-z
x,-y,1/2+z
1/2+x,1/2+y,z
1/2-x,1/2+y,1/2-z
1/2-x,1/2-y,-z
1/2+x,1/2-y,1/2+z
loop_
_atom_site_type_symbol
_atom_site_label
_atom_site_fract_x
_atom_site_fract_y
_atom_site_fract_z
Si Si1 0.417097 0.409795 0.665130
Si Si2 0.347216 0.959403 0.299596
Si Si3 0.395140 0.386535 0.473347
Si Si4 0.362689 0.920934 0.916797
Si Si5 0.412926 0.368839 0.845625
Si Si6 0.580094 0.937747 0.335601
O O1 0.500000 0.477904 0.750000
O O2 0.256574 0.464994 0.598407
O O3 0.491597 0.458222 0.649605
O O4 0.429608 0.235869 0.669902
O O5 0.338605 0.783346 0.294911
O O6 0.498551 0.002797 0.345437
O O7 0.327950 0.030532 0.344739
O O8 0.217978 0.020450 0.204449
O O9 0.500000 0.500000 0.500000
O O10 0.374040 0.255191 0.424314
O O11 0.476251 0.326854 0.559569
O O12 0.248324 0.472987 0.416646
O O13 0.500000 0.000000 0.000000
O O14 0.500000 0.003295 0.250000
#
# Coordination Sequence:
#
# PCOD8152185 Si02
#       6
#     8   8   8   8   8   8
#     4   9  18  35  60  87 116 161 202 248 295 371
#     4  11  23  39  65  92 124 164 206 262 312 369
#     4  11  24  40  64  89 124 166 209 254 310 381
#     4  11  22  39  61  90 123 155 206 260 308 359
#     4  11  23  39  64  93 123 164 212 254 313 371
#     4   9  20  38  62  87 122 164 207 249 307 375
#
# _framework density 20.623083000000001
#
# number of rings (size 3 to 8) (size 9 to 14) (size 15 to 20)
#    0.000    1.667    3.333    1.000    7.000    2.000 
#    0.000    2.500    3.667    0.000    0.000    0.000 
#    0.000    0.000    0.000    0.000    0.000    0.000 
#
# Total GULP energy -297347.013098 kJ/mol
# GULP energy per Si atom -12389.458879 kJ/mol
# Density = 2.057614 g / cm^3
# Si number density = 20.623083 Si / 1000 Ang^3
#
#
#
# Elastic Constant Matrix: (Units=GPa)
#
#
# Indices 1 2 3 4 5 6 
#
# 1 150.4203 45.4804 42.2802 0.0000 31.1440 0.0000
# 2 45.4804 49.8864 27.0755 0.0000 17.2703 0.0000
# 3 42.2802 27.0755 110.4189 0.0000 27.2662 0.0000
# 4 0.0000 0.0000 0.0000 32.4418 0.0000 5.1959
# 5 31.1440 17.2703 27.2662 0.0000 45.6796 0.0000
# 6 0.0000 0.0000 0.0000 5.1959 0.0000 29.0614
#
#
#
# Elastic Compliance Matrix: (Units=1/GPa)
#
#
# Indices 1 2 3 4 5 6 
#
# 1 0.009834 -0.007183 -0.001195 0.000000 -0.003276 0.000000
# 2 -0.007183 0.030017 -0.003538 0.000000 -0.004339 0.000000
# 3 -0.001195 -0.003538 0.011553 0.000000 -0.004743 0.000000
# 4 0.000000 0.000000 0.000000 0.031733 0.000000 -0.005674
# 5 -0.003276 -0.004339 -0.004743 0.000000 0.028597 0.000000
# 6 0.000000 0.000000 0.000000 -0.005674 0.000000 0.035424
#
#
# Mechanical properties :
#
#
# Convention : Reuss Voigt Hill
#
# Bulk Modulus (GPa) = 36.27055 60.04418 48.15736
# Shear Modulus (GPa) = 27.74991 34.49586 31.12288
#
# Velocity S-wave (km/s) = 3.67219 4.09428 3.88896
# Velocity P-wave (km/s) = 5.96703 7.17838 6.60055
#
# Compressibility (1/GPa) = 0.02757058
#
# Stress axis : x y z
#
# Youngs Moduli (GPa) = 101.68855 33.31500 86.55715
#
# Poissons Ratio (x) = 0.23929 0.10347
# Poissons Ratio (y) = 0.73039 0.30628
# Poissons Ratio (z) = 0.12156 0.11788
#
# Static dielectric constant tensor:
#      x y z
#    x 4.262680 0.000000 0.222650 
#    y 0.000000 3.454530 0.000000 
#    z 0.222650 0.000000 2.803070 
# 
# 
# High freq. dielectric constant tensor:
#      x y z
#    x 1.822060 0.000000 0.012250 
#    y 0.000000 1.761430 0.000000 
#    z 0.012250 0.000000 1.817100 
# 
# From -- ./inp_files/295466.got.cif
#   From: 2010.06.25/outbox.cif.g09.slc.cpg/sg15_148_cif.got.tgz:295466.got - 2010.06.28 07:06:18.
