data_PCOD8152348
_publ_section_title
;
Structure prediction by ZEFSAII (Michael W. Deem and Ramdas Pophale) SiO2 
 PCOD8152348
Probable space group: C 2/C
;
_chemical_formula_sum "Si O2"
_cell_formula_units_Z 56
_cell_length_a 18.413975
_cell_length_b 21.651663
_cell_length_c 9.137785
_cell_angle_alpha 90.000000
_cell_angle_beta 135.175419
_cell_angle_gamma 90.000000
_cell_volume 2568.212843
_symmetry_space_group_name_H-M "C 2/C"
_symmetry_group_IT_number 15
_symmetry_cell_setting 'monoclinic'
loop_
_space_group_symop_operation_xyz
x,y,z
-x,y,1/2-z
-x,-y,-z
x,-y,1/2+z
1/2+x,1/2+y,z
1/2-x,1/2+y,1/2-z
1/2-x,1/2-y,-z
1/2+x,1/2-y,1/2+z
loop_
_atom_site_type_symbol
_atom_site_label
_atom_site_fract_x
_atom_site_fract_y
_atom_site_fract_z
Si Si1 0.920377 0.833822 0.002620
Si Si2 0.280575 0.814986 0.608236
Si Si3 0.506309 0.796950 0.931349
Si Si4 0.486099 0.565397 0.055887
Si Si5 0.238828 0.071823 0.868041
Si Si6 0.491434 0.908698 0.396396
Si Si7 0.162842 0.492929 0.744956
O O1 0.000000 0.844105 0.250000
O O2 0.939940 0.767828 0.951188
O O3 0.932482 0.886659 0.897411
O O4 0.803723 0.838038 0.894577
O O5 0.250000 0.750000 0.500000
O O6 0.392118 0.803334 0.840281
O O7 0.290214 0.863167 0.486650
O O8 0.500000 0.802056 0.750000
O O9 0.563469 0.856954 0.078985
O O10 0.373065 0.588453 0.851786
O O11 0.500000 0.561540 0.250000
O O12 0.500000 0.500000 0.000000
O O13 0.302949 0.035668 0.838648
O O14 0.240211 0.027384 0.014960
O O15 0.500000 0.878168 0.250000
O O16 0.605048 0.929860 0.614306
O O17 0.418688 0.968317 0.276599
#
# Coordination Sequence:
#
# PCOD8152348 Si02
#       7
#     8   8   8   8   8   8   8
#     4  11  23  43  70 102 135 176 233 283 340 415
#     4  12  22  41  71 102 132 176 236 280 335 413
#     4  11  22  40  71  99 135 186 226 276 338 409
#     4  12  27  46  70  97 134 180 230 290 352 404
#     4  12  24  43  67  96 136 172 229 279 339 412
#     4  11  23  40  60  96 142 174 219 273 339 403
#     4  11  24  39  63  98 133 180 219 273 339 409
#
# _framework density 21.805046000000001
#
# number of rings (size 3 to 8) (size 9 to 14) (size 15 to 20)
#    0.000    0.571    7.143    2.143    2.000    0.571 
#    2.571    0.000    0.000    2.571    0.000    0.000 
#    0.000    0.000    0.000    0.000    0.000    0.000 
#
# Total GULP energy -347139.149602 kJ/mol
# GULP energy per Si atom -12397.826772 kJ/mol
# Density = 2.175542 g / cm^3
# Si number density = 21.805046 Si / 1000 Ang^3
#
#
#
# Elastic Constant Matrix: (Units=GPa)
#
#
# Indices 1 2 3 4 5 6 
#
# 1 110.5641 41.6275 27.9572 0.0000 -10.7742 0.0000
# 2 41.6275 129.7209 25.8227 0.0000 -31.6807 0.0000
# 3 27.9572 25.8227 86.3890 0.0000 -12.0224 0.0000
# 4 0.0000 0.0000 0.0000 23.6962 0.0000 -5.2960
# 5 -10.7742 -31.6807 -12.0224 0.0000 37.6430 0.0000
# 6 0.0000 0.0000 0.0000 -5.2960 0.0000 44.5616
#
#
#
# Elastic Compliance Matrix: (Units=1/GPa)
#
#
# Indices 1 2 3 4 5 6 
#
# 1 0.010820 -0.003016 -0.002640 0.000000 -0.000285 0.000000
# 2 -0.003016 0.010834 -0.001165 0.000000 0.007882 0.000000
# 3 -0.002640 -0.001165 0.013120 0.000000 0.002454 0.000000
# 4 0.000000 0.000000 0.000000 0.043352 0.000000 0.005152
# 5 -0.000285 0.007882 0.002454 0.000000 0.033902 0.000000
# 6 0.000000 0.000000 0.000000 0.005152 0.000000 0.023053
#
#
# Mechanical properties :
#
#
# Convention : Reuss Voigt Hill
#
# Bulk Modulus (GPa) = 47.32348 57.49876 52.41112
# Shear Modulus (GPa) = 32.09946 36.59794 34.34870
#
# Velocity S-wave (km/s) = 3.84097 4.10129 3.97327
# Velocity P-wave (km/s) = 6.43591 6.98958 6.71845
#
# Compressibility (1/GPa) = 0.02113116
#
# Stress axis : x y z
#
# Youngs Moduli (GPa) = 92.42312 92.30422 76.22195
#
# Poissons Ratio (x) = 0.27840 0.20119
# Poissons Ratio (y) = 0.27876 0.08882
# Poissons Ratio (z) = 0.24395 0.10756
#
# Static dielectric constant tensor:
#      x y z
#    x 4.230710 0.000000 0.325130 
#    y 0.000000 4.301690 0.000000 
#    z 0.325130 0.000000 4.007570 
# 
# 
# High freq. dielectric constant tensor:
#      x y z
#    x 1.855990 0.000000 0.004960 
#    y 0.000000 1.877000 0.000000 
#    z 0.004960 0.000000 1.833900 
# 
# From -- ./inp_files/51568.got.cif
#   From: 2010.06.25/outbox.cif.g09.slc.cpg/sg15_26_cif.got.tgz:51568.got - 2010.06.28 07:06:18.
