data_PCOD8152707
_publ_section_title
;
Structure prediction by ZEFSAII (Michael W. Deem and Ramdas Pophale) SiO2 
 PCOD8152707
Probable space group: C 2/C
;
_chemical_formula_sum "Si O2"
_cell_formula_units_Z 36
_cell_length_a 7.918908
_cell_length_b 24.654879
_cell_length_c 9.675183
_cell_angle_alpha 90.000000
_cell_angle_beta 53.978668
_cell_angle_gamma 90.000000
_cell_volume 1527.803436
_symmetry_space_group_name_H-M "C 2/C"
_symmetry_group_IT_number 15
_symmetry_cell_setting 'monoclinic'
loop_
_space_group_symop_operation_xyz
x,y,z
-x,y,1/2-z
-x,-y,-z
x,-y,1/2+z
1/2+x,1/2+y,z
1/2-x,1/2+y,1/2-z
1/2-x,1/2-y,-z
1/2+x,1/2-y,1/2+z
loop_
_atom_site_type_symbol
_atom_site_label
_atom_site_fract_x
_atom_site_fract_y
_atom_site_fract_z
Si Si1 0.742928 0.703813 0.117402
Si Si2 0.130514 0.118628 0.556590
Si Si3 0.642708 0.988753 0.559910
Si Si4 0.350389 0.401781 0.943518
Si Si5 0.500000 0.815780 0.750000
O O1 0.500000 0.691664 0.250000
O O2 0.818983 0.643983 0.026925
O O3 0.864783 0.719504 0.201975
O O4 0.750000 0.750000 0.000000
O O5 0.180947 0.055348 0.559181
O O6 0.344676 0.150574 0.423060
O O7 0.000000 0.141822 0.750000
O O8 0.986283 0.127289 0.494412
O O9 0.500000 0.964556 0.750000
O O10 0.500000 0.000000 0.500000
O O11 0.738923 0.045943 0.562010
O O12 0.500000 0.423867 0.750000
#
# Coordination Sequence:
#
# PCOD8152707 Si02
#       5
#     8   8   8   8   4
#     4  11  26  49  76 108 145 189 246 310 371 439
#     4  12  24  43  73 108 147 198 243 294 367 437
#     4  12  23  38  65 105 145 195 243 291 361 434
#     4  11  22  45  65 100 152 185 244 309 349 434
#     4  12  24  52  78 106 152 192 242 310 372 444
#
# _framework density 23.563241000000001
#
# number of rings (size 3 to 8) (size 9 to 14) (size 15 to 20)
#    0.000    0.444    5.556    5.333    0.000    3.556 
#    2.000    0.000    0.000    0.000    0.000    0.000 
#    0.000    0.000    0.000    0.000    0.000    0.000 
#
# Total GULP energy -223110.845286 kJ/mol
# GULP energy per Si atom -12395.046960 kJ/mol
# Density = 2.350961 g / cm^3
# Si number density = 23.563241 Si / 1000 Ang^3
#
#
#
# Elastic Constant Matrix: (Units=GPa)
#
#
# Indices 1 2 3 4 5 6 
#
# 1 144.8509 19.4310 45.7738 0.0000 34.1085 0.0000
# 2 19.4310 90.8797 24.6448 0.0000 -0.1096 0.0000
# 3 45.7738 24.6448 153.0283 0.0000 4.6747 0.0000
# 4 0.0000 0.0000 0.0000 31.1662 0.0000 15.3261
# 5 34.1085 -0.1096 4.6747 0.0000 44.4808 0.0000
# 6 0.0000 0.0000 0.0000 15.3261 0.0000 25.3992
#
#
#
# Elastic Compliance Matrix: (Units=1/GPa)
#
#
# Indices 1 2 3 4 5 6 
#
# 1 0.009508 -0.001389 -0.002405 0.000000 -0.007042 0.000000
# 2 -0.001389 0.011711 -0.001509 0.000000 0.001253 0.000000
# 3 -0.002405 -0.001509 0.007465 0.000000 0.001056 0.000000
# 4 0.000000 0.000000 0.000000 0.045624 0.000000 -0.027530
# 5 -0.007042 0.001253 0.001056 0.000000 0.027773 0.000000
# 6 0.000000 0.000000 0.000000 -0.027530 0.000000 0.055983
#
#
# Mechanical properties :
#
#
# Convention : Reuss Voigt Hill
#
# Bulk Modulus (GPa) = 55.31616 63.16200 59.23908
# Shear Modulus (GPa) = 28.62098 40.13653 34.37876
#
# Velocity S-wave (km/s) = 3.48896 4.13165 3.82383
# Velocity P-wave (km/s) = 6.30532 7.04444 6.68510
#
# Compressibility (1/GPa) = 0.01807790
#
# Stress axis : x y z
#
# Youngs Moduli (GPa) = 105.17229 85.38803 133.95978
#
# Poissons Ratio (x) = 0.11862 0.32221
# Poissons Ratio (y) = 0.14610 0.20212
# Poissons Ratio (z) = 0.25297 0.12883
#
# Static dielectric constant tensor:
#      x y z
#    x 2.947550 0.000000 6.824510 
#    y 0.000000 11.235010 0.000000 
#    z 6.824510 0.000000 -25.817120 
# 
# 
# High freq. dielectric constant tensor:
#      x y z
#    x 1.944330 0.000000 0.011920 
#    y 0.000000 1.922950 0.000000 
#    z 0.011920 0.000000 1.930840 
# 
# From -- ./inp_files/24327.got.cif
#   From: 2010.06.25/outbox.cif.g09.slc.cpg/sg15_13_cif.got.tgz:24327.got - 2010.06.28 07:06:18.
