data_PCOD8152587
_publ_section_title
;
Structure prediction by ZEFSAII (Michael W. Deem and Ramdas Pophale) SiO2 
 PCOD8152587
Probable space group: C 2/C
;
_chemical_formula_sum "Si O2"
_cell_formula_units_Z 44
_cell_length_a 8.879136
_cell_length_b 13.810514
_cell_length_c 18.861883
_cell_angle_alpha 90.000000
_cell_angle_beta 125.267995
_cell_angle_gamma 90.000000
_cell_volume 1888.428919
_symmetry_space_group_name_H-M "C 2/C"
_symmetry_group_IT_number 15
_symmetry_cell_setting 'monoclinic'
loop_
_space_group_symop_operation_xyz
x,y,z
-x,y,1/2-z
-x,-y,-z
x,-y,1/2+z
1/2+x,1/2+y,z
1/2-x,1/2+y,1/2-z
1/2-x,1/2-y,-z
1/2+x,1/2-y,1/2+z
loop_
_atom_site_type_symbol
_atom_site_label
_atom_site_fract_x
_atom_site_fract_y
_atom_site_fract_z
Si Si1 0.000000 0.715646 0.250000
Si Si2 0.843934 0.579890 0.559476
Si Si3 0.881267 0.434999 0.826402
Si Si4 0.714082 0.427490 0.176816
Si Si5 0.136809 0.270669 0.188046
Si Si6 0.423772 0.425768 0.641432
O O1 0.955719 0.663555 0.313068
O O2 0.813381 0.775309 0.182448
O O3 0.712785 0.564340 0.591861
O O4 0.721935 0.601587 0.458423
O O5 0.966905 0.483114 0.580102
O O6 0.972110 0.673153 0.606129
O O7 0.868439 0.506297 0.755611
O O8 0.683378 0.428400 0.812677
O O9 0.778934 0.318898 0.216699
O O10 0.515902 0.469197 0.149875
O O11 0.079738 0.158894 0.186165
#
# Coordination Sequence:
#
# PCOD8152587 Si02
#       6
#     4   8   8   8   8   8
#     4  12  24  42  68  96 140 176 242 282 320 404
#     4  11  24  45  68 104 143 175 224 291 357 408
#     4  11  22  43  69 101 133 188 230 278 336 420
#     4  11  24  42  72  99 135 183 235 272 338 423
#     4  11  26  43  68 105 130 189 235 274 338 424
#     4  12  25  44  72 102 142 177 225 297 353 393
#
# _framework density 23.299790999999999
#
# number of rings (size 3 to 8) (size 9 to 14) (size 15 to 20)
#    0.000    0.727    3.636    3.818   10.182    0.000 
#    0.000    0.909    0.000    0.000    0.000    0.000 
#    0.000    0.000    0.000    0.000    0.000    0.000 
#
# Total GULP energy -272634.443548 kJ/mol
# GULP energy per Si atom -12392.474707 kJ/mol
# Density = 2.324676 g / cm^3
# Si number density = 23.299791 Si / 1000 Ang^3
#
#
#
# Elastic Constant Matrix: (Units=GPa)
#
#
# Indices 1 2 3 4 5 6 
#
# 1 151.8283 29.4625 32.8580 0.0000 6.3193 0.0000
# 2 29.4625 72.6959 22.9725 0.0000 5.6566 0.0000
# 3 32.8580 22.9725 76.6484 0.0000 6.8601 0.0000
# 4 0.0000 0.0000 0.0000 28.2626 0.0000 9.8407
# 5 6.3193 5.6566 6.8601 0.0000 25.9814 0.0000
# 6 0.0000 0.0000 0.0000 9.8407 0.0000 51.7286
#
#
#
# Elastic Compliance Matrix: (Units=1/GPa)
#
#
# Indices 1 2 3 4 5 6 
#
# 1 0.007594 -0.002225 -0.002526 0.000000 -0.000696 0.000000
# 2 -0.002225 0.015966 -0.003655 0.000000 -0.001970 0.000000
# 3 -0.002526 -0.003655 0.015464 0.000000 -0.002673 0.000000
# 4 0.000000 0.000000 0.000000 0.037892 0.000000 -0.007209
# 5 -0.000696 -0.001970 -0.002673 0.000000 0.039793 0.000000
# 6 0.000000 0.000000 0.000000 -0.007209 0.000000 0.020703
#
#
# Mechanical properties :
#
#
# Convention : Reuss Voigt Hill
#
# Bulk Modulus (GPa) = 45.02223 52.41762 48.71992
# Shear Modulus (GPa) = 30.93504 35.58650 33.26077
#
# Velocity S-wave (km/s) = 3.64771 3.91235 3.78234
# Velocity P-wave (km/s) = 6.09147 6.55397 6.32695
#
# Compressibility (1/GPa) = 0.02221125
#
# Stress axis : x y z
#
# Youngs Moduli (GPa) = 131.68544 62.63283 64.66545
#
# Poissons Ratio (x) = 0.13937 0.16336
# Poissons Ratio (y) = 0.29303 0.23635
# Poissons Ratio (z) = 0.33266 0.22892
#
# Static dielectric constant tensor:
#      x y z
#    x 4.536210 0.000000 0.149410 
#    y 0.000000 4.271670 0.000000 
#    z 0.149410 0.000000 4.002530 
# 
# 
# High freq. dielectric constant tensor:
#      x y z
#    x 1.943690 0.000000 0.011170 
#    y 0.000000 1.917800 0.000000 
#    z 0.011170 0.000000 1.904720 
# 
# From -- ./inp_files/189162.got.cif
#   From: 2010.06.25/outbox.cif.g09.slc.cpg/sg15_95_cif.got.tgz:189162.got - 2010.06.28 07:06:18.
