data_PCOD8152186
_publ_section_title
;
Structure prediction by ZEFSAII (Michael W. Deem and Ramdas Pophale) SiO2 
 PCOD8152186
Probable space group: C 2/C
;
_chemical_formula_sum "Si O2"
_cell_formula_units_Z 44
_cell_length_a 6.555795
_cell_length_b 24.540560
_cell_length_c 17.494904
_cell_angle_alpha 90.000000
_cell_angle_beta 48.075460
_cell_angle_gamma 90.000000
_cell_volume 2094.156741
_symmetry_space_group_name_H-M "C 2/C"
_symmetry_group_IT_number 15
_symmetry_cell_setting 'monoclinic'
loop_
_space_group_symop_operation_xyz
x,y,z
-x,y,1/2-z
-x,-y,-z
x,-y,1/2+z
1/2+x,1/2+y,z
1/2-x,1/2+y,1/2-z
1/2-x,1/2-y,-z
1/2+x,1/2-y,1/2+z
loop_
_atom_site_type_symbol
_atom_site_label
_atom_site_fract_x
_atom_site_fract_y
_atom_site_fract_z
Si Si1 0.246293 0.936315 0.992296
Si Si2 0.500000 0.712177 0.250000
Si Si3 0.070129 0.665213 0.145230
Si Si4 0.800372 0.615129 0.638504
Si Si5 0.626914 0.969558 0.139993
Si Si6 0.308503 0.765037 0.148319
O O1 0.338855 0.921064 0.053696
O O2 0.944095 0.959489 0.072371
O O3 0.265142 0.883359 0.934351
O O4 0.433091 0.984344 0.909538
O O5 0.494890 0.748879 0.174514
O O6 0.779475 0.676536 0.175526
O O7 0.285580 0.716812 0.090526
O O8 0.000000 0.650103 0.250000
O O9 0.500000 0.614462 0.750000
O O10 0.908496 0.676443 0.591496
O O11 0.994468 0.588351 0.652830
O O12 0.500000 0.992313 0.250000
O O13 0.000000 0.774936 0.250000
#
# Coordination Sequence:
#
# PCOD8152186 Si02
#       6
#     8   4   8   8   8   8
#     4  11  24  41  62  89 121 156 203 249 300 362
#     4   8  16  34  58  86 124 164 194 236 302 344
#     4   9  19  38  59  91 124 160 202 246 293 353
#     4  11  22  39  61  91 120 156 203 249 297 355
#     4  11  24  43  64  86 118 161 199 249 308 358
#     4   8  18  33  59  88 122 159 198 244 293 358
#
# _framework density 21.010843000000001
#
# number of rings (size 3 to 8) (size 9 to 14) (size 15 to 20)
#    0.000    2.545    1.818    1.091    1.273    5.091 
#    1.636    1.818    0.000    0.000    0.000    0.000 
#    0.000    0.000    0.000    0.000    0.000    0.000 
#
# Total GULP energy -272622.642250 kJ/mol
# GULP energy per Si atom -12391.938284 kJ/mol
# Density = 2.096302 g / cm^3
# Si number density = 21.010843 Si / 1000 Ang^3
#
#
#
# Elastic Constant Matrix: (Units=GPa)
#
#
# Indices 1 2 3 4 5 6 
#
# 1 93.4107 23.0695 23.9330 0.0000 4.5743 0.0000
# 2 23.0695 125.8450 42.2431 0.0000 4.1544 0.0000
# 3 23.9330 42.2431 87.3206 0.0000 11.0481 0.0000
# 4 0.0000 0.0000 0.0000 21.1498 0.0000 -4.9746
# 5 4.5743 4.1544 11.0481 0.0000 19.9460 0.0000
# 6 0.0000 0.0000 0.0000 -4.9746 0.0000 183.9579
#
#
#
# Elastic Compliance Matrix: (Units=1/GPa)
#
#
# Indices 1 2 3 4 5 6 
#
# 1 0.011703 -0.001288 -0.002451 0.000000 -0.001058 0.000000
# 2 -0.001288 0.009635 -0.004400 0.000000 0.000726 0.000000
# 3 -0.002451 -0.004400 0.015125 0.000000 -0.006899 0.000000
# 4 0.000000 0.000000 0.000000 0.047584 0.000000 0.001287
# 5 -0.001058 0.000726 -0.006899 0.000000 0.054049 0.000000
# 6 0.000000 0.000000 0.000000 0.001287 0.000000 0.005471
#
#
# Mechanical properties :
#
#
# Convention : Reuss Voigt Hill
#
# Bulk Modulus (GPa) = 49.53796 53.89639 51.71717
# Shear Modulus (GPa) = 30.01667 59.49945 44.75806
#
# Velocity S-wave (km/s) = 3.78382 5.32728 4.62046
# Velocity P-wave (km/s) = 6.53592 7.97166 7.28922
#
# Compressibility (1/GPa) = 0.02018654
#
# Stress axis : x y z
#
# Youngs Moduli (GPa) = 85.44679 103.78355 66.11409
#
# Poissons Ratio (x) = 0.13365 0.16203
# Poissons Ratio (y) = 0.11004 0.29091
# Poissons Ratio (z) = 0.20941 0.45667
#
# Static dielectric constant tensor:
#      x y z
#    x 3.597270 0.000000 0.072250 
#    y 0.000000 4.359830 0.000000 
#    z 0.072250 0.000000 3.640490 
# 
# 
# High freq. dielectric constant tensor:
#      x y z
#    x 1.820720 0.000000 0.007300 
#    y 0.000000 1.833770 0.000000 
#    z 0.007300 0.000000 1.806660 
# 
# From -- ./inp_files/186030.got.cif
#   From: 2010.06.25/outbox.cif.g09.slc.cpg/sg15_94_cif.got.tgz:186030.got - 2010.06.28 07:06:18.
