data_PCOD8152454
_publ_section_title
;
Structure prediction by ZEFSAII (Michael W. Deem and Ramdas Pophale) SiO2 
 PCOD8152454
Probable space group: C 2/C
;
_chemical_formula_sum "Si O2"
_cell_formula_units_Z 64
_cell_length_a 8.637749
_cell_length_b 28.024416
_cell_length_c 16.664159
_cell_angle_alpha 90.000000
_cell_angle_beta 47.329535
_cell_angle_gamma 90.000000
_cell_volume 2965.950509
_symmetry_space_group_name_H-M "C 2/C"
_symmetry_group_IT_number 15
_symmetry_cell_setting 'monoclinic'
loop_
_space_group_symop_operation_xyz
x,y,z
-x,y,1/2-z
-x,-y,-z
x,-y,1/2+z
1/2+x,1/2+y,z
1/2-x,1/2+y,1/2-z
1/2-x,1/2-y,-z
1/2+x,1/2-y,1/2+z
loop_
_atom_site_type_symbol
_atom_site_label
_atom_site_fract_x
_atom_site_fract_y
_atom_site_fract_z
Si Si1 0.944204 0.051556 0.983451
Si Si2 0.239984 0.303735 0.186100
Si Si3 0.804859 0.196041 0.260612
Si Si4 0.728733 0.624376 0.686882
Si Si5 0.328387 0.960164 0.242546
Si Si6 0.596420 0.134926 0.454021
Si Si7 0.518333 0.036106 0.420991
Si Si8 0.550419 0.649325 0.037339
O O1 0.098878 0.055372 0.853672
O O2 0.706330 0.051750 0.036150
O O3 0.981880 0.096388 0.030631
O O4 0.000000 0.000000 0.000000
O O5 0.265154 0.250853 0.212772
O O6 0.314369 0.336449 0.231584
O O7 0.000000 0.315457 0.250000
O O8 0.384863 0.315244 0.057975
O O9 0.615883 0.167097 0.367809
O O10 0.000000 0.187368 0.250000
O O11 0.859040 0.175614 0.152636
O O12 0.500000 0.603022 0.750000
O O13 0.882639 0.580828 0.659110
O O14 0.854762 0.644679 0.566038
O O15 0.500000 0.956642 0.250000
O O16 0.339602 0.012323 0.198873
O O17 0.644018 0.081491 0.407953
O O18 0.751309 0.146538 0.473015
O O19 0.500000 0.000000 0.500000
#
# Coordination Sequence:
#
# PCOD8152454 Si02
#       8
#     8   8   8   8   8   8   8   8
#     4  12  25  42  66  95 133 176 222 272 321 394
#     4  11  22  41  73  97 127 169 218 279 326 390
#     4   9  24  41  67 103 129 172 214 271 339 392
#     4  12  24  41  65  96 128 169 221 277 332 387
#     4  12  24  43  64  94 127 173 228 266 329 390
#     4  11  23  43  64  93 137 169 215 270 334 392
#     4  12  26  42  63  96 132 175 217 270 328 387
#     4  11  23  44  69 101 133 170 225 272 331 400
#
# _framework density 21.578241999999999
#
# number of rings (size 3 to 8) (size 9 to 14) (size 15 to 20)
#    0.000    0.750    5.000    2.625    3.500    1.500 
#    2.250    1.875    0.000    0.000    0.000    0.000 
#    0.000    0.000    0.000    0.000    0.000    0.000 
#
# Total GULP energy -396666.313511 kJ/mol
# GULP energy per Si atom -12395.822297 kJ/mol
# Density = 2.152913 g / cm^3
# Si number density = 21.578242 Si / 1000 Ang^3
#
#
#
# Elastic Constant Matrix: (Units=GPa)
#
#
# Indices 1 2 3 4 5 6 
#
# 1 35.5273 37.8524 38.4440 0.0000 15.7154 0.0000
# 2 37.8524 132.2674 72.8807 0.0000 9.7700 0.0000
# 3 38.4440 72.8807 167.8567 0.0000 6.0589 0.0000
# 4 0.0000 0.0000 0.0000 32.5767 0.0000 -1.1787
# 5 15.7154 9.7700 6.0589 0.0000 13.4528 0.0000
# 6 0.0000 0.0000 0.0000 -1.1787 0.0000 15.2551
#
#
#
# Elastic Compliance Matrix: (Units=1/GPa)
#
#
# Indices 1 2 3 4 5 6 
#
# 1 0.106990 -0.014850 -0.014165 0.000000 -0.107821 0.000000
# 2 -0.014850 0.012395 -0.002319 0.000000 0.009390 0.000000
# 3 -0.014165 -0.002319 0.009708 0.000000 0.013859 0.000000
# 4 0.000000 0.000000 0.000000 0.030783 0.000000 0.002379
# 5 -0.107821 0.009390 0.013859 0.000000 0.187227 0.000000
# 6 0.000000 0.000000 0.000000 0.002379 0.000000 0.065735
#
#
# Mechanical properties :
#
#
# Convention : Reuss Voigt Hill
#
# Bulk Modulus (GPa) = 15.05434 70.44509 42.74971
# Shear Modulus (GPa) = 10.04726 24.68855 17.36791
#
# Velocity S-wave (km/s) = 2.16016 3.38618 2.84012
# Velocity P-wave (km/s) = 3.63504 6.92860 5.53259
#
# Compressibility (1/GPa) = 0.06642603
#
# Stress axis : x y z
#
# Youngs Moduli (GPa) = 9.34664 80.68062 103.00371
#
# Poissons Ratio (x) = 1.19807 1.45900
# Poissons Ratio (y) = 0.13879 0.23891
# Poissons Ratio (z) = 0.13239 0.18714
#
# Static dielectric constant tensor:
#      x y z
#    x 3.710870 0.000000 0.017790 
#    y 0.000000 4.152200 0.000000 
#    z 0.017790 0.000000 4.539640 
# 
# 
# High freq. dielectric constant tensor:
#      x y z
#    x 1.829380 0.000000 0.009370 
#    y 0.000000 1.856280 0.000000 
#    z 0.009370 0.000000 1.865320 
# 
# From -- ./inp_files/139820.got.cif
#   From: 2010.06.25/outbox.cif.g09.slc.cpg/sg15_70_cif.got.tgz:139820.got - 2010.06.28 07:06:18.
