data_PCOD8152399
_publ_section_title
;
Structure prediction by ZEFSAII (Michael W. Deem and Ramdas Pophale) SiO2 
 PCOD8152399
Probable space group: C 2/C
;
_chemical_formula_sum "Si O2"
_cell_formula_units_Z 40
_cell_length_a 12.884387
_cell_length_b 16.105367
_cell_length_c 9.119485
_cell_angle_alpha 90.000000
_cell_angle_beta 78.180311
_cell_angle_gamma 90.000000
_cell_volume 1852.240413
_symmetry_space_group_name_H-M "C 2/C"
_symmetry_group_IT_number 15
_symmetry_cell_setting 'monoclinic'
loop_
_space_group_symop_operation_xyz
x,y,z
-x,y,1/2-z
-x,-y,-z
x,-y,1/2+z
1/2+x,1/2+y,z
1/2-x,1/2+y,1/2-z
1/2-x,1/2-y,-z
1/2+x,1/2-y,1/2+z
loop_
_atom_site_type_symbol
_atom_site_label
_atom_site_fract_x
_atom_site_fract_y
_atom_site_fract_z
Si Si1 0.901617 0.906290 0.887173
Si Si2 0.213710 0.927947 0.077639
Si Si3 0.217272 0.350304 0.736813
Si Si4 0.921676 0.502952 0.652969
Si Si5 0.904100 0.186942 0.683864
O O1 0.811001 0.862501 0.822440
O O2 0.000000 0.924280 0.750000
O O3 0.846739 0.990370 0.967803
O O4 0.935111 0.844863 0.011181
O O5 0.133064 0.893238 0.218320
O O6 0.320354 0.942935 0.140001
O O7 0.238494 0.863618 0.940278
O O8 0.118051 0.411979 0.787287
O O9 0.185336 0.256883 0.784669
O O10 0.000000 0.544400 0.750000
O O11 0.000000 0.500000 0.500000
O O12 0.000000 0.225525 0.750000
#
# Coordination Sequence:
#
# PCOD8152399 Si02
#       5
#     8   8   8   8   8
#     4  11  24  45  69  97 130 174 222 269 328 398
#     4  11  24  42  70  95 131 173 225 268 324 395
#     4  11  24  44  65  97 136 168 219 271 327 393
#     4  11  22  41  67  98 129 176 220 269 324 390
#     4  12  26  43  66  98 134 173 214 274 334 388
#
# _framework density 21.595468
#
# number of rings (size 3 to 8) (size 9 to 14) (size 15 to 20)
#    0.000    0.800    2.000    6.000    2.800    2.400 
#    0.000    0.000    0.000    0.000    0.000    0.000 
#    0.000    0.000    0.000    0.000    0.000    0.000 
#
# Total GULP energy -247865.487815 kJ/mol
# GULP energy per Si atom -12393.274391 kJ/mol
# Density = 2.154632 g / cm^3
# Si number density = 21.595468 Si / 1000 Ang^3
#
#
#
# Elastic Constant Matrix: (Units=GPa)
#
#
# Indices 1 2 3 4 5 6 
#
# 1 101.6111 20.7450 36.9983 0.0000 0.3132 0.0000
# 2 20.7450 69.9198 23.6257 0.0000 4.2047 0.0000
# 3 36.9983 23.6257 140.8650 0.0000 -1.6149 0.0000
# 4 0.0000 0.0000 0.0000 165.6294 0.0000 60.8413
# 5 0.3132 4.2047 -1.6149 0.0000 38.5162 0.0000
# 6 0.0000 0.0000 0.0000 60.8413 0.0000 51.6606
#
#
#
# Elastic Compliance Matrix: (Units=1/GPa)
#
#
# Indices 1 2 3 4 5 6 
#
# 1 0.011276 -0.002491 -0.002543 0.000000 0.000074 0.000000
# 2 -0.002491 0.015832 -0.002022 0.000000 -0.001793 0.000000
# 3 -0.002543 -0.002022 0.008113 0.000000 0.000582 0.000000
# 4 0.000000 0.000000 0.000000 0.010641 0.000000 -0.012532
# 5 0.000074 -0.001793 0.000582 0.000000 0.026183 0.000000
# 6 0.000000 0.000000 0.000000 -0.012532 0.000000 0.034116
#
#
# Mechanical properties :
#
#
# Convention : Reuss Voigt Hill
#
# Bulk Modulus (GPa) = 47.37161 52.79264 50.08213
# Shear Modulus (GPa) = 39.27501 66.56305 52.91903
#
# Velocity S-wave (km/s) = 4.26921 5.55784 4.95559
# Velocity P-wave (km/s) = 6.80331 8.10465 7.48233
#
# Compressibility (1/GPa) = 0.02110969
#
# Stress axis : x y z
#
# Youngs Moduli (GPa) = 88.68667 63.16317 123.26410
#
# Poissons Ratio (x) = 0.15731 0.31346
# Poissons Ratio (y) = 0.22088 0.24921
# Poissons Ratio (z) = 0.22553 0.12770
#
# Static dielectric constant tensor:
#      x y z
#    x 3.989670 0.000000 -0.031700 
#    y 0.000000 3.682130 0.000000 
#    z -0.031700 0.000000 3.983710 
# 
# 
# High freq. dielectric constant tensor:
#      x y z
#    x 1.872370 0.000000 0.002210 
#    y 0.000000 1.829300 0.000000 
#    z 0.002210 0.000000 1.862910 
# 
# From -- ./inp_files/29080.got.cif
#   From: 2010.06.25/outbox.cif.g09.slc.cpg/sg15_15_cif.got.tgz:29080.got - 2010.06.28 07:06:18.
