data_PCOD8152888
_publ_section_title
;
Structure prediction by ZEFSAII (Michael W. Deem and Ramdas Pophale) SiO2 
 PCOD8152888
Probable space group: C 2/C
;
_chemical_formula_sum "Si O2"
_cell_formula_units_Z 64
_cell_length_a 26.789298
_cell_length_b 5.116325
_cell_length_c 22.001182
_cell_angle_alpha 90.000000
_cell_angle_beta 110.156545
_cell_angle_gamma 90.000000
_cell_volume 2830.854622
_symmetry_space_group_name_H-M "C 2/C"
_symmetry_group_IT_number 15
_symmetry_cell_setting 'monoclinic'
loop_
_space_group_symop_operation_xyz
x,y,z
-x,y,1/2-z
-x,-y,-z
x,-y,1/2+z
1/2+x,1/2+y,z
1/2-x,1/2+y,1/2-z
1/2-x,1/2-y,-z
1/2+x,1/2-y,1/2+z
loop_
_atom_site_type_symbol
_atom_site_label
_atom_site_fract_x
_atom_site_fract_y
_atom_site_fract_z
Si Si1 0.149148 0.994982 0.946631
Si Si2 0.698274 0.513040 0.597198
Si Si3 0.043013 0.315570 0.043052
Si Si4 0.967790 0.011529 0.580522
Si Si5 0.347267 0.026058 0.862334
Si Si6 0.608022 0.894736 0.246689
Si Si7 0.538309 0.384801 0.213457
Si Si8 0.681570 0.017854 0.889916
O O1 0.160253 0.252616 0.911460
O O2 0.086991 0.912696 0.911864
O O3 0.184085 0.748745 0.940468
O O4 0.164200 0.044270 0.022724
O O5 0.682677 0.297116 0.639928
O O6 0.759760 0.473123 0.609781
O O7 0.686591 0.791827 0.623027
O O8 0.095347 0.474451 0.081457
O O9 0.014905 0.198588 0.090793
O O10 0.000000 0.500000 0.000000
O O11 0.053554 0.113974 0.993060
O O12 0.000201 0.196848 0.640310
O O13 0.355918 0.999721 0.793988
O O14 0.582005 0.613283 0.220017
O O15 0.645149 0.872871 0.320802
O O16 0.564808 0.114436 0.243937
O O17 0.500000 0.491970 0.250000
#
# Coordination Sequence:
#
# PCOD8152888 Si02
#       8
#     8   8   8   8   8   8   8   8
#     4  12  25  46  71 105 138 178 234 289 346 424
#     4  12  26  47  73 103 135 183 233 296 359 397
#     4  11  23  40  65 100 138 177 224 277 338 414
#     4  11  24  39  68  99 136 182 220 276 350 406
#     4  12  25  45  71 102 144 177 232 294 344 415
#     4  12  26  46  68 101 141 182 237 285 339 417
#     4  12  25  44  66 100 142 187 230 275 341 419
#     4  12  27  47  72  99 138 186 235 291 346 411
#
# _framework density 22.608013
#
# number of rings (size 3 to 8) (size 9 to 14) (size 15 to 20)
#    0.000    0.250    2.500    7.125    3.500    1.000 
#    0.000    0.000    0.000    0.000    0.000    0.000 
#    0.000    0.000    0.000    0.000    0.000    0.000 
#
# Total GULP energy -396701.969387 kJ/mol
# GULP energy per Si atom -12396.936543 kJ/mol
# Density = 2.255656 g / cm^3
# Si number density = 22.608013 Si / 1000 Ang^3
#
#
#
# Elastic Constant Matrix: (Units=GPa)
#
#
# Indices 1 2 3 4 5 6 
#
# 1 108.3280 21.4042 34.5499 -0.0007 -2.4938 -0.0005
# 2 21.4042 93.3937 19.2721 -0.0051 -3.4468 -0.0023
# 3 34.5499 19.2721 68.7983 -0.0003 -4.3042 -0.0008
# 4 -0.0007 -0.0051 -0.0003 16.6665 0.0003 3.7275
# 5 -2.4938 -3.4468 -4.3042 0.0003 35.1288 0.0001
# 6 -0.0005 -0.0023 -0.0008 3.7275 0.0001 29.9877
#
#
#
# Elastic Compliance Matrix: (Units=1/GPa)
#
#
# Indices 1 2 3 4 5 6 
#
# 1 0.011184 -0.001490 -0.005198 0.000000 0.000011 0.000000
# 2 -0.001490 0.011581 -0.002450 0.000003 0.000730 0.000000
# 3 -0.005198 -0.002450 0.017932 -0.000001 0.001588 0.000000
# 4 0.000000 0.000003 -0.000001 0.061716 0.000000 -0.007671
# 5 0.000011 0.000730 0.001588 0.000000 0.028734 0.000000
# 6 0.000000 0.000000 0.000000 -0.007671 0.000000 0.034301
#
#
# Mechanical properties :
#
#
# Convention : Reuss Voigt Hill
#
# Bulk Modulus (GPa) = 44.60413 46.77474 45.68944
# Shear Modulus (GPa) = 26.15091 29.37618 27.76355
#
# Velocity S-wave (km/s) = 3.40473 3.60859 3.50814
# Velocity P-wave (km/s) = 5.93536 6.17227 6.05497
#
# Compressibility (1/GPa) = 0.02241945
#
# Stress axis : x y z
#
# Youngs Moduli (GPa) = 89.41478 86.34512 55.76775
#
# Poissons Ratio (x) = 0.12866 0.28990
# Poissons Ratio (y) = 0.13323 0.13665
# Poissons Ratio (z) = 0.46481 0.21157
#
# Static dielectric constant tensor:
#      x y z
#    x 4.217650 0.000000 -0.050730 
#    y 0.000000 3.849350 0.000000 
#    z -0.050730 0.000000 4.012310 
# 
# 
# High freq. dielectric constant tensor:
#      x y z
#    x 1.908490 0.000000 -0.006580 
#    y 0.000000 1.888760 0.000000 
#    z -0.006580 0.000000 1.899690 
# 
# From -- ./inp_files/281217.got.cif
#   From: 2010.06.25/outbox.cif.g09.slc.cpg/sg15_141_cif.got.tgz:281217.got - 2010.06.28 07:06:18.
