data_PCOD8152433
_publ_section_title
;
Structure prediction by ZEFSAII (Michael W. Deem and Ramdas Pophale) SiO2 
 PCOD8152433
Probable space group: C 2/C
;
_chemical_formula_sum "Si O2"
_cell_formula_units_Z 48
_cell_length_a 14.214638
_cell_length_b 20.342901
_cell_length_c 10.765601
_cell_angle_alpha 90.000000
_cell_angle_beta 43.865069
_cell_angle_gamma 90.000000
_cell_volume 2157.230961
_symmetry_space_group_name_H-M "C 2/C"
_symmetry_group_IT_number 15
_symmetry_cell_setting 'monoclinic'
loop_
_space_group_symop_operation_xyz
x,y,z
-x,y,1/2-z
-x,-y,-z
x,-y,1/2+z
1/2+x,1/2+y,z
1/2-x,1/2+y,1/2-z
1/2-x,1/2-y,-z
1/2+x,1/2-y,1/2+z
loop_
_atom_site_type_symbol
_atom_site_label
_atom_site_fract_x
_atom_site_fract_y
_atom_site_fract_z
Si Si1 0.201716 0.683020 0.890468
Si Si2 0.579371 0.221932 0.414142
Si Si3 0.500000 0.180386 0.750000
Si Si4 0.500000 0.021308 0.250000
Si Si5 0.342003 0.078392 0.763515
Si Si6 0.414900 0.509133 0.957196
Si Si7 0.718190 0.119631 0.117010
O O1 0.327286 0.715733 0.700458
O O2 0.167473 0.610759 0.864075
O O3 0.247985 0.677170 0.989563
O O4 0.067504 0.728770 0.012269
O O5 0.556133 0.223699 0.583673
O O6 0.646263 0.152635 0.304883
O O7 0.370716 0.137753 0.830532
O O8 0.629028 0.068758 0.119570
O O9 0.531831 0.974136 0.340524
O O10 0.201795 0.045337 0.936615
O O11 0.500000 0.502608 0.750000
O O12 0.500000 0.500000 0.000000
O O13 0.354247 0.582615 0.028378
#
# Coordination Sequence:
#
# PCOD8152433 Si02
#       7
#     8   8   4   4   8   8   8
#     4  11  23  43  65 103 133 184 227 289 346 415
#     4  11  24  41  68  97 141 177 238 276 353 405
#     4   9  22  44  64  98 122 182 237 280 332 411
#     4   9  18  40  66  96 120 168 223 290 316 409
#     4   9  21  40  64  93 128 172 228 278 340 400
#     4  11  25  42  64 101 143 179 224 279 356 419
#     4  11  22  41  69  97 133 171 228 282 346 406
#
# _framework density 22.250747
#
# number of rings (size 3 to 8) (size 9 to 14) (size 15 to 20)
#    0.000    1.667    1.667    1.500    2.333    6.000 
#    7.500    0.000    0.000    0.000    0.000    0.000 
#    0.000    0.000    0.000    0.000    0.000    0.000 
#
# Total GULP energy -297377.144590 kJ/mol
# GULP energy per Si atom -12390.714358 kJ/mol
# Density = 2.220010 g / cm^3
# Si number density = 22.250747 Si / 1000 Ang^3
#
#
#
# Elastic Constant Matrix: (Units=GPa)
#
#
# Indices 1 2 3 4 5 6 
#
# 1 116.6649 30.7624 56.5542 -0.0004 13.0201 0.0012
# 2 30.7624 71.5450 33.6903 -0.0001 4.9627 0.0004
# 3 56.5542 33.6903 118.5081 -0.0002 15.6134 0.0007
# 4 -0.0004 -0.0001 -0.0002 43.5167 0.0004 -7.3703
# 5 13.0201 4.9627 15.6134 0.0004 31.3497 -0.0013
# 6 0.0012 0.0004 0.0007 -7.3703 -0.0013 16.9846
#
#
#
# Elastic Compliance Matrix: (Units=1/GPa)
#
#
# Indices 1 2 3 4 5 6 
#
# 1 0.011739 -0.002763 -0.004529 0.000000 -0.002182 -0.000001
# 2 -0.002763 0.016791 -0.003484 0.000000 0.000225 0.000000
# 3 -0.004529 -0.003484 0.012061 0.000000 -0.003574 0.000000
# 4 0.000000 0.000000 0.000000 0.024803 0.000000 0.010763
# 5 -0.002182 0.000225 -0.003574 0.000000 0.034549 0.000003
# 6 -0.000001 0.000000 0.000000 0.010763 0.000003 0.063547
#
#
# Mechanical properties :
#
#
# Convention : Reuss Voigt Hill
#
# Bulk Modulus (GPa) = 52.52819 60.97019 56.74919
# Shear Modulus (GPa) = 26.12475 30.75092 28.43784
#
# Velocity S-wave (km/s) = 3.43024 3.72158 3.57888
# Velocity P-wave (km/s) = 6.27275 6.77701 6.52975
#
# Compressibility (1/GPa) = 0.01903740
#
# Stress axis : x y z
#
# Youngs Moduli (GPa) = 85.18398 59.55737 82.91177
#
# Poissons Ratio (x) = 0.16459 0.37551
# Poissons Ratio (y) = 0.23540 0.28888
# Poissons Ratio (z) = 0.38580 0.20751
#
# Static dielectric constant tensor:
#      x y z
#    x 4.294360 0.000000 -0.012370 
#    y 0.000000 4.039110 0.000000 
#    z -0.012370 0.000000 3.678920 
# 
# 
# High freq. dielectric constant tensor:
#      x y z
#    x 1.889180 0.000000 -0.001100 
#    y 0.000000 1.873140 0.000000 
#    z -0.001100 0.000000 1.861510 
# 
# From -- ./inp_files/100031.got.cif
#   From: 2010.06.25/outbox.cif.g09.slc.cpg/sg15_51_cif.got.tgz:100031.got - 2010.06.28 07:06:18.
