data_PCOD8152100
_publ_section_title
;
Structure prediction by ZEFSAII (Michael W. Deem and Ramdas Pophale) SiO2 
 PCOD8152100
Probable space group: C 2/C
;
_chemical_formula_sum "Si O2"
_cell_formula_units_Z 48
_cell_length_a 17.077672
_cell_length_b 16.496550
_cell_length_c 16.375958
_cell_angle_alpha 90.000000
_cell_angle_beta 148.438321
_cell_angle_gamma 90.000000
_cell_volume 2414.769122
_symmetry_space_group_name_H-M "C 2/C"
_symmetry_group_IT_number 15
_symmetry_cell_setting 'monoclinic'
loop_
_space_group_symop_operation_xyz
x,y,z
-x,y,1/2-z
-x,-y,-z
x,-y,1/2+z
1/2+x,1/2+y,z
1/2-x,1/2+y,1/2-z
1/2-x,1/2-y,-z
1/2+x,1/2-y,1/2+z
loop_
_atom_site_type_symbol
_atom_site_label
_atom_site_fract_x
_atom_site_fract_y
_atom_site_fract_z
Si Si1 0.663624 0.580642 0.368331
Si Si2 0.289820 0.197684 0.344662
Si Si3 0.379665 0.852640 0.336704
Si Si4 0.839403 0.913099 0.899390
Si Si5 0.136342 0.522155 0.816980
Si Si6 0.652952 0.550892 0.729037
O O1 0.500000 0.608103 0.250000
O O2 0.728876 0.648127 0.366947
O O3 0.757744 0.578733 0.534579
O O4 0.664282 0.491415 0.327307
O O5 0.469504 0.191928 0.500759
O O6 0.237022 0.290208 0.308398
O O7 0.221072 0.167658 0.197535
O O8 0.297809 0.892608 0.342677
O O9 0.421847 0.922948 0.309804
O O10 0.722074 0.942228 0.863202
O O11 0.853959 0.982147 0.845027
O O12 0.999785 0.896979 0.084974
O O13 0.000000 0.490324 0.750000
#
# Coordination Sequence:
#
# PCOD8152100 Si02
#       6
#     8   8   8   8   8   8
#     4  11  22  37  60  88 115 148 184 234 290 335
#     4  11  24  38  57  82 116 155 191 231 279 338
#     4  11  24  38  57  82 116 155 192 230 279 338
#     4   9  19  36  58  80 111 149 190 231 274 333
#     4  11  22  37  58  89 118 144 187 236 285 335
#     4   9  19  36  58  81 109 149 193 228 274 335
#
# _framework density 19.877676000000001
#
# number of rings (size 3 to 8) (size 9 to 14) (size 15 to 20)
#    0.000    1.667    3.333    1.000    7.000    3.333 
#    0.000    0.000    0.000    2.000    0.000    0.000 
#    0.000    0.000    0.000    0.000    0.000    0.000 
#
# Total GULP energy -297631.467839 kJ/mol
# GULP energy per Si atom -12401.311160 kJ/mol
# Density = 1.983243 g / cm^3
# Si number density = 19.877676 Si / 1000 Ang^3
#
#
#
# Elastic Constant Matrix: (Units=GPa)
#
#
# Indices 1 2 3 4 5 6 
#
# 1 77.0020 27.6048 17.8540 -0.0018 23.1506 -0.0002
# 2 27.6048 38.5319 5.5028 0.0018 4.3872 0.0031
# 3 17.8540 5.5028 74.1467 -0.0019 24.3731 0.0000
# 4 -0.0018 0.0018 -0.0019 30.8996 -0.0008 4.8968
# 5 23.1506 4.3872 24.3731 -0.0008 36.0376 0.0012
# 6 -0.0002 0.0031 0.0000 4.8968 0.0012 17.7397
#
#
#
# Elastic Compliance Matrix: (Units=1/GPa)
#
#
# Indices 1 2 3 4 5 6 
#
# 1 0.021760 -0.014180 -0.000205 0.000001 -0.012113 0.000003
# 2 -0.014180 0.035636 -0.001027 -0.000002 0.005466 -0.000006
# 3 -0.000205 -0.001027 0.017395 0.000001 -0.011508 0.000001
# 4 0.000001 -0.000002 0.000001 0.033843 0.000000 -0.009342
# 5 -0.012113 0.005466 -0.011508 0.000000 0.042648 -0.000004
# 6 0.000003 -0.000006 0.000001 -0.009342 -0.000004 0.058949
#
#
# Mechanical properties :
#
#
# Convention : Reuss Voigt Hill
#
# Bulk Modulus (GPa) = 22.74505 32.40041 27.57273
# Shear Modulus (GPa) = 19.55325 26.18332 22.86829
#
# Velocity S-wave (km/s) = 3.13977 3.63329 3.39551
# Velocity P-wave (km/s) = 4.96100 5.82549 5.41054
#
# Compressibility (1/GPa) = 0.04396561
#
# Stress axis : x y z
#
# Youngs Moduli (GPa) = 45.95645 28.06163 57.48699
#
# Poissons Ratio (x) = 0.39793 0.01181
# Poissons Ratio (y) = 0.65168 0.05903
# Poissons Ratio (z) = 0.00944 0.02881
#
# Static dielectric constant tensor:
#      x y z
#    x 3.954210 0.000010 0.396210 
#    y 0.000010 3.362280 0.000010 
#    z 0.396210 0.000010 4.049820 
# 
# 
# High freq. dielectric constant tensor:
#      x y z
#    x 1.773650 0.000000 0.017440 
#    y 0.000000 1.741930 0.000000 
#    z 0.017440 0.000000 1.784630 
# 
# From -- ./inp_files/47956.got.cif
#   From: 2010.06.25/outbox.cif.g09.slc.cpg/sg15_24_cif.got.tgz:47956.got - 2010.06.28 07:06:18.
