data_PCOD8152154
_publ_section_title
;
Structure prediction by ZEFSAII (Michael W. Deem and Ramdas Pophale) SiO2 
 PCOD8152154
Probable space group: C 2/C
;
_chemical_formula_sum "Si O2"
_cell_formula_units_Z 60
_cell_length_a 21.415903
_cell_length_b 8.438429
_cell_length_c 17.397030
_cell_angle_alpha 90.000000
_cell_angle_beta 120.272100
_cell_angle_gamma 90.000000
_cell_volume 2715.228724
_symmetry_space_group_name_H-M "C 2/C"
_symmetry_group_IT_number 15
_symmetry_cell_setting 'monoclinic'
loop_
_space_group_symop_operation_xyz
x,y,z
-x,y,1/2-z
-x,-y,-z
x,-y,1/2+z
1/2+x,1/2+y,z
1/2-x,1/2+y,1/2-z
1/2-x,1/2-y,-z
1/2+x,1/2-y,1/2+z
loop_
_atom_site_type_symbol
_atom_site_label
_atom_site_fract_x
_atom_site_fract_y
_atom_site_fract_z
Si Si1 0.220562 0.186866 0.222433
Si Si2 0.386365 0.523200 0.931403
Si Si3 0.877656 0.689245 0.531112
Si Si4 0.831720 0.507013 0.871209
Si Si5 0.473152 0.968708 0.369500
Si Si6 0.500000 0.513447 0.250000
Si Si7 0.884115 0.726982 0.706573
Si Si8 0.507555 0.327203 0.407507
O O1 0.220640 0.339822 0.166329
O O2 0.180368 0.237838 0.275422
O O3 0.183749 0.040781 0.155653
O O4 0.301172 0.131118 0.295261
O O5 0.431553 0.620865 0.896445
O O6 0.362168 0.639447 0.984826
O O7 0.429874 0.373452 0.993046
O O8 0.831612 0.554975 0.458456
O O9 0.851900 0.683919 0.603242
O O10 0.964095 0.660281 0.577152
O O11 0.914624 0.547167 0.901458
O O12 0.508224 0.141245 0.389791
O O13 0.432478 0.922442 0.264997
O O14 0.568015 0.616900 0.267738
O O15 0.523571 0.409374 0.336710
#
# Coordination Sequence:
#
# PCOD8152154 Si02
#       8
#     8   8   8   8   8   4   8   8
#     4  11  25  46  64  92 127 178 219 266 322 395
#     4  11  22  38  65  94 131 162 220 269 318 393
#     4  12  22  41  66  98 129 167 213 276 329 388
#     4  11  25  41  68  88 126 172 222 267 318 387
#     4  11  23  40  63  97 132 163 215 269 328 386
#     4  12  20  38  58  98 130 170 202 262 342 380
#     4  11  23  41  64  91 136 172 208 266 337 392
#     4  11  23  34  63  99 127 167 205 270 330 375
#
# _framework density 22.097584000000001
#
# number of rings (size 3 to 8) (size 9 to 14) (size 15 to 20)
#    0.000    0.800    5.333    2.000    7.467    0.533 
#    0.000    0.000    0.000    4.000    0.000    0.000 
#    0.000    0.000    0.000    0.000    0.000    0.000 
#
# Total GULP energy -372092.912472 kJ/mol
# GULP energy per Si atom -12403.097082 kJ/mol
# Density = 2.204729 g / cm^3
# Si number density = 22.097584 Si / 1000 Ang^3
#
#
#
# Elastic Constant Matrix: (Units=GPa)
#
#
# Indices 1 2 3 4 5 6 
#
# 1 34.3762 16.3876 26.0814 0.0000 -3.0377 0.0000
# 2 16.3876 98.5565 42.3783 0.0000 -16.0802 0.0000
# 3 26.0814 42.3783 137.9690 0.0000 -16.3614 0.0000
# 4 0.0000 0.0000 0.0000 47.1196 0.0000 -5.1589
# 5 -3.0377 -16.0802 -16.3614 0.0000 26.5680 0.0000
# 6 0.0000 0.0000 0.0000 -5.1589 0.0000 23.2593
#
#
#
# Elastic Compliance Matrix: (Units=1/GPa)
#
#
# Indices 1 2 3 4 5 6 
#
# 1 0.035002 -0.003649 -0.005699 0.000000 -0.001717 0.000000
# 2 -0.003649 0.012791 -0.002557 0.000000 0.005750 0.000000
# 3 -0.005699 -0.002557 0.009547 0.000000 0.003680 0.000000
# 4 0.000000 0.000000 0.000000 0.021751 0.000000 0.004824
# 5 -0.001717 0.005750 0.003680 0.000000 0.043189 0.000000
# 6 0.000000 0.000000 0.000000 0.004824 0.000000 0.044064
#
#
# Mechanical properties :
#
#
# Convention : Reuss Voigt Hill
#
# Bulk Modulus (GPa) = 29.82538 48.95513 39.39025
# Shear Modulus (GPa) = 24.83461 31.79301 28.31381
#
# Velocity S-wave (km/s) = 3.35604 3.79721 3.58342
# Velocity P-wave (km/s) = 5.34264 6.43640 5.91485
#
# Compressibility (1/GPa) = 0.03352849
#
# Stress axis : x y z
#
# Youngs Moduli (GPa) = 28.56971 78.18052 104.74202
#
# Poissons Ratio (x) = 0.28531 0.59696
# Poissons Ratio (y) = 0.10426 0.26784
# Poissons Ratio (z) = 0.16283 0.19992
#
# Static dielectric constant tensor:
#      x y z
#    x 3.582670 0.000000 -0.010920 
#    y 0.000000 4.146620 0.000000 
#    z -0.010920 0.000000 4.299910 
# 
# 
# High freq. dielectric constant tensor:
#      x y z
#    x 1.828960 0.000000 0.003150 
#    y 0.000000 1.879360 0.000000 
#    z 0.003150 0.000000 1.889250 
# 
# From -- ./inp_files/218619.got.cif
#   From: 2010.06.25/outbox.cif.g09.slc.cpg/sg15_110_cif.got.tgz:218619.got - 2010.06.28 07:06:18.
