data_PCOD8152855
_publ_section_title
;
Structure prediction by ZEFSAII (Michael W. Deem and Ramdas Pophale) SiO2 
 PCOD8152855
Probable space group: C 2/C
;
_chemical_formula_sum "Si O2"
_cell_formula_units_Z 56
_cell_length_a 9.080052
_cell_length_b 28.100656
_cell_length_c 10.298112
_cell_angle_alpha 90.000000
_cell_angle_beta 66.277284
_cell_angle_gamma 90.000000
_cell_volume 2405.593565
_symmetry_space_group_name_H-M "C 2/C"
_symmetry_group_IT_number 15
_symmetry_cell_setting 'monoclinic'
loop_
_space_group_symop_operation_xyz
x,y,z
-x,y,1/2-z
-x,-y,-z
x,-y,1/2+z
1/2+x,1/2+y,z
1/2-x,1/2+y,1/2-z
1/2-x,1/2-y,-z
1/2+x,1/2-y,1/2+z
loop_
_atom_site_type_symbol
_atom_site_label
_atom_site_fract_x
_atom_site_fract_y
_atom_site_fract_z
Si Si1 0.372413 0.476933 0.679042
Si Si2 0.020851 0.717345 0.029642
Si Si3 0.350444 0.121226 0.580244
Si Si4 0.588340 0.380646 0.973564
Si Si5 0.236498 0.209354 0.318522
Si Si6 0.081229 0.549016 0.442147
Si Si7 0.773996 0.078430 0.622592
O O1 0.500000 0.477558 0.750000
O O2 0.410655 0.435979 0.563694
O O3 0.366729 0.528265 0.613792
O O4 0.197341 0.461292 0.784192
O O5 0.135714 0.715602 0.112991
O O6 0.834052 0.721904 0.149173
O O7 0.046826 0.669246 0.938323
O O8 0.078548 0.758559 0.908779
O O9 0.175272 0.130032 0.579941
O O10 0.446811 0.087137 0.445466
O O11 0.340525 0.092241 0.717597
O O12 0.663729 0.344566 0.839327
O O13 0.396132 0.376074 0.064627
O O14 0.170051 0.572917 0.531977
O O15 0.000000 0.500000 0.500000
#
# Coordination Sequence:
#
# PCOD8152855 Si02
#       7
#     8   8   8   8   8   8   8
#     4  12  24  41  63  86 126 167 215 266 317 386
#     4   9  19  36  61  95 129 163 214 274 329 390
#     4  11  23  39  63  94 128 165 214 270 324 386
#     4  11  23  40  64  92 128 169 214 264 329 392
#     4   9  19  36  62  94 128 166 213 272 332 389
#     4  12  25  42  62  91 124 168 215 266 320 381
#     4  12  25  40  62  93 129 172 216 264 326 390
#
# _framework density 23.27908
#
# number of rings (size 3 to 8) (size 9 to 14) (size 15 to 20)
#    0.000    1.143    2.857    3.857    2.000    2.857 
#    0.000    0.000    0.000    2.571    0.000    0.000 
#    0.000    0.000    0.000    0.000    0.000    0.000 
#
# Total GULP energy -346924.535510 kJ/mol
# GULP energy per Si atom -12390.161982 kJ/mol
# Density = 2.322610 g / cm^3
# Si number density = 23.279080 Si / 1000 Ang^3
#
#
#
# Elastic Constant Matrix: (Units=GPa)
#
#
# Indices 1 2 3 4 5 6 
#
# 1 61.5500 17.0516 18.0785 0.0000 -19.8517 0.0000
# 2 17.0516 125.9988 52.5072 0.0000 -23.7437 0.0000
# 3 18.0785 52.5072 77.8763 0.0000 -31.0524 0.0000
# 4 0.0000 0.0000 0.0000 29.3507 0.0000 -5.6688
# 5 -19.8517 -23.7437 -31.0524 0.0000 39.9128 0.0000
# 6 0.0000 0.0000 0.0000 -5.6688 0.0000 24.7400
#
#
#
# Elastic Compliance Matrix: (Units=1/GPa)
#
#
# Indices 1 2 3 4 5 6 
#
# 1 0.019453 -0.000770 -0.000466 0.000000 0.008855 0.000000
# 2 -0.000770 0.011103 -0.006997 0.000000 0.000779 0.000000
# 3 -0.000466 -0.006997 0.023072 0.000000 0.013556 0.000000
# 4 0.000000 0.000000 0.000000 0.035648 0.000000 0.008168
# 5 0.008855 0.000779 0.013556 0.000000 0.040469 0.000000
# 6 0.000000 0.000000 0.000000 0.008168 0.000000 0.042292
#
#
# Mechanical properties :
#
#
# Convention : Reuss Voigt Hill
#
# Bulk Modulus (GPa) = 26.90874 48.96662 37.93768
# Shear Modulus (GPa) = 24.88910 30.65322 27.77116
#
# Velocity S-wave (km/s) = 3.27335 3.63267 3.45768
# Velocity P-wave (km/s) = 5.08633 6.21895 5.68094
#
# Compressibility (1/GPa) = 0.03716264
#
# Stress axis : x y z
#
# Youngs Moduli (GPa) = 51.40563 90.06251 43.34235
#
# Poissons Ratio (x) = 0.06932 0.02020
# Poissons Ratio (y) = 0.03957 0.30327
# Poissons Ratio (z) = 0.02396 0.63018
#
# Static dielectric constant tensor:
#      x y z
#    x 4.243030 0.000000 -0.569770 
#    y 0.000000 4.550860 0.000000 
#    z -0.569770 0.000000 4.212150 
# 
# 
# High freq. dielectric constant tensor:
#      x y z
#    x 1.907450 0.000000 -0.036890 
#    y 0.000000 1.919090 0.000000 
#    z -0.036890 0.000000 1.921170 
# 
# From -- ./inp_files/81293.got.cif
#   From: 2010.06.25/outbox.cif.g09.slc.cpg/sg15_41_cif.got.tgz:81293.got - 2010.06.28 07:06:18.
