data_PCOD8152957
_publ_section_title
;
Structure prediction by ZEFSAII (Michael W. Deem and Ramdas Pophale) SiO2 
 PCOD8152957
Probable space group: C 2/C
;
_chemical_formula_sum "Si O2"
_cell_formula_units_Z 52
_cell_length_a 5.152512
_cell_length_b 30.148438
_cell_length_c 16.401181
_cell_angle_alpha 90.000000
_cell_angle_beta 63.254076
_cell_angle_gamma 90.000000
_cell_volume 2275.179883
_symmetry_space_group_name_H-M "C 2/C"
_symmetry_group_IT_number 15
_symmetry_cell_setting 'monoclinic'
loop_
_space_group_symop_operation_xyz
x,y,z
-x,y,1/2-z
-x,-y,-z
x,-y,1/2+z
1/2+x,1/2+y,z
1/2-x,1/2+y,1/2-z
1/2-x,1/2-y,-z
1/2+x,1/2-y,1/2+z
loop_
_atom_site_type_symbol
_atom_site_label
_atom_site_fract_x
_atom_site_fract_y
_atom_site_fract_z
Si Si1 0.506688 0.421973 0.609168
Si Si2 0.500000 0.281109 0.750000
Si Si3 0.388488 0.401110 0.084339
Si Si4 0.500000 0.128037 0.250000
Si Si5 0.171929 0.987824 0.307507
Si Si6 0.359140 0.155916 0.596849
Si Si7 0.153574 0.657735 0.394746
Si Si8 0.500000 0.275555 0.250000
O O1 0.440228 0.411540 0.523813
O O2 0.529150 0.474625 0.620705
O O3 0.796962 0.394427 0.590104
O O4 0.274991 0.404027 0.706748
O O5 0.554373 0.312646 0.661954
O O6 0.206614 0.252985 0.779726
O O7 0.281829 0.446569 0.138991
O O8 0.609401 0.379756 0.116529
O O9 0.118215 0.367815 0.109775
O O10 0.491376 0.159489 0.330797
O O11 0.500000 0.006403 0.250000
O O12 0.000000 0.973933 0.250000
O O13 0.468516 0.177445 0.495734
O O14 0.226724 0.195829 0.666337
#
# Coordination Sequence:
#
# PCOD8152957 Si02
#       8
#     8   4   8   4   8   8   8   4
#     4  11  23  41  67 101 141 181 233 282 350 396
#     4  12  26  44  74 106 138 175 223 288 368 410
#     4  11  25  44  69 100 136 189 231 284 331 413
#     4  12  17  40  64  99 134 178 229 282 338 413
#     4  12  26  41  65 104 141 185 231 286 334 396
#     4  11  26  48  72  99 137 186 237 277 349 405
#     4  11  24  41  73 103 137 182 225 286 349 427
#     4  12  29  48  70 103 140 181 226 294 342 429
#
# _framework density 22.855336000000001
#
# number of rings (size 3 to 8) (size 9 to 14) (size 15 to 20)
#    0.000    0.615    3.846    3.692    3.231    1.231 
#    0.000    3.846    0.000    0.000    0.000    0.000 
#    0.000    0.000    0.000    0.000    0.000    0.000 
#
# Total GULP energy -322322.833867 kJ/mol
# GULP energy per Si atom -12397.032072 kJ/mol
# Density = 2.280332 g / cm^3
# Si number density = 22.855336 Si / 1000 Ang^3
#
#
#
# Elastic Constant Matrix: (Units=GPa)
#
#
# Indices 1 2 3 4 5 6 
#
# 1 99.0172 24.6772 29.5695 0.0000 -4.1631 0.0000
# 2 24.6772 113.9578 50.0317 0.0000 -5.0771 0.0000
# 3 29.5695 50.0317 104.1250 0.0000 -2.4796 0.0000
# 4 0.0000 0.0000 0.0000 25.4921 0.0000 2.7901
# 5 -4.1631 -5.0771 -2.4796 0.0000 33.0098 0.0000
# 6 0.0000 0.0000 0.0000 2.7901 0.0000 28.7485
#
#
#
# Elastic Compliance Matrix: (Units=1/GPa)
#
#
# Indices 1 2 3 4 5 6 
#
# 1 0.011220 -0.001262 -0.002555 0.000000 0.001029 0.000000
# 2 -0.001262 0.011320 -0.005052 0.000000 0.001202 0.000000
# 3 -0.002555 -0.005052 0.012754 0.000000 -0.000141 0.000000
# 4 0.000000 0.000000 0.000000 0.039649 0.000000 -0.003848
# 5 0.001029 0.001202 -0.000141 0.000000 0.030598 0.000000
# 6 0.000000 0.000000 0.000000 -0.003848 0.000000 0.035158
#
#
# Mechanical properties :
#
#
# Convention : Reuss Voigt Hill
#
# Bulk Modulus (GPa) = 56.96461 58.40632 57.68546
# Shear Modulus (GPa) = 30.43397 31.63818 31.03607
#
# Velocity S-wave (km/s) = 3.65306 3.72463 3.68902
# Velocity P-wave (km/s) = 6.53997 6.64134 6.59085
#
# Compressibility (1/GPa) = 0.01755476
#
# Stress axis : x y z
#
# Youngs Moduli (GPa) = 89.12540 88.33791 78.40801
#
# Poissons Ratio (x) = 0.11147 0.20037
# Poissons Ratio (y) = 0.11247 0.39614
# Poissons Ratio (z) = 0.22776 0.44631
#
# Static dielectric constant tensor:
#      x y z
#    x 3.995820 0.000000 -0.055810 
#    y 0.000000 4.154710 0.000000 
#    z -0.055810 0.000000 4.317780 
# 
# 
# High freq. dielectric constant tensor:
#      x y z
#    x 1.903150 0.000000 -0.001220 
#    y 0.000000 1.898210 0.000000 
#    z -0.001220 0.000000 1.907670 
# 
# From -- ./inp_files/186086.got.cif
#   From: 2010.06.25/outbox.cif.g09.slc.cpg/sg15_94_cif.got.tgz:186086.got - 2010.06.28 07:06:18.
