data_PCOD8152781
_publ_section_title
;
Structure prediction by ZEFSAII (Michael W. Deem and Ramdas Pophale) SiO2 
 PCOD8152781
Probable space group: C 2/C
;
_chemical_formula_sum "Si O2"
_cell_formula_units_Z 40
_cell_length_a 11.585555
_cell_length_b 14.296915
_cell_length_c 11.176713
_cell_angle_alpha 90.000000
_cell_angle_beta 72.715742
_cell_angle_gamma 90.000000
_cell_volume 1767.685517
_symmetry_space_group_name_H-M "C 2/C"
_symmetry_group_IT_number 15
_symmetry_cell_setting 'monoclinic'
loop_
_space_group_symop_operation_xyz
x,y,z
-x,y,1/2-z
-x,-y,-z
x,-y,1/2+z
1/2+x,1/2+y,z
1/2-x,1/2+y,1/2-z
1/2-x,1/2-y,-z
1/2+x,1/2-y,1/2+z
loop_
_atom_site_type_symbol
_atom_site_label
_atom_site_fract_x
_atom_site_fract_y
_atom_site_fract_z
Si Si1 0.275946 0.849118 0.550260
Si Si2 0.620776 0.894619 0.749848
Si Si3 0.525505 0.093883 0.867503
Si Si4 0.927876 0.001834 0.396268
Si Si5 0.267567 0.857099 0.022655
O O1 0.250000 0.750000 0.500000
O O2 0.293926 0.835579 0.687611
O O3 0.397774 0.903028 0.474016
O O4 0.162237 0.912531 0.557492
O O5 0.500000 0.835715 0.750000
O O6 0.695808 0.915725 0.606844
O O7 0.572022 0.989277 0.827050
O O8 0.500000 0.147362 0.750000
O O9 0.629110 0.144602 0.909142
O O10 0.000000 0.019073 0.250000
O O11 0.855748 0.905154 0.394655
O O12 0.000000 0.000000 0.500000
O O13 0.250000 0.750000 0.000000
#
# Coordination Sequence:
#
# PCOD8152781 Si02
#       5
#     8   8   8   8   8
#     4  12  27  46  76 112 148 194 254 311 370 449
#     4  11  22  46  78 106 143 188 256 309 366 438
#     4  11  25  45  79 108 143 192 257 305 371 435
#     4  12  29  50  72 105 158 202 241 306 391 450
#     4  12  28  48  77 112 151 196 253 314 374 452
#
# _framework density 22.628457999999998
#
# number of rings (size 3 to 8) (size 9 to 14) (size 15 to 20)
#    0.000    0.400    4.000    4.200    8.400    1.600 
#    0.000    0.000    0.000    0.000    0.000    0.000 
#    0.000    0.000    0.000    0.000    0.000    0.000 
#
# Total GULP energy -247838.771747 kJ/mol
# GULP energy per Si atom -12391.938587 kJ/mol
# Density = 2.257695 g / cm^3
# Si number density = 22.628458 Si / 1000 Ang^3
#
#
#
# Elastic Constant Matrix: (Units=GPa)
#
#
# Indices 1 2 3 4 5 6 
#
# 1 199.4693 72.1482 82.2473 0.0000 34.5556 0.0000
# 2 72.1482 145.9473 37.6938 0.0000 4.6231 0.0000
# 3 82.2473 37.6938 122.5026 0.0000 28.2101 0.0000
# 4 0.0000 0.0000 0.0000 24.5695 0.0000 6.5856
# 5 34.5556 4.6231 28.2101 0.0000 61.2324 0.0000
# 6 0.0000 0.0000 0.0000 6.5856 0.0000 23.6966
#
#
#
# Elastic Compliance Matrix: (Units=1/GPa)
#
#
# Indices 1 2 3 4 5 6 
#
# 1 0.008156 -0.002920 -0.003992 0.000000 -0.002543 0.000000
# 2 -0.002920 0.008506 -0.000993 0.000000 0.001464 0.000000
# 3 -0.003992 -0.000993 0.011872 0.000000 -0.003142 0.000000
# 4 0.000000 0.000000 0.000000 0.043977 0.000000 -0.012222
# 5 -0.002543 0.001464 -0.003142 0.000000 0.019104 0.000000
# 6 0.000000 0.000000 0.000000 -0.012222 0.000000 0.045597
#
#
# Mechanical properties :
#
#
# Convention : Reuss Voigt Hill
#
# Bulk Modulus (GPa) = 78.59800 94.67753 86.63776
# Shear Modulus (GPa) = 31.79380 40.28836 36.04108
#
# Velocity S-wave (km/s) = 3.75245 4.22409 3.99523
# Velocity P-wave (km/s) = 7.32011 8.10688 7.72352
#
# Compressibility (1/GPa) = 0.01272297
#
# Stress axis : x y z
#
# Youngs Moduli (GPa) = 122.60750 117.56807 84.22974
#
# Poissons Ratio (x) = 0.34335 0.33622
# Poissons Ratio (y) = 0.35807 0.08368
# Poissons Ratio (z) = 0.48941 0.11680
#
# Static dielectric constant tensor:
#      x y z
#    x 4.995350 0.000000 0.454860 
#    y 0.000000 3.723470 0.000000 
#    z 0.454860 0.000000 4.893810 
# 
# 
# High freq. dielectric constant tensor:
#      x y z
#    x 1.916700 0.000000 0.015400 
#    y 0.000000 1.867430 0.000000 
#    z 0.015400 0.000000 1.916820 
# 
# From -- ./inp_files/85954.got.cif
#   From: 2010.06.25/outbox.cif.g09.slc.cpg/sg15_43_cif.got.tgz:85954.got - 2010.06.28 07:06:18.
