data_PCOD8152105
_publ_section_title
;
Structure prediction by ZEFSAII (Michael W. Deem and Ramdas Pophale) SiO2 
 PCOD8152105
Probable space group: C 2/C
;
_chemical_formula_sum "Si O2"
_cell_formula_units_Z 40
_cell_length_a 16.098264
_cell_length_b 28.125586
_cell_length_c 9.904538
_cell_angle_alpha 90.000000
_cell_angle_beta 150.600409
_cell_angle_gamma 90.000000
_cell_volume 2201.434146
_symmetry_space_group_name_H-M "C 2/C"
_symmetry_group_IT_number 15
_symmetry_cell_setting 'monoclinic'
loop_
_space_group_symop_operation_xyz
x,y,z
-x,y,1/2-z
-x,-y,-z
x,-y,1/2+z
1/2+x,1/2+y,z
1/2-x,1/2+y,1/2-z
1/2-x,1/2-y,-z
1/2+x,1/2-y,1/2+z
loop_
_atom_site_type_symbol
_atom_site_label
_atom_site_fract_x
_atom_site_fract_y
_atom_site_fract_z
Si Si1 0.896540 0.216423 0.967511
Si Si2 0.327081 0.133914 0.923009
Si Si3 0.368444 0.295952 0.951091
Si Si4 0.494011 0.954624 0.898230
Si Si5 0.320473 0.393386 0.020207
O O1 0.748826 0.176152 0.775587
O O2 0.800155 0.264416 0.790892
O O3 0.037187 0.203580 0.057406
O O4 0.000000 0.223368 0.250000
O O5 0.500000 0.147300 0.250000
O O6 0.361781 0.086563 0.880531
O O7 0.183641 0.124442 0.831158
O O8 0.500000 0.276839 0.250000
O O9 0.303306 0.348634 0.895352
O O10 0.500000 0.970475 0.750000
O O11 0.320598 0.932186 0.704328
O O12 0.500000 0.000000 0.000000
O O13 0.500000 0.418864 0.250000
#
# Coordination Sequence:
#
# PCOD8152105 Si02
#       5
#     8   8   8   8   8
#     4  12  24  37  52  89 125 150 190 248 296 322
#     4   9  19  37  62  79 113 155 196 231 278 352
#     4  11  22  37  61  81 112 162 206 224 275 355
#     4   9  20  39  61  85 112 145 192 239 295 343
#     4   9  17  36  61  84 105 146 205 233 265 341
#
# _framework density 18.169974
#
# number of rings (size 3 to 8) (size 9 to 14) (size 15 to 20)
#    0.000    2.400    4.000    1.800    5.600    0.000 
#    3.600    5.000    0.000    0.000    0.000    0.000 
#    0.000    0.000    0.000    0.000    0.000    0.000 
#
# Total GULP energy -247777.427123 kJ/mol
# GULP energy per Si atom -12388.871356 kJ/mol
# Density = 1.812862 g / cm^3
# Si number density = 18.169974 Si / 1000 Ang^3
#
#
#
# Elastic Constant Matrix: (Units=GPa)
#
#
# Indices 1 2 3 4 5 6 
#
# 1 122.1766 57.4572 46.7201 0.0000 16.4931 0.0000
# 2 57.4572 127.1248 55.5730 0.0000 4.0995 0.0000
# 3 46.7201 55.5730 96.6502 0.0000 -1.4205 0.0000
# 4 0.0000 0.0000 0.0000 25.2864 0.0000 -3.1750
# 5 16.4931 4.0995 -1.4205 0.0000 30.9821 0.0000
# 6 0.0000 0.0000 0.0000 -3.1750 0.0000 31.3831
#
#
#
# Elastic Compliance Matrix: (Units=1/GPa)
#
#
# Indices 1 2 3 4 5 6 
#
# 1 0.012220 -0.003608 -0.003924 0.000000 -0.006208 0.000000
# 2 -0.003608 0.011659 -0.004958 0.000000 0.000150 0.000000
# 3 -0.003924 -0.004958 0.015145 0.000000 0.003439 0.000000
# 4 0.000000 0.000000 0.000000 0.040056 0.000000 0.004052
# 5 -0.006208 0.000150 0.003439 0.000000 0.035719 0.000000
# 6 0.000000 0.000000 0.000000 0.004052 0.000000 0.032274
#
#
# Mechanical properties :
#
#
# Convention : Reuss Voigt Hill
#
# Bulk Modulus (GPa) = 71.19922 73.93914 72.56918
# Shear Modulus (GPa) = 28.29115 29.94376 29.11746
#
# Velocity S-wave (km/s) = 3.95020 4.06394 4.00747
# Velocity P-wave (km/s) = 7.75085 7.92478 7.83830
#
# Compressibility (1/GPa) = 0.01404510
#
# Stress axis : x y z
#
# Youngs Moduli (GPa) = 81.83331 85.76823 66.02960
#
# Poissons Ratio (x) = 0.30941 0.25910
# Poissons Ratio (y) = 0.29522 0.32737
# Poissons Ratio (z) = 0.32111 0.42523
#
# Static dielectric constant tensor:
#      x y z
#    x 3.567000 0.000000 0.255050 
#    y 0.000000 3.313490 0.000000 
#    z 0.255050 0.000000 3.252990 
# 
# 
# High freq. dielectric constant tensor:
#      x y z
#    x 1.717850 0.000000 0.024070 
#    y 0.000000 1.696990 0.000000 
#    z 0.024070 0.000000 1.680610 
# 
# From -- ./inp_files/44965.got.cif
#   From: 2010.06.25/outbox.cif.g09.slc.cpg/sg15_23_cif.got.tgz:44965.got - 2010.06.28 07:06:18.
