data_PCOD8152571
_publ_section_title
;
Structure prediction by ZEFSAII (Michael W. Deem and Ramdas Pophale) SiO2 
 PCOD8152571
Probable space group: C 2/C
;
_chemical_formula_sum "Si O2"
_cell_formula_units_Z 48
_cell_length_a 14.153946
_cell_length_b 13.448420
_cell_length_c 19.259276
_cell_angle_alpha 90.000000
_cell_angle_beta 39.115293
_cell_angle_gamma 90.000000
_cell_volume 2312.797059
_symmetry_space_group_name_H-M "C 2/C"
_symmetry_group_IT_number 15
_symmetry_cell_setting 'monoclinic'
loop_
_space_group_symop_operation_xyz
x,y,z
-x,y,1/2-z
-x,-y,-z
x,-y,1/2+z
1/2+x,1/2+y,z
1/2-x,1/2+y,1/2-z
1/2-x,1/2-y,-z
1/2+x,1/2-y,1/2+z
loop_
_atom_site_type_symbol
_atom_site_label
_atom_site_fract_x
_atom_site_fract_y
_atom_site_fract_z
Si Si1 0.145718 0.055174 0.441913
Si Si2 0.000000 0.947271 0.250000
Si Si3 0.637136 0.057432 0.578315
Si Si4 0.107332 0.390300 0.809248
Si Si5 0.000000 0.721508 0.750000
Si Si6 0.910073 0.796949 0.414409
Si Si7 0.725024 0.391786 0.647415
O O1 0.246820 0.088824 0.319643
O O2 0.081423 0.153856 0.514875
O O3 0.236288 0.983788 0.442346
O O4 0.000000 0.000000 0.500000
O O5 0.086412 0.881338 0.145541
O O6 0.116170 0.015862 0.225943
O O7 0.556393 0.153522 0.655224
O O8 0.706998 0.093974 0.467116
O O9 0.517043 0.971672 0.635150
O O10 0.145893 0.391544 0.868611
O O11 0.042166 0.282120 0.827075
O O12 0.134523 0.788695 0.702833
O O13 0.750000 0.750000 0.500000
#
# Coordination Sequence:
#
# PCOD8152571 Si02
#       7
#     8   4   8   8   4   8   8
#     4  12  26  45  73 102 143 188 233 285 360 413
#     4  11  22  43  66  94 144 179 228 287 350 406
#     4  12  24  49  71  98 145 185 227 294 355 417
#     4  12  26  44  74 105 140 181 239 287 352 418
#     4  11  26  43  74  96 142 181 232 283 350 420
#     4  12  24  42  71 104 137 184 230 292 345 416
#     4  11  26  44  69 104 134 185 232 286 345 421
#
# _framework density 20.754090000000001
#
# number of rings (size 3 to 8) (size 9 to 14) (size 15 to 20)
#    0.000    0.333    5.000    3.000    4.667    2.667 
#    0.000    0.000    0.000    0.000    0.000    0.000 
#    0.000    0.000    0.000    0.000    0.000    0.000 
#
# Total GULP energy -297731.230607 kJ/mol
# GULP energy per Si atom -12405.467942 kJ/mol
# Density = 2.070685 g / cm^3
# Si number density = 20.754090 Si / 1000 Ang^3
#
#
#
# Elastic Constant Matrix: (Units=GPa)
#
#
# Indices 1 2 3 4 5 6 
#
# 1 143.3347 64.8388 49.4934 -0.0003 -6.6132 0.0000
# 2 64.8388 152.9991 62.1818 0.0000 -7.0552 0.0000
# 3 49.4934 62.1818 137.0357 0.0001 3.1703 0.0002
# 4 -0.0003 0.0000 0.0001 164.7580 0.0002 -0.5654
# 5 -6.6132 -7.0552 3.1703 0.0002 36.6339 -0.0001
# 6 0.0000 0.0000 0.0002 -0.5654 -0.0001 26.7209
#
#
#
# Elastic Compliance Matrix: (Units=1/GPa)
#
#
# Indices 1 2 3 4 5 6 
#
# 1 0.009058 -0.002993 -0.001942 0.000000 0.001227 0.000000
# 2 -0.002993 0.009132 -0.003097 0.000000 0.001486 0.000000
# 3 -0.001942 -0.003097 0.009445 0.000000 -0.001764 0.000000
# 4 0.000000 0.000000 0.000000 0.006070 0.000000 0.000128
# 5 0.001227 0.001486 -0.001764 0.000000 0.027958 0.000000
# 6 0.000000 0.000000 0.000000 0.000128 0.000000 0.037427
#
#
# Mechanical properties :
#
#
# Convention : Reuss Voigt Hill
#
# Bulk Modulus (GPa) = 86.42392 87.37749 86.90070
# Shear Modulus (GPa) = 42.01402 62.74625 52.38014
#
# Velocity S-wave (km/s) = 4.50418 5.50444 5.02924
# Velocity P-wave (km/s) = 8.29352 9.08797 8.69982
#
# Compressibility (1/GPa) = 0.01157087
#
# Stress axis : x y z
#
# Youngs Moduli (GPa) = 110.40526 109.51101 105.87842
#
# Poissons Ratio (x) = 0.32774 0.20559
# Poissons Ratio (y) = 0.33041 0.32791
# Poissons Ratio (z) = 0.21438 0.33916
#
# Static dielectric constant tensor:
#      x y z
#    x 3.846210 0.000000 0.066220 
#    y 0.000000 4.266160 0.000000 
#    z 0.066220 0.000000 4.140360 
# 
# 
# High freq. dielectric constant tensor:
#      x y z
#    x 1.812630 0.000000 0.000490 
#    y 0.000000 1.831660 0.000000 
#    z 0.000490 0.000000 1.832750 
# 
# From -- ./inp_files/243954.got.cif
#   From: 2010.06.25/outbox.cif.g09.slc.cpg/sg15_122_cif.got.tgz:243954.got - 2010.06.28 07:06:18.
