data_PCOD8152995
_publ_section_title
;
Structure prediction by ZEFSAII (Michael W. Deem and Ramdas Pophale) SiO2 
 PCOD8152995
Probable space group: C 2/C
;
_chemical_formula_sum "Si O2"
_cell_formula_units_Z 44
_cell_length_a 10.188490
_cell_length_b 20.185512
_cell_length_c 13.981552
_cell_angle_alpha 90.000000
_cell_angle_beta 140.569458
_cell_angle_gamma 90.000000
_cell_volume 1826.316475
_symmetry_space_group_name_H-M "C 2/C"
_symmetry_group_IT_number 15
_symmetry_cell_setting 'monoclinic'
loop_
_space_group_symop_operation_xyz
x,y,z
-x,y,1/2-z
-x,-y,-z
x,-y,1/2+z
1/2+x,1/2+y,z
1/2-x,1/2+y,1/2-z
1/2-x,1/2-y,-z
1/2+x,1/2-y,1/2+z
loop_
_atom_site_type_symbol
_atom_site_label
_atom_site_fract_x
_atom_site_fract_y
_atom_site_fract_z
Si Si1 0.500000 0.764868 0.250000
Si Si2 0.604043 0.580956 0.408900
Si Si3 0.519476 0.435902 0.148513
Si Si4 0.614106 0.206763 0.119085
Si Si5 0.111681 0.166045 0.061521
Si Si6 0.461611 0.877566 0.381498
O O1 0.300548 0.717219 0.147022
O O2 0.484494 0.809564 0.335679
O O3 0.500000 0.598174 0.250000
O O4 0.513821 0.512118 0.398305
O O5 0.554173 0.640429 0.453571
O O6 0.851516 0.572804 0.539346
O O7 0.500000 0.424434 0.250000
O O8 0.747972 0.414855 0.241378
O O9 0.351352 0.391482 0.996468
O O10 0.682836 0.187427 0.265482
O O11 0.477595 0.272675 0.048746
O O12 0.480171 0.145308 0.002709
#
# Coordination Sequence:
#
# PCOD8152995 Si02
#       6
#     4   8   8   8   8   8
#     4  12  20  34  70 110 136 162 222 296 364 398
#     4  11  23  41  72 102 139 177 227 298 345 410
#     4  11  27  47  67  94 146 193 241 278 331 422
#     4  12  22  36  72 106 138 169 219 301 363 404
#     4  12  22  43  66 108 139 176 225 292 357 415
#     4  12  22  42  70 107 137 177 229 292 356 408
#
# _framework density 24.092210000000001
#
# number of rings (size 3 to 8) (size 9 to 14) (size 15 to 20)
#    0.000    0.364    7.273    2.182    0.000    2.909 
#    0.000    4.545    0.000    0.000    0.000    0.000 
#    0.000    0.000    0.000    0.000    0.000    0.000 
#
# Total GULP energy -272808.666126 kJ/mol
# GULP energy per Si atom -12400.393915 kJ/mol
# Density = 2.403737 g / cm^3
# Si number density = 24.092210 Si / 1000 Ang^3
#
#
#
# Elastic Constant Matrix: (Units=GPa)
#
#
# Indices 1 2 3 4 5 6 
#
# 1 35.3470 10.0663 10.2694 0.0006 -8.2349 0.0006
# 2 10.0663 118.2787 54.2002 0.0000 2.8416 0.0001
# 3 10.2694 54.2002 134.1436 0.0008 -10.6801 0.0009
# 4 0.0006 0.0000 0.0008 30.0735 0.0006 -3.4812
# 5 -8.2349 2.8416 -10.6801 0.0006 29.4641 0.0007
# 6 0.0006 0.0001 0.0009 -3.4812 0.0007 20.7362
#
#
#
# Elastic Compliance Matrix: (Units=1/GPa)
#
#
# Indices 1 2 3 4 5 6 
#
# 1 0.031251 -0.002568 -0.000659 -0.000001 0.008743 -0.000001
# 2 -0.002568 0.010783 -0.004428 0.000000 -0.003363 0.000000
# 3 -0.000659 -0.004428 0.009590 0.000000 0.003719 -0.000001
# 4 -0.000001 0.000000 0.000000 0.033911 -0.000001 0.005693
# 5 0.008743 -0.003363 0.003719 -0.000001 0.038056 -0.000002
# 6 -0.000001 0.000000 -0.000001 0.005693 -0.000002 0.049181
#
#
# Mechanical properties :
#
#
# Convention : Reuss Voigt Hill
#
# Bulk Modulus (GPa) = 27.53702 48.53790 38.03746
# Shear Modulus (GPa) = 24.97691 30.27034 27.62362
#
# Velocity S-wave (km/s) = 3.22331 3.54847 3.38979
# Velocity P-wave (km/s) = 5.03067 6.08106 5.58063
#
# Compressibility (1/GPa) = 0.03631475
#
# Stress axis : x y z
#
# Youngs Moduli (GPa) = 31.99949 92.73849 104.27148
#
# Poissons Ratio (x) = 0.23813 0.06869
# Poissons Ratio (y) = 0.08217 0.46171
# Poissons Ratio (z) = 0.02108 0.41064
#
# Static dielectric constant tensor:
#      x y z
#    x 3.917510 0.000000 -0.068250 
#    y 0.000000 4.327680 0.000000 
#    z -0.068250 0.000000 4.660770 
# 
# 
# High freq. dielectric constant tensor:
#      x y z
#    x 1.918170 0.000000 -0.014690 
#    y 0.000000 1.959610 0.000000 
#    z -0.014690 0.000000 1.975570 
# 
# From -- ./inp_files/147279.got.cif
#   From: 2010.06.25/outbox.cif.g09.slc.cpg/sg15_74_cif.got.tgz:147279.got - 2010.06.28 07:06:18.
