data_PCOD8152649
_publ_section_title
;
Structure prediction by ZEFSAII (Michael W. Deem and Ramdas Pophale) SiO2 
 PCOD8152649
Probable space group: C 2/C
;
_chemical_formula_sum "Si O2"
_cell_formula_units_Z 52
_cell_length_a 23.129762
_cell_length_b 7.094971
_cell_length_c 17.245429
_cell_angle_alpha 90.000000
_cell_angle_beta 60.740166
_cell_angle_gamma 90.000000
_cell_volume 2468.979512
_symmetry_space_group_name_H-M "C 2/C"
_symmetry_group_IT_number 15
_symmetry_cell_setting 'monoclinic'
loop_
_space_group_symop_operation_xyz
x,y,z
-x,y,1/2-z
-x,-y,-z
x,-y,1/2+z
1/2+x,1/2+y,z
1/2-x,1/2+y,1/2-z
1/2-x,1/2-y,-z
1/2+x,1/2-y,1/2+z
loop_
_atom_site_type_symbol
_atom_site_label
_atom_site_fract_x
_atom_site_fract_y
_atom_site_fract_z
Si Si1 0.056777 0.685513 0.617843
Si Si2 0.957494 0.127976 0.083717
Si Si3 0.500000 0.854165 0.750000
Si Si4 0.697553 0.738474 0.966120
Si Si5 0.586149 0.509109 0.723183
Si Si6 0.685111 0.615513 0.374095
Si Si7 0.770972 0.980503 0.319320
O O1 0.029052 0.488090 0.665239
O O2 0.130810 0.662457 0.538886
O O3 0.007932 0.710493 0.576690
O O4 0.055482 0.856185 0.682723
O O5 0.889670 0.197902 0.087102
O O6 0.936545 0.023840 0.175069
O O7 0.000000 0.000000 0.000000
O O8 0.562680 0.721792 0.725141
O O9 0.684941 0.523296 0.948172
O O10 0.722348 0.850850 0.874544
O O11 0.750000 0.750000 0.000000
O O12 0.665507 0.505375 0.665625
O O13 0.735356 0.783117 0.358184
O O14 0.709198 0.500659 0.283103
#
# Coordination Sequence:
#
# PCOD8152649 Si02
#       7
#     8   8   4   8   8   8   8
#     4  12  24  45  68 102 139 174 225 285 343 395
#     4  11  22  44  68  93 140 177 215 287 340 397
#     4  12  24  42  72 100 128 180 234 264 346 412
#     4  12  26  44  70 105 140 177 232 292 336 405
#     4  11  24  44  69  96 139 180 224 283 341 400
#     4  11  25  44  70  97 139 183 228 277 349 412
#     4  11  25  44  70 101 136 185 229 278 346 412
#
# _framework density 21.061333000000001
#
# number of rings (size 3 to 8) (size 9 to 14) (size 15 to 20)
#    0.000    0.615    7.692    0.000    2.154    4.308 
#    0.000    1.538    0.000    0.000    0.000    0.000 
#    0.000    0.000    0.000    0.000    0.000    0.000 
#
# Total GULP energy -322241.443826 kJ/mol
# GULP energy per Si atom -12393.901686 kJ/mol
# Density = 2.101340 g / cm^3
# Si number density = 21.061333 Si / 1000 Ang^3
#
#
#
# Elastic Constant Matrix: (Units=GPa)
#
#
# Indices 1 2 3 4 5 6 
#
# 1 137.0368 39.5303 33.2524 -0.0018 -11.3212 -0.0052
# 2 39.5303 76.2808 -4.8682 -0.0030 -7.5612 -0.0145
# 3 33.2524 -4.8682 67.2856 0.0003 -20.3334 0.0000
# 4 -0.0018 -0.0030 0.0003 27.3704 0.0004 -8.8165
# 5 -11.3212 -7.5612 -20.3334 0.0004 38.8773 -0.0005
# 6 -0.0052 -0.0145 0.0000 -8.8165 -0.0005 34.7379
#
#
#
# Elastic Compliance Matrix: (Units=1/GPa)
#
#
# Indices 1 2 3 4 5 6 
#
# 1 0.010309 -0.005838 -0.005883 0.000000 -0.001210 -0.000001
# 2 -0.005838 0.016923 0.005452 0.000004 0.004443 0.000007
# 3 -0.005883 0.005452 0.021339 0.000000 0.010508 0.000002
# 4 0.000000 0.000004 0.000000 0.039789 0.000001 0.010098
# 5 -0.001210 0.004443 0.010508 0.000001 0.031729 0.000002
# 6 -0.000001 0.000007 0.000002 0.010098 0.000002 0.031350
#
#
# Mechanical properties :
#
#
# Convention : Reuss Voigt Hill
#
# Bulk Modulus (GPa) = 27.75131 46.27022 37.01077
# Shear Modulus (GPa) = 28.41123 34.37638 31.39381
#
# Velocity S-wave (km/s) = 3.67683 4.04444 3.86500
# Velocity P-wave (km/s) = 5.58842 6.62019 6.12607
#
# Compressibility (1/GPa) = 0.03603434
#
# Stress axis : x y z
#
# Youngs Moduli (GPa) = 97.00553 59.09141 46.86229
#
# Poissons Ratio (x) = 0.34495 0.27567
# Poissons Ratio (y) = 0.56627 -0.25549
# Poissons Ratio (z) = 0.57064 -0.32216
#
# Static dielectric constant tensor:
#      x y z
#    x 4.357880 0.000000 -0.187350 
#    y 0.000000 3.401100 0.000030 
#    z -0.187350 0.000030 3.935030 
# 
# 
# High freq. dielectric constant tensor:
#      x y z
#    x 1.842900 0.000000 -0.014580 
#    y 0.000000 1.810750 0.000000 
#    z -0.014580 0.000000 1.840280 
# 
# From -- ./inp_files/221167.got.cif
#   From: 2010.06.25/outbox.cif.g09.slc.cpg/sg15_111_cif.got.tgz:221167.got - 2010.06.28 07:06:18.
