data_PCOD8152820
_publ_section_title
;
Structure prediction by ZEFSAII (Michael W. Deem and Ramdas Pophale) SiO2 
 PCOD8152820
Probable space group: C 2/C
;
_chemical_formula_sum "Si O2"
_cell_formula_units_Z 40
_cell_length_a 13.019433
_cell_length_b 16.768928
_cell_length_c 8.538073
_cell_angle_alpha 90.000000
_cell_angle_beta 105.962044
_cell_angle_gamma 90.000000
_cell_volume 1792.178511
_symmetry_space_group_name_H-M "C 2/C"
_symmetry_group_IT_number 15
_symmetry_cell_setting 'monoclinic'
loop_
_space_group_symop_operation_xyz
x,y,z
-x,y,1/2-z
-x,-y,-z
x,-y,1/2+z
1/2+x,1/2+y,z
1/2-x,1/2+y,1/2-z
1/2-x,1/2-y,-z
1/2+x,1/2-y,1/2+z
loop_
_atom_site_type_symbol
_atom_site_label
_atom_site_fract_x
_atom_site_fract_y
_atom_site_fract_z
Si Si1 0.938222 0.226991 0.888017
Si Si2 0.375605 0.030711 0.707476
Si Si3 0.318292 0.113082 0.372599
Si Si4 0.750186 0.150866 0.652730
Si Si5 0.644149 0.318145 0.607989
O O1 0.898041 0.312858 0.932165
O O2 0.836849 0.169269 0.824681
O O3 0.000000 0.238897 0.750000
O O4 0.014718 0.184497 0.050125
O O5 0.500000 0.050958 0.750000
O O6 0.317179 0.057466 0.524266
O O7 0.324436 0.077870 0.831297
O O8 0.358505 0.937376 0.738326
O O9 0.197096 0.145209 0.287527
O O10 0.675966 0.226861 0.593816
O O11 0.811489 0.129267 0.518210
#
# Coordination Sequence:
#
# PCOD8152820 Si02
#       5
#     8   8   8   8   8
#     4   9  18  36  62  87 115 155 195 237 289 345
#     4  12  24  38  57  86 123 156 192 242 294 347
#     4  11  23  37  59  88 120 156 196 238 291 348
#     4   9  19  35  57  85 116 153 198 238 287 349
#     4   9  18  37  61  85 116 152 195 243 287 344
#
# _framework density 22.319203999999999
#
# number of rings (size 3 to 8) (size 9 to 14) (size 15 to 20)
#    0.000    2.000    0.000    4.800    0.000    3.200 
#    0.000    4.000    0.000    0.000    0.000    0.000 
#    0.000    0.000    0.000    0.000    0.000    0.000 
#
# Total GULP energy -247924.649615 kJ/mol
# GULP energy per Si atom -12396.232481 kJ/mol
# Density = 2.226840 g / cm^3
# Si number density = 22.319204 Si / 1000 Ang^3
#
#
#
# Elastic Constant Matrix: (Units=GPa)
#
#
# Indices 1 2 3 4 5 6 
#
# 1 93.0412 35.5812 15.9351 0.0000 31.1160 0.0000
# 2 35.5812 73.4982 22.9989 0.0000 7.7309 0.0000
# 3 15.9351 22.9989 83.1898 0.0000 26.5041 0.0000
# 4 0.0000 0.0000 0.0000 29.5843 0.0000 -3.8362
# 5 31.1160 7.7309 26.5041 0.0000 33.9289 0.0000
# 6 0.0000 0.0000 0.0000 -3.8362 0.0000 24.6739
#
#
#
# Elastic Compliance Matrix: (Units=1/GPa)
#
#
# Indices 1 2 3 4 5 6 
#
# 1 0.020290 -0.009298 0.005242 0.000000 -0.020584 0.000000
# 2 -0.009298 0.019156 -0.006445 0.000000 0.009197 0.000000
# 3 0.005242 -0.006445 0.018455 0.000000 -0.017755 0.000000
# 4 0.000000 0.000000 0.000000 0.034497 0.000000 0.005363
# 5 -0.020584 0.009197 -0.017755 0.000000 0.060125 0.000000
# 6 0.000000 0.000000 0.000000 0.005363 0.000000 0.041362
#
#
# Mechanical properties :
#
#
# Convention : Reuss Voigt Hill
#
# Bulk Modulus (GPa) = 27.10043 44.30662 35.70352
# Shear Modulus (GPa) = 22.00821 29.31834 25.66327
#
# Velocity S-wave (km/s) = 3.14358 3.62828 3.39459
# Velocity P-wave (km/s) = 5.03435 6.11940 5.60320
#
# Compressibility (1/GPa) = 0.03689978
#
# Stress axis : x y z
#
# Youngs Moduli (GPa) = 49.28597 52.20213 54.18497
#
# Poissons Ratio (x) = 0.48536 -0.28403
# Poissons Ratio (y) = 0.45824 0.34923
# Poissons Ratio (z) = -0.25835 0.33645
#
# Static dielectric constant tensor:
#      x y z
#    x 4.017100 0.000000 0.299640 
#    y 0.000000 3.799700 0.000000 
#    z 0.299640 0.000000 3.967130 
# 
# 
# High freq. dielectric constant tensor:
#      x y z
#    x 1.868490 0.000000 0.020680 
#    y 0.000000 1.860040 0.000000 
#    z 0.020680 0.000000 1.880250 
# 
# From -- ./inp_files/29333.got.cif
#   From: 2010.06.25/outbox.cif.g09.slc.cpg/sg15_15_cif.got.tgz:29333.got - 2010.06.28 07:06:18.
