data_PCOD8152305
_publ_section_title
;
Structure prediction by ZEFSAII (Michael W. Deem and Ramdas Pophale) SiO2 
 PCOD8152305
Probable space group: C 2/C
;
_chemical_formula_sum "Si O2"
_cell_formula_units_Z 56
_cell_length_a 29.530712
_cell_length_b 11.809326
_cell_length_c 23.401437
_cell_angle_alpha 90.000000
_cell_angle_beta 160.210538
_cell_angle_gamma 90.000000
_cell_volume 2763.016276
_symmetry_space_group_name_H-M "C 2/C"
_symmetry_group_IT_number 15
_symmetry_cell_setting 'monoclinic'
loop_
_space_group_symop_operation_xyz
x,y,z
-x,y,1/2-z
-x,-y,-z
x,-y,1/2+z
1/2+x,1/2+y,z
1/2-x,1/2+y,1/2-z
1/2-x,1/2-y,-z
1/2+x,1/2-y,1/2+z
loop_
_atom_site_type_symbol
_atom_site_label
_atom_site_fract_x
_atom_site_fract_y
_atom_site_fract_z
Si Si1 0.983831 0.646647 0.060130
Si Si2 0.898045 0.081659 0.286338
Si Si3 0.307501 0.053969 0.370104
Si Si4 0.603662 0.394007 0.529711
Si Si5 0.637880 0.344748 0.882375
Si Si6 0.726478 0.994962 0.363952
Si Si7 0.963522 0.679328 0.907256
O O1 0.105804 0.581827 0.236735
O O2 0.846855 0.575066 0.902519
O O3 0.955967 0.769446 0.053167
O O4 0.024237 0.653739 0.041491
O O5 0.748614 0.059003 0.132066
O O6 0.906529 0.099522 0.229310
O O7 0.951751 0.188202 0.385325
O O8 0.983848 0.974419 0.406664
O O9 0.206690 0.107024 0.204211
O O10 0.438183 0.132419 0.524745
O O11 0.665292 0.436702 0.543750
O O12 0.500000 0.299769 0.750000
O O13 0.750000 0.250000 0.000000
O O14 0.705547 0.445509 0.998573
O O15 0.676446 0.887105 0.267237
#
# Coordination Sequence:
#
# PCOD8152305 Si02
#       7
#     8   8   8   8   8   8   8
#     4  11  24  41  66  99 138 186 216 277 347 416
#     4  12  27  39  66 102 130 171 229 278 342 409
#     4  11  24  39  64 100 138 172 222 279 346 410
#     4  12  24  39  67  96 137 173 221 279 339 414
#     4  12  27  47  74  99 135 179 232 288 343 407
#     4  11  23  46  67  96 132 179 230 274 343 410
#     4  11  22  40  67 101 137 173 216 285 348 407
#
# _framework density 20.267706
#
# number of rings (size 3 to 8) (size 9 to 14) (size 15 to 20)
#    0.000    0.571    7.143    1.286    8.000    0.000 
#    0.000    0.714    3.143    0.000    0.000    0.000 
#    0.000    0.000    0.000    0.000    0.000    0.000 
#
# Total GULP energy -347186.177295 kJ/mol
# GULP energy per Si atom -12399.506332 kJ/mol
# Density = 2.022158 g / cm^3
# Si number density = 20.267706 Si / 1000 Ang^3
#
#
#
# Elastic Constant Matrix: (Units=GPa)
#
#
# Indices 1 2 3 4 5 6 
#
# 1 119.0159 33.5090 33.7869 0.0004 23.0819 0.0005
# 2 33.5090 149.6623 44.4271 0.0001 17.4550 0.0002
# 3 33.7869 44.4271 74.2177 0.0005 17.0257 0.0009
# 4 0.0004 0.0001 0.0005 31.7067 0.0001 5.3350
# 5 23.0819 17.4550 17.0257 0.0001 33.5018 0.0002
# 6 0.0005 0.0002 0.0009 5.3350 0.0002 32.3065
#
#
#
# Elastic Compliance Matrix: (Units=1/GPa)
#
#
# Indices 1 2 3 4 5 6 
#
# 1 0.010532 -0.000827 -0.003095 0.000000 -0.005253 0.000000
# 2 -0.000827 0.008310 -0.004228 0.000000 -0.001611 0.000000
# 3 -0.003095 -0.004228 0.018586 0.000000 -0.005110 0.000000
# 4 0.000000 0.000000 0.000000 0.032440 0.000000 -0.005357
# 5 -0.005253 -0.001611 -0.005110 0.000000 0.036905 0.000000
# 6 0.000000 0.000000 0.000000 -0.005357 0.000000 0.031838
#
#
# Mechanical properties :
#
#
# Convention : Reuss Voigt Hill
#
# Bulk Modulus (GPa) = 47.32941 62.92688 55.12815
# Shear Modulus (GPa) = 30.87284 34.91452 32.89368
#
# Velocity S-wave (km/s) = 3.90712 4.15501 4.03297
# Velocity P-wave (km/s) = 6.61490 7.35758 6.99611
#
# Compressibility (1/GPa) = 0.02112851
#
# Stress axis : x y z
#
# Youngs Moduli (GPa) = 94.94562 120.33815 53.80344
#
# Poissons Ratio (x) = 0.09950 0.16651
# Poissons Ratio (y) = 0.07850 0.22750
# Poissons Ratio (z) = 0.29383 0.50883
#
# Static dielectric constant tensor:
#      x y z
#    x 3.744700 0.000000 0.262340 
#    y 0.000000 3.753030 0.000000 
#    z 0.262340 0.000000 3.725480 
# 
# 
# High freq. dielectric constant tensor:
#      x y z
#    x 1.787630 0.000000 0.023490 
#    y 0.000000 1.797490 0.000000 
#    z 0.023490 0.000000 1.785400 
# 
# From -- ./inp_files/280028.got.cif
#   From: 2010.06.25/outbox.cif.g09.slc.cpg/sg15_141_cif.got.tgz:280028.got - 2010.06.28 07:06:18.
