data_PCOD8152505
_publ_section_title
;
Structure prediction by ZEFSAII (Michael W. Deem and Ramdas Pophale) SiO2 
 PCOD8152505
Probable space group: C 2/C
;
_chemical_formula_sum "Si O2"
_cell_formula_units_Z 56
_cell_length_a 27.477522
_cell_length_b 8.621266
_cell_length_c 13.769719
_cell_angle_alpha 90.000000
_cell_angle_beta 56.864657
_cell_angle_gamma 90.000000
_cell_volume 2731.474492
_symmetry_space_group_name_H-M "C 2/C"
_symmetry_group_IT_number 15
_symmetry_cell_setting 'monoclinic'
loop_
_space_group_symop_operation_xyz
x,y,z
-x,y,1/2-z
-x,-y,-z
x,-y,1/2+z
1/2+x,1/2+y,z
1/2-x,1/2+y,1/2-z
1/2-x,1/2-y,-z
1/2+x,1/2-y,1/2+z
loop_
_atom_site_type_symbol
_atom_site_label
_atom_site_fract_x
_atom_site_fract_y
_atom_site_fract_z
Si Si1 0.854161 0.170948 0.305180
Si Si2 0.934970 0.964309 0.101286
Si Si3 0.869732 0.004840 0.480267
Si Si4 0.935271 0.247557 0.786376
Si Si5 0.841930 0.496432 0.873339
Si Si6 0.735225 0.983236 0.868637
Si Si7 0.250971 0.155164 0.344792
O O1 0.907203 0.118042 0.179227
O O2 0.868365 0.140344 0.402298
O O3 0.847515 0.355238 0.296259
O O4 0.796852 0.076586 0.339906
O O5 0.932027 0.824818 0.181974
O O6 0.898991 0.921434 0.043950
O O7 0.000000 0.000000 0.000000
O O8 0.906362 0.861644 0.398435
O O9 0.805675 0.947825 0.575977
O O10 0.903535 0.413459 0.819698
O O11 0.000000 0.280617 0.750000
O O12 0.796386 0.370364 0.882024
O O13 0.816436 0.560264 0.002141
O O14 0.718706 0.898754 0.787317
O O15 0.735912 0.166349 0.852902
#
# Coordination Sequence:
#
# PCOD8152505 Si02
#       7
#     8   8   8   8   8   8   8
#     4  11  25  41  66  98 131 176 219 271 334 397
#     4  11  23  44  71  94 126 172 229 274 321 396
#     4  11  22  42  69  94 130 171 220 274 328 392
#     4  11  24  46  69  95 130 181 220 274 337 389
#     4  12  26  43  63  98 141 170 218 277 334 395
#     4  12  24  41  66  99 137 173 217 265 335 397
#     4  12  24  39  68  99 132 177 217 271 333 398
#
# _framework density 20.501747999999999
#
# number of rings (size 3 to 8) (size 9 to 14) (size 15 to 20)
#    0.000    0.571    5.714    3.429    2.000    0.000 
#    2.571    0.714    0.000    0.000    0.000    0.000 
#    0.000    0.000    0.000    0.000    0.000    0.000 
#
# Total GULP energy -347356.498798 kJ/mol
# GULP energy per Si atom -12405.589243 kJ/mol
# Density = 2.045509 g / cm^3
# Si number density = 20.501748 Si / 1000 Ang^3
#
#
#
# Elastic Constant Matrix: (Units=GPa)
#
#
# Indices 1 2 3 4 5 6 
#
# 1 104.6539 5.0104 32.5940 0.0000 0.9727 0.0000
# 2 5.0104 54.3294 16.3189 0.0000 -6.9105 0.0000
# 3 32.5940 16.3189 120.2361 0.0000 -2.9877 0.0000
# 4 0.0000 0.0000 0.0000 20.7673 0.0000 0.4301
# 5 0.9727 -6.9105 -2.9877 0.0000 41.3166 0.0000
# 6 0.0000 0.0000 0.0000 0.4301 0.0000 21.9373
#
#
#
# Elastic Compliance Matrix: (Units=1/GPa)
#
#
# Indices 1 2 3 4 5 6 
#
# 1 0.010446 -0.000177 -0.002820 0.000000 -0.000480 0.000000
# 2 -0.000177 0.019577 -0.002532 0.000000 0.003095 0.000000
# 3 -0.002820 -0.002532 0.009433 0.000000 0.000325 0.000000
# 4 0.000000 0.000000 0.000000 0.048172 0.000000 -0.000945
# 5 -0.000480 0.003095 0.000325 0.000000 0.024756 0.000000
# 6 0.000000 0.000000 0.000000 -0.000945 0.000000 0.045603
#
#
# Mechanical properties :
#
#
# Convention : Reuss Voigt Hill
#
# Bulk Modulus (GPa) = 35.21366 43.00732 39.11049
# Shear Modulus (GPa) = 28.00936 31.82398 29.91667
#
# Velocity S-wave (km/s) = 3.70022 3.94414 3.82412
# Velocity P-wave (km/s) = 5.95556 6.46256 6.21423
#
# Compressibility (1/GPa) = 0.02839807
#
# Stress axis : x y z
#
# Youngs Moduli (GPa) = 95.72643 51.08069 106.01000
#
# Poissons Ratio (x) = 0.00906 0.29891
# Poissons Ratio (y) = 0.01699 0.26842
# Poissons Ratio (z) = 0.26992 0.12934
#
# Static dielectric constant tensor:
#      x y z
#    x 3.921120 0.000000 0.093600 
#    y 0.000000 3.532200 0.000000 
#    z 0.093600 0.000000 4.084870 
# 
# 
# High freq. dielectric constant tensor:
#      x y z
#    x 1.802450 0.000000 0.008280 
#    y 0.000000 1.793910 0.000000 
#    z 0.008280 0.000000 1.818510 
# 
# From -- ./inp_files/172286.got.cif
#   From: 2010.06.25/outbox.cif.g09.slc.cpg/sg15_87_cif.got.tgz:172286.got - 2010.06.28 07:06:18.
