data_PCOD8152315
_publ_section_title
;
Structure prediction by ZEFSAII (Michael W. Deem and Ramdas Pophale) SiO2 
 PCOD8152315
Probable space group: C 2/C
;
_chemical_formula_sum "Si O2"
_cell_formula_units_Z 40
_cell_length_a 16.940565
_cell_length_b 17.134817
_cell_length_c 11.659192
_cell_angle_alpha 90.000000
_cell_angle_beta 146.405115
_cell_angle_gamma 90.000000
_cell_volume 1872.621380
_symmetry_space_group_name_H-M "C 2/C"
_symmetry_group_IT_number 15
_symmetry_cell_setting 'monoclinic'
loop_
_space_group_symop_operation_xyz
x,y,z
-x,y,1/2-z
-x,-y,-z
x,-y,1/2+z
1/2+x,1/2+y,z
1/2-x,1/2+y,1/2-z
1/2-x,1/2-y,-z
1/2+x,1/2-y,1/2+z
loop_
_atom_site_type_symbol
_atom_site_label
_atom_site_fract_x
_atom_site_fract_y
_atom_site_fract_z
Si Si1 0.342524 0.928380 0.024163
Si Si2 0.368878 0.445443 0.312435
Si Si3 0.653297 0.358811 0.985990
Si Si4 0.519314 0.289363 0.142727
Si Si5 0.701119 0.790465 0.681087
O O1 0.500000 0.953973 0.250000
O O2 0.273563 0.873672 0.037709
O O3 0.344607 0.877732 0.909940
O O4 0.254958 0.007665 0.901504
O O5 0.500000 0.500000 0.500000
O O6 0.308409 0.410589 0.357137
O O7 0.417854 0.376683 0.286461
O O8 0.650955 0.268686 0.020851
O O9 0.500000 0.382607 0.750000
O O10 0.500000 0.262975 0.250000
O O11 0.627292 0.228820 0.213161
O O12 0.371128 0.286009 0.895960
#
# Coordination Sequence:
#
# PCOD8152315 Si02
#       5
#     8   8   8   8   8
#     4  12  24  40  67  98 135 173 216 280 333 376
#     4  11  23  42  64  99 128 176 225 261 318 408
#     4  11  22  40  67  95 131 176 221 266 334 391
#     4  11  24  42  69  94 133 178 217 271 330 393
#     4  11  22  42  64 101 132 165 229 269 324 402
#
# _framework density 21.360430999999998
#
# number of rings (size 3 to 8) (size 9 to 14) (size 15 to 20)
#    0.000    0.800    4.000    4.200    2.800    0.800 
#    0.000    8.000    0.000    0.000    0.000    0.000 
#    0.000    0.000    0.000    0.000    0.000    0.000 
#
# Total GULP energy -248150.981514 kJ/mol
# GULP energy per Si atom -12407.549076 kJ/mol
# Density = 2.131181 g / cm^3
# Si number density = 21.360431 Si / 1000 Ang^3
#
#
#
# Elastic Constant Matrix: (Units=GPa)
#
#
# Indices 1 2 3 4 5 6 
#
# 1 125.5237 47.5202 31.5213 0.0000 -0.3733 0.0000
# 2 47.5202 78.5437 25.6373 0.0000 6.5829 0.0000
# 3 31.5213 25.6373 111.6620 0.0000 22.5129 0.0000
# 4 0.0000 0.0000 0.0000 30.7215 0.0000 9.8672
# 5 -0.3733 6.5829 22.5129 0.0000 37.9713 0.0000
# 6 0.0000 0.0000 0.0000 9.8672 0.0000 22.9334
#
#
#
# Elastic Compliance Matrix: (Units=1/GPa)
#
#
# Indices 1 2 3 4 5 6 
#
# 1 0.010799 -0.006034 -0.002153 0.000000 0.002429 0.000000
# 2 -0.006034 0.017147 -0.001842 0.000000 -0.001940 0.000000
# 3 -0.002153 -0.001842 0.011274 0.000000 -0.006386 0.000000
# 4 0.000000 0.000000 0.000000 0.037770 0.000000 -0.016251
# 5 0.002429 -0.001940 -0.006386 0.000000 0.030482 0.000000
# 6 0.000000 0.000000 0.000000 -0.016251 0.000000 0.050597
#
#
# Mechanical properties :
#
#
# Convention : Reuss Voigt Hill
#
# Bulk Modulus (GPa) = 52.19034 58.34300 55.26667
# Shear Modulus (GPa) = 27.09837 32.39529 29.74683
#
# Velocity S-wave (km/s) = 3.56564 3.89858 3.73582
# Velocity P-wave (km/s) = 6.43723 6.90204 6.67368
#
# Compressibility (1/GPa) = 0.01916063
#
# Stress axis : x y z
#
# Youngs Moduli (GPa) = 92.60218 58.32071 88.70179
#
# Poissons Ratio (x) = 0.35193 0.19094
# Poissons Ratio (y) = 0.55880 0.16341
# Poissons Ratio (z) = 0.19933 0.10744
#
# Static dielectric constant tensor:
#      x y z
#    x 3.965700 0.000000 0.050540 
#    y 0.000000 3.958330 0.000000 
#    z 0.050540 0.000000 3.981780 
# 
# 
# High freq. dielectric constant tensor:
#      x y z
#    x 1.844820 0.000000 0.002480 
#    y 0.000000 1.835750 0.000000 
#    z 0.002480 0.000000 1.841040 
# 
# From -- ./inp_files/39422.got.cif
#   From: 2010.06.25/outbox.cif.g09.slc.cpg/sg15_20_cif.got.tgz:39422.got - 2010.06.28 07:06:18.
