data_PCOD8152322
_publ_section_title
;
Structure prediction by ZEFSAII (Michael W. Deem and Ramdas Pophale) SiO2 
 PCOD8152322
Probable space group: C 2/C
;
_chemical_formula_sum "Si O2"
_cell_formula_units_Z 56
_cell_length_a 16.088110
_cell_length_b 18.136398
_cell_length_c 11.952544
_cell_angle_alpha 90.000000
_cell_angle_beta 131.442749
_cell_angle_gamma 90.000000
_cell_volume 2614.304094
_symmetry_space_group_name_H-M "C 2/C"
_symmetry_group_IT_number 15
_symmetry_cell_setting 'monoclinic'
loop_
_space_group_symop_operation_xyz
x,y,z
-x,y,1/2-z
-x,-y,-z
x,-y,1/2+z
1/2+x,1/2+y,z
1/2-x,1/2+y,1/2-z
1/2-x,1/2-y,-z
1/2+x,1/2-y,1/2+z
loop_
_atom_site_type_symbol
_atom_site_label
_atom_site_fract_x
_atom_site_fract_y
_atom_site_fract_z
Si Si1 0.592403 0.977273 0.670908
Si Si2 0.182156 0.279475 0.042443
Si Si3 0.801881 0.957092 0.712933
Si Si4 0.000000 0.360208 0.750000
Si Si5 0.311140 0.100461 0.605836
Si Si6 0.000000 0.715843 0.750000
Si Si7 0.162091 0.882620 0.182197
Si Si8 0.057094 0.820101 0.595153
O O1 0.601183 0.049998 0.752558
O O2 0.500000 0.000000 0.500000
O O3 0.706389 0.951916 0.718816
O O4 0.571190 0.909178 0.731167
O O5 0.250577 0.344540 0.159180
O O6 0.154007 0.217026 0.108373
O O7 0.250000 0.250000 0.000000
O O8 0.068285 0.310030 0.894406
O O9 0.744920 0.946475 0.542367
O O10 0.894800 0.894733 0.809172
O O11 0.859028 0.036640 0.782704
O O12 0.385616 0.169477 0.630006
O O13 0.211223 0.121195 0.600418
O O14 0.984352 0.765505 0.845311
O O15 0.045544 0.840158 0.076778
#
# Coordination Sequence:
#
# PCOD8152322 Si02
#       8
#     8   8   8   4   8   4   8   8
#     4  11  22  40  68 102 134 178 232 293 356 421
#     4  12  26  46  67 100 137 186 232 299 354 426
#     4  11  25  43  70  98 142 188 235 294 353 431
#     4  12  23  40  64  95 132 174 230 286 354 417
#     4  11  23  42  69 106 140 183 232 300 356 431
#     4  12  25  42  72 107 148 182 240 298 376 427
#     4  11  25  48  70 102 143 187 245 287 364 437
#     4  12  27  44  70 104 139 193 234 297 361 437
#
# _framework density 21.420614
#
# number of rings (size 3 to 8) (size 9 to 14) (size 15 to 20)
#    0.000    0.571    1.429    7.714    4.000    2.286 
#    0.000    2.857    0.000    0.000    0.000    0.000 
#    0.000    0.000    0.000    0.000    0.000    0.000 
#
# Total GULP energy -347237.820351 kJ/mol
# GULP energy per Si atom -12401.350727 kJ/mol
# Density = 2.137186 g / cm^3
# Si number density = 21.420614 Si / 1000 Ang^3
#
#
#
# Elastic Constant Matrix: (Units=GPa)
#
#
# Indices 1 2 3 4 5 6 
#
# 1 87.8546 54.4943 26.5698 0.0000 -15.8355 0.0000
# 2 54.4943 112.6930 40.9597 0.0000 -8.1487 0.0000
# 3 26.5698 40.9597 119.5861 0.0000 -2.3743 0.0000
# 4 0.0000 0.0000 0.0000 55.6177 0.0000 7.6005
# 5 -15.8355 -8.1487 -2.3743 0.0000 38.8205 0.0000
# 6 0.0000 0.0000 0.0000 7.6005 0.0000 48.2601
#
#
#
# Elastic Compliance Matrix: (Units=1/GPa)
#
#
# Indices 1 2 3 4 5 6 
#
# 1 0.017439 -0.007619 -0.001157 0.000000 0.005444 0.000000
# 2 -0.007619 0.013609 -0.002977 0.000000 -0.000433 0.000000
# 3 -0.001157 -0.002977 0.009629 0.000000 -0.000508 0.000000
# 4 0.000000 0.000000 0.000000 0.018375 0.000000 -0.002894
# 5 0.005444 -0.000433 -0.000508 0.000000 0.027858 0.000000
# 6 0.000000 0.000000 0.000000 -0.002894 0.000000 0.021177
#
#
# Mechanical properties :
#
#
# Convention : Reuss Voigt Hill
#
# Bulk Modulus (GPa) = 58.23768 62.68681 60.46224
# Shear Modulus (GPa) = 36.41221 41.74699 39.07960
#
# Velocity S-wave (km/s) = 4.12742 4.41944 4.27592
# Velocity P-wave (km/s) = 7.06830 7.44112 7.25710
#
# Compressibility (1/GPa) = 0.01717101
#
# Stress axis : x y z
#
# Youngs Moduli (GPa) = 57.34131 73.48317 103.85508
#
# Poissons Ratio (x) = 0.55986 0.12017
# Poissons Ratio (y) = 0.43688 0.30917
# Poissons Ratio (z) = 0.06635 0.21875
#
# Static dielectric constant tensor:
#      x y z
#    x 3.994900 0.000000 -0.107230 
#    y 0.000000 3.906680 0.000000 
#    z -0.107230 0.000000 3.634400 
# 
# 
# High freq. dielectric constant tensor:
#      x y z
#    x 1.850470 0.000000 -0.003280 
#    y 0.000000 1.853410 0.000000 
#    z -0.003280 0.000000 1.852710 
# 
# From -- ./inp_files/106763.got.cif
#   From: 2010.06.25/outbox.cif.g09.slc.cpg/sg15_54_cif.got.tgz:106763.got - 2010.06.28 07:06:18.
