data_PCOD8152767
_publ_section_title
;
Structure prediction by ZEFSAII (Michael W. Deem and Ramdas Pophale) SiO2 
 PCOD8152767
Probable space group: C 2/C
;
_chemical_formula_sum "Si O2"
_cell_formula_units_Z 40
_cell_length_a 26.111701
_cell_length_b 13.337611
_cell_length_c 13.947372
_cell_angle_alpha 90.000000
_cell_angle_beta 22.274470
_cell_angle_gamma 90.000000
_cell_volume 1841.174988
_symmetry_space_group_name_H-M "C 2/C"
_symmetry_group_IT_number 15
_symmetry_cell_setting 'monoclinic'
loop_
_space_group_symop_operation_xyz
x,y,z
-x,y,1/2-z
-x,-y,-z
x,-y,1/2+z
1/2+x,1/2+y,z
1/2-x,1/2+y,1/2-z
1/2-x,1/2-y,-z
1/2+x,1/2-y,1/2+z
loop_
_atom_site_type_symbol
_atom_site_label
_atom_site_fract_x
_atom_site_fract_y
_atom_site_fract_z
Si Si1 0.565238 0.891939 0.880548
Si Si2 0.799951 0.713360 0.812767
Si Si3 0.350883 0.558249 0.531811
Si Si4 0.277864 0.662971 0.162673
Si Si5 0.644242 0.864825 0.542100
O O1 0.635182 0.862507 0.859291
O O2 0.666160 0.895361 0.614566
O O3 0.460199 0.802897 0.037601
O O4 0.500000 0.000000 0.000000
O O5 0.738839 0.602581 0.899050
O O6 0.755188 0.793780 0.809372
O O7 0.750000 0.750000 0.000000
O O8 0.362673 0.438866 0.515930
O O9 0.277939 0.595272 0.755906
O O10 0.500000 0.601333 0.250000
O O11 0.359275 0.744310 0.959822
O O12 0.500000 0.906799 0.750000
#
# Coordination Sequence:
#
# PCOD8152767 Si02
#       5
#     8   8   8   8   8
#     4  12  24  47  74 106 141 194 248 298 366 441
#     4  11  27  46  70 108 147 189 244 303 363 437
#     4  11  25  45  70 105 146 183 238 295 364 430
#     4  11  24  45  72 102 144 189 239 303 360 434
#     4  11  22  46  71 101 143 188 238 295 356 438
#
# _framework density 21.725256000000002
#
# number of rings (size 3 to 8) (size 9 to 14) (size 15 to 20)
#    0.000    0.800    6.000    1.200    8.400    0.000 
#    0.000    2.000    0.000    0.000    0.000    0.000 
#    0.000    0.000    0.000    0.000    0.000    0.000 
#
# Total GULP energy -247873.094449 kJ/mol
# GULP energy per Si atom -12393.654722 kJ/mol
# Density = 2.167581 g / cm^3
# Si number density = 21.725256 Si / 1000 Ang^3
#
#
#
# Elastic Constant Matrix: (Units=GPa)
#
#
# Indices 1 2 3 4 5 6 
#
# 1 158.6993 43.2043 58.2553 -0.0001 19.7962 0.0001
# 2 43.2043 112.2342 31.6753 -0.0001 21.5245 0.0001
# 3 58.2553 31.6753 142.6401 -0.0001 14.5935 0.0001
# 4 -0.0001 -0.0001 -0.0001 33.9622 0.0001 -3.7891
# 5 19.7962 21.5245 14.5935 0.0001 48.3262 -0.0001
# 6 0.0001 0.0001 0.0001 -3.7891 -0.0001 28.2279
#
#
#
# Elastic Compliance Matrix: (Units=1/GPa)
#
#
# Indices 1 2 3 4 5 6 
#
# 1 0.008031 -0.002037 -0.002666 0.000000 -0.001578 0.000000
# 2 -0.002037 0.010714 -0.001181 0.000000 -0.003581 0.000000
# 3 -0.002666 -0.001181 0.008458 0.000000 -0.000936 0.000000
# 4 0.000000 0.000000 0.000000 0.029892 0.000000 0.004013
# 5 -0.001578 -0.003581 -0.000936 0.000000 0.023217 0.000000
# 6 0.000000 0.000000 0.000000 0.004013 0.000000 0.035965
#
#
# Mechanical properties :
#
#
# Convention : Reuss Voigt Hill
#
# Bulk Modulus (GPa) = 64.78814 75.53815 70.16314
# Shear Modulus (GPa) = 37.54062 40.79917 39.16990
#
# Velocity S-wave (km/s) = 4.16140 4.33825 4.25074
# Velocity P-wave (km/s) = 7.27846 7.74203 7.51382
#
# Compressibility (1/GPa) = 0.01543492
#
# Stress axis : x y z
#
# Youngs Moduli (GPa) = 124.51427 93.33560 118.23651
#
# Poissons Ratio (x) = 0.19008 0.31526
# Poissons Ratio (y) = 0.25358 0.13965
# Poissons Ratio (z) = 0.33200 0.11024
#
# Static dielectric constant tensor:
#      x y z
#    x 3.990350 0.000000 -0.020110 
#    y 0.000000 3.998940 0.000000 
#    z -0.020110 0.000000 3.913290 
# 
# 
# High freq. dielectric constant tensor:
#      x y z
#    x 1.852830 0.000000 0.004280 
#    y 0.000000 1.857890 0.000000 
#    z 0.004280 0.000000 1.851630 
# 
# From -- ./inp_files/178277.got.cif
#   From: 2010.06.25/outbox.cif.g09.slc.cpg/sg15_90_cif.got.tgz:178277.got - 2010.06.28 07:06:18.
