data_PCOD8152114
_publ_section_title
;
Structure prediction by ZEFSAII (Michael W. Deem and Ramdas Pophale) SiO2 
 PCOD8152114
Probable space group: C 2/C
;
_chemical_formula_sum "Si O2"
_cell_formula_units_Z 48
_cell_length_a 16.069225
_cell_length_b 20.010072
_cell_length_c 12.637295
_cell_angle_alpha 90.000000
_cell_angle_beta 37.234726
_cell_angle_gamma 90.000000
_cell_volume 2458.735282
_symmetry_space_group_name_H-M "C 2/C"
_symmetry_group_IT_number 15
_symmetry_cell_setting 'monoclinic'
loop_
_space_group_symop_operation_xyz
x,y,z
-x,y,1/2-z
-x,-y,-z
x,-y,1/2+z
1/2+x,1/2+y,z
1/2-x,1/2+y,1/2-z
1/2-x,1/2-y,-z
1/2+x,1/2-y,1/2+z
loop_
_atom_site_type_symbol
_atom_site_label
_atom_site_fract_x
_atom_site_fract_y
_atom_site_fract_z
Si Si1 0.754705 0.308321 0.347864
Si Si2 0.407658 0.961972 0.742809
Si Si3 0.976000 0.102196 0.486223
Si Si4 0.767781 0.840192 0.886122
Si Si5 0.503518 0.100937 0.558944
Si Si6 0.904881 0.969645 0.446516
O O1 0.634144 0.337813 0.396145
O O2 0.758375 0.228686 0.330076
O O3 0.717820 0.327308 0.504830
O O4 0.902361 0.335930 0.163453
O O5 0.500000 0.944882 0.750000
O O6 0.448400 0.910489 0.609542
O O7 0.426857 0.037276 0.684002
O O8 0.248786 0.951558 0.935108
O O9 0.099794 0.118382 0.281852
O O10 0.034297 0.090816 0.544941
O O11 0.897999 0.036291 0.524261
O O12 0.633849 0.884685 0.001123
O O13 0.000000 0.981055 0.250000
#
# Coordination Sequence:
#
# PCOD8152114 Si02
#       6
#     8   8   8   8   8   8
#     4  11  22  37  63  89 117 163 193 244 296 355
#     4  11  24  39  63  89 119 158 198 246 299 352
#     4  11  23  39  59  90 124 152 196 246 298 353
#     4  11  22  39  59  89 123 155 201 238 296 357
#     4  11  23  39  59  90 124 152 196 246 298 353
#     4  11  24  39  63  89 119 158 198 246 299 352
#
# _framework density 19.522231000000001
#
# number of rings (size 3 to 8) (size 9 to 14) (size 15 to 20)
#    0.000    1.000    3.333    4.000    4.667    2.667 
#    0.000    0.000    0.000    6.000    0.000    0.000 
#    0.000    0.000    0.000    0.000    0.000    0.000 
#
# Total GULP energy -297784.941276 kJ/mol
# GULP energy per Si atom -12407.705887 kJ/mol
# Density = 1.947780 g / cm^3
# Si number density = 19.522231 Si / 1000 Ang^3
#
#
#
# Elastic Constant Matrix: (Units=GPa)
#
#
# Indices 1 2 3 4 5 6 
#
# 1 106.7540 18.5374 14.9398 -0.0017 -18.5078 0.0005
# 2 18.5374 63.6411 1.8698 -0.0016 -1.6282 0.0000
# 3 14.9398 1.8698 55.7053 -0.0043 -14.6441 -0.0003
# 4 -0.0017 -0.0016 -0.0043 30.0832 0.0025 3.8001
# 5 -18.5078 -1.6282 -14.6441 0.0025 37.2872 -0.0001
# 6 0.0005 0.0000 -0.0003 3.8001 -0.0001 29.7303
#
#
#
# Elastic Compliance Matrix: (Units=1/GPa)
#
#
# Indices 1 2 3 4 5 6 
#
# 1 0.010923 -0.003015 -0.001603 0.000000 0.004661 0.000000
# 2 -0.003015 0.016571 0.000055 0.000001 -0.000752 0.000000
# 3 -0.001603 0.000055 0.020263 0.000002 0.007165 0.000000
# 4 0.000000 0.000001 0.000002 0.033787 -0.000001 -0.004319
# 5 0.004661 -0.000752 0.007165 -0.000001 0.031913 0.000000
# 6 0.000000 0.000000 0.000000 -0.004319 0.000000 0.034188
#
#
# Mechanical properties :
#
#
# Convention : Reuss Voigt Hill
#
# Bulk Modulus (GPa) = 25.88669 32.97715 29.43192
# Shear Modulus (GPa) = 29.47269 32.13704 30.80486
#
# Velocity S-wave (km/s) = 3.88970 4.06171 3.97664
# Velocity P-wave (km/s) = 5.78463 6.23903 6.01612
#
# Compressibility (1/GPa) = 0.03862988
#
# Stress axis : x y z
#
# Youngs Moduli (GPa) = 91.54753 60.34780 49.35049
#
# Poissons Ratio (x) = 0.18197 0.07912
# Poissons Ratio (y) = 0.27605 -0.00271
# Poissons Ratio (z) = 0.14676 -0.00332
#
# Static dielectric constant tensor:
#      x y z
#    x 3.639230 0.000000 -0.134060 
#    y 0.000000 3.595070 0.000000 
#    z -0.134060 0.000000 3.552540 
# 
# 
# High freq. dielectric constant tensor:
#      x y z
#    x 1.762270 0.000000 -0.020200 
#    y 0.000000 1.749040 0.000000 
#    z -0.020200 0.000000 1.764290 
# 
# From -- ./inp_files/50408.got.cif
#   From: 2010.06.25/outbox.cif.g09.slc.cpg/sg15_26_cif.got.tgz:50408.got - 2010.06.28 07:06:18.
