data_PCOD8152250
_publ_section_title
;
Structure prediction by ZEFSAII (Michael W. Deem and Ramdas Pophale) SiO2 
 PCOD8152250
Probable space group: C 2/C
;
_chemical_formula_sum "Si O2"
_cell_formula_units_Z 44
_cell_length_a 13.765661
_cell_length_b 18.407957
_cell_length_c 8.636230
_cell_angle_alpha 90.000000
_cell_angle_beta 59.281034
_cell_angle_gamma 90.000000
_cell_volume 1881.331442
_symmetry_space_group_name_H-M "C 2/C"
_symmetry_group_IT_number 15
_symmetry_cell_setting 'monoclinic'
loop_
_space_group_symop_operation_xyz
x,y,z
-x,y,1/2-z
-x,-y,-z
x,-y,1/2+z
1/2+x,1/2+y,z
1/2-x,1/2+y,1/2-z
1/2-x,1/2-y,-z
1/2+x,1/2-y,1/2+z
loop_
_atom_site_type_symbol
_atom_site_label
_atom_site_fract_x
_atom_site_fract_y
_atom_site_fract_z
Si Si1 0.333024 0.516095 0.230258
Si Si2 0.896436 0.341814 0.052706
Si Si3 0.000000 0.591254 0.750000
Si Si4 0.822846 0.466669 0.896293
Si Si5 0.500000 0.379922 0.750000
Si Si6 0.500000 0.724392 0.750000
Si Si7 0.647604 0.358088 0.365666
O O1 0.294469 0.481526 0.422595
O O2 0.222731 0.554405 0.238049
O O3 0.431971 0.573176 0.177492
O O4 0.370109 0.445045 0.102765
O O5 0.778766 0.334302 0.243138
O O6 0.993806 0.360184 0.099161
O O7 0.893947 0.404015 0.922323
O O8 0.930785 0.269355 0.934998
O O9 0.890189 0.541359 0.836983
O O10 0.587674 0.330648 0.575848
O O11 0.410865 0.673354 0.738527
#
# Coordination Sequence:
#
# PCOD8152250 Si02
#       7
#     8   8   4   8   4   4   8
#     4  11  22  40  68 108 140 168 222 285 349 414
#     4  11  26  45  69 103 136 184 229 282 334 413
#     4  12  21  43  68 101 141 172 230 286 354 392
#     4  11  22  39  69 106 140 170 220 288 350 409
#     4  12  23  41  72 107 135 184 216 288 362 386
#     4  12  28  48  70  92 138 194 232 276 340 400
#     4  11  25  46  67 101 137 179 230 276 336 414
#
# _framework density 23.387691
#
# number of rings (size 3 to 8) (size 9 to 14) (size 15 to 20)
#    0.000    0.727    5.455    2.727    7.636    0.727 
#    0.000    1.818    0.000    0.000    0.000    0.000 
#    0.000    0.000    0.000    0.000    0.000    0.000 
#
# Total GULP energy -272676.739748 kJ/mol
# GULP energy per Si atom -12394.397261 kJ/mol
# Density = 2.333446 g / cm^3
# Si number density = 23.387691 Si / 1000 Ang^3
#
#
#
# Elastic Constant Matrix: (Units=GPa)
#
#
# Indices 1 2 3 4 5 6 
#
# 1 156.5441 35.8934 30.5685 0.0000 28.0241 0.0000
# 2 35.8934 49.9208 14.9266 0.0000 17.2835 0.0000
# 3 30.5685 14.9266 81.7047 0.0000 -5.2706 0.0000
# 4 0.0000 0.0000 0.0000 15.3605 0.0000 6.0306
# 5 28.0241 17.2835 -5.2706 0.0000 43.0806 0.0000
# 6 0.0000 0.0000 0.0000 6.0306 0.0000 15.3509
#
#
#
# Elastic Compliance Matrix: (Units=1/GPa)
#
#
# Indices 1 2 3 4 5 6 
#
# 1 0.008600 -0.003820 -0.002804 0.000000 -0.004405 0.000000
# 2 -0.003820 0.027075 -0.004090 0.000000 -0.008878 0.000000
# 3 -0.002804 -0.004090 0.014372 0.000000 0.005223 0.000000
# 4 0.000000 0.000000 0.000000 0.076974 0.000000 -0.030240
# 5 -0.004405 -0.008878 0.005223 0.000000 0.030278 0.000000
# 6 0.000000 0.000000 0.000000 -0.030240 0.000000 0.077023
#
#
# Mechanical properties :
#
#
# Convention : Reuss Voigt Hill
#
# Bulk Modulus (GPa) = 34.94080 50.10517 42.52298
# Shear Modulus (GPa) = 18.84738 28.54381 23.69559
#
# Velocity S-wave (km/s) = 2.84186 3.49730 3.18648
# Velocity P-wave (km/s) = 5.07351 6.14641 5.63555
#
# Compressibility (1/GPa) = 0.02861984
#
# Stress axis : x y z
#
# Youngs Moduli (GPa) = 116.28095 36.93474 69.57851
#
# Poissons Ratio (x) = 0.14109 0.19508
# Poissons Ratio (y) = 0.44420 0.28456
# Poissons Ratio (z) = 0.32602 0.15105
#
# Static dielectric constant tensor:
#      x y z
#    x 4.483590 0.000000 0.299130 
#    y 0.000000 3.907770 0.000000 
#    z 0.299130 0.000000 4.665850 
# 
# 
# High freq. dielectric constant tensor:
#      x y z
#    x 1.936710 0.000000 0.003410 
#    y 0.000000 1.884590 0.000000 
#    z 0.003410 0.000000 1.945030 
# 
# From -- ./inp_files/30782.got.cif
#   From: 2010.06.25/outbox.cif.g09.slc.cpg/sg15_16_cif.got.tgz:30782.got - 2010.06.28 07:06:18.
