data_PCOD8152774
_publ_section_title
;
Structure prediction by ZEFSAII (Michael W. Deem and Ramdas Pophale) SiO2 
 PCOD8152774
Probable space group: C 2/C
;
_chemical_formula_sum "Si O2"
_cell_formula_units_Z 40
_cell_length_a 15.457892
_cell_length_b 9.663966
_cell_length_c 24.872509
_cell_angle_alpha 90.000000
_cell_angle_beta 27.596622
_cell_angle_gamma 90.000000
_cell_volume 1721.213966
_symmetry_space_group_name_H-M "C 2/C"
_symmetry_group_IT_number 15
_symmetry_cell_setting 'monoclinic'
loop_
_space_group_symop_operation_xyz
x,y,z
-x,y,1/2-z
-x,-y,-z
x,-y,1/2+z
1/2+x,1/2+y,z
1/2-x,1/2+y,1/2-z
1/2-x,1/2-y,-z
1/2+x,1/2-y,1/2+z
loop_
_atom_site_type_symbol
_atom_site_label
_atom_site_fract_x
_atom_site_fract_y
_atom_site_fract_z
Si Si1 0.139375 0.826691 0.712677
Si Si2 0.586289 0.433540 0.030496
Si Si3 0.731251 0.944136 0.281065
Si Si4 0.516367 0.289236 0.965255
Si Si5 0.524641 0.047305 0.674362
O O1 0.297406 0.742455 0.593497
O O2 0.998175 0.714113 0.817164
O O3 0.000000 0.913186 0.750000
O O4 0.242791 0.920465 0.697799
O O5 0.433795 0.374416 0.156986
O O6 0.474356 0.568151 0.071693
O O7 0.618011 0.317947 0.966770
O O8 0.777030 0.483401 0.953907
O O9 0.612300 0.834494 0.380348
O O10 0.628373 0.003877 0.284346
O O11 0.500000 0.997029 0.750000
#
# Coordination Sequence:
#
# PCOD8152774 Si02
#       5
#     8   8   8   8   8
#     4  11  23  46  73 104 142 193 239 304 359 423
#     4  11  23  44  77 102 147 194 239 297 359 439
#     4  12  26  41  75 111 144 186 244 299 361 426
#     4  11  23  46  70 108 147 184 241 309 354 428
#     4  11  22  46  73 105 138 197 242 289 361 437
#
# _framework density 23.239412000000002
#
# number of rings (size 3 to 8) (size 9 to 14) (size 15 to 20)
#    0.000    0.800    6.000    3.000    2.800    1.600 
#    0.000    6.000    0.000    0.000    0.000    0.000 
#    0.000    0.000    0.000    0.000    0.000    0.000 
#
# Total GULP energy -247793.992922 kJ/mol
# GULP energy per Si atom -12389.699646 kJ/mol
# Density = 2.318652 g / cm^3
# Si number density = 23.239412 Si / 1000 Ang^3
#
#
#
# Elastic Constant Matrix: (Units=GPa)
#
#
# Indices 1 2 3 4 5 6 
#
# 1 139.8034 63.1747 54.5091 0.0003 -17.0843 -0.0013
# 2 63.1747 55.3328 34.7228 -0.0017 -7.7151 0.0002
# 3 54.5091 34.7228 110.4954 -0.0074 -24.7878 -0.0034
# 4 0.0003 -0.0017 -0.0074 31.1973 0.0003 -5.8299
# 5 -17.0843 -7.7151 -24.7878 0.0003 32.8663 0.0012
# 6 -0.0013 0.0002 -0.0034 -5.8299 0.0012 21.6265
#
#
#
# Elastic Compliance Matrix: (Units=1/GPa)
#
#
# Indices 1 2 3 4 5 6 
#
# 1 0.015554 -0.016127 -0.001975 -0.000001 0.002810 0.000000
# 2 -0.016127 0.039234 -0.005041 0.000001 -0.002975 -0.000002
# 3 -0.001975 -0.005041 0.013376 0.000003 0.007878 0.000002
# 4 -0.000001 0.000001 0.000003 0.033754 0.000001 0.009099
# 5 0.002810 -0.002975 0.007878 0.000001 0.037130 0.000000
# 6 0.000000 -0.000002 0.000002 0.009099 0.000000 0.048693
#
#
# Mechanical properties :
#
#
# Convention : Reuss Voigt Hill
#
# Bulk Modulus (GPa) = 45.70772 67.82719 56.76746
# Shear Modulus (GPa) = 20.71955 27.35301 24.03628
#
# Velocity S-wave (km/s) = 2.98916 3.43448 3.21953
# Velocity P-wave (km/s) = 5.62355 6.70650 6.18876
#
# Compressibility (1/GPa) = 0.02187814
#
# Stress axis : x y z
#
# Youngs Moduli (GPa) = 64.29301 25.48838 74.76294
#
# Poissons Ratio (x) = 0.41106 0.14763
# Poissons Ratio (y) = 1.03686 0.37685
# Poissons Ratio (z) = 0.12696 0.12848
#
# Static dielectric constant tensor:
#      x y z
#    x 4.471850 0.000000 0.011000 
#    y 0.000000 3.813800 0.000010 
#    z 0.011000 0.000010 4.309230 
# 
# 
# High freq. dielectric constant tensor:
#      x y z
#    x 1.920820 0.000000 -0.010080 
#    y 0.000000 1.888750 0.000000 
#    z -0.010080 0.000000 1.929600 
# 
# From -- ./inp_files/273748.got.cif
#   From: 2010.06.25/outbox.cif.g09.slc.cpg/sg15_137_cif.got.tgz:273748.got - 2010.06.28 07:06:18.
