data_PCOD8152935
_publ_section_title
;
Structure prediction by ZEFSAII (Michael W. Deem and Ramdas Pophale) SiO2 
 PCOD8152935
Probable space group: C 2/C
;
_chemical_formula_sum "Si O2"
_cell_formula_units_Z 40
_cell_length_a 11.974706
_cell_length_b 11.590941
_cell_length_c 18.936273
_cell_angle_alpha 90.000000
_cell_angle_beta 40.670432
_cell_angle_gamma 90.000000
_cell_volume 1712.894033
_symmetry_space_group_name_H-M "C 2/C"
_symmetry_group_IT_number 15
_symmetry_cell_setting 'monoclinic'
loop_
_space_group_symop_operation_xyz
x,y,z
-x,y,1/2-z
-x,-y,-z
x,-y,1/2+z
1/2+x,1/2+y,z
1/2-x,1/2+y,1/2-z
1/2-x,1/2-y,-z
1/2+x,1/2-y,1/2+z
loop_
_atom_site_type_symbol
_atom_site_label
_atom_site_fract_x
_atom_site_fract_y
_atom_site_fract_z
Si Si1 0.086143 0.092109 0.907521
Si Si2 0.377893 0.414208 0.373956
Si Si3 0.690841 0.875346 0.004602
Si Si4 0.499298 0.162059 0.038832
Si Si5 0.557783 0.023326 0.296394
O O1 0.091359 0.216760 0.942080
O O2 0.265806 0.045881 0.793718
O O3 0.967975 0.135542 0.899610
O O4 0.000000 0.000000 0.000000
O O5 0.500000 0.397937 0.250000
O O6 0.356127 0.550139 0.402931
O O7 0.204866 0.341578 0.443648
O O8 0.560192 0.905337 0.002781
O O9 0.750000 0.750000 0.000000
O O10 0.596299 0.932324 0.117033
O O11 0.421955 0.115453 0.150050
O O12 0.500000 0.084263 0.250000
#
# Coordination Sequence:
#
# PCOD8152935 Si02
#       5
#     8   8   8   8   8
#     4  12  25  42  65  97 129 168 219 268 326 398
#     4  11  23  41  64  94 129 170 216 266 328 399
#     4  11  23  43  67  95 130 172 221 275 330 392
#     4  11  24  44  66  94 132 173 215 272 334 394
#     4  11  24  44  66  96 133 173 222 277 334 397
#
# _framework density 23.352291999999998
#
# number of rings (size 3 to 8) (size 9 to 14) (size 15 to 20)
#    0.000    0.800    0.000   10.200    0.000    8.000 
#    0.000    0.000    0.000    0.000    0.000    0.000 
#    0.000    0.000    0.000    0.000    0.000    0.000 
#
# Total GULP energy -247852.468351 kJ/mol
# GULP energy per Si atom -12392.623418 kJ/mol
# Density = 2.329914 g / cm^3
# Si number density = 23.352292 Si / 1000 Ang^3
#
#
#
# Elastic Constant Matrix: (Units=GPa)
#
#
# Indices 1 2 3 4 5 6 
#
# 1 128.3513 -7.4680 31.7799 0.0000 18.2738 0.0000
# 2 -7.4680 101.4701 38.1269 0.0000 3.3096 0.0000
# 3 31.7799 38.1269 153.4916 -0.0004 5.6635 0.0001
# 4 0.0000 0.0000 -0.0004 24.7910 0.0001 2.1224
# 5 18.2738 3.3096 5.6635 0.0001 41.6420 0.0000
# 6 0.0000 0.0000 0.0001 2.1224 0.0000 28.9677
#
#
#
# Elastic Compliance Matrix: (Units=1/GPa)
#
#
# Indices 1 2 3 4 5 6 
#
# 1 0.008938 0.001570 -0.002102 0.000000 -0.003761 0.000000
# 2 0.001570 0.011156 -0.003053 0.000000 -0.001160 0.000000
# 3 -0.002102 -0.003053 0.007704 0.000000 0.000117 0.000000
# 4 0.000000 0.000000 0.000000 0.040592 0.000000 -0.002974
# 5 -0.003761 -0.001160 0.000117 0.000000 0.025741 0.000000
# 6 0.000000 0.000000 0.000000 -0.002974 0.000000 0.034739
#
#
# Mechanical properties :
#
#
# Convention : Reuss Voigt Hill
#
# Bulk Modulus (GPa) = 48.47636 56.46563 52.47100
# Shear Modulus (GPa) = 34.98535 40.47175 37.72855
#
# Velocity S-wave (km/s) = 3.87480 4.16756 4.02384
# Velocity P-wave (km/s) = 6.38925 6.88408 6.64127
#
# Compressibility (1/GPa) = 0.02062861
#
# Stress axis : x y z
#
# Youngs Moduli (GPa) = 111.87610 89.63912 129.79682
#
# Poissons Ratio (x) = -0.14076 0.27283
# Poissons Ratio (y) = -0.17568 0.39632
# Poissons Ratio (z) = 0.23516 0.27370
#
# Static dielectric constant tensor:
#      x y z
#    x 4.492390 0.000000 0.111630 
#    y 0.000000 4.241030 0.000000 
#    z 0.111630 0.000000 4.184740 
# 
# 
# High freq. dielectric constant tensor:
#      x y z
#    x 1.954390 0.000000 0.010980 
#    y 0.000000 1.926120 0.000000 
#    z 0.010980 0.000000 1.922510 
# 
# From -- ./inp_files/122790.got.cif
#   From: 2010.06.25/outbox.cif.g09.slc.cpg/sg15_62_cif.got.tgz:122790.got - 2010.06.28 07:06:18.
