data_PCOD8152264
_publ_section_title
;
Structure prediction by ZEFSAII (Michael W. Deem and Ramdas Pophale) SiO2 
 PCOD8152264
Probable space group: C 2/C
;
_chemical_formula_sum "Si O2"
_cell_formula_units_Z 40
_cell_length_a 17.377544
_cell_length_b 17.452050
_cell_length_c 11.931825
_cell_angle_alpha 90.000000
_cell_angle_beta 33.011300
_cell_angle_gamma 90.000000
_cell_volume 1971.434489
_symmetry_space_group_name_H-M "C 2/C"
_symmetry_group_IT_number 15
_symmetry_cell_setting 'monoclinic'
loop_
_space_group_symop_operation_xyz
x,y,z
-x,y,1/2-z
-x,-y,-z
x,-y,1/2+z
1/2+x,1/2+y,z
1/2-x,1/2+y,1/2-z
1/2-x,1/2-y,-z
1/2+x,1/2-y,1/2+z
loop_
_atom_site_type_symbol
_atom_site_label
_atom_site_fract_x
_atom_site_fract_y
_atom_site_fract_z
Si Si1 0.134674 0.966078 0.398392
Si Si2 0.344821 0.609929 0.988279
Si Si3 0.919449 0.200761 0.460122
Si Si4 0.630030 0.250724 0.885334
Si Si5 0.146374 0.390141 0.527855
O O1 0.081459 0.890477 0.525689
O O2 0.192708 0.025539 0.419478
O O3 0.263691 0.949923 0.155526
O O4 0.000000 0.000000 0.500000
O O5 0.333885 0.668803 0.102782
O O6 0.237301 0.635135 0.023479
O O7 0.500000 0.610417 0.750000
O O8 0.759792 0.230278 0.645604
O O9 0.000000 0.224854 0.250000
O O10 0.990233 0.241045 0.481311
O O11 0.605684 0.185544 0.007834
O O12 0.000000 0.428335 0.750000
#
# Coordination Sequence:
#
# PCOD8152264 Si02
#       5
#     8   8   8   8   8
#     4  11  22  41  64  94 123 166 219 257 298 391
#     4  12  21  38  69  90 124 173 214 256 313 369
#     4  11  23  40  65  89 128 167 210 257 319 369
#     4  11  22  40  61  94 128 161 216 260 304 386
#     4  11  24  40  61  95 131 162 207 265 326 361
#
# _framework density 20.289793
#
# number of rings (size 3 to 8) (size 9 to 14) (size 15 to 20)
#    0.000    0.800    4.000    4.800    0.000    0.800 
#    0.000    1.000    0.000    0.000    0.000    0.000 
#    0.000    0.000    0.000    0.000    0.000    0.000 
#
# Total GULP energy -248097.394461 kJ/mol
# GULP energy per Si atom -12404.869723 kJ/mol
# Density = 2.024361 g / cm^3
# Si number density = 20.289793 Si / 1000 Ang^3
#
#
#
# Elastic Constant Matrix: (Units=GPa)
#
#
# Indices 1 2 3 4 5 6 
#
# 1 81.4522 26.1804 20.5134 0.0002 6.0379 0.0004
# 2 26.1804 102.2819 26.5268 0.0001 2.0285 0.0000
# 3 20.5134 26.5268 125.4293 0.0007 -4.1545 -0.0003
# 4 0.0002 0.0001 0.0007 28.2226 -0.0007 -8.6375
# 5 6.0379 2.0285 -4.1545 -0.0007 30.2848 0.0002
# 6 0.0004 0.0000 -0.0003 -8.6375 0.0002 25.8732
#
#
#
# Elastic Compliance Matrix: (Units=1/GPa)
#
#
# Indices 1 2 3 4 5 6 
#
# 1 0.013900 -0.003056 -0.001720 0.000000 -0.002803 0.000000
# 2 -0.003056 0.011046 -0.001849 0.000000 -0.000384 0.000000
# 3 -0.001720 -0.001849 0.008700 0.000000 0.001660 0.000000
# 4 0.000000 0.000000 0.000000 0.039465 0.000001 0.013175
# 5 -0.002803 -0.000384 0.001660 0.000001 0.033832 0.000000
# 6 0.000000 0.000000 0.000000 0.013175 0.000000 0.043048
#
#
# Mechanical properties :
#
#
# Convention : Reuss Voigt Hill
#
# Bulk Modulus (GPa) = 49.02855 50.62274 49.82564
# Shear Modulus (GPa) = 29.40467 32.60565 31.00516
#
# Velocity S-wave (km/s) = 3.81101 4.01309 3.91335
# Velocity P-wave (km/s) = 6.60164 6.81742 6.71040
#
# Compressibility (1/GPa) = 0.02039628
#
# Stress axis : x y z
#
# Youngs Moduli (GPa) = 71.94044 90.52734 114.94358
#
# Poissons Ratio (x) = 0.27669 0.19768
# Poissons Ratio (y) = 0.21988 0.21254
# Poissons Ratio (z) = 0.12372 0.16739
#
# Static dielectric constant tensor:
#      x y z
#    x 3.598810 0.000000 0.066470 
#    y 0.000000 3.857320 0.000000 
#    z 0.066470 0.000000 3.761250 
# 
# 
# High freq. dielectric constant tensor:
#      x y z
#    x 1.796690 0.000000 0.001390 
#    y 0.000000 1.788030 0.000000 
#    z 0.001390 0.000000 1.805870 
# 
# From -- ./inp_files/38030.got.cif
#   From: 2010.06.25/outbox.cif.g09.slc.cpg/sg15_20_cif.got.tgz:38030.got - 2010.06.28 07:06:18.
