data_PCOD8152897
_publ_section_title
;
Structure prediction by ZEFSAII (Michael W. Deem and Ramdas Pophale) SiO2 
 PCOD8152897
Probable space group: C 2/C
;
_chemical_formula_sum "Si O2"
_cell_formula_units_Z 60
_cell_length_a 12.364148
_cell_length_b 18.696044
_cell_length_c 24.873797
_cell_angle_alpha 90.000000
_cell_angle_beta 151.380745
_cell_angle_gamma 90.000000
_cell_volume 2754.099508
_symmetry_space_group_name_H-M "C 2/C"
_symmetry_group_IT_number 15
_symmetry_cell_setting 'monoclinic'
loop_
_space_group_symop_operation_xyz
x,y,z
-x,y,1/2-z
-x,-y,-z
x,-y,1/2+z
1/2+x,1/2+y,z
1/2-x,1/2+y,1/2-z
1/2-x,1/2-y,-z
1/2+x,1/2-y,1/2+z
loop_
_atom_site_type_symbol
_atom_site_label
_atom_site_fract_x
_atom_site_fract_y
_atom_site_fract_z
Si Si1 0.500000 0.664516 0.250000
Si Si2 0.318827 0.320431 0.063393
Si Si3 0.147480 0.417486 0.906071
Si Si4 0.974799 0.291732 0.000594
Si Si5 0.819682 0.150125 0.277994
Si Si6 0.455276 0.629481 0.451264
Si Si7 0.667375 0.187058 0.697212
Si Si8 0.931079 0.432194 0.161840
O O1 0.285790 0.709133 0.132670
O O2 0.407711 0.616459 0.259729
O O3 0.565317 0.316589 0.198351
O O4 0.250000 0.250000 0.000000
O O5 0.329473 0.390541 0.029339
O O6 0.131320 0.334669 0.027206
O O7 0.250022 0.410765 0.890966
O O8 0.076898 0.500276 0.882673
O O9 0.942659 0.363025 0.826753
O O10 0.069521 0.211837 0.044044
O O11 0.013664 0.325462 0.076892
O O12 0.876528 0.234474 0.297260
O O13 0.948106 0.115694 0.384197
O O14 0.690455 0.599292 0.571861
O O15 0.593923 0.128319 0.708700
O O16 0.000000 0.460907 0.250000
#
# Coordination Sequence:
#
# PCOD8152897 Si02
#       8
#     4   8   8   8   8   8   8   8
#     4  12  22  38  64 100 136 174 226 288 350 400
#     4  12  21  41  73 102 133 179 237 291 345 409
#     4  12  24  43  68 103 135 178 231 283 347 416
#     4  11  23  40  69 105 134 174 242 294 343 405
#     4  11  23  40  68  96 132 176 236 287 339 395
#     4  11  23  40  67  98 138 178 224 289 345 412
#     4  11  24  43  66 102 138 183 230 294 342 412
#     4  12  27  42  65 100 146 184 224 277 359 424
#
# _framework density 21.785705
#
# number of rings (size 3 to 8) (size 9 to 14) (size 15 to 20)
#    0.000    0.533    4.000    4.400    3.733    5.333 
#    0.000    0.667    2.933    0.000    0.000    0.000 
#    0.000    0.000    0.000    0.000    0.000    0.000 
#
# Total GULP energy -371902.024576 kJ/mol
# GULP energy per Si atom -12396.734153 kJ/mol
# Density = 2.173612 g / cm^3
# Si number density = 21.785705 Si / 1000 Ang^3
#
#
#
# Elastic Constant Matrix: (Units=GPa)
#
#
# Indices 1 2 3 4 5 6 
#
# 1 143.1795 28.2532 48.0931 -0.0005 8.2886 0.0004
# 2 28.2532 73.1143 9.2296 0.0000 -3.0693 0.0004
# 3 48.0931 9.2296 125.0769 0.0077 1.5629 0.0114
# 4 -0.0005 0.0000 0.0077 17.7067 0.0016 -10.2930
# 5 8.2886 -3.0693 1.5629 0.0016 40.2769 0.0013
# 6 0.0004 0.0004 0.0114 -10.2930 0.0013 12.9277
#
#
#
# Elastic Compliance Matrix: (Units=1/GPa)
#
#
# Indices 1 2 3 4 5 6 
#
# 1 0.008746 -0.003067 -0.003113 0.000006 -0.001913 0.000008
# 2 -0.003067 0.014930 0.000056 -0.000001 0.001767 -0.000002
# 3 -0.003113 0.000056 0.009184 -0.000016 0.000288 -0.000021
# 4 0.000006 -0.000001 -0.000016 0.105137 -0.000008 0.083710
# 5 -0.001913 0.001767 0.000288 -0.000008 0.025345 -0.000009
# 6 0.000008 -0.000002 -0.000021 0.083710 -0.000009 0.144003
#
#
# Mechanical properties :
#
#
# Convention : Reuss Voigt Hill
#
# Bulk Modulus (GPa) = 48.51684 56.94696 52.73190
# Shear Modulus (GPa) = 15.31568 31.23523 23.27546
#
# Velocity S-wave (km/s) = 2.65432 3.79060 3.27216
# Velocity P-wave (km/s) = 5.63136 6.73457 6.20753
#
# Compressibility (1/GPa) = 0.02061140
#
# Stress axis : x y z
#
# Youngs Moduli (GPa) = 114.34259 66.98142 108.88274
#
# Poissons Ratio (x) = 0.20543 0.33890
# Poissons Ratio (y) = 0.35068 -0.00604
# Poissons Ratio (z) = 0.35590 -0.00372
#
# Static dielectric constant tensor:
#      x y z
#    x 4.124230 0.000000 -0.160430 
#    y 0.000000 3.605970 -0.000010 
#    z -0.160430 -0.000010 4.200830 
# 
# 
# High freq. dielectric constant tensor:
#      x y z
#    x 1.866920 0.000000 0.001740 
#    y 0.000000 1.816590 0.000000 
#    z 0.001740 0.000000 1.874500 
# 
# From -- ./inp_files/271044.got.cif
#   From: 2010.06.25/outbox.cif.g09.slc.cpg/sg15_136_cif.got.tgz:271044.got - 2010.06.28 07:06:18.
