data_PCOD8152812
_publ_section_title
;
Structure prediction by ZEFSAII (Michael W. Deem and Ramdas Pophale) SiO2 
 PCOD8152812
Probable space group: C 2/C
;
_chemical_formula_sum "Si O2"
_cell_formula_units_Z 32
_cell_length_a 10.188344
_cell_length_b 9.681176
_cell_length_c 15.983631
_cell_angle_alpha 90.000000
_cell_angle_beta 99.733260
_cell_angle_gamma 90.000000
_cell_volume 1553.854239
_symmetry_space_group_name_H-M "C 2/C"
_symmetry_group_IT_number 15
_symmetry_cell_setting 'monoclinic'
loop_
_space_group_symop_operation_xyz
x,y,z
-x,y,1/2-z
-x,-y,-z
x,-y,1/2+z
1/2+x,1/2+y,z
1/2-x,1/2+y,1/2-z
1/2-x,1/2-y,-z
1/2+x,1/2-y,1/2+z
loop_
_atom_site_type_symbol
_atom_site_label
_atom_site_fract_x
_atom_site_fract_y
_atom_site_fract_z
Si Si1 0.475281 0.145128 0.342221
Si Si2 0.707049 0.387040 0.891446
Si Si3 0.023313 0.058841 0.594253
Si Si4 0.307213 0.925684 0.085782
O O1 0.500000 0.189779 0.250000
O O2 0.321613 0.096993 0.334092
O O3 0.503907 0.276489 0.405035
O O4 0.568834 0.020305 0.379138
O O5 0.578206 0.480812 0.853781
O O6 0.652034 0.231839 0.892078
O O7 0.770584 0.441420 0.984749
O O8 0.179925 0.033358 0.630608
O O9 0.000000 0.000000 0.500000
#
# Coordination Sequence:
#
# PCOD8152812 Si02
#       4
#     8   8   8   8
#     4  11  23  36  54  85 119 147 182 231 285 337
#     4   9  19  36  58  81 109 145 189 234 272 328
#     4   9  20  38  60  84 109 146 194 236 274 328
#     4   9  19  37  58  83 111 145 190 231 274 332
#
# _framework density 20.593951000000001
#
# number of rings (size 3 to 8) (size 9 to 14) (size 15 to 20)
#    0.000    2.500    0.000    2.250    0.000   10.000 
#    0.000    1.250    0.000    0.000    0.000    0.000 
#    0.000    0.000    0.000    0.000    0.000    0.000 
#
# Total GULP energy -198311.461330 kJ/mol
# GULP energy per Si atom -12394.466333 kJ/mol
# Density = 2.054708 g / cm^3
# Si number density = 20.593951 Si / 1000 Ang^3
#
#
#
# Elastic Constant Matrix: (Units=GPa)
#
#
# Indices 1 2 3 4 5 6 
#
# 1 123.0256 67.7826 27.8086 0.0000 -39.7229 0.0000
# 2 67.7826 110.1360 29.0487 0.0000 -3.3440 0.0000
# 3 27.8086 29.0487 53.9171 0.0000 -15.8419 0.0000
# 4 0.0000 0.0000 0.0000 11.2834 0.0000 -4.7766
# 5 -39.7229 -3.3440 -15.8419 0.0000 28.8072 0.0000
# 6 0.0000 0.0000 0.0000 -4.7766 0.0000 43.6723
#
#
#
# Elastic Compliance Matrix: (Units=1/GPa)
#
#
# Indices 1 2 3 4 5 6 
#
# 1 0.033963 -0.021673 0.008565 0.000000 0.049027 0.000000
# 2 -0.021673 0.024540 -0.011912 0.000000 -0.033587 0.000000
# 3 0.008565 -0.011912 0.028161 0.000000 0.025914 0.000000
# 4 0.000000 0.000000 0.000000 0.092929 0.000000 0.010164
# 5 0.049027 -0.033587 0.025914 0.000000 0.112669 0.000000
# 6 0.000000 0.000000 0.000000 0.010164 0.000000 0.024009
#
#
# Mechanical properties :
#
#
# Convention : Reuss Voigt Hill
#
# Bulk Modulus (GPa) = 27.30417 59.59538 43.44978
# Shear Modulus (GPa) = 13.20932 27.58185 20.39558
#
# Velocity S-wave (km/s) = 2.53537 3.66364 3.15042
# Velocity P-wave (km/s) = 4.67525 6.84817 5.86325
#
# Compressibility (1/GPa) = 0.03662444
#
# Stress axis : x y z
#
# Youngs Moduli (GPa) = 29.44354 40.74962 35.50967
#
# Poissons Ratio (x) = 0.88316 -0.30412
# Poissons Ratio (y) = 0.63813 0.42298
# Poissons Ratio (z) = -0.25217 0.48540
#
# Static dielectric constant tensor:
#      x y z
#    x 4.356470 0.000000 -0.457640 
#    y 0.000000 3.785980 0.000000 
#    z -0.457640 0.000000 3.442570 
# 
# 
# High freq. dielectric constant tensor:
#      x y z
#    x 1.822250 0.000000 -0.028840 
#    y 0.000000 1.805710 0.000000 
#    z -0.028840 0.000000 1.769890 
# 
# From -- ./inp_files/140517.got.cif
#   From: 2010.06.25/outbox.cif.g09.slc.cpg/sg15_71_cif.got.tgz:140517.got - 2010.06.28 07:06:18.
