data_PCOD8152468
_publ_section_title
;
Structure prediction by ZEFSAII (Michael W. Deem and Ramdas Pophale) SiO2 
 PCOD8152468
Probable space group: C 2/C
;
_chemical_formula_sum "Si O2"
_cell_formula_units_Z 48
_cell_length_a 20.076989
_cell_length_b 17.032424
_cell_length_c 8.939261
_cell_angle_alpha 90.000000
_cell_angle_beta 49.096178
_cell_angle_gamma 90.000000
_cell_volume 2310.410622
_symmetry_space_group_name_H-M "C 2/C"
_symmetry_group_IT_number 15
_symmetry_cell_setting 'monoclinic'
loop_
_space_group_symop_operation_xyz
x,y,z
-x,y,1/2-z
-x,-y,-z
x,-y,1/2+z
1/2+x,1/2+y,z
1/2-x,1/2+y,1/2-z
1/2-x,1/2-y,-z
1/2+x,1/2-y,1/2+z
loop_
_atom_site_type_symbol
_atom_site_label
_atom_site_fract_x
_atom_site_fract_y
_atom_site_fract_z
Si Si1 0.089302 0.899254 0.549065
Si Si2 0.822368 0.204739 0.987122
Si Si3 0.500000 0.215562 0.250000
Si Si4 0.411314 0.554984 0.788566
Si Si5 0.000000 0.475933 0.250000
Si Si6 0.582528 0.097057 0.914828
Si Si7 0.754947 0.297668 0.344036
O O1 0.070090 0.938685 0.416185
O O2 0.159726 0.829057 0.431286
O O3 0.000000 0.862373 0.750000
O O4 0.120196 0.967751 0.618584
O O5 0.827897 0.111311 0.952559
O O6 0.920349 0.233340 0.803998
O O7 0.750000 0.250000 0.000000
O O8 0.795628 0.225815 0.192438
O O9 0.476433 0.166366 0.432010
O O10 0.500000 0.577150 0.750000
O O11 0.052009 0.423198 0.292363
O O12 0.927861 0.525810 0.450922
O O13 0.683177 0.125314 0.752802
O O14 0.750000 0.250000 0.500000
#
# Coordination Sequence:
#
# PCOD8152468 Si02
#       7
#     8   8   4   8   4   8   8
#     4  11  25  43  67  95 130 170 217 267 327 385
#     4  11  22  42  65  94 125 173 217 259 329 386
#     4   9  20  38  64  86 131 158 206 264 311 386
#     4  11  23  43  69  94 126 172 216 270 328 386
#     4   9  18  40  64  90 119 160 202 250 319 370
#     4   9  20  39  62  91 122 160 202 254 313 371
#     4  11  26  42  61  97 131 165 213 267 313 380
#
# _framework density 20.775528000000001
#
# number of rings (size 3 to 8) (size 9 to 14) (size 15 to 20)
#    0.000    1.667    2.500    2.000    4.667    2.667 
#    7.500    0.000    0.000    0.000    0.000    0.000 
#    0.000    0.000    0.000    0.000    0.000    0.000 
#
# Total GULP energy -297405.636057 kJ/mol
# GULP energy per Si atom -12391.901502 kJ/mol
# Density = 2.072824 g / cm^3
# Si number density = 20.775528 Si / 1000 Ang^3
#
#
#
# Elastic Constant Matrix: (Units=GPa)
#
#
# Indices 1 2 3 4 5 6 
#
# 1 84.7472 13.4362 44.5913 0.0000 0.4736 0.0000
# 2 13.4362 54.8413 29.1884 0.0000 -13.2407 0.0000
# 3 44.5913 29.1884 116.6143 0.0000 2.2871 0.0000
# 4 0.0000 0.0000 0.0000 20.3870 0.0000 9.1647
# 5 0.4736 -13.2407 2.2871 0.0000 46.7805 0.0000
# 6 0.0000 0.0000 0.0000 9.1647 0.0000 23.7975
#
#
#
# Elastic Compliance Matrix: (Units=1/GPa)
#
#
# Indices 1 2 3 4 5 6 
#
# 1 0.014796 -0.000734 -0.005472 0.000000 -0.000090 0.000000
# 2 -0.000734 0.023050 -0.005622 0.000000 0.006806 0.000000
# 3 -0.005472 -0.005622 0.012117 0.000000 -0.002128 0.000000
# 4 0.000000 0.000000 0.000000 0.059320 0.000000 -0.022845
# 5 -0.000090 0.006806 -0.002128 0.000000 0.023408 0.000000
# 6 0.000000 0.000000 0.000000 -0.022845 0.000000 0.050819
#
#
# Mechanical properties :
#
#
# Convention : Reuss Voigt Hill
#
# Bulk Modulus (GPa) = 38.01489 47.84829 42.93159
# Shear Modulus (GPa) = 23.15508 29.45881 26.30694
#
# Velocity S-wave (km/s) = 3.34209 3.76966 3.56230
# Velocity P-wave (km/s) = 5.76458 6.48292 6.13427
#
# Compressibility (1/GPa) = 0.02630548
#
# Stress axis : x y z
#
# Youngs Moduli (GPa) = 67.58582 43.38414 82.53092
#
# Poissons Ratio (x) = 0.03186 0.45162
# Poissons Ratio (y) = 0.04963 0.46399
# Poissons Ratio (z) = 0.36984 0.24391
#
# Static dielectric constant tensor:
#      x y z
#    x 3.706810 0.000000 0.201220 
#    y 0.000000 3.371990 0.000000 
#    z 0.201220 0.000000 4.470130 
# 
# 
# High freq. dielectric constant tensor:
#      x y z
#    x 1.803660 0.000000 0.009130 
#    y 0.000000 1.810920 0.000000 
#    z 0.009130 0.000000 1.830830 
# 
# From -- ./inp_files/56450.got.cif
#   From: 2010.06.25/outbox.cif.g09.slc.cpg/sg15_29_cif.got.tgz:56450.got - 2010.06.28 07:06:18.
