data_PCOD8152584
_publ_section_title
;
Structure prediction by ZEFSAII (Michael W. Deem and Ramdas Pophale) SiO2 
 PCOD8152584
Probable space group: C 2/C
;
_chemical_formula_sum "Si O2"
_cell_formula_units_Z 64
_cell_length_a 15.661939
_cell_length_b 17.536569
_cell_length_c 32.861323
_cell_angle_alpha 90.000000
_cell_angle_beta 160.924046
_cell_angle_gamma 90.000000
_cell_volume 2949.752267
_symmetry_space_group_name_H-M "C 2/C"
_symmetry_group_IT_number 15
_symmetry_cell_setting 'monoclinic'
loop_
_space_group_symop_operation_xyz
x,y,z
-x,y,1/2-z
-x,-y,-z
x,-y,1/2+z
1/2+x,1/2+y,z
1/2-x,1/2+y,1/2-z
1/2-x,1/2-y,-z
1/2+x,1/2-y,1/2+z
loop_
_atom_site_type_symbol
_atom_site_label
_atom_site_fract_x
_atom_site_fract_y
_atom_site_fract_z
Si Si1 0.201481 0.159789 0.609181
Si Si2 0.416791 0.409406 0.051446
Si Si3 0.785139 0.351045 0.358013
Si Si4 0.470150 0.283469 0.884564
Si Si5 0.189118 0.329133 0.606215
Si Si6 0.722500 0.043175 0.719607
Si Si7 0.858582 0.630174 0.324862
Si Si8 0.178717 0.071298 0.519500
O O1 0.500000 0.163454 0.750000
O O2 0.122473 0.244314 0.559568
O O3 0.150448 0.093154 0.553982
O O4 0.072528 0.149757 0.594726
O O5 0.528257 0.417375 0.147102
O O6 0.454013 0.490105 0.045779
O O7 0.126608 0.377600 0.921280
O O8 0.500000 0.345417 0.250000
O O9 0.822766 0.273664 0.348638
O O10 0.802756 0.423667 0.336644
O O11 0.017873 0.372924 0.494951
O O12 0.307704 0.300606 0.770017
O O13 0.502936 0.366691 0.917951
O O14 0.750000 0.250000 0.000000
O O15 0.500000 0.348561 0.750000
O O16 0.074961 0.346649 0.599129
O O17 0.472708 0.066241 0.634567
O O18 0.776957 0.952948 0.739293
#
# Coordination Sequence:
#
# PCOD8152584 Si02
#       8
#     8   8   8   8   8   8   8   8
#     4  11  23  40  66  99 140 179 227 286 350 417
#     4  11  24  43  66 102 139 175 229 288 349 410
#     4  12  27  44  69 103 141 183 230 291 355 408
#     4  12  24  44  72  98 131 182 232 279 342 419
#     4  11  26  44  67 102 136 183 234 281 343 417
#     4  11  24  45  70  97 138 183 229 282 348 409
#     4  11  27  43  70 103 134 181 232 286 341 412
#     4  11  22  43  68  97 133 181 231 280 344 419
#
# _framework density 21.696739000000001
#
# number of rings (size 3 to 8) (size 9 to 14) (size 15 to 20)
#    0.000    0.750    5.000    1.875    5.250    1.500 
#    0.000    0.625    0.000    0.000    0.000    0.000 
#    0.000    0.000    0.000    0.000    0.000    0.000 
#
# Total GULP energy -396641.554016 kJ/mol
# GULP energy per Si atom -12395.048563 kJ/mol
# Density = 2.164736 g / cm^3
# Si number density = 21.696739 Si / 1000 Ang^3
#
#
#
# Elastic Constant Matrix: (Units=GPa)
#
#
# Indices 1 2 3 4 5 6 
#
# 1 119.7543 40.3939 49.2598 -0.0188 -10.0350 -0.0062
# 2 40.3939 65.3903 27.5207 -0.0020 4.4750 0.0081
# 3 49.2598 27.5207 129.0333 0.0190 -18.6604 -0.0760
# 4 -0.0188 -0.0020 0.0190 37.9628 -0.0363 -6.2402
# 5 -10.0350 4.4750 -18.6604 -0.0363 46.7832 0.0240
# 6 -0.0062 0.0081 -0.0760 -6.2402 0.0240 36.8520
#
#
#
# Elastic Compliance Matrix: (Units=1/GPa)
#
#
# Indices 1 2 3 4 5 6 
#
# 1 0.011800 -0.006205 -0.002897 0.000008 0.001969 -0.000002
# 2 -0.006205 0.020534 -0.002640 -0.000006 -0.004348 -0.000009
# 3 -0.002897 -0.002640 0.009939 0.000000 0.003595 0.000018
# 4 0.000008 -0.000006 0.000000 0.027096 0.000021 0.004588
# 5 0.001969 -0.004348 0.003595 0.000021 0.023648 -0.000003
# 6 -0.000002 -0.000009 0.000018 0.004588 -0.000003 0.027913
#
#
# Mechanical properties :
#
#
# Convention : Reuss Voigt Hill
#
# Bulk Modulus (GPa) = 53.21791 60.94741 57.08266
# Shear Modulus (GPa) = 33.18414 37.45318 35.31866
#
# Velocity S-wave (km/s) = 3.91506 4.15928 4.03902
# Velocity P-wave (km/s) = 6.70957 7.15665 6.93671
#
# Compressibility (1/GPa) = 0.01879067
#
# Stress axis : x y z
#
# Youngs Moduli (GPa) = 84.74674 48.69910 100.61695
#
# Poissons Ratio (x) = 0.30217 0.29144
# Poissons Ratio (y) = 0.52584 0.26559
# Poissons Ratio (z) = 0.24547 0.12855
#
# Static dielectric constant tensor:
#      x y z
#    x 3.857900 0.000020 -0.083910 
#    y 0.000020 3.935140 -0.000110 
#    z -0.083910 -0.000110 3.975470 
# 
# 
# High freq. dielectric constant tensor:
#      x y z
#    x 1.857770 0.000010 -0.008450 
#    y 0.000010 1.857200 -0.000010 
#    z -0.008450 -0.000010 1.857380 
# 
# From -- ./inp_files/314535.got.cif
#   From: 2010.06.25/outbox.cif.g09.slc.cpg/sg15_158_cif.got.tgz:314535.got - 2010.06.28 07:06:18.
