data_PCOD8152191
_publ_section_title
;
Structure prediction by ZEFSAII (Michael W. Deem and Ramdas Pophale) SiO2 
 PCOD8152191
Probable space group: C 2/C
;
_chemical_formula_sum "Si O2"
_cell_formula_units_Z 64
_cell_length_a 17.856834
_cell_length_b 14.641502
_cell_length_c 15.559839
_cell_angle_alpha 90.000000
_cell_angle_beta 130.774536
_cell_angle_gamma 90.000000
_cell_volume 3080.737993
_symmetry_space_group_name_H-M "C 2/C"
_symmetry_group_IT_number 15
_symmetry_cell_setting 'monoclinic'
loop_
_space_group_symop_operation_xyz
x,y,z
-x,y,1/2-z
-x,-y,-z
x,-y,1/2+z
1/2+x,1/2+y,z
1/2-x,1/2+y,1/2-z
1/2-x,1/2-y,-z
1/2+x,1/2-y,1/2+z
loop_
_atom_site_type_symbol
_atom_site_label
_atom_site_fract_x
_atom_site_fract_y
_atom_site_fract_z
Si Si1 0.227763 0.823914 0.910758
Si Si2 0.630170 0.455702 0.950610
Si Si3 0.194362 0.008039 0.183768
Si Si4 0.762398 0.161643 0.670395
Si Si5 0.661166 0.162658 0.173581
Si Si6 0.054734 0.284165 0.998348
Si Si7 0.944500 0.157488 0.345244
Si Si8 0.594625 0.344203 0.373196
O O1 0.214158 0.922496 0.946545
O O2 0.319827 0.830796 0.914596
O O3 0.128362 0.801407 0.781699
O O4 0.250000 0.750000 0.000000
O O5 0.546534 0.377838 0.882060
O O6 0.582819 0.549985 0.886218
O O7 0.679583 0.462520 0.080578
O O8 0.295763 0.066679 0.259139
O O9 0.104136 0.073216 0.140367
O O10 0.191153 0.926279 0.249703
O O11 0.782830 0.253503 0.739243
O O12 0.644386 0.144538 0.577080
O O13 0.807057 0.173216 0.608620
O O14 0.544409 0.164789 0.107418
O O15 0.097942 0.210962 0.963689
O O16 0.028119 0.236373 0.067654
O O17 0.500000 0.310067 0.250000
#
# Coordination Sequence:
#
# PCOD8152191 Si02
#       8
#     8   8   8   8   8   8   8   8
#     4  11  22  39  62  92 136 171 212 274 332 395
#     4  12  23  38  67 101 129 170 227 282 334 390
#     4  11  23  41  67  93 140 176 216 276 337 397
#     4  12  23  43  68  94 132 175 220 273 335 395
#     4  11  24  45  63  97 137 174 221 271 337 401
#     4  12  24  42  69  94 133 181 217 271 332 406
#     4  11  22  40  64 101 132 170 221 278 343 393
#     4  12  23  39  66 102 130 163 222 284 337 385
#
# _framework density 20.774242999999998
#
# number of rings (size 3 to 8) (size 9 to 14) (size 15 to 20)
#    0.000    0.500    5.000    6.375    0.000    0.500 
#    0.000    0.000    0.000    1.500    0.000    0.000 
#    0.000    0.000    0.000    0.000    0.000    0.000 
#
# Total GULP energy -396884.241297 kJ/mol
# GULP energy per Si atom -12402.632541 kJ/mol
# Density = 2.072696 g / cm^3
# Si number density = 20.774243 Si / 1000 Ang^3
#
#
#
# Elastic Constant Matrix: (Units=GPa)
#
#
# Indices 1 2 3 4 5 6 
#
# 1 115.6277 18.0829 35.5989 0.0000 5.1741 0.0000
# 2 18.0829 46.2137 20.8985 0.0000 -5.9476 0.0000
# 3 35.5989 20.8985 97.6900 0.0000 -2.5104 0.0000
# 4 0.0000 0.0000 0.0000 34.4572 0.0000 -2.4890
# 5 5.1741 -5.9476 -2.5104 0.0000 38.5170 0.0000
# 6 0.0000 0.0000 0.0000 -2.4890 0.0000 32.3311
#
#
#
# Elastic Compliance Matrix: (Units=1/GPa)
#
#
# Indices 1 2 3 4 5 6 
#
# 1 0.010146 -0.002804 -0.003149 0.000000 -0.002001 0.000000
# 2 -0.002804 0.025176 -0.004262 0.000000 0.003986 0.000000
# 3 -0.003149 -0.004262 0.012310 0.000000 0.000567 0.000000
# 4 0.000000 0.000000 0.000000 0.029184 0.000000 0.002247
# 5 -0.002001 0.003986 0.000567 0.000000 0.026884 0.000000
# 6 0.000000 0.000000 0.000000 0.002247 0.000000 0.031103
#
#
# Mechanical properties :
#
#
# Convention : Reuss Voigt Hill
#
# Bulk Modulus (GPa) = 36.75980 45.41023 41.08501
# Shear Modulus (GPa) = 30.43235 33.39112 31.91173
#
# Velocity S-wave (km/s) = 3.83156 4.01350 3.92359
# Velocity P-wave (km/s) = 6.10801 6.58665 6.35184
#
# Compressibility (1/GPa) = 0.02720363
#
# Stress axis : x y z
#
# Youngs Moduli (GPa) = 98.56195 39.72064 81.23326
#
# Poissons Ratio (x) = 0.11136 0.25580
# Poissons Ratio (y) = 0.27632 0.34619
# Poissons Ratio (z) = 0.31036 0.16928
#
# Static dielectric constant tensor:
#      x y z
#    x 3.866640 0.000000 -0.129410 
#    y 0.000000 3.640730 0.000000 
#    z -0.129410 0.000000 3.901990 
# 
# 
# High freq. dielectric constant tensor:
#      x y z
#    x 1.818800 0.000000 -0.011050 
#    y 0.000000 1.796980 0.000000 
#    z -0.011050 0.000000 1.822230 
# 
# From -- ./inp_files/162522.got.cif
#   From: 2010.06.25/outbox.cif.g09.slc.cpg/sg15_82_cif.got.tgz:162522.got - 2010.06.28 07:06:18.
