data_PCOD8152739
_publ_section_title
;
Structure prediction by ZEFSAII (Michael W. Deem and Ramdas Pophale) SiO2 
 PCOD8152739
Probable space group: C 2/C
;
_chemical_formula_sum "Si O2"
_cell_formula_units_Z 64
_cell_length_a 31.333556
_cell_length_b 9.009623
_cell_length_c 18.517811
_cell_angle_alpha 90.000000
_cell_angle_beta 144.256713
_cell_angle_gamma 90.000000
_cell_volume 3053.751779
_symmetry_space_group_name_H-M "C 2/C"
_symmetry_group_IT_number 15
_symmetry_cell_setting 'monoclinic'
loop_
_space_group_symop_operation_xyz
x,y,z
-x,y,1/2-z
-x,-y,-z
x,-y,1/2+z
1/2+x,1/2+y,z
1/2-x,1/2+y,1/2-z
1/2-x,1/2-y,-z
1/2+x,1/2-y,1/2+z
loop_
_atom_site_type_symbol
_atom_site_label
_atom_site_fract_x
_atom_site_fract_y
_atom_site_fract_z
Si Si1 0.172466 0.330039 0.611364
Si Si2 0.213642 0.932928 0.266742
Si Si3 0.322056 0.100555 0.642894
Si Si4 0.922567 0.424126 0.891998
Si Si5 0.427699 0.399834 0.193787
Si Si6 0.564636 0.417749 0.130574
Si Si7 0.160615 0.816241 0.951307
Si Si8 0.696928 0.168447 0.481040
O O1 0.189401 0.170304 0.667988
O O2 0.247155 0.422871 0.710873
O O3 0.113049 0.420204 0.577148
O O4 0.140638 0.300189 0.487638
O O5 0.142258 0.987038 0.212987
O O6 0.267764 0.836622 0.391328
O O7 0.245858 0.140869 0.575962
O O8 0.356320 0.247304 0.651667
O O9 0.372947 0.023086 0.771317
O O10 0.310882 0.997375 0.557974
O O11 0.932641 0.258400 0.877506
O O12 0.000000 0.500000 0.000000
O O13 0.500000 0.362487 0.250000
O O14 0.447871 0.445006 0.302577
O O15 0.386787 0.537576 0.101070
O O16 0.379855 0.251664 0.122450
O O17 0.500000 0.500000 0.000000
O O18 0.750000 0.250000 0.500000
#
# Coordination Sequence:
#
# PCOD8152739 Si02
#       8
#     8   8   8   8   8   8   8   8
#     4  11  25  42  64 110 128 175 229 282 340 404
#     4  11  24  43  72  95 139 173 227 290 338 408
#     4  11  22  45  72 101 129 186 236 283 350 417
#     4  11  26  46  69  92 142 186 226 278 352 412
#     4  12  28  43  70 105 139 185 227 292 358 412
#     4  11  26  45  66  98 139 182 221 276 351 417
#     4  11  25  41  73 103 140 171 238 295 344 417
#     4  12  20  45  71  96 131 180 236 281 338 412
#
# _framework density 20.957826000000001
#
# number of rings (size 3 to 8) (size 9 to 14) (size 15 to 20)
#    0.000    0.750    5.000    1.500    8.750    2.000 
#    0.000    0.625    0.000    0.000    0.000    0.000 
#    0.000    0.000    0.000    0.000    0.000    0.000 
#
# Total GULP energy -396897.071490 kJ/mol
# GULP energy per Si atom -12403.033484 kJ/mol
# Density = 2.091013 g / cm^3
# Si number density = 20.957826 Si / 1000 Ang^3
#
#
#
# Elastic Constant Matrix: (Units=GPa)
#
#
# Indices 1 2 3 4 5 6 
#
# 1 155.8251 37.6772 54.0811 0.0000 8.8026 0.0000
# 2 37.6772 61.7289 18.6420 0.0000 5.6405 0.0000
# 3 54.0811 18.6420 102.3131 0.0000 -4.3180 0.0000
# 4 0.0000 0.0000 0.0000 43.7820 0.0000 -0.7978
# 5 8.8026 5.6405 -4.3180 0.0000 33.3005 0.0000
# 6 0.0000 0.0000 0.0000 -0.7978 0.0000 29.9923
#
#
#
# Elastic Compliance Matrix: (Units=1/GPa)
#
#
# Indices 1 2 3 4 5 6 
#
# 1 0.008930 -0.004016 -0.004082 0.000000 -0.002210 0.000000
# 2 -0.004016 0.019324 -0.001500 0.000000 -0.002406 0.000000
# 3 -0.004082 -0.001500 0.012328 0.000000 0.002932 0.000000
# 4 0.000000 0.000000 0.000000 0.022852 0.000000 0.000608
# 5 -0.002210 -0.002406 0.002932 0.000000 0.031401 0.000000
# 6 0.000000 0.000000 0.000000 0.000608 0.000000 0.033358
#
#
# Mechanical properties :
#
#
# Convention : Reuss Voigt Hill
#
# Bulk Modulus (GPa) = 46.75643 60.07419 53.41531
# Shear Modulus (GPa) = 32.35891 35.37940 33.86916
#
# Velocity S-wave (km/s) = 3.93364 4.11314 4.02439
# Velocity P-wave (km/s) = 6.55664 7.16127 6.86561
#
# Compressibility (1/GPa) = 0.02138743
#
# Stress axis : x y z
#
# Youngs Moduli (GPa) = 111.98323 51.74960 81.11332
#
# Poissons Ratio (x) = 0.20782 0.33108
# Poissons Ratio (y) = 0.44972 0.12165
# Poissons Ratio (z) = 0.45709 0.07761
#
# Static dielectric constant tensor:
#      x y z
#    x 3.883340 0.000000 -0.010350 
#    y 0.000000 2.750210 0.000000 
#    z -0.010350 0.000000 3.612000 
# 
# 
# High freq. dielectric constant tensor:
#      x y z
#    x 1.831550 0.000000 -0.008360 
#    y 0.000000 1.831660 0.000000 
#    z -0.008360 0.000000 1.813500 
# 
# From -- ./inp_files/224647.got.cif
#   From: 2010.06.25/outbox.cif.g09.slc.cpg/sg15_113_cif.got.tgz:224647.got - 2010.06.28 07:06:18.
