data_PCOD8152228
_publ_section_title
;
Structure prediction by ZEFSAII (Michael W. Deem and Ramdas Pophale) SiO2 
 PCOD8152228
Probable space group: C 2/C
;
_chemical_formula_sum "Si O2"
_cell_formula_units_Z 44
_cell_length_a 5.268237
_cell_length_b 28.456399
_cell_length_c 13.897257
_cell_angle_alpha 90.000000
_cell_angle_beta 67.665774
_cell_angle_gamma 90.000000
_cell_volume 1927.116770
_symmetry_space_group_name_H-M "C 2/C"
_symmetry_group_IT_number 15
_symmetry_cell_setting 'monoclinic'
loop_
_space_group_symop_operation_xyz
x,y,z
-x,y,1/2-z
-x,-y,-z
x,-y,1/2+z
1/2+x,1/2+y,z
1/2-x,1/2+y,1/2-z
1/2-x,1/2-y,-z
1/2+x,1/2-y,1/2+z
loop_
_atom_site_type_symbol
_atom_site_label
_atom_site_fract_x
_atom_site_fract_y
_atom_site_fract_z
Si Si1 0.500000 0.195619 0.250000
Si Si2 0.801993 0.854205 0.538336
Si Si3 0.901049 0.332676 0.419634
Si Si4 0.500000 0.755691 0.250000
Si Si5 0.736232 0.461958 0.969948
Si Si6 0.000000 0.408255 0.250000
Si Si7 0.278005 0.011532 0.675900
O O1 0.362677 0.161511 0.345715
O O2 0.276157 0.225964 0.224132
O O3 0.630941 0.840502 0.467600
O O4 0.863931 0.909550 0.537907
O O5 0.092252 0.826843 0.503300
O O6 0.882656 0.377451 0.352663
O O7 0.978001 0.286443 0.349555
O O8 0.969389 0.474649 0.855858
O O9 0.500000 0.500000 0.000000
O O10 0.835173 0.464339 0.064934
O O11 0.763989 0.444375 0.251264
O O12 0.000000 0.984204 0.750000
#
# Coordination Sequence:
#
# PCOD8152228 Si02
#       7
#     4   8   8   4   8   4   8
#     4  12  28  47  72 105 152 183 244 279 376 460
#     4  12  26  47  71 108 141 198 229 303 352 438
#     4  11  25  45  79 101 143 176 247 305 366 414
#     4  11  26  50  74 115 134 185 232 308 370 455
#     4  11  25  43  64 100 145 191 242 291 356 424
#     4  11  22  41  66 106 130 184 244 301 352 419
#     4  11  22  39  66  95 137 184 242 297 345 416
#
# _framework density 22.832034
#
# number of rings (size 3 to 8) (size 9 to 14) (size 15 to 20)
#    0.000    0.727    1.818    5.455    2.545    8.000 
#    1.636    0.000    0.000    0.000    0.000    0.000 
#    0.000    0.000    0.000    0.000    0.000    0.000 
#
# Total GULP energy -272668.037780 kJ/mol
# GULP energy per Si atom -12394.001717 kJ/mol
# Density = 2.278007 g / cm^3
# Si number density = 22.832034 Si / 1000 Ang^3
#
#
#
# Elastic Constant Matrix: (Units=GPa)
#
#
# Indices 1 2 3 4 5 6 
#
# 1 125.2289 38.5147 22.9387 0.0000 -17.9264 0.0000
# 2 38.5147 109.1044 40.6660 0.0000 -2.8955 0.0000
# 3 22.9387 40.6660 108.1225 0.0000 -24.9874 0.0000
# 4 0.0000 0.0000 0.0000 19.6027 0.0000 -3.1492
# 5 -17.9264 -2.8955 -24.9874 0.0000 50.3599 0.0000
# 6 0.0000 0.0000 0.0000 -3.1492 0.0000 26.6531
#
#
#
# Elastic Compliance Matrix: (Units=1/GPa)
#
#
# Indices 1 2 3 4 5 6 
#
# 1 0.009439 -0.003225 -0.000063 0.000000 0.003143 0.000000
# 2 -0.003225 0.011871 -0.004392 0.000000 -0.002645 0.000000
# 3 -0.000063 -0.004392 0.012256 0.000000 0.005806 0.000000
# 4 0.000000 0.000000 0.000000 0.052000 0.000000 0.006144
# 5 0.003143 -0.002645 0.005806 0.000000 0.023705 0.000000
# 6 0.000000 0.000000 0.000000 0.006144 0.000000 0.038245
#
#
# Mechanical properties :
#
#
# Convention : Reuss Voigt Hill
#
# Bulk Modulus (GPa) = 54.92827 60.74384 57.83606
# Shear Modulus (GPa) = 29.59573 35.34558 32.47065
#
# Velocity S-wave (km/s) = 3.60424 3.93882 3.77524
# Velocity P-wave (km/s) = 6.43665 6.88100 6.66253
#
# Compressibility (1/GPa) = 0.01820556
#
# Stress axis : x y z
#
# Youngs Moduli (GPa) = 105.94638 84.24117 81.59470
#
# Poissons Ratio (x) = 0.27168 0.00515
# Poissons Ratio (y) = 0.34168 0.35833
# Poissons Ratio (z) = 0.00669 0.36996
#
# Static dielectric constant tensor:
#      x y z
#    x 4.169650 0.000000 -0.191190 
#    y 0.000000 4.103880 0.000000 
#    z -0.191190 0.000000 3.898230 
# 
# 
# High freq. dielectric constant tensor:
#      x y z
#    x 1.909420 0.000000 -0.002730 
#    y 0.000000 1.896520 0.000000 
#    z -0.002730 0.000000 1.920080 
# 
# From -- ./inp_files/130005.got.cif
#   From: 2010.06.25/outbox.cif.g09.slc.cpg/sg15_66_cif.got.tgz:130005.got - 2010.06.28 07:06:18.
