data_PCOD8152523
_publ_section_title
;
Structure prediction by ZEFSAII (Michael W. Deem and Ramdas Pophale) SiO2 
 PCOD8152523
Probable space group: C 2/C
;
_chemical_formula_sum "Si O2"
_cell_formula_units_Z 48
_cell_length_a 24.076180
_cell_length_b 11.296548
_cell_length_c 8.865389
_cell_angle_alpha 90.000000
_cell_angle_beta 60.854001
_cell_angle_gamma 90.000000
_cell_volume 2105.887254
_symmetry_space_group_name_H-M "C 2/C"
_symmetry_group_IT_number 15
_symmetry_cell_setting 'monoclinic'
loop_
_space_group_symop_operation_xyz
x,y,z
-x,y,1/2-z
-x,-y,-z
x,-y,1/2+z
1/2+x,1/2+y,z
1/2-x,1/2+y,1/2-z
1/2-x,1/2-y,-z
1/2+x,1/2-y,1/2+z
loop_
_atom_site_type_symbol
_atom_site_label
_atom_site_fract_x
_atom_site_fract_y
_atom_site_fract_z
Si Si1 0.571638 0.929293 0.136602
Si Si2 0.957425 0.123886 0.011894
Si Si3 0.883751 0.023599 0.391659
Si Si4 0.182246 0.792512 0.035235
Si Si5 0.390192 0.149729 0.593380
Si Si6 0.410878 0.294285 0.080445
O O1 0.500000 0.977184 0.250000
O O2 0.612361 0.892727 0.229679
O O3 0.562105 0.818252 0.039946
O O4 0.610464 0.033929 0.008438
O O5 0.906731 0.081510 0.205631
O O6 0.951861 0.266141 0.995925
O O7 0.031734 0.110153 0.959271
O O8 0.941121 0.059974 0.876715
O O9 0.865249 0.129267 0.530822
O O10 0.822091 0.936766 0.459346
O O11 0.127523 0.749201 0.224109
O O12 0.250000 0.750000 0.000000
O O13 0.168394 0.732787 0.889433
#
# Coordination Sequence:
#
# PCOD8152523 Si02
#       6
#     8   8   8   8   8   8
#     4  12  23  43  68 107 147 180 225 285 369 440
#     4  11  23  39  69 114 143 178 221 297 380 436
#     4  11  22  42  71 103 147 175 226 295 370 425
#     4  11  28  50  68  96 139 193 249 289 346 420
#     4  11  25  43  70 100 146 186 235 288 356 430
#     4  12  23  42  70 106 145 180 231 297 369 427
#
# _framework density 22.793244999999999
#
# number of rings (size 3 to 8) (size 9 to 14) (size 15 to 20)
#    0.000    0.667    5.000    2.500    4.667    1.333 
#    6.000    0.833    0.000    0.000    0.000    0.000 
#    0.000    0.000    0.000    0.000    0.000    0.000 
#
# Total GULP energy -297424.113197 kJ/mol
# GULP energy per Si atom -12392.671383 kJ/mol
# Density = 2.274137 g / cm^3
# Si number density = 22.793245 Si / 1000 Ang^3
#
#
#
# Elastic Constant Matrix: (Units=GPa)
#
#
# Indices 1 2 3 4 5 6 
#
# 1 115.7204 26.2943 32.9321 0.0000 9.1670 0.0000
# 2 26.2943 96.4723 17.0366 0.0000 7.0285 0.0000
# 3 32.9321 17.0366 71.8143 0.0000 20.4900 0.0000
# 4 0.0000 0.0000 0.0000 45.5648 0.0000 13.0827
# 5 9.1670 7.0285 20.4900 0.0000 28.6934 0.0000
# 6 0.0000 0.0000 0.0000 13.0827 0.0000 38.1532
#
#
#
# Elastic Compliance Matrix: (Units=1/GPa)
#
#
# Indices 1 2 3 4 5 6 
#
# 1 0.010320 -0.002070 -0.004327 0.000000 0.000300 0.000000
# 2 -0.002070 0.011258 -0.001411 0.000000 -0.001089 0.000000
# 3 -0.004327 -0.001411 0.019781 0.000000 -0.012398 0.000000
# 4 0.000000 0.000000 0.000000 0.024343 0.000000 -0.008347
# 5 0.000300 -0.001089 -0.012398 0.000000 0.043875 0.000000
# 6 0.000000 0.000000 0.000000 -0.008347 0.000000 0.029072
#
#
# Mechanical properties :
#
#
# Convention : Reuss Voigt Hill
#
# Bulk Modulus (GPa) = 38.84527 48.50366 43.67446
# Shear Modulus (GPa) = 30.70373 36.33187 33.51780
#
# Velocity S-wave (km/s) = 3.67420 3.99679 3.83889
# Velocity P-wave (km/s) = 5.92277 6.52880 6.23315
#
# Compressibility (1/GPa) = 0.02574316
#
# Stress axis : x y z
#
# Youngs Moduli (GPa) = 96.90391 88.82216 50.55403
#
# Poissons Ratio (x) = 0.18390 0.21873
# Poissons Ratio (y) = 0.20063 0.07132
# Poissons Ratio (z) = 0.41927 0.12530
#
# Static dielectric constant tensor:
#      x y z
#    x 3.780150 0.000000 0.537800 
#    y 0.000000 4.483070 0.000000 
#    z 0.537800 0.000000 4.007560 
# 
# 
# High freq. dielectric constant tensor:
#      x y z
#    x 1.859950 0.000000 0.048910 
#    y 0.000000 1.931050 0.000000 
#    z 0.048910 0.000000 1.887570 
# 
# From -- ./inp_files/60846.got.cif
#   From: 2010.06.25/outbox.cif.g09.slc.cpg/sg15_31_cif.got.tgz:60846.got - 2010.06.28 07:06:18.
