data_PCOD8152568
_publ_section_title
;
Structure prediction by ZEFSAII (Michael W. Deem and Ramdas Pophale) SiO2 
 PCOD8152568
Probable space group: C 2/C
;
_chemical_formula_sum "Si O2"
_cell_formula_units_Z 64
_cell_length_a 13.997305
_cell_length_b 24.373348
_cell_length_c 16.615582
_cell_angle_alpha 90.000000
_cell_angle_beta 32.112973
_cell_angle_gamma 90.000000
_cell_volume 3013.368752
_symmetry_space_group_name_H-M "C 2/C"
_symmetry_group_IT_number 15
_symmetry_cell_setting 'monoclinic'
loop_
_space_group_symop_operation_xyz
x,y,z
-x,y,1/2-z
-x,-y,-z
x,-y,1/2+z
1/2+x,1/2+y,z
1/2-x,1/2+y,1/2-z
1/2-x,1/2-y,-z
1/2+x,1/2-y,1/2+z
loop_
_atom_site_type_symbol
_atom_site_label
_atom_site_fract_x
_atom_site_fract_y
_atom_site_fract_z
Si Si1 0.070041 0.741617 0.458630
Si Si2 0.040836 0.200920 0.310824
Si Si3 0.129928 0.635342 0.922591
Si Si4 0.188105 0.481523 0.077888
Si Si5 0.867830 0.453067 0.563427
Si Si6 0.493056 0.354936 0.079573
Si Si7 0.478903 0.585437 0.106141
Si Si8 0.668622 0.891328 0.578873
O O1 0.254033 0.710189 0.308833
O O2 0.078608 0.761692 0.544933
O O3 0.906457 0.700148 0.558278
O O4 0.045038 0.792812 0.417977
O O5 0.994230 0.136826 0.352994
O O6 0.000000 0.220508 0.250000
O O7 0.320746 0.620462 0.747698
O O8 0.123303 0.614150 0.018008
O O9 0.974445 0.604175 0.984304
O O10 0.211096 0.546243 0.071815
O O11 0.000000 0.461353 0.250000
O O12 0.204401 0.465481 0.973402
O O13 0.347248 0.452948 0.013548
O O14 0.697498 0.449259 0.744569
O O15 0.000000 0.500000 0.500000
O O16 0.543786 0.392999 0.968091
O O17 0.659061 0.354571 0.022776
O O18 0.500000 0.869172 0.750000
#
# Coordination Sequence:
#
# PCOD8152568 Si02
#       8
#     8   8   8   8   8   8   8   8
#     4  11  24  43  68  98 139 171 230 279 341 402
#     4  11  22  43  66 100 133 181 219 277 337 409
#     4  12  24  45  69  99 138 179 228 284 337 412
#     4  11  25  45  66 103 139 179 230 279 341 410
#     4  12  24  41  69  99 137 184 222 282 338 402
#     4  11  26  45  68 102 134 181 227 285 342 401
#     4  11  25  43  70 100 140 178 228 278 340 411
#     4  11  26  44  71  97 134 180 232 285 339 402
#
# _framework density 21.238689000000001
#
# number of rings (size 3 to 8) (size 9 to 14) (size 15 to 20)
#    0.000    0.750    3.750    3.375    5.250    2.000 
#    0.000    0.000    0.000    0.000    0.000    0.000 
#    0.000    0.000    0.000    0.000    0.000    0.000 
#
# Total GULP energy -397062.440368 kJ/mol
# GULP energy per Si atom -12408.201262 kJ/mol
# Density = 2.119035 g / cm^3
# Si number density = 21.238689 Si / 1000 Ang^3
#
#
#
# Elastic Constant Matrix: (Units=GPa)
#
#
# Indices 1 2 3 4 5 6 
#
# 1 55.6427 16.7604 12.3547 -0.0169 -7.3946 0.0070
# 2 16.7604 87.2580 32.5820 -0.0033 -7.7354 0.0003
# 3 12.3547 32.5820 138.5355 0.0289 -8.1748 -0.0163
# 4 -0.0169 -0.0033 0.0289 31.8401 -0.0021 -8.2715
# 5 -7.3946 -7.7354 -8.1748 -0.0021 39.4479 -0.0101
# 6 0.0070 0.0003 -0.0163 -8.2715 -0.0101 22.8910
#
#
#
# Elastic Compliance Matrix: (Units=1/GPa)
#
#
# Indices 1 2 3 4 5 6 
#
# 1 0.019493 -0.003184 -0.000821 0.000011 0.002860 -0.000001
# 2 -0.003184 0.013222 -0.002741 0.000002 0.001428 0.000000
# 3 -0.000821 -0.002741 0.007993 -0.000007 0.000965 0.000004
# 4 0.000011 0.000002 -0.000007 0.034661 0.000006 0.012524
# 5 0.002860 0.001428 0.000965 0.000006 0.026366 0.000014
# 6 -0.000001 0.000000 0.000004 0.012524 0.000014 0.048211
#
#
# Mechanical properties :
#
#
# Convention : Reuss Voigt Hill
#
# Bulk Modulus (GPa) = 36.74363 44.98116 40.86239
# Shear Modulus (GPa) = 28.98367 33.48506 31.23437
#
# Velocity S-wave (km/s) = 3.69814 3.97496 3.83905
# Velocity P-wave (km/s) = 5.96430 6.50322 6.23958
#
# Compressibility (1/GPa) = 0.02721560
#
# Stress axis : x y z
#
# Youngs Moduli (GPa) = 51.29987 75.63079 125.10519
#
# Poissons Ratio (x) = 0.24083 0.10268
# Poissons Ratio (y) = 0.16335 0.34297
# Poissons Ratio (z) = 0.04211 0.20734
#
# Static dielectric constant tensor:
#      x y z
#    x 3.712800 -0.000020 0.025310 
#    y -0.000020 3.850360 0.000050 
#    z 0.025310 0.000050 4.006310 
# 
# 
# High freq. dielectric constant tensor:
#      x y z
#    x 1.831870 0.000000 0.001470 
#    y 0.000000 1.835060 0.000010 
#    z 0.001470 0.000010 1.850000 
# 
# From -- ./inp_files/207308.got.cif
#   From: 2010.06.25/outbox.cif.g09.slc.cpg/sg15_104_cif.got.tgz:207308.got - 2010.06.28 07:06:18.
