data_PCOD8152338
_publ_section_title
;
Structure prediction by ZEFSAII (Michael W. Deem and Ramdas Pophale) SiO2 
 PCOD8152338
Probable space group: C 2/C
;
_chemical_formula_sum "Si O2"
_cell_formula_units_Z 48
_cell_length_a 9.094507
_cell_length_b 19.356266
_cell_length_c 12.692556
_cell_angle_alpha 90.000000
_cell_angle_beta 96.786295
_cell_angle_gamma 90.000000
_cell_volume 2218.688688
_symmetry_space_group_name_H-M "C 2/C"
_symmetry_group_IT_number 15
_symmetry_cell_setting 'monoclinic'
loop_
_space_group_symop_operation_xyz
x,y,z
-x,y,1/2-z
-x,-y,-z
x,-y,1/2+z
1/2+x,1/2+y,z
1/2-x,1/2+y,1/2-z
1/2-x,1/2-y,-z
1/2+x,1/2-y,1/2+z
loop_
_atom_site_type_symbol
_atom_site_label
_atom_site_fract_x
_atom_site_fract_y
_atom_site_fract_z
Si Si1 0.173557 0.569826 0.275282
Si Si2 0.651942 0.713425 0.704394
Si Si3 0.672580 0.566431 0.776045
Si Si4 0.354051 0.321793 0.692264
Si Si5 0.235105 0.362588 0.006350
Si Si6 0.006407 0.244707 0.008107
O O1 0.230488 0.492257 0.269610
O O2 0.238563 0.614452 0.181736
O O3 0.220565 0.600170 0.392658
O O4 0.000000 0.570478 0.250000
O O5 0.500000 0.723270 0.750000
O O6 0.704247 0.634650 0.708905
O O7 0.781561 0.762647 0.764090
O O8 0.624097 0.747686 0.588888
O O9 0.500000 0.546389 0.750000
O O10 0.726650 0.580395 0.900723
O O11 0.500000 0.357192 0.750000
O O12 0.407635 0.280067 0.596076
O O13 0.374954 0.312052 0.017874
O O14 0.086735 0.319482 0.025593
#
# Coordination Sequence:
#
# PCOD8152338 Si02
#       6
#     8   8   8   8   8   8
#     4  12  28  46  67  99 141 188 231 290 348 407
#     4  11  22  42  67  99 139 178 229 282 348 406
#     4  11  25  44  69 101 135 186 232 280 345 411
#     4  12  23  38  67 101 132 177 235 281 339 411
#     4  11  23  45  71 101 142 179 230 291 343 405
#     4  11  22  40  69 106 134 176 228 288 345 407
#
# _framework density 21.634401
#
# number of rings (size 3 to 8) (size 9 to 14) (size 15 to 20)
#    0.000    0.667    5.000    4.500    0.000    4.667 
#    0.000    0.000    0.000    0.000    0.000    0.000 
#    0.000    0.000    0.000    0.000    0.000    0.000 
#
# Total GULP energy -297314.750628 kJ/mol
# GULP energy per Si atom -12388.114609 kJ/mol
# Density = 2.158516 g / cm^3
# Si number density = 21.634401 Si / 1000 Ang^3
#
#
#
# Elastic Constant Matrix: (Units=GPa)
#
#
# Indices 1 2 3 4 5 6 
#
# 1 134.0348 70.6089 27.1584 0.0000 -6.3437 0.0000
# 2 70.6089 100.3372 31.6006 0.0000 -18.3255 0.0000
# 3 27.1584 31.6006 88.9427 0.0000 0.9442 0.0000
# 4 0.0000 0.0000 0.0000 33.5503 0.0000 -9.3153
# 5 -6.3437 -18.3255 0.9442 0.0000 28.3239 0.0000
# 6 0.0000 0.0000 0.0000 -9.3153 0.0000 42.6780
#
#
#
# Elastic Compliance Matrix: (Units=1/GPa)
#
#
# Indices 1 2 3 4 5 6 
#
# 1 0.012122 -0.008930 -0.000496 0.000000 -0.003046 0.000000
# 2 -0.008930 0.019598 -0.004351 0.000000 0.010825 0.000000
# 3 -0.000496 -0.004351 0.012976 0.000000 -0.003359 0.000000
# 4 0.000000 0.000000 0.000000 0.031729 0.000000 0.006925
# 5 -0.003046 0.010825 -0.003359 0.000000 0.041739 0.000000
# 6 0.000000 0.000000 0.000000 0.006925 0.000000 0.024943
#
#
# Mechanical properties :
#
#
# Convention : Reuss Voigt Hill
#
# Bulk Modulus (GPa) = 58.33981 64.67227 61.50604
# Shear Modulus (GPa) = 28.34860 33.84021 31.09441
#
# Velocity S-wave (km/s) = 3.62380 3.95927 3.79524
# Velocity P-wave (km/s) = 6.67338 7.13157 6.90627
#
# Compressibility (1/GPa) = 0.01714095
#
# Stress axis : x y z
#
# Youngs Moduli (GPa) = 82.49803 51.02517 77.06380
#
# Poissons Ratio (x) = 0.45567 0.03823
# Poissons Ratio (y) = 0.73673 0.33532
# Poissons Ratio (z) = 0.04093 0.22202
#
# Static dielectric constant tensor:
#      x y z
#    x 4.489500 0.000000 0.115560 
#    y 0.000000 4.022070 0.000000 
#    z 0.115560 0.000000 4.578410 
# 
# 
# High freq. dielectric constant tensor:
#      x y z
#    x 1.875750 0.000000 0.005350 
#    y 0.000000 1.844820 0.000000 
#    z 0.005350 0.000000 1.843850 
# 
# From -- ./inp_files/79255.got.cif
#   From: 2010.06.25/outbox.cif.g09.slc.cpg/sg15_40_cif.got.tgz:79255.got - 2010.06.28 07:06:18.
