data_PCOD8152101
_publ_section_title
;
Structure prediction by ZEFSAII (Michael W. Deem and Ramdas Pophale) SiO2 
 PCOD8152101
Probable space group: C 2/C
;
_chemical_formula_sum "Si O2"
_cell_formula_units_Z 40
_cell_length_a 16.260930
_cell_length_b 23.705990
_cell_length_c 4.913327
_cell_angle_alpha 90.000000
_cell_angle_beta 86.143184
_cell_angle_gamma 90.000000
_cell_volume 1889.706975
_symmetry_space_group_name_H-M "C 2/C"
_symmetry_group_IT_number 15
_symmetry_cell_setting 'monoclinic'
loop_
_space_group_symop_operation_xyz
x,y,z
-x,y,1/2-z
-x,-y,-z
x,-y,1/2+z
1/2+x,1/2+y,z
1/2-x,1/2+y,1/2-z
1/2-x,1/2-y,-z
1/2+x,1/2-y,1/2+z
loop_
_atom_site_type_symbol
_atom_site_label
_atom_site_fract_x
_atom_site_fract_y
_atom_site_fract_z
Si Si1 0.313995 0.847297 0.335861
Si Si2 0.089623 0.887576 0.648680
Si Si3 0.594427 0.195116 0.172387
Si Si4 0.235098 0.038241 0.947908
Si Si5 0.362466 0.319865 0.344162
O O1 0.351340 0.810588 0.569669
O O2 0.299483 0.910286 0.454178
O O3 0.229897 0.818487 0.252665
O O4 0.377172 0.847795 0.069462
O O5 0.142410 0.939040 0.514719
O O6 0.077972 0.841125 0.413035
O O7 0.000000 0.910586 0.750000
O O8 0.136465 0.861639 0.898255
O O9 0.500000 0.181156 0.250000
O O10 0.607021 0.258960 0.064085
O O11 0.250173 0.012666 0.648728
#
# Coordination Sequence:
#
# PCOD8152101 Si02
#       5
#     8   8   8   8   8
#     4  11  23  41  62  88 120 157 204 245 287 358
#     4  11  22  37  59  92 129 158 195 241 287 351
#     4  12  23  38  63  93 125 156 192 243 299 353
#     4  11  23  41  63  84 112 159 207 251 301 345
#     4  11  22  39  61  90 127 167 194 223 288 364
#
# _framework density 21.167301999999999
#
# number of rings (size 3 to 8) (size 9 to 14) (size 15 to 20)
#    0.000    0.800    0.000   10.800    0.000    0.800 
#    0.000    0.000    0.000   12.000    0.000    0.000 
#    0.000    0.000    0.000    0.000    0.000    0.000 
#
# Total GULP energy -248094.637666 kJ/mol
# GULP energy per Si atom -12404.731883 kJ/mol
# Density = 2.111912 g / cm^3
# Si number density = 21.167302 Si / 1000 Ang^3
#
#
#
# Elastic Constant Matrix: (Units=GPa)
#
#
# Indices 1 2 3 4 5 6 
#
# 1 49.9161 34.4197 21.3466 0.0000 -14.7834 0.0000
# 2 34.4197 79.7865 26.6421 0.0000 -11.7487 0.0000
# 3 21.3466 26.6421 113.6783 0.0000 -7.1502 0.0000
# 4 0.0000 0.0000 0.0000 43.0031 0.0000 -3.3780
# 5 -14.7834 -11.7487 -7.1502 0.0000 43.1677 0.0000
# 6 0.0000 0.0000 0.0000 -3.3780 0.0000 12.8255
#
#
#
# Elastic Compliance Matrix: (Units=1/GPa)
#
#
# Indices 1 2 3 4 5 6 
#
# 1 0.031252 -0.011526 -0.002720 0.000000 0.007115 0.000000
# 2 -0.011526 0.018302 -0.002082 0.000000 0.000689 0.000000
# 3 -0.002720 -0.002082 0.009803 0.000000 0.000126 0.000000
# 4 0.000000 0.000000 0.000000 0.023745 0.000000 0.006254
# 5 0.007115 0.000689 0.000126 0.000000 0.025811 0.000000
# 6 0.000000 0.000000 0.000000 0.006254 0.000000 0.079617
#
#
# Mechanical properties :
#
#
# Convention : Reuss Voigt Hill
#
# Bulk Modulus (GPa) = 37.44960 45.35529 41.40244
# Shear Modulus (GPa) = 21.73101 30.53076 26.13089
#
# Velocity S-wave (km/s) = 3.20758 3.80195 3.51735
# Velocity P-wave (km/s) = 5.60792 6.38332 6.00814
#
# Compressibility (1/GPa) = 0.02670256
#
# Stress axis : x y z
#
# Youngs Moduli (GPa) = 31.99817 54.63777 102.00711
#
# Poissons Ratio (x) = 0.62976 0.27742
# Poissons Ratio (y) = 0.36881 0.21235
# Poissons Ratio (z) = 0.08702 0.11374
#
# Static dielectric constant tensor:
#      x y z
#    x 3.724150 0.000000 -0.136560 
#    y 0.000000 3.670760 0.000000 
#    z -0.136560 0.000000 4.101850 
# 
# 
# High freq. dielectric constant tensor:
#      x y z
#    x 1.818660 0.000000 -0.005660 
#    y 0.000000 1.816670 0.000000 
#    z -0.005660 0.000000 1.855880 
# 
# From -- ./inp_files/10165.got.cif
#   From: 2010.06.25/outbox.cif.g09.slc.cpg/sg15_6_cif.got.tgz:10165.got - 2010.06.28 07:06:18.
