data_PCOD8152977
_publ_section_title
;
Structure prediction by ZEFSAII (Michael W. Deem and Ramdas Pophale) SiO2 
 PCOD8152977
Probable space group: C 2/C
;
_chemical_formula_sum "Si O2"
_cell_formula_units_Z 52
_cell_length_a 14.902719
_cell_length_b 17.812286
_cell_length_c 9.574377
_cell_angle_alpha 90.000000
_cell_angle_beta 94.093203
_cell_angle_gamma 90.000000
_cell_volume 2535.049874
_symmetry_space_group_name_H-M "C 2/C"
_symmetry_group_IT_number 15
_symmetry_cell_setting 'monoclinic'
loop_
_space_group_symop_operation_xyz
x,y,z
-x,y,1/2-z
-x,-y,-z
x,-y,1/2+z
1/2+x,1/2+y,z
1/2-x,1/2+y,1/2-z
1/2-x,1/2-y,-z
1/2+x,1/2-y,1/2+z
loop_
_atom_site_type_symbol
_atom_site_label
_atom_site_fract_x
_atom_site_fract_y
_atom_site_fract_z
Si Si1 0.000000 0.187616 0.750000
Si Si2 0.964387 0.310636 0.545038
Si Si3 0.318889 0.203724 0.803927
Si Si4 0.234104 0.997117 0.575195
Si Si5 0.641471 0.127537 0.977432
Si Si6 0.200120 0.346810 0.782668
Si Si7 0.670947 0.413387 0.314557
O O1 0.019391 0.239407 0.615399
O O2 0.916224 0.137935 0.694143
O O3 0.910373 0.288568 0.400392
O O4 0.898480 0.339529 0.659803
O O5 0.035603 0.374236 0.505325
O O6 0.341168 0.187187 0.644840
O O7 0.264395 0.278836 0.831086
O O8 0.260248 0.134952 0.857277
O O9 0.326279 0.042615 0.551947
O O10 0.171536 0.050198 0.661923
O O11 0.257191 0.924270 0.665732
O O12 0.173250 0.977387 0.433666
O O13 0.696915 0.156355 0.115815
#
# Coordination Sequence:
#
# PCOD8152977 Si02
#       7
#     4   8   8   8   8   8   8
#     4  12  24  40  72  94 128 168 230 274 312 384
#     4  12  22  41  66 103 128 166 219 275 322 381
#     4  11  23  41  69  94 132 172 217 269 324 390
#     4  11  24  42  66  94 131 178 213 261 334 397
#     4  11  24  41  63 100 136 166 217 272 324 384
#     4  12  21  42  69  93 126 179 219 260 326 390
#     4  11  23  44  65  95 131 173 219 267 326 389
#
# _framework density 20.512418
#
# number of rings (size 3 to 8) (size 9 to 14) (size 15 to 20)
#    0.000    0.615    6.154    2.308    0.000    2.462 
#    0.000    1.538    0.000    0.000    0.000    0.000 
#    0.000    0.000    0.000    0.000    0.000    0.000 
#
# Total GULP energy -322389.941576 kJ/mol
# GULP energy per Si atom -12399.613138 kJ/mol
# Density = 2.046573 g / cm^3
# Si number density = 20.512418 Si / 1000 Ang^3
#
#
#
# Elastic Constant Matrix: (Units=GPa)
#
#
# Indices 1 2 3 4 5 6 
#
# 1 56.7358 20.7987 39.3602 0.0000 6.2279 0.0000
# 2 20.7987 89.4163 38.1775 0.0000 0.1329 0.0000
# 3 39.3602 38.1775 123.2859 0.0000 5.8022 0.0000
# 4 0.0000 0.0000 0.0000 33.7454 0.0000 7.7718
# 5 6.2279 0.1329 5.8022 0.0000 31.7377 0.0000
# 6 0.0000 0.0000 0.0000 7.7718 0.0000 36.6544
#
#
#
# Elastic Compliance Matrix: (Units=1/GPa)
#
#
# Indices 1 2 3 4 5 6 
#
# 1 0.023500 -0.002681 -0.006512 0.000000 -0.003410 0.000000
# 2 -0.002681 0.013208 -0.003285 0.000000 0.001071 0.000000
# 3 -0.006512 -0.003285 0.011243 0.000000 -0.000764 0.000000
# 4 0.000000 0.000000 0.000000 0.031155 0.000000 -0.006606
# 5 -0.003410 0.001071 -0.000764 0.000000 0.032313 0.000000
# 6 0.000000 0.000000 0.000000 -0.006606 0.000000 0.028682
#
#
# Mechanical properties :
#
#
# Convention : Reuss Voigt Hill
#
# Bulk Modulus (GPa) = 43.48450 51.79008 47.63729
# Shear Modulus (GPa) = 28.94819 31.83426 30.39123
#
# Velocity S-wave (km/s) = 3.76074 3.94375 3.85333
# Velocity P-wave (km/s) = 6.33267 6.78532 6.56290
#
# Compressibility (1/GPa) = 0.02299670
#
# Stress axis : x y z
#
# Youngs Moduli (GPa) = 42.55259 75.71146 88.94134
#
# Poissons Ratio (x) = 0.20297 0.57919
# Poissons Ratio (y) = 0.11408 0.29214
# Poissons Ratio (z) = 0.27711 0.24868
#
# Static dielectric constant tensor:
#      x y z
#    x 3.551340 0.000000 -0.023900 
#    y 0.000000 3.773780 0.000000 
#    z -0.023900 0.000000 3.951880 
# 
# 
# High freq. dielectric constant tensor:
#      x y z
#    x 1.786570 0.000000 0.003400 
#    y 0.000000 1.799920 0.000000 
#    z 0.003400 0.000000 1.826630 
# 
# From -- ./inp_files/48598.got.cif
#   From: 2010.06.25/outbox.cif.g09.slc.cpg/sg15_25_cif.got.tgz:48598.got - 2010.06.28 07:06:18.
