data_PCOD8152189
_publ_section_title
;
Structure prediction by ZEFSAII (Michael W. Deem and Ramdas Pophale) SiO2 
 PCOD8152189
Probable space group: C 2/C
;
_chemical_formula_sum "Si O2"
_cell_formula_units_Z 48
_cell_length_a 10.885721
_cell_length_b 11.767477
_cell_length_c 17.399732
_cell_angle_alpha 90.000000
_cell_angle_beta 77.396537
_cell_angle_gamma 90.000000
_cell_volume 2175.154077
_symmetry_space_group_name_H-M "C 2/C"
_symmetry_group_IT_number 15
_symmetry_cell_setting 'monoclinic'
loop_
_space_group_symop_operation_xyz
x,y,z
-x,y,1/2-z
-x,-y,-z
x,-y,1/2+z
1/2+x,1/2+y,z
1/2-x,1/2+y,1/2-z
1/2-x,1/2-y,-z
1/2+x,1/2-y,1/2+z
loop_
_atom_site_type_symbol
_atom_site_label
_atom_site_fract_x
_atom_site_fract_y
_atom_site_fract_z
Si Si1 0.215424 0.747220 0.876030
Si Si2 0.540186 0.572615 0.330795
Si Si3 0.128577 0.849614 0.276544
Si Si4 0.173181 0.906622 0.528990
Si Si5 0.642329 0.895349 0.530907
Si Si6 0.387631 0.217142 0.073817
O O1 0.094297 0.817376 0.866083
O O2 0.259486 0.675844 0.796732
O O3 0.323459 0.827711 0.896179
O O4 0.184226 0.659393 0.946124
O O5 0.500000 0.607484 0.250000
O O6 0.646374 0.472600 0.315395
O O7 0.424057 0.528602 0.400891
O O8 0.113743 0.745930 0.336481
O O9 0.000000 0.868182 0.250000
O O10 0.247410 0.820864 0.573640
O O11 0.090713 0.833814 0.478256
O O12 0.281289 0.985728 0.474550
O O13 0.488966 0.886515 0.547478
#
# Coordination Sequence:
#
# PCOD8152189 Si02
#       6
#     8   8   8   8   8   8
#     4  11  23  39  65  96 126 165 216 272 325 385
#     4  11  23  40  65  94 130 170 215 268 328 401
#     4  11  22  39  62  91 125 166 212 265 329 386
#     4  11  24  41  66  96 129 173 220 264 340 394
#     4  11  22  40  66  96 129 168 220 274 321 399
#     4  11  23  42  65  94 133 170 215 277 323 398
#
# _framework density 22.067402000000001
#
# number of rings (size 3 to 8) (size 9 to 14) (size 15 to 20)
#    0.000    1.000    3.333    4.500    2.333    1.333 
#    0.000    0.000    0.000    0.000    0.000    0.000 
#    0.000    0.000    0.000    0.000    0.000    0.000 
#
# Total GULP energy -297382.611116 kJ/mol
# GULP energy per Si atom -12390.942130 kJ/mol
# Density = 2.201718 g / cm^3
# Si number density = 22.067402 Si / 1000 Ang^3
#
#
#
# Elastic Constant Matrix: (Units=GPa)
#
#
# Indices 1 2 3 4 5 6 
#
# 1 66.5724 11.2149 27.7976 0.0000 -10.6960 0.0000
# 2 11.2149 78.4056 32.1081 0.0000 -10.5238 0.0000
# 3 27.7976 32.1081 99.9597 0.0000 -1.9582 0.0000
# 4 0.0000 0.0000 0.0000 28.3003 0.0000 -2.9784
# 5 -10.6960 -10.5238 -1.9582 0.0000 16.4240 0.0000
# 6 0.0000 0.0000 0.0000 -2.9784 0.0000 43.5877
#
#
#
# Elastic Compliance Matrix: (Units=1/GPa)
#
#
# Indices 1 2 3 4 5 6 
#
# 1 0.019115 0.001183 -0.005450 0.000000 0.012557 0.000000
# 2 0.001183 0.016172 -0.005318 0.000000 0.010499 0.000000
# 3 -0.005450 -0.005318 0.013122 0.000000 -0.005392 0.000000
# 4 0.000000 0.000000 0.000000 0.035591 0.000000 0.002432
# 5 0.012557 0.010499 -0.005392 0.000000 0.075148 0.000000
# 6 0.000000 0.000000 0.000000 0.002432 0.000000 0.023108
#
#
# Mechanical properties :
#
#
# Convention : Reuss Voigt Hill
#
# Bulk Modulus (GPa) = 34.20006 43.01989 38.60997
# Shear Modulus (GPa) = 23.67735 29.25020 26.46378
#
# Velocity S-wave (km/s) = 3.27915 3.64468 3.46674
# Velocity P-wave (km/s) = 5.46523 6.10317 5.79299
#
# Compressibility (1/GPa) = 0.02923972
#
# Stress axis : x y z
#
# Youngs Moduli (GPa) = 52.31507 61.83579 76.20773
#
# Poissons Ratio (x) = -0.07315 0.41530
# Poissons Ratio (y) = -0.06188 0.40526
# Poissons Ratio (z) = 0.28510 0.32883
#
# Static dielectric constant tensor:
#      x y z
#    x 4.013760 0.000000 0.116310 
#    y 0.000000 4.011800 0.000000 
#    z 0.116310 0.000000 4.127990 
# 
# 
# High freq. dielectric constant tensor:
#      x y z
#    x 1.862520 0.000000 0.011040 
#    y 0.000000 1.859190 0.000000 
#    z 0.011040 0.000000 1.877500 
# 
# From -- ./inp_files/196495.got.cif
#   From: 2010.06.25/outbox.cif.g09.slc.cpg/sg15_99_cif.got.tgz:196495.got - 2010.06.28 07:06:18.
