data_PCOD8152453
_publ_section_title
;
Structure prediction by ZEFSAII (Michael W. Deem and Ramdas Pophale) SiO2 
 PCOD8152453
Probable space group: C 2/C
;
_chemical_formula_sum "Si O2"
_cell_formula_units_Z 44
_cell_length_a 18.278768
_cell_length_b 23.871125
_cell_length_c 5.026393
_cell_angle_alpha 90.000000
_cell_angle_beta 73.796612
_cell_angle_gamma 90.000000
_cell_volume 2106.070287
_symmetry_space_group_name_H-M "C 2/C"
_symmetry_group_IT_number 15
_symmetry_cell_setting 'monoclinic'
loop_
_space_group_symop_operation_xyz
x,y,z
-x,y,1/2-z
-x,-y,-z
x,-y,1/2+z
1/2+x,1/2+y,z
1/2-x,1/2+y,1/2-z
1/2-x,1/2-y,-z
1/2+x,1/2-y,1/2+z
loop_
_atom_site_type_symbol
_atom_site_label
_atom_site_fract_x
_atom_site_fract_y
_atom_site_fract_z
Si Si1 0.320629 0.323398 0.484893
Si Si2 0.500000 0.539462 0.250000
Si Si3 0.847905 0.893530 0.959524
Si Si4 0.697774 0.963223 0.120103
Si Si5 0.355141 0.200141 0.352491
Si Si6 0.912871 0.639648 0.792451
O O1 0.332668 0.341942 0.775984
O O2 0.366449 0.266079 0.390376
O O3 0.231972 0.316414 0.511080
O O4 0.352298 0.370651 0.254921
O O5 0.500000 0.500000 0.500000
O O6 0.572919 0.578662 0.191893
O O7 0.782095 0.939304 0.994764
O O8 0.635415 0.916432 0.122692
O O9 0.686358 0.985352 0.430006
O O10 0.405784 0.164971 0.505955
O O11 0.382794 0.186327 0.028261
O O12 0.000000 0.623530 0.750000
#
# Coordination Sequence:
#
# PCOD8152453 Si02
#       6
#     8   4   8   8   8   8
#     4  11  22  41  73  96 130 172 215 273 317 394
#     4  12  26  46  66  96 136 180 218 278 340 378
#     4  12  23  44  67  99 131 168 224 270 328 392
#     4  12  24  41  67  94 123 170 221 268 317 383
#     4  11  22  44  67  99 131 171 218 261 331 386
#     4  12  25  44  65  97 138 172 215 270 323 392
#
# _framework density 20.891988999999999
#
# number of rings (size 3 to 8) (size 9 to 14) (size 15 to 20)
#    0.000    0.364    3.636    6.000    0.000    3.636 
#    9.818    0.000    0.000    0.000    0.000    0.000 
#    0.000    0.000    0.000    0.000    0.000    0.000 
#
# Total GULP energy -273020.044131 kJ/mol
# GULP energy per Si atom -12410.002006 kJ/mol
# Density = 2.084444 g / cm^3
# Si number density = 20.891989 Si / 1000 Ang^3
#
#
#
# Elastic Constant Matrix: (Units=GPa)
#
#
# Indices 1 2 3 4 5 6 
#
# 1 119.5043 35.1515 8.7908 0.0000 -12.5924 0.0000
# 2 35.1515 85.4766 18.8913 0.0000 -2.8401 0.0000
# 3 8.7908 18.8913 82.0796 0.0000 6.0079 0.0000
# 4 0.0000 0.0000 0.0000 48.8880 0.0000 10.6737
# 5 -12.5924 -2.8401 6.0079 0.0000 34.5316 0.0000
# 6 0.0000 0.0000 0.0000 10.6737 0.0000 5.7056
#
#
#
# Elastic Compliance Matrix: (Units=1/GPa)
#
#
# Indices 1 2 3 4 5 6 
#
# 1 0.009889 -0.003863 -0.000416 0.000000 0.003361 0.000000
# 2 -0.003863 0.013915 -0.002805 0.000000 0.000224 0.000000
# 3 -0.000416 -0.002805 0.013068 0.000000 -0.002656 0.000000
# 4 0.000000 0.000000 0.000000 0.034578 0.000000 -0.064687
# 5 0.003361 0.000224 -0.002656 0.000000 0.030665 0.000000
# 6 0.000000 0.000000 0.000000 -0.064687 0.000000 0.296281
#
#
# Mechanical properties :
#
#
# Convention : Reuss Voigt Hill
#
# Bulk Modulus (GPa) = 44.04665 45.85862 44.95264
# Shear Modulus (GPa) = 11.90099 32.77349 22.33724
#
# Velocity S-wave (km/s) = 2.38931 3.96499 3.27337
# Velocity P-wave (km/s) = 5.36102 6.55435 5.98749
#
# Compressibility (1/GPa) = 0.02270320
#
# Stress axis : x y z
#
# Youngs Moduli (GPa) = 101.12299 71.86369 76.52320
#
# Poissons Ratio (x) = 0.27762 0.03183
# Poissons Ratio (y) = 0.39065 0.21467
# Poissons Ratio (z) = 0.04207 0.20160
#
# Static dielectric constant tensor:
#      x y z
#    x 3.771210 0.000000 0.086260 
#    y 0.000000 3.878000 0.000000 
#    z 0.086260 0.000000 3.828080 
# 
# 
# High freq. dielectric constant tensor:
#      x y z
#    x 1.818280 0.000000 0.006950 
#    y 0.000000 1.828570 0.000000 
#    z 0.006950 0.000000 1.833650 
# 
# From -- ./inp_files/10298.got.cif
#   From: 2010.06.25/outbox.cif.g09.slc.cpg/sg15_6_cif.got.tgz:10298.got - 2010.06.28 07:06:18.
