data_PCOD8152959
_publ_section_title
;
Structure prediction by ZEFSAII (Michael W. Deem and Ramdas Pophale) SiO2 
 PCOD8152959
Probable space group: C 2/C
;
_chemical_formula_sum "Si O2"
_cell_formula_units_Z 36
_cell_length_a 10.088848
_cell_length_b 23.645877
_cell_length_c 9.226917
_cell_angle_alpha 90.000000
_cell_angle_beta 48.575856
_cell_angle_gamma 90.000000
_cell_volume 1650.508562
_symmetry_space_group_name_H-M "C 2/C"
_symmetry_group_IT_number 15
_symmetry_cell_setting 'monoclinic'
loop_
_space_group_symop_operation_xyz
x,y,z
-x,y,1/2-z
-x,-y,-z
x,-y,1/2+z
1/2+x,1/2+y,z
1/2-x,1/2+y,1/2-z
1/2-x,1/2-y,-z
1/2+x,1/2-y,1/2+z
loop_
_atom_site_type_symbol
_atom_site_label
_atom_site_fract_x
_atom_site_fract_y
_atom_site_fract_z
Si Si1 0.500000 0.075377 0.250000
Si Si2 0.422850 0.627440 0.647489
Si Si3 0.205626 0.687638 0.582016
Si Si4 0.751500 0.396044 0.707877
Si Si5 0.704223 0.480715 0.141522
O O1 0.570332 0.116662 0.327897
O O2 0.331909 0.036555 0.416234
O O3 0.500000 0.644773 0.750000
O O4 0.305872 0.677361 0.662141
O O5 0.582116 0.613965 0.426968
O O6 0.296997 0.571988 0.745517
O O7 0.250000 0.750000 0.500000
O O8 0.269942 0.642279 0.417562
O O9 0.000000 0.680066 0.750000
O O10 0.778795 0.461932 0.651790
O O11 0.500000 0.490664 0.250000
#
# Coordination Sequence:
#
# PCOD8152959 Si02
#       5
#     4   8   8   8   8
#     4  12  24  40  64 110 140 196 244 294 358 448
#     4  11  23  47  74 104 147 191 237 297 367 427
#     4  12  28  50  74 107 141 192 248 302 362 431
#     4  12  25  43  73 101 151 187 247 296 368 424
#     4  11  23  41  67 103 149 191 238 297 366 426
#
# _framework density 21.811458999999999
#
# number of rings (size 3 to 8) (size 9 to 14) (size 15 to 20)
#    0.000    0.444    4.444    6.000    4.667    0.000 
#    2.000    2.222    0.000    0.000    0.000    0.000 
#    0.000    0.000    0.000    0.000    0.000    0.000 
#
# Total GULP energy -223132.506903 kJ/mol
# GULP energy per Si atom -12396.250383 kJ/mol
# Density = 2.176181 g / cm^3
# Si number density = 21.811459 Si / 1000 Ang^3
#
#
#
# Elastic Constant Matrix: (Units=GPa)
#
#
# Indices 1 2 3 4 5 6 
#
# 1 129.3065 63.0540 43.2516 0.0000 15.8082 0.0000
# 2 63.0540 133.5179 43.5018 0.0000 19.6953 0.0000
# 3 43.2516 43.5018 145.6824 0.0000 -4.6514 0.0000
# 4 0.0000 0.0000 0.0000 17.5574 0.0000 3.9094
# 5 15.8082 19.6953 -4.6514 0.0000 39.6534 0.0000
# 6 0.0000 0.0000 0.0000 3.9094 0.0000 26.1161
#
#
#
# Elastic Compliance Matrix: (Units=1/GPa)
#
#
# Indices 1 2 3 4 5 6 
#
# 1 0.010680 -0.004004 -0.002055 0.000000 -0.002510 0.000000
# 2 -0.004004 0.010652 -0.002118 0.000000 -0.003943 0.000000
# 3 -0.002055 -0.002118 0.008197 0.000000 0.002833 0.000000
# 4 0.000000 0.000000 0.000000 0.058920 0.000000 -0.008820
# 5 -0.002510 -0.003943 0.002833 0.000000 0.028510 0.000000
# 6 0.000000 0.000000 0.000000 -0.008820 0.000000 0.039611
#
#
# Mechanical properties :
#
#
# Convention : Reuss Voigt Hill
#
# Bulk Modulus (GPa) = 75.89946 78.68017 77.28981
# Shear Modulus (GPa) = 28.19809 33.91204 31.05506
#
# Velocity S-wave (km/s) = 3.59947 3.94735 3.77742
# Velocity P-wave (km/s) = 7.22139 7.54497 7.38495
#
# Compressibility (1/GPa) = 0.01317532
#
# Stress axis : x y z
#
# Youngs Moduli (GPa) = 93.62964 93.87766 121.98991
#
# Poissons Ratio (x) = 0.37587 0.25075
# Poissons Ratio (y) = 0.37488 0.25838
# Poissons Ratio (z) = 0.19245 0.19883
#
# Static dielectric constant tensor:
#      x y z
#    x 3.970850 0.000000 -0.453200 
#    y 0.000000 3.828740 0.000000 
#    z -0.453200 0.000000 3.602590 
# 
# 
# High freq. dielectric constant tensor:
#      x y z
#    x 1.875570 0.000000 -0.006680 
#    y 0.000000 1.827540 0.000000 
#    z -0.006680 0.000000 1.878370 
# 
# From -- ./inp_files/31698.got.cif
#   From: 2010.06.25/outbox.cif.g09.slc.cpg/sg15_16_cif.got.tgz:31698.got - 2010.06.28 07:06:18.
