data_PCOD8152279
_publ_section_title
;
Structure prediction by ZEFSAII (Michael W. Deem and Ramdas Pophale) SiO2 
 PCOD8152279
Probable space group: C 2/C
;
_chemical_formula_sum "Si O2"
_cell_formula_units_Z 52
_cell_length_a 30.202867
_cell_length_b 8.437275
_cell_length_c 13.636621
_cell_angle_alpha 90.000000
_cell_angle_beta 44.531666
_cell_angle_gamma 90.000000
_cell_volume 2437.042263
_symmetry_space_group_name_H-M "C 2/C"
_symmetry_group_IT_number 15
_symmetry_cell_setting 'monoclinic'
loop_
_space_group_symop_operation_xyz
x,y,z
-x,y,1/2-z
-x,-y,-z
x,-y,1/2+z
1/2+x,1/2+y,z
1/2-x,1/2+y,1/2-z
1/2-x,1/2-y,-z
1/2+x,1/2-y,1/2+z
loop_
_atom_site_type_symbol
_atom_site_label
_atom_site_fract_x
_atom_site_fract_y
_atom_site_fract_z
Si Si1 0.907159 0.089765 0.543615
Si Si2 0.177803 0.818960 0.760056
Si Si3 0.500000 0.555609 0.750000
Si Si4 0.092020 0.776672 0.250280
Si Si5 0.844902 0.533701 0.834427
Si Si6 0.791866 0.973606 0.471828
Si Si7 0.685887 0.244508 0.432012
O O1 0.931294 0.135235 0.614078
O O2 0.862743 0.239066 0.581912
O O3 0.871474 0.919820 0.599773
O O4 0.965114 0.065687 0.378454
O O5 0.144303 0.660674 0.770370
O O6 0.242304 0.785369 0.720296
O O7 0.203972 0.914795 0.628078
O O8 0.454468 0.672660 0.762589
O O9 0.095230 0.585794 0.256960
O O10 0.163744 0.821980 0.107717
O O11 0.782235 0.432512 0.903695
O O12 0.838810 0.616339 0.950538
O O13 0.816446 0.077116 0.523150
#
# Coordination Sequence:
#
# PCOD8152279 Si02
#       7
#     8   8   4   8   8   8   8
#     4  11  23  42  66  90 120 178 218 246 305 384
#     4   8  18  35  61  93 130 153 203 259 310 376
#     4  12  26  46  62  82 128 174 226 254 286 386
#     4  11  22  40  64  91 120 167 219 254 313 367
#     4   9  18  36  64  96 131 152 195 274 327 360
#     4   8  15  34  62  92 124 164 196 248 319 379
#     4   9  17  36  62  96 127 160 197 257 323 365
#
# _framework density 21.337339
#
# number of rings (size 3 to 8) (size 9 to 14) (size 15 to 20)
#    0.000    2.462    1.538    2.769    0.000    2.462 
#   11.077    1.538    0.000    0.000    0.000    0.000 
#    0.000    0.000    0.000    0.000    0.000    0.000 
#
# Total GULP energy -322208.463552 kJ/mol
# GULP energy per Si atom -12392.633214 kJ/mol
# Density = 2.128877 g / cm^3
# Si number density = 21.337339 Si / 1000 Ang^3
#
#
#
# Elastic Constant Matrix: (Units=GPa)
#
#
# Indices 1 2 3 4 5 6 
#
# 1 103.0453 40.6591 17.5845 0.0000 0.3554 0.0000
# 2 40.6591 99.6417 36.9848 -0.0006 -10.5253 0.0001
# 3 17.5845 36.9848 84.3734 0.0000 5.7916 0.0001
# 4 0.0000 -0.0006 0.0000 17.3802 0.0000 -1.5497
# 5 0.3554 -10.5253 5.7916 0.0000 14.6387 0.0000
# 6 0.0000 0.0001 0.0001 -1.5497 0.0000 31.9912
#
#
#
# Elastic Compliance Matrix: (Units=1/GPa)
#
#
# Indices 1 2 3 4 5 6 
#
# 1 0.011786 -0.005307 0.000156 0.000000 -0.004164 0.000000
# 2 -0.005307 0.016386 -0.007087 0.000000 0.014715 0.000000
# 3 0.000156 -0.007087 0.015703 0.000000 -0.011312 0.000000
# 4 0.000000 0.000000 0.000000 0.057786 0.000000 0.002799
# 5 -0.004164 0.014715 -0.011312 0.000000 0.083468 0.000000
# 6 0.000000 0.000000 0.000000 0.002799 0.000000 0.031394
#
#
# Mechanical properties :
#
#
# Convention : Reuss Voigt Hill
#
# Bulk Modulus (GPa) = 51.54956 53.05745 52.30351
# Shear Modulus (GPa) = 20.20472 25.59082 22.89777
#
# Velocity S-wave (km/s) = 3.08054 3.46691 3.27942
# Velocity P-wave (km/s) = 6.07164 6.39890 6.23742
#
# Compressibility (1/GPa) = 0.01939881
#
# Stress axis : x y z
#
# Youngs Moduli (GPa) = 84.84438 61.02651 63.68369
#
# Poissons Ratio (x) = 0.32387 -0.00992
# Poissons Ratio (y) = 0.45027 0.45132
# Poissons Ratio (z) = -0.01321 0.43249
#
# Static dielectric constant tensor:
#      x y z
#    x 3.847710 0.000010 -0.417910 
#    y 0.000010 5.366580 -0.000060 
#    z -0.417910 -0.000060 7.633770 
# 
# 
# High freq. dielectric constant tensor:
#      x y z
#    x 1.836230 0.000000 0.007990 
#    y 0.000000 1.826910 0.000000 
#    z 0.007990 0.000000 1.809510 
# 
# From -- ./inp_files/181084.got.cif
#   From: 2010.06.25/outbox.cif.g09.slc.cpg/sg15_91_cif.got.tgz:181084.got - 2010.06.28 07:06:18.
