data_PCOD8152460
_publ_section_title
;
Structure prediction by ZEFSAII (Michael W. Deem and Ramdas Pophale) SiO2 
 PCOD8152460
Probable space group: C 2/C
;
_chemical_formula_sum "Si O2"
_cell_formula_units_Z 44
_cell_length_a 15.130932
_cell_length_b 7.685515
_cell_length_c 19.046322
_cell_angle_alpha 90.000000
_cell_angle_beta 113.459261
_cell_angle_gamma 90.000000
_cell_volume 2031.803483
_symmetry_space_group_name_H-M "C 2/C"
_symmetry_group_IT_number 15
_symmetry_cell_setting 'monoclinic'
loop_
_space_group_symop_operation_xyz
x,y,z
-x,y,1/2-z
-x,-y,-z
x,-y,1/2+z
1/2+x,1/2+y,z
1/2-x,1/2+y,1/2-z
1/2-x,1/2-y,-z
1/2+x,1/2-y,1/2+z
loop_
_atom_site_type_symbol
_atom_site_label
_atom_site_fract_x
_atom_site_fract_y
_atom_site_fract_z
Si Si1 0.854480 0.371755 0.831683
Si Si2 0.500000 0.368805 0.750000
Si Si3 0.480670 0.300580 0.478949
Si Si4 0.327924 0.396835 0.204705
Si Si5 0.348668 0.207408 0.068030
Si Si6 0.537107 0.892659 0.380368
O O1 0.771145 0.498168 0.833046
O O2 0.813670 0.262843 0.753301
O O3 0.945018 0.485994 0.834511
O O4 0.883981 0.237958 0.903377
O O5 0.584280 0.483037 0.741132
O O6 0.452040 0.255436 0.674000
O O7 0.500000 0.500000 0.500000
O O8 0.569871 0.235147 0.463212
O O9 0.474863 0.191712 0.547760
O O10 0.359808 0.329559 0.138648
O O11 0.363650 0.004818 0.094132
O O12 0.250000 0.250000 0.000000
#
# Coordination Sequence:
#
# PCOD8152460 Si02
#       6
#     8   4   8   8   8   8
#     4  11  24  42  63  90 126 168 207 254 315 373
#     4  12  24  40  64  94 124 162 210 258 308 370
#     4  11  23  41  65  92 126 167 208 255 311 372
#     4  12  24  41  62  93 126 165 210 259 311 372
#     4  11  23  40  64  92 123 162 210 259 307 367
#     4  11  22  42  64  91 127 167 205 257 313 368
#
# _framework density 21.655639000000001
#
# number of rings (size 3 to 8) (size 9 to 14) (size 15 to 20)
#    0.000    0.727    0.000   10.909    0.000    2.909 
#    0.000    3.636    0.000    0.000    0.000    0.000 
#    0.000    0.000    0.000    0.000    0.000    0.000 
#
# Total GULP energy -272872.301008 kJ/mol
# GULP energy per Si atom -12403.286409 kJ/mol
# Density = 2.160635 g / cm^3
# Si number density = 21.655639 Si / 1000 Ang^3
#
#
#
# Elastic Constant Matrix: (Units=GPa)
#
#
# Indices 1 2 3 4 5 6 
#
# 1 90.2054 39.0957 37.9561 0.0000 8.7167 0.0000
# 2 39.0957 122.6100 44.6456 0.0000 4.8367 0.0000
# 3 37.9561 44.6456 114.7757 0.0000 -0.5673 0.0000
# 4 0.0000 0.0000 0.0000 38.6408 0.0000 -1.2700
# 5 8.7167 4.8367 -0.5673 0.0000 37.7522 0.0000
# 6 0.0000 0.0000 0.0000 -1.2700 0.0000 39.9186
#
#
#
# Elastic Compliance Matrix: (Units=1/GPa)
#
#
# Indices 1 2 3 4 5 6 
#
# 1 0.014198 -0.003142 -0.003488 0.000000 -0.002928 0.000000
# 2 -0.003142 0.010259 -0.002955 0.000000 -0.000633 0.000000
# 3 -0.003488 -0.002955 0.011022 0.000000 0.001349 0.000000
# 4 0.000000 0.000000 0.000000 0.025906 0.000000 0.000824
# 5 -0.002928 -0.000633 0.001349 0.000000 0.027266 0.000000
# 6 0.000000 0.000000 0.000000 0.000824 0.000000 0.025077
#
#
# Mechanical properties :
#
#
# Convention : Reuss Voigt Hill
#
# Bulk Modulus (GPa) = 61.30993 63.44289 62.37641
# Shear Modulus (GPa) = 36.14475 36.98857 36.56666
#
# Velocity S-wave (km/s) = 4.08986 4.13732 4.11366
# Velocity P-wave (km/s) = 7.11866 7.22379 7.17142
#
# Compressibility (1/GPa) = 0.01631057
#
# Stress axis : x y z
#
# Youngs Moduli (GPa) = 70.43291 97.47983 90.72819
#
# Poissons Ratio (x) = 0.30626 0.31643
# Poissons Ratio (y) = 0.22128 0.26806
# Poissons Ratio (z) = 0.24564 0.28801
#
# Static dielectric constant tensor:
#      x y z
#    x 4.734340 0.000000 0.741980 
#    y 0.000000 4.864440 0.000000 
#    z 0.741980 0.000000 4.698840 
# 
# 
# High freq. dielectric constant tensor:
#      x y z
#    x 1.846500 0.000000 -0.003900 
#    y 0.000000 1.868670 0.000000 
#    z -0.003900 0.000000 1.864180 
# 
# From -- ./inp_files/203073.got.cif
#   From: 2010.06.25/outbox.cif.g09.slc.cpg/sg15_102_cif.got.tgz:203073.got - 2010.06.28 07:06:18.
