data_PCOD8152231
_publ_section_title
;
Structure prediction by ZEFSAII (Michael W. Deem and Ramdas Pophale) SiO2 
 PCOD8152231
Probable space group: C 2/C
;
_chemical_formula_sum "Si O2"
_cell_formula_units_Z 48
_cell_length_a 8.475047
_cell_length_b 14.457245
_cell_length_c 27.700517
_cell_angle_alpha 90.000000
_cell_angle_beta 39.171693
_cell_angle_gamma 90.000000
_cell_volume 2143.825989
_symmetry_space_group_name_H-M "C 2/C"
_symmetry_group_IT_number 15
_symmetry_cell_setting 'monoclinic'
loop_
_space_group_symop_operation_xyz
x,y,z
-x,y,1/2-z
-x,-y,-z
x,-y,1/2+z
1/2+x,1/2+y,z
1/2-x,1/2+y,1/2-z
1/2-x,1/2-y,-z
1/2+x,1/2-y,1/2+z
loop_
_atom_site_type_symbol
_atom_site_label
_atom_site_fract_x
_atom_site_fract_y
_atom_site_fract_z
Si Si1 0.238483 0.802061 0.902127
Si Si2 0.370899 0.517861 0.328342
Si Si3 0.054787 0.619747 0.552335
Si Si4 0.612050 0.630987 0.936683
Si Si5 0.266504 0.219362 0.166941
Si Si6 0.961342 0.952069 0.610914
O O1 0.517119 0.763224 0.844335
O O2 0.242842 0.876614 0.857711
O O3 0.037235 0.722838 0.937937
O O4 0.143692 0.855901 0.972646
O O5 0.500000 0.474456 0.250000
O O6 0.235470 0.611561 0.344742
O O7 0.571843 0.535582 0.323552
O O8 0.178363 0.447393 0.397273
O O9 0.159374 0.611075 0.581666
O O10 0.263303 0.589051 0.464620
O O11 0.668868 0.725682 0.896205
O O12 0.579722 0.548374 0.906692
O O13 0.000000 0.254076 0.250000
#
# Coordination Sequence:
#
# PCOD8152231 Si02
#       6
#     8   8   8   8   8   8
#     4  11  22  41  67  96 127 165 209 261 313 372
#     4  11  24  42  61  89 127 170 213 259 312 374
#     4  11  22  39  66  98 128 162 208 260 312 377
#     4  11  22  39  66  98 128 162 208 260 312 377
#     4  11  24  42  61  89 127 170 213 259 312 374
#     4  11  22  41  67  96 127 165 209 261 313 372
#
# _framework density 22.389878
#
# number of rings (size 3 to 8) (size 9 to 14) (size 15 to 20)
#    0.000    1.000    0.000   10.000    0.000    2.667 
#    0.000   10.000    0.000    0.000    0.000    0.000 
#    0.000    0.000    0.000    0.000    0.000    0.000 
#
# Total GULP energy -297687.945182 kJ/mol
# GULP energy per Si atom -12403.664383 kJ/mol
# Density = 2.233892 g / cm^3
# Si number density = 22.389878 Si / 1000 Ang^3
#
#
#
# Elastic Constant Matrix: (Units=GPa)
#
#
# Indices 1 2 3 4 5 6 
#
# 1 131.5699 6.9022 58.4373 -0.0020 10.2680 0.0098
# 2 6.9022 58.7379 9.4389 -0.0081 4.4274 0.0133
# 3 58.4373 9.4389 62.4316 -0.0071 8.1311 0.0266
# 4 -0.0020 -0.0081 -0.0071 22.7898 0.0021 4.6383
# 5 10.2680 4.4274 8.1311 0.0021 39.8210 -0.0067
# 6 0.0098 0.0133 0.0266 4.6383 -0.0067 45.8429
#
#
#
# Elastic Compliance Matrix: (Units=1/GPa)
#
#
# Indices 1 2 3 4 5 6 
#
# 1 0.013053 0.000492 -0.012171 -0.000003 -0.000935 0.000004
# 2 0.000492 0.017548 -0.002921 0.000006 -0.001482 -0.000004
# 3 -0.012171 -0.002921 0.028149 0.000010 -0.002285 -0.000014
# 4 -0.000003 0.000006 0.000010 0.044802 -0.000005 -0.004533
# 5 -0.000935 -0.001482 -0.002285 -0.000005 0.025985 0.000006
# 6 0.000004 -0.000004 -0.000014 -0.004533 0.000006 0.022272
#
#
# Mechanical properties :
#
#
# Convention : Reuss Voigt Hill
#
# Bulk Modulus (GPa) = 33.83937 44.69959 39.26948
# Shear Modulus (GPa) = 26.19736 33.55481 29.87609
#
# Velocity S-wave (km/s) = 3.42432 3.87545 3.65685
# Velocity P-wave (km/s) = 5.54807 6.32717 5.95038
#
# Compressibility (1/GPa) = 0.02955138
#
# Stress axis : x y z
#
# Youngs Moduli (GPa) = 76.60797 56.98664 35.52528
#
# Poissons Ratio (x) = -0.02806 0.43238
# Poissons Ratio (y) = -0.03772 0.10377
# Poissons Ratio (z) = 0.93239 0.16646
#
# Static dielectric constant tensor:
#      x y z
#    x 4.155220 0.000000 0.072690 
#    y 0.000000 4.066400 0.000000 
#    z 0.072690 0.000000 3.852120 
# 
# 
# High freq. dielectric constant tensor:
#      x y z
#    x 1.896060 0.000000 0.005280 
#    y 0.000000 1.894710 0.000000 
#    z 0.005280 0.000000 1.858610 
# 
# From -- ./inp_files/288991.got.cif
#   From: 2010.06.25/outbox.cif.g09.slc.cpg/sg15_145_cif.got.tgz:288991.got - 2010.06.28 07:06:18.
