data_PCOD8152341
_publ_section_title
;
Structure prediction by ZEFSAII (Michael W. Deem and Ramdas Pophale) SiO2 
 PCOD8152341
Probable space group: C 2/C
;
_chemical_formula_sum "Si O2"
_cell_formula_units_Z 64
_cell_length_a 17.622785
_cell_length_b 13.748899
_cell_length_c 23.515591
_cell_angle_alpha 90.000000
_cell_angle_beta 29.704344
_cell_angle_gamma 90.000000
_cell_volume 2823.342175
_symmetry_space_group_name_H-M "C 2/C"
_symmetry_group_IT_number 15
_symmetry_cell_setting 'monoclinic'
loop_
_space_group_symop_operation_xyz
x,y,z
-x,y,1/2-z
-x,-y,-z
x,-y,1/2+z
1/2+x,1/2+y,z
1/2-x,1/2+y,1/2-z
1/2-x,1/2-y,-z
1/2+x,1/2-y,1/2+z
loop_
_atom_site_type_symbol
_atom_site_label
_atom_site_fract_x
_atom_site_fract_y
_atom_site_fract_z
Si Si1 0.340053 0.293181 0.089183
Si Si2 0.345991 0.612156 0.313502
Si Si3 0.849064 0.464356 0.993086
Si Si4 0.863634 0.655920 0.302136
Si Si5 0.847203 0.475128 0.253754
Si Si6 0.025103 0.729924 0.380251
Si Si7 0.133875 0.090675 0.531921
Si Si8 0.931186 0.921750 0.628308
O O1 0.259131 0.206794 0.106095
O O2 0.208555 0.371096 0.188789
O O3 0.393947 0.250711 0.113791
O O4 0.486835 0.333789 0.959197
O O5 0.500000 0.617970 0.250000
O O6 0.250572 0.514471 0.392146
O O7 0.390608 0.609407 0.218527
O O8 0.895774 0.352882 0.976053
O O9 0.998868 0.531867 0.885174
O O10 0.743014 0.458237 0.006462
O O11 0.892097 0.538776 0.279856
O O12 0.709440 0.667675 0.437654
O O13 0.000000 0.704100 0.250000
O O14 0.849329 0.689813 0.246169
O O15 0.716163 0.533817 0.305409
O O16 0.982817 0.827121 0.370396
O O17 0.056384 0.006612 0.546463
#
# Coordination Sequence:
#
# PCOD8152341 Si02
#       8
#     8   8   8   8   8   8   8   8
#     4  12  27  46  75 109 148 202 250 308 370 454
#     4  12  29  50  74 110 149 198 255 318 377 449
#     4  11  26  48  73 108 153 189 245 320 388 434
#     4  11  22  40  70 106 144 183 242 300 367 441
#     4  11  23  46  74 104 145 196 245 309 370 450
#     4  11  25  44  72 114 148 190 244 304 377 453
#     4  12  22  46  76 107 142 194 247 306 378 449
#     4  12  26  49  77 103 152 198 251 309 381 444
#
# _framework density 22.66817
#
# number of rings (size 3 to 8) (size 9 to 14) (size 15 to 20)
#    0.000    0.500    6.250    3.000    1.750    5.000 
#    0.000    0.000    0.000    0.000    0.000    0.000 
#    0.000    0.000    0.000    0.000    0.000    0.000 
#
# Total GULP energy -396463.901892 kJ/mol
# GULP energy per Si atom -12389.496934 kJ/mol
# Density = 2.261658 g / cm^3
# Si number density = 22.668170 Si / 1000 Ang^3
#
#
#
# Elastic Constant Matrix: (Units=GPa)
#
#
# Indices 1 2 3 4 5 6 
#
# 1 70.3918 26.1224 32.4084 0.0105 6.9008 -0.0041
# 2 26.1224 88.0801 20.9076 0.0041 3.2376 -0.0004
# 3 32.4084 20.9076 87.4948 -0.0516 4.8131 0.0133
# 4 0.0105 0.0041 -0.0516 -44.2543 0.0244 19.0925
# 5 6.9008 3.2376 4.8131 0.0244 38.8635 -0.0054
# 6 -0.0041 -0.0004 0.0133 19.0925 -0.0054 31.1441
#
#
#
# Elastic Compliance Matrix: (Units=1/GPa)
#
#
# Indices 1 2 3 4 5 6 
#
# 1 0.018601 -0.004058 -0.005797 0.000009 -0.002247 -0.000001
# 2 -0.004058 0.012938 -0.001580 0.000002 -0.000162 -0.000001
# 3 -0.005797 -0.001580 0.013985 -0.000017 -0.000571 0.000003
# 4 0.000009 0.000002 -0.000017 -0.017870 0.000013 0.010955
# 5 -0.002247 -0.000162 -0.000571 0.000013 0.026214 -0.000004
# 6 -0.000001 -0.000001 0.000003 0.010955 -0.000004 0.025393
#
#
# Mechanical properties :
#
#
# Convention : Reuss Voigt Hill
#
# Bulk Modulus (GPa) = 44.13930 44.98262 44.56096
# Shear Modulus (GPa) = 45.58657 16.25253 30.91955
#
# Velocity S-wave (km/s) = 4.48933 2.68055 3.69725
# Velocity P-wave (km/s) = 6.81075 5.42839 6.15848
#
# Compressibility (1/GPa) = 0.02265555
#
# Stress axis : x y z
#
# Youngs Moduli (GPa) = 53.75997 77.29339 71.50420
#
# Poissons Ratio (x) = 0.31367 0.41448
# Poissons Ratio (y) = 0.21816 0.11294
# Poissons Ratio (z) = 0.31163 0.12209
#
# Static dielectric constant tensor:
#      x y z
#    x 4.177500 0.000000 -0.195310 
#    y 0.000000 4.351160 0.000020 
#    z -0.195310 0.000020 4.422700 
# 
# 
# High freq. dielectric constant tensor:
#      x y z
#    x 1.896950 0.000000 -0.008260 
#    y 0.000000 1.898380 0.000000 
#    z -0.008260 0.000000 1.904600 
# 
# From -- ./inp_files/277639.got.cif
#   From: 2010.06.25/outbox.cif.g09.slc.cpg/sg15_139_cif.got.tgz:277639.got - 2010.06.28 07:06:18.
