data_PCOD8152009
_publ_section_title
;
Structure prediction by ZEFSAII (Michael W. Deem and Ramdas Pophale) SiO2 
 PCOD8152009
Probable space group: C 2/C
;
_chemical_formula_sum "Si O2"
_cell_formula_units_Z 32
_cell_length_a 12.954940
_cell_length_b 13.214555
_cell_length_c 9.410464
_cell_angle_alpha 90.000000
_cell_angle_beta 109.232756
_cell_angle_gamma 90.000000
_cell_volume 1521.099264
_symmetry_space_group_name_H-M "C 2/C"
_symmetry_group_IT_number 15
_symmetry_cell_setting 'monoclinic'
loop_
_space_group_symop_operation_xyz
x,y,z
-x,y,1/2-z
-x,-y,-z
x,-y,1/2+z
1/2+x,1/2+y,z
1/2-x,1/2+y,1/2-z
1/2-x,1/2-y,-z
1/2+x,1/2-y,1/2+z
loop_
_atom_site_type_symbol
_atom_site_label
_atom_site_fract_x
_atom_site_fract_y
_atom_site_fract_z
Si Si1 0.594534 0.294800 0.695473
Si Si2 0.259549 0.118386 0.644185
Si Si3 0.053389 0.750295 0.124619
Si Si4 0.285447 0.927326 0.833909
O O1 0.500000 0.342287 0.750000
O O2 0.653174 0.208967 0.817509
O O3 0.547563 0.249632 0.529663
O O4 0.682598 0.381188 0.700946
O O5 0.259281 0.067549 0.489415
O O6 0.140028 0.161869 0.626380
O O7 0.300953 0.039688 0.781558
O O8 0.000000 0.775808 0.250000
O O9 0.107202 0.639132 0.149007
#
# Coordination Sequence:
#
# PCOD8152009 Si02
#       4
#     8   8   8   8
#     4  11  21  45  67  84 129 171 203 254 311 367
#     4  11  25  42  64  95 127 162 209 258 308 369
#     4  11  25  43  65  93 125 167 209 253 312 370
#     4  11  25  42  64  95 127 162 209 258 308 369
#
# _framework density 21.037416
#
# number of rings (size 3 to 8) (size 9 to 14) (size 15 to 20)
#    0.000    1.000    5.000    1.500    7.000    6.000 
#    0.000    0.000    0.000    0.000    0.000    0.000 
#    0.000    0.000    0.000    0.000    0.000    0.000 
#
# Total GULP energy -198482.692501 kJ/mol
# GULP energy per Si atom -12405.168281 kJ/mol
# Density = 2.098953 g / cm^3
# Si number density = 21.037416 Si / 1000 Ang^3
#
#
#
# Elastic Constant Matrix: (Units=GPa)
#
#
# Indices 1 2 3 4 5 6 
#
# 1 73.1930 -12.3053 38.2317 0.0000 -2.6140 0.0000
# 2 -12.3053 45.2896 3.9998 0.0000 -7.4379 0.0000
# 3 38.2317 3.9998 101.3842 0.0000 -2.4830 0.0000
# 4 0.0000 0.0000 0.0000 34.2696 0.0000 0.7102
# 5 -2.6140 -7.4379 -2.4830 0.0000 41.0559 0.0000
# 6 0.0000 0.0000 0.0000 0.7102 0.0000 10.9592
#
#
#
# Elastic Compliance Matrix: (Units=1/GPa)
#
#
# Indices 1 2 3 4 5 6 
#
# 1 0.018463 0.005947 -0.007153 0.000000 0.001820 0.000000
# 2 0.005947 0.024737 -0.003104 0.000000 0.004672 0.000000
# 3 -0.007153 -0.003104 0.012677 0.000000 -0.000251 0.000000
# 4 0.000000 0.000000 0.000000 0.029220 0.000000 -0.001893
# 5 0.001820 0.004672 -0.000251 0.000000 0.025304 0.000000
# 6 0.000000 0.000000 0.000000 -0.001893 0.000000 0.091370
#
#
# Mechanical properties :
#
#
# Convention : Reuss Voigt Hill
#
# Bulk Modulus (GPa) = 21.16006 31.07993 26.11999
# Shear Modulus (GPa) = 22.10977 29.91962 26.01470
#
# Velocity S-wave (km/s) = 3.24539 3.77531 3.52034
# Velocity P-wave (km/s) = 4.91157 5.81461 5.38206
#
# Compressibility (1/GPa) = 0.04725885
#
# Stress axis : x y z
#
# Youngs Moduli (GPa) = 54.16101 40.42447 78.88297
#
# Poissons Ratio (x) = -0.24041 0.56422
# Poissons Ratio (y) = -0.32211 0.24487
# Poissons Ratio (z) = 0.38739 0.12549
#
# Static dielectric constant tensor:
#      x y z
#    x 3.939000 0.000000 0.234380 
#    y 0.000000 3.621470 0.000000 
#    z 0.234380 0.000000 3.914160 
# 
# 
# High freq. dielectric constant tensor:
#      x y z
#    x 1.833080 0.000000 0.006250 
#    y 0.000000 1.809040 0.000000 
#    z 0.006250 0.000000 1.835790 
# 
# From -- ./inp_files/75627.got.cif
#   From: 2010.06.25/outbox.cif.g09.slc.cpg/sg15_38_cif.got.tgz:75627.got - 2010.06.28 07:06:18.
