data_PCOD8152330
_publ_section_title
;
Structure prediction by ZEFSAII (Michael W. Deem and Ramdas Pophale) SiO2 
 PCOD8152330
Probable space group: C 2/C
;
_chemical_formula_sum "Si O2"
_cell_formula_units_Z 64
_cell_length_a 25.574588
_cell_length_b 11.262900
_cell_length_c 14.615331
_cell_angle_alpha 90.000000
_cell_angle_beta 45.130149
_cell_angle_gamma 90.000000
_cell_volume 2983.573950
_symmetry_space_group_name_H-M "C 2/C"
_symmetry_group_IT_number 15
_symmetry_cell_setting 'monoclinic'
loop_
_space_group_symop_operation_xyz
x,y,z
-x,y,1/2-z
-x,-y,-z
x,-y,1/2+z
1/2+x,1/2+y,z
1/2-x,1/2+y,1/2-z
1/2-x,1/2-y,-z
1/2+x,1/2-y,1/2+z
loop_
_atom_site_type_symbol
_atom_site_label
_atom_site_fract_x
_atom_site_fract_y
_atom_site_fract_z
Si Si1 0.433904 0.633895 0.627484
Si Si2 0.735557 0.377526 0.718475
Si Si3 0.426209 0.632368 0.157500
Si Si4 0.183693 0.476571 0.533614
Si Si5 0.344159 0.323425 0.062245
Si Si6 0.802369 0.939716 0.537352
Si Si7 0.077799 0.319482 0.176842
Si Si8 0.586595 0.249184 0.164139
O O1 0.512479 0.676153 0.490736
O O2 0.442533 0.504770 0.664832
O O3 0.373619 0.623695 0.621202
O O4 0.405344 0.728847 0.736815
O O5 0.652171 0.359963 0.792529
O O6 0.777679 0.477057 0.606503
O O7 0.768522 0.246243 0.670609
O O8 0.742471 0.417976 0.814359
O O9 0.429647 0.714123 0.241787
O O10 0.246475 0.425175 0.522178
O O11 0.138201 0.585024 0.636129
O O12 0.125298 0.372668 0.585334
O O13 0.332047 0.426387 0.002733
O O14 0.402085 0.233407 0.946942
O O15 0.872275 0.853319 0.441667
O O16 0.000000 0.382808 0.250000
O O17 0.500000 0.247827 0.250000
#
# Coordination Sequence:
#
# PCOD8152330 Si02
#       8
#     8   8   8   8   8   8   8   8
#     4  11  23  41  65 100 135 169 225 283 330 392
#     4  11  24  42  66  98 134 174 224 275 334 399
#     4  11  22  40  68  97 136 169 220 285 327 388
#     4  11  26  47  65  97 138 177 222 278 327 410
#     4  11  23  40  66 100 131 169 225 273 337 398
#     4  12  25  42  73  97 129 181 219 278 341 391
#     4  11  22  42  68  96 133 179 220 272 336 395
#     4  12  27  45  68  98 135 179 225 272 339 398
#
# _framework density 21.450783999999999
#
# number of rings (size 3 to 8) (size 9 to 14) (size 15 to 20)
#    0.000    0.750    2.500    5.250    3.500    3.000 
#    2.250    0.625    0.000    0.000    0.000    0.000 
#    0.000    0.000    0.000    0.000    0.000    0.000 
#
# Total GULP energy -396878.145787 kJ/mol
# GULP energy per Si atom -12402.442056 kJ/mol
# Density = 2.140196 g / cm^3
# Si number density = 21.450784 Si / 1000 Ang^3
#
#
#
# Elastic Constant Matrix: (Units=GPa)
#
#
# Indices 1 2 3 4 5 6 
#
# 1 96.2287 45.1457 53.6314 0.0000 -8.9277 0.0000
# 2 45.1457 97.5133 52.6877 0.0002 -13.2952 -0.0001
# 3 53.6314 52.6877 126.6420 0.0001 -5.7988 0.0000
# 4 0.0000 0.0002 0.0001 34.1898 0.0000 -3.2065
# 5 -8.9277 -13.2952 -5.7988 0.0000 32.7992 0.0000
# 6 0.0000 -0.0001 0.0000 -3.2065 0.0000 31.3530
#
#
#
# Elastic Compliance Matrix: (Units=1/GPa)
#
#
# Indices 1 2 3 4 5 6 
#
# 1 0.015085 -0.004333 -0.004514 0.000000 0.001551 0.000000
# 2 -0.004333 0.015143 -0.004272 0.000000 0.004203 0.000000
# 3 -0.004514 -0.004272 0.011543 0.000000 -0.000920 0.000000
# 4 0.000000 0.000000 0.000000 0.029532 0.000000 0.003020
# 5 0.001551 0.004203 -0.000920 0.000000 0.032452 0.000000
# 6 0.000000 0.000000 0.000000 0.003020 0.000000 0.032204
#
#
# Mechanical properties :
#
#
# Convention : Reuss Voigt Hill
#
# Bulk Modulus (GPa) = 64.38751 69.25706 66.82228
# Shear Modulus (GPa) = 29.87301 30.92969 30.40135
#
# Velocity S-wave (km/s) = 3.73584 3.80134 3.76874
# Velocity P-wave (km/s) = 6.97784 7.18495 7.08215
#
# Compressibility (1/GPa) = 0.01553096
#
# Stress axis : x y z
#
# Youngs Moduli (GPa) = 66.29210 66.03883 86.62901
#
# Poissons Ratio (x) = 0.28615 0.39108
# Poissons Ratio (y) = 0.28725 0.37012
# Poissons Ratio (z) = 0.29927 0.28215
#
# Static dielectric constant tensor:
#      x y z
#    x 3.787580 0.000000 -0.074490 
#    y 0.000000 3.920450 0.000000 
#    z -0.074490 0.000000 4.188370 
# 
# 
# High freq. dielectric constant tensor:
#      x y z
#    x 1.837900 0.000000 -0.009860 
#    y 0.000000 1.839410 0.000000 
#    z -0.009860 0.000000 1.862380 
# 
# From -- ./inp_files/177808.got.cif
#   From: 2010.06.25/outbox.cif.g09.slc.cpg/sg15_89_cif.got.tgz:177808.got - 2010.06.28 07:06:18.
