data_PCOD8152787
_publ_section_title
;
Structure prediction by ZEFSAII (Michael W. Deem and Ramdas Pophale) SiO2 
 PCOD8152787
Probable space group: C 2/C
;
_chemical_formula_sum "Si O2"
_cell_formula_units_Z 48
_cell_length_a 9.066337
_cell_length_b 18.912624
_cell_length_c 21.169992
_cell_angle_alpha 90.000000
_cell_angle_beta 37.220046
_cell_angle_gamma 90.000000
_cell_volume 2195.694713
_symmetry_space_group_name_H-M "C 2/C"
_symmetry_group_IT_number 15
_symmetry_cell_setting 'monoclinic'
loop_
_space_group_symop_operation_xyz
x,y,z
-x,y,1/2-z
-x,-y,-z
x,-y,1/2+z
1/2+x,1/2+y,z
1/2-x,1/2+y,1/2-z
1/2-x,1/2-y,-z
1/2+x,1/2-y,1/2+z
loop_
_atom_site_type_symbol
_atom_site_label
_atom_site_fract_x
_atom_site_fract_y
_atom_site_fract_z
Si Si1 0.500000 0.510276 0.250000
Si Si2 0.959363 0.130216 0.923245
Si Si3 0.750678 0.195733 0.870559
Si Si4 0.461609 0.074393 0.626944
Si Si5 0.000000 0.376183 0.250000
Si Si6 0.921375 0.970583 0.910129
Si Si7 0.260027 0.357122 0.627253
O O1 0.298117 0.459378 0.291467
O O2 0.584588 0.556124 0.160997
O O3 0.798100 0.172290 0.926834
O O4 0.235261 0.165868 0.835720
O O5 0.027120 0.049765 0.880141
O O6 0.783249 0.128115 0.044536
O O7 0.540585 0.150419 0.907565
O O8 0.659587 0.275883 0.893786
O O9 0.000000 0.183383 0.750000
O O10 0.535170 0.077636 0.675091
O O11 0.648706 0.023271 0.528299
O O12 0.056672 0.910607 0.902756
O O13 0.000000 0.370182 0.750000
#
# Coordination Sequence:
#
# PCOD8152787 Si02
#       7
#     4   8   8   8   4   8   8
#     4  12  24  44  69  97 142 178 224 284 358 412
#     4  12  24  44  72 103 130 188 232 283 346 413
#     4  11  22  47  69  95 137 187 230 273 351 420
#     4  12  23  43  69 100 132 182 230 287 336 418
#     4  12  22  40  73  99 132 174 246 280 322 422
#     4  12  26  40  68 106 135 176 229 291 345 406
#     4  11  28  43  67 101 145 180 221 288 353 411
#
# _framework density 21.860963999999999
#
# number of rings (size 3 to 8) (size 9 to 14) (size 15 to 20)
#    0.000    0.333    7.500    1.500    3.500    0.667 
#    0.000    0.833    0.000    0.000    0.000    0.000 
#    0.000    0.000    0.000    0.000    0.000    0.000 
#
# Total GULP energy -297333.000346 kJ/mol
# GULP energy per Si atom -12388.875014 kJ/mol
# Density = 2.181121 g / cm^3
# Si number density = 21.860964 Si / 1000 Ang^3
#
#
#
# Elastic Constant Matrix: (Units=GPa)
#
#
# Indices 1 2 3 4 5 6 
#
# 1 105.8960 24.8545 36.7074 0.0534 25.6902 -0.0908
# 2 24.8545 82.6349 5.4221 0.0444 0.0754 -0.0320
# 3 36.7074 5.4221 139.4108 0.1383 30.4076 -0.1219
# 4 0.0534 0.0444 0.1383 13.1058 -0.0966 9.9239
# 5 25.6902 0.0754 30.4076 -0.0966 49.1066 0.0780
# 6 -0.0908 -0.0320 -0.1219 9.9239 0.0780 23.3448
#
#
#
# Elastic Compliance Matrix: (Units=1/GPa)
#
#
# Indices 1 2 3 4 5 6 
#
# 1 0.012204 -0.003538 -0.001947 -0.000137 -0.005174 0.000108
# 2 -0.003538 0.013162 0.000024 -0.000023 0.001816 0.000008
# 3 -0.001947 0.000024 0.008628 -0.000228 -0.004325 0.000149
# 4 -0.000137 -0.000023 -0.000228 0.112536 0.000510 -0.047843
# 5 -0.005174 0.001816 -0.004325 0.000510 0.025747 -0.000343
# 6 0.000108 0.000008 0.000149 -0.047843 -0.000343 0.063176
#
#
# Mechanical properties :
#
#
# Convention : Reuss Voigt Hill
#
# Bulk Modulus (GPa) = 43.34287 51.32332 47.33309
# Shear Modulus (GPa) = 19.67974 34.50861 27.09418
#
# Velocity S-wave (km/s) = 3.00363 3.97741 3.52431
# Velocity P-wave (km/s) = 5.64789 6.67991 6.18546
#
# Compressibility (1/GPa) = 0.02307185
#
# Stress axis : x y z
#
# Youngs Moduli (GPa) = 81.94138 75.97405 115.89506
#
# Poissons Ratio (x) = 0.26880 0.22565
# Poissons Ratio (y) = 0.28991 -0.00273
# Poissons Ratio (z) = 0.15954 -0.00179
#
# Static dielectric constant tensor:
#      x y z
#    x 4.020710 0.001010 0.476240 
#    y 0.001010 3.910540 -0.000850 
#    z 0.476240 -0.000850 4.207180 
# 
# 
# High freq. dielectric constant tensor:
#      x y z
#    x 1.867120 0.000000 0.016390 
#    y 0.000000 1.827410 0.000010 
#    z 0.016390 0.000010 1.886200 
# 
# From -- ./inp_files/233724.got.cif
#   From: 2010.06.25/outbox.cif.g09.slc.cpg/sg15_117_cif.got.tgz:233724.got - 2010.06.28 07:06:18.
