data_PCOD8152654
_publ_section_title
;
Structure prediction by ZEFSAII (Michael W. Deem and Ramdas Pophale) SiO2 
 PCOD8152654
Probable space group: C 2/C
;
_chemical_formula_sum "Si O2"
_cell_formula_units_Z 52
_cell_length_a 10.785504
_cell_length_b 9.894011
_cell_length_c 24.473858
_cell_angle_alpha 90.000000
_cell_angle_beta 63.260397
_cell_angle_gamma 90.000000
_cell_volume 2332.363309
_symmetry_space_group_name_H-M "C 2/C"
_symmetry_group_IT_number 15
_symmetry_cell_setting 'monoclinic'
loop_
_space_group_symop_operation_xyz
x,y,z
-x,y,1/2-z
-x,-y,-z
x,-y,1/2+z
1/2+x,1/2+y,z
1/2-x,1/2+y,1/2-z
1/2-x,1/2-y,-z
1/2+x,1/2-y,1/2+z
loop_
_atom_site_type_symbol
_atom_site_label
_atom_site_fract_x
_atom_site_fract_y
_atom_site_fract_z
Si Si1 0.607534 0.844339 0.403715
Si Si2 0.000000 0.421223 0.750000
Si Si3 0.422423 0.950384 0.880982
Si Si4 0.899848 0.027753 0.721629
Si Si5 0.103734 0.141138 0.605712
Si Si6 0.726190 0.733523 0.278703
Si Si7 0.121224 0.895057 0.977975
O O1 0.764045 0.897344 0.382878
O O2 0.612070 0.755686 0.348154
O O3 0.566816 0.745125 0.461811
O O4 0.498988 0.967637 0.415155
O O5 0.977373 0.507929 0.810927
O O6 0.865671 0.327123 0.776074
O O7 0.460602 0.791299 0.873737
O O8 0.255839 0.958764 0.921394
O O9 0.844794 0.877728 0.746549
O O10 0.000000 0.077582 0.750000
O O11 0.765118 0.125423 0.741702
O O12 0.982918 0.037080 0.647475
O O13 0.157796 0.130225 0.533540
O O14 0.000000 0.000000 0.000000
#
# Coordination Sequence:
#
# PCOD8152654 Si02
#       7
#     8   4   8   8   8   8   8
#     4  11  22  44  68  97 132 178 230 283 345 413
#     4  12  20  42  72 100 134 186 224 278 360 408
#     4  11  23  42  71  97 133 184 227 289 349 413
#     4  12  24  44  66 100 138 184 232 290 350 415
#     4  11  23  41  68  95 129 181 235 280 344 415
#     4  12  22  43  71  95 142 182 226 287 352 414
#     4  11  25  45  66  97 137 182 232 287 343 411
#
# _framework density 22.294982000000001
#
# number of rings (size 3 to 8) (size 9 to 14) (size 15 to 20)
#    0.000    0.615    6.923    3.692    0.000    3.077 
#    5.538    1.538    0.000    0.000    0.000    0.000 
#    0.000    0.000    0.000    0.000    0.000    0.000 
#
# Total GULP energy -322205.376003 kJ/mol
# GULP energy per Si atom -12392.514462 kJ/mol
# Density = 2.224424 g / cm^3
# Si number density = 22.294982 Si / 1000 Ang^3
#
#
#
# Elastic Constant Matrix: (Units=GPa)
#
#
# Indices 1 2 3 4 5 6 
#
# 1 84.1647 55.7496 26.1790 0.0000 -3.3122 0.0000
# 2 55.7496 98.6465 32.2502 0.0000 -4.2360 0.0000
# 3 26.1790 32.2502 124.0592 0.0000 -2.4186 0.0000
# 4 0.0000 0.0000 0.0000 28.9217 0.0000 4.9787
# 5 -3.3122 -4.2360 -2.4186 0.0000 27.7715 0.0000
# 6 0.0000 0.0000 0.0000 4.9787 0.0000 37.9403
#
#
#
# Elastic Compliance Matrix: (Units=1/GPa)
#
#
# Indices 1 2 3 4 5 6 
#
# 1 0.019203 -0.010389 -0.001340 0.000000 0.000589 0.000000
# 2 -0.010389 0.016757 -0.002142 0.000000 0.001130 0.000000
# 3 -0.001340 -0.002142 0.008906 0.000000 0.000289 0.000000
# 4 0.000000 0.000000 0.000000 0.035375 0.000000 -0.004642
# 5 0.000589 0.001130 0.000289 0.000000 0.036276 0.000000
# 6 0.000000 0.000000 0.000000 -0.004642 0.000000 0.026966
#
#
# Mechanical properties :
#
#
# Convention : Reuss Voigt Hill
#
# Bulk Modulus (GPa) = 58.39666 59.46978 58.93322
# Shear Modulus (GPa) = 28.25910 31.77279 30.01594
#
# Velocity S-wave (km/s) = 3.56407 3.77916 3.67319
# Velocity P-wave (km/s) = 6.57164 6.76570 6.66937
#
# Compressibility (1/GPa) = 0.01712427
#
# Stress axis : x y z
#
# Youngs Moduli (GPa) = 52.07492 59.67522 112.28552
#
# Poissons Ratio (x) = 0.61998 0.15046
# Poissons Ratio (y) = 0.54102 0.24050
# Poissons Ratio (z) = 0.06978 0.12782
#
# Static dielectric constant tensor:
#      x y z
#    x 4.073450 0.000000 0.629580 
#    y 0.000000 3.997280 0.000000 
#    z 0.629580 0.000000 6.410830 
# 
# 
# High freq. dielectric constant tensor:
#      x y z
#    x 1.867000 0.000000 -0.006780 
#    y 0.000000 1.859940 0.000000 
#    z -0.006780 0.000000 1.888770 
# 
# From -- ./inp_files/291483.got.cif
#   From: 2010.06.25/outbox.cif.g09.slc.cpg/sg15_146_cif.got.tgz:291483.got - 2010.06.28 07:06:18.
