data_PCOD8152747
_publ_section_title
;
Structure prediction by ZEFSAII (Michael W. Deem and Ramdas Pophale) SiO2 
 PCOD8152747
Probable space group: C 2/C
;
_chemical_formula_sum "Si O2"
_cell_formula_units_Z 44
_cell_length_a 14.142970
_cell_length_b 11.571288
_cell_length_c 17.053972
_cell_angle_alpha 90.000000
_cell_angle_beta 45.100347
_cell_angle_gamma 90.000000
_cell_volume 1976.933940
_symmetry_space_group_name_H-M "C 2/C"
_symmetry_group_IT_number 15
_symmetry_cell_setting 'monoclinic'
loop_
_space_group_symop_operation_xyz
x,y,z
-x,y,1/2-z
-x,-y,-z
x,-y,1/2+z
1/2+x,1/2+y,z
1/2-x,1/2+y,1/2-z
1/2-x,1/2-y,-z
1/2+x,1/2-y,1/2+z
loop_
_atom_site_type_symbol
_atom_site_label
_atom_site_fract_x
_atom_site_fract_y
_atom_site_fract_z
Si Si1 0.495872 0.164528 0.380698
Si Si2 0.122028 0.064579 0.970428
Si Si3 0.902893 0.564050 0.736043
Si Si4 0.761952 0.980269 0.444196
Si Si5 0.000000 0.144674 0.750000
Si Si6 0.425848 0.181320 0.989071
O O1 0.350726 0.115815 0.483917
O O2 0.487957 0.281622 0.336242
O O3 0.564000 0.186573 0.423692
O O4 0.583052 0.073916 0.279880
O O5 0.247705 0.091291 0.839939
O O6 0.081246 0.186099 0.034164
O O7 0.169121 0.981233 0.011580
O O8 0.000000 0.000000 0.000000
O O9 0.000000 0.607654 0.750000
O O10 0.946953 0.624216 0.628762
O O11 0.870424 0.937699 0.317379
O O12 0.705387 0.106475 0.454943
#
# Coordination Sequence:
#
# PCOD8152747 Si02
#       6
#     8   8   8   8   4   8
#     4  11  23  45  68  99 138 193 242 289 353 433
#     4  12  26  45  71 109 142 180 244 304 348 436
#     4  11  22  45  75  96 142 197 231 284 372 420
#     4  11  24  44  66 101 141 188 239 289 360 433
#     4  12  24  40  70 102 142 186 234 308 358 410
#     4  11  26  44  72 102 143 185 244 292 358 434
#
# _framework density 22.256688
#
# number of rings (size 3 to 8) (size 9 to 14) (size 15 to 20)
#    0.000    0.727    4.545    4.364    0.000   10.182 
#    0.000    0.000    0.000    0.000    0.000    0.000 
#    0.000    0.000    0.000    0.000    0.000    0.000 
#
# Total GULP energy -272844.288804 kJ/mol
# GULP energy per Si atom -12402.013127 kJ/mol
# Density = 2.220603 g / cm^3
# Si number density = 22.256688 Si / 1000 Ang^3
#
#
#
# Elastic Constant Matrix: (Units=GPa)
#
#
# Indices 1 2 3 4 5 6 
#
# 1 119.4240 15.9750 39.7568 0.0000 -7.1542 0.0000
# 2 15.9750 100.9024 44.5394 0.0000 -22.2540 0.0000
# 3 39.7568 44.5394 98.0926 0.0000 -16.7147 0.0000
# 4 0.0000 0.0000 0.0000 26.7994 0.0000 0.8257
# 5 -7.1542 -22.2540 -16.7147 0.0000 44.5211 0.0000
# 6 0.0000 0.0000 0.0000 0.8257 0.0000 20.9153
#
#
#
# Elastic Compliance Matrix: (Units=1/GPa)
#
#
# Indices 1 2 3 4 5 6 
#
# 1 0.009686 0.000284 -0.004022 0.000000 0.000188 0.000000
# 2 0.000284 0.013250 -0.005336 0.000000 0.004665 0.000000
# 3 -0.004022 -0.005336 0.014618 0.000000 0.002174 0.000000
# 4 0.000000 0.000000 0.000000 0.037360 0.000000 -0.001475
# 5 0.000188 0.004665 0.002174 0.000000 0.025640 0.000000
# 6 0.000000 0.000000 0.000000 -0.001475 0.000000 0.047870
#
#
# Mechanical properties :
#
#
# Convention : Reuss Voigt Hill
#
# Bulk Modulus (GPa) = 51.53582 57.66238 54.59910
# Shear Modulus (GPa) = 28.89474 32.99036 30.94255
#
# Velocity S-wave (km/s) = 3.60703 3.85420 3.73266
# Velocity P-wave (km/s) = 6.36813 6.76540 6.56977
#
# Compressibility (1/GPa) = 0.01940398
#
# Stress axis : x y z
#
# Youngs Moduli (GPa) = 103.24246 75.47126 68.40801
#
# Poissons Ratio (x) = -0.02140 0.27516
# Poissons Ratio (y) = -0.02927 0.36504
# Poissons Ratio (z) = 0.41528 0.40273
#
# Static dielectric constant tensor:
#      x y z
#    x 4.014560 0.000000 -0.029450 
#    y 0.000000 4.075550 0.000000 
#    z -0.029450 0.000000 4.054360 
# 
# 
# High freq. dielectric constant tensor:
#      x y z
#    x 1.878610 0.000000 0.002410 
#    y 0.000000 1.881190 0.000000 
#    z 0.002410 0.000000 1.878670 
# 
# From -- ./inp_files/203817.got.cif
#   From: 2010.06.25/outbox.cif.g09.slc.cpg/sg15_102_cif.got.tgz:203817.got - 2010.06.28 07:06:18.
