data_PCOD8152115
_publ_section_title
;
Structure prediction by ZEFSAII (Michael W. Deem and Ramdas Pophale) SiO2 
 PCOD8152115
Probable space group: C 2/C
;
_chemical_formula_sum "Si O2"
_cell_formula_units_Z 40
_cell_length_a 22.179276
_cell_length_b 9.453885
_cell_length_c 9.799536
_cell_angle_alpha 90.000000
_cell_angle_beta 91.203770
_cell_angle_gamma 90.000000
_cell_volume 2054.316409
_symmetry_space_group_name_H-M "C 2/C"
_symmetry_group_IT_number 15
_symmetry_cell_setting 'monoclinic'
loop_
_space_group_symop_operation_xyz
x,y,z
-x,y,1/2-z
-x,-y,-z
x,-y,1/2+z
1/2+x,1/2+y,z
1/2-x,1/2+y,1/2-z
1/2-x,1/2-y,-z
1/2+x,1/2-y,1/2+z
loop_
_atom_site_type_symbol
_atom_site_label
_atom_site_fract_x
_atom_site_fract_y
_atom_site_fract_z
Si Si1 0.737907 0.507289 0.640560
Si Si2 0.818760 0.522792 0.397969
Si Si3 0.632236 0.708592 0.713124
Si Si4 0.352486 0.284834 0.963451
Si Si5 0.541430 0.477894 0.630758
O O1 0.791842 0.559358 0.545370
O O2 0.763612 0.469128 0.789326
O O3 0.688741 0.628954 0.649679
O O4 0.709600 0.365254 0.574171
O O5 0.869429 0.637323 0.357699
O O6 0.850550 0.370751 0.399404
O O7 0.570732 0.627627 0.674893
O O8 0.639043 0.722588 0.874815
O O9 0.407795 0.362419 0.894089
O O10 0.500000 0.419385 0.750000
O O11 0.500000 0.500000 0.500000
#
# Coordination Sequence:
#
# PCOD8152115 Si02
#       5
#     8   8   8   8   8
#     4  11  22  37  63  90 130 174 199 238 294 369
#     4  12  22  38  61  93 135 161 198 247 305 360
#     4  11  23  40  63  94 124 163 208 249 300 367
#     4  11  23  41  62  93 126 162 207 251 302 364
#     4  11  24  45  71  87 113 159 212 263 311 359
#
# _framework density 19.471198000000001
#
# number of rings (size 3 to 8) (size 9 to 14) (size 15 to 20)
#    0.000    0.800    6.000    2.400    0.000    1.600 
#    0.000    2.000    0.000    0.000    0.000    0.000 
#    0.000    0.000    0.000    0.000    0.000    0.000 
#
# Total GULP energy -248119.620945 kJ/mol
# GULP energy per Si atom -12405.981047 kJ/mol
# Density = 1.942688 g / cm^3
# Si number density = 19.471198 Si / 1000 Ang^3
#
#
#
# Elastic Constant Matrix: (Units=GPa)
#
#
# Indices 1 2 3 4 5 6 
#
# 1 72.8196 41.3025 32.4951 0.0000 -4.4045 0.0000
# 2 41.3025 143.6883 46.0420 0.0000 -5.7950 0.0000
# 3 32.4951 46.0420 107.7479 0.0000 -7.0279 0.0000
# 4 0.0000 0.0000 0.0000 33.9818 0.0000 -0.8355
# 5 -4.4045 -5.7950 -7.0279 0.0000 38.1849 0.0000
# 6 0.0000 0.0000 0.0000 -0.8355 0.0000 11.7760
#
#
#
# Elastic Compliance Matrix: (Units=1/GPa)
#
#
# Indices 1 2 3 4 5 6 
#
# 1 0.017580 -0.003869 -0.003598 0.000000 0.000778 0.000000
# 2 -0.003869 0.008929 -0.002621 0.000000 0.000426 0.000000
# 3 -0.003598 -0.002621 0.011572 0.000000 0.001317 0.000000
# 4 0.000000 0.000000 0.000000 0.029479 0.000000 0.002092
# 5 0.000778 0.000426 0.001317 0.000000 0.026585 0.000000
# 6 0.000000 0.000000 0.000000 0.002092 0.000000 0.085067
#
#
# Mechanical properties :
#
#
# Convention : Reuss Voigt Hill
#
# Bulk Modulus (GPa) = 55.84980 62.65944 59.25462
# Shear Modulus (GPa) = 24.34821 30.41628 27.38224
#
# Velocity S-wave (km/s) = 3.54004 3.95665 3.75413
# Velocity P-wave (km/s) = 6.74201 7.28861 7.02063
#
# Compressibility (1/GPa) = 0.01790517
#
# Stress axis : x y z
#
# Youngs Moduli (GPa) = 56.88439 112.00027 86.41798
#
# Poissons Ratio (x) = 0.43332 0.31091
# Poissons Ratio (y) = 0.22008 0.22647
# Poissons Ratio (z) = 0.20465 0.29351
#
# Static dielectric constant tensor:
#      x y z
#    x 3.488820 0.000000 0.004470 
#    y 0.000000 3.666420 0.000000 
#    z 0.004470 0.000000 3.649260 
# 
# 
# High freq. dielectric constant tensor:
#      x y z
#    x 1.743410 0.000000 -0.004040 
#    y 0.000000 1.760350 0.000000 
#    z -0.004040 0.000000 1.778250 
# 
# From -- ./inp_files/59891.got.cif
#   From: 2010.06.25/outbox.cif.g09.slc.cpg/sg15_30_cif.got.tgz:59891.got - 2010.06.28 07:06:18.
