data_PCOD8152557
_publ_section_title
;
Structure prediction by ZEFSAII (Michael W. Deem and Ramdas Pophale) SiO2 
 PCOD8152557
Probable space group: C 2/C
;
_chemical_formula_sum "Si O2"
_cell_formula_units_Z 48
_cell_length_a 12.744051
_cell_length_b 13.011832
_cell_length_c 14.773540
_cell_angle_alpha 90.000000
_cell_angle_beta 116.920751
_cell_angle_gamma 90.000000
_cell_volume 2184.323469
_symmetry_space_group_name_H-M "C 2/C"
_symmetry_group_IT_number 15
_symmetry_cell_setting 'monoclinic'
loop_
_space_group_symop_operation_xyz
x,y,z
-x,y,1/2-z
-x,-y,-z
x,-y,1/2+z
1/2+x,1/2+y,z
1/2-x,1/2+y,1/2-z
1/2-x,1/2-y,-z
1/2+x,1/2-y,1/2+z
loop_
_atom_site_type_symbol
_atom_site_label
_atom_site_fract_x
_atom_site_fract_y
_atom_site_fract_z
Si Si1 0.174999 0.760470 0.245738
Si Si2 0.656821 0.478901 0.465853
Si Si3 0.500000 0.427036 0.250000
Si Si4 0.340852 0.697779 0.967229
Si Si5 0.599573 0.729449 0.050723
Si Si6 0.000000 0.595689 0.250000
Si Si7 0.087569 0.443766 0.966920
O O1 0.187012 0.759494 0.142703
O O2 0.305606 0.760266 0.337548
O O3 0.107913 0.659894 0.252121
O O4 0.106537 0.860254 0.252707
O O5 0.553255 0.496328 0.351573
O O6 0.664168 0.573981 0.537235
O O7 0.634245 0.373893 0.511360
O O8 0.780024 0.478035 0.460207
O O9 0.250000 0.750000 0.000000
O O10 0.473579 0.723169 0.050650
O O11 0.584929 0.819542 0.970567
O O12 0.051214 0.524946 0.350437
O O13 0.000000 0.500000 0.000000
#
# Coordination Sequence:
#
# PCOD8152557 Si02
#       7
#     8   8   4   8   8   4   8
#     4  11  23  43  76 102 137 189 249 295 357 450
#     4  12  25  45  75 107 142 192 244 301 368 444
#     4  11  22  42  76 111 130 184 257 296 350 457
#     4  12  28  48  68 106 154 188 243 322 378 428
#     4  12  23  46  74 101 142 195 246 293 367 454
#     4  11  22  44  76 103 136 194 239 290 364 447
#     4  12  25  44  73 111 144 184 239 307 367 436
#
# _framework density 21.974768000000001
#
# number of rings (size 3 to 8) (size 9 to 14) (size 15 to 20)
#    0.000    0.333    6.667    3.000    0.000    3.333 
#    0.000    0.000    0.000    0.000    0.000    0.000 
#    0.000    0.000    0.000    0.000    0.000    0.000 
#
# Total GULP energy -297630.387940 kJ/mol
# GULP energy per Si atom -12401.266164 kJ/mol
# Density = 2.192475 g / cm^3
# Si number density = 21.974768 Si / 1000 Ang^3
#
#
#
# Elastic Constant Matrix: (Units=GPa)
#
#
# Indices 1 2 3 4 5 6 
#
# 1 169.6786 31.6349 87.9596 0.0000 14.9300 0.0000
# 2 31.6349 79.7452 53.9207 0.0000 0.1717 0.0000
# 3 87.9596 53.9207 161.0693 0.0000 0.5096 0.0000
# 4 0.0000 0.0000 0.0000 27.0290 0.0000 -2.2534
# 5 14.9300 0.1717 0.5096 0.0000 45.7539 0.0000
# 6 0.0000 0.0000 0.0000 -2.2534 0.0000 22.2619
#
#
#
# Elastic Compliance Matrix: (Units=1/GPa)
#
#
# Indices 1 2 3 4 5 6 
#
# 1 0.008556 -0.000304 -0.004562 0.000000 -0.002740 0.000000
# 2 -0.000304 0.016220 -0.005264 0.000000 0.000097 0.000000
# 3 -0.004562 -0.005264 0.010458 0.000000 0.001392 0.000000
# 4 0.000000 0.000000 0.000000 0.037312 0.000000 0.003777
# 5 -0.002740 0.000097 0.001392 0.000000 0.022734 0.000000
# 6 0.000000 0.000000 0.000000 0.003777 0.000000 0.045302
#
#
# Mechanical properties :
#
#
# Convention : Reuss Voigt Hill
#
# Bulk Modulus (GPa) = 66.78467 84.16928 75.47697
# Shear Modulus (GPa) = 30.15066 34.80748 32.47907
#
# Velocity S-wave (km/s) = 3.70815 3.98424 3.84867
# Velocity P-wave (km/s) = 6.98508 7.71695 7.36012
#
# Compressibility (1/GPa) = 0.01497350
#
# Stress axis : x y z
#
# Youngs Moduli (GPa) = 116.87429 61.65332 95.62164
#
# Poissons Ratio (x) = 0.01871 0.43625
# Poissons Ratio (y) = 0.03547 0.50339
# Poissons Ratio (z) = 0.53321 0.32457
#
# Static dielectric constant tensor:
#      x y z
#    x 4.149690 0.000000 0.223930 
#    y 0.000000 3.913040 0.000000 
#    z 0.223930 0.000000 4.258590 
# 
# 
# High freq. dielectric constant tensor:
#      x y z
#    x 1.877990 0.000000 0.014220 
#    y 0.000000 1.848200 0.000000 
#    z 0.014220 0.000000 1.872560 
# 
# From -- ./inp_files/144404.got.cif
#   From: 2010.06.25/outbox.cif.g09.slc.cpg/sg15_73_cif.got.tgz:144404.got - 2010.06.28 07:06:18.
