data_PCOD8152611
_publ_section_title
;
Structure prediction by ZEFSAII (Michael W. Deem and Ramdas Pophale) SiO2 
 PCOD8152611
Probable space group: C 2/C
;
_chemical_formula_sum "Si O2"
_cell_formula_units_Z 48
_cell_length_a 27.306881
_cell_length_b 14.841666
_cell_length_c 9.040097
_cell_angle_alpha 90.000000
_cell_angle_beta 146.280600
_cell_angle_gamma 90.000000
_cell_volume 2033.852629
_symmetry_space_group_name_H-M "C 2/C"
_symmetry_group_IT_number 15
_symmetry_cell_setting 'monoclinic'
loop_
_space_group_symop_operation_xyz
x,y,z
-x,y,1/2-z
-x,-y,-z
x,-y,1/2+z
1/2+x,1/2+y,z
1/2-x,1/2+y,1/2-z
1/2-x,1/2-y,-z
1/2+x,1/2-y,1/2+z
loop_
_atom_site_type_symbol
_atom_site_label
_atom_site_fract_x
_atom_site_fract_y
_atom_site_fract_z
Si Si1 0.926518 0.213739 0.755142
Si Si2 0.314994 0.012299 0.623624
Si Si3 0.580338 0.921023 0.849088
Si Si4 0.422666 0.579769 0.299685
Si Si5 0.208014 0.162719 0.328127
Si Si6 0.366950 0.587022 0.827379
O O1 0.936942 0.319297 0.749952
O O2 0.867918 0.175607 0.478102
O O3 0.877062 0.188291 0.785927
O O4 0.019750 0.162325 0.988539
O O5 0.282619 0.097948 0.443308
O O6 0.402591 0.974541 0.761740
O O7 0.236491 0.937615 0.434400
O O8 0.335761 0.056442 0.836811
O O9 0.500000 0.954049 0.750000
O O10 0.326481 0.601374 0.123441
O O11 0.434954 0.475373 0.393294
O O12 0.413044 0.582637 0.100449
O O13 0.250000 0.250000 0.500000
#
# Coordination Sequence:
#
# PCOD8152611 Si02
#       6
#     8   8   8   8   8   8
#     4  12  25  43  70 109 145 186 238 306 366 438
#     4  11  24  47  70 100 139 193 244 290 368 426
#     4  12  26  47  69  98 142 193 247 298 354 432
#     4  11  24  44  71 109 147 187 233 296 378 432
#     4  11  22  43  71  99 142 189 242 297 356 435
#     4  11  24  45  77 109 149 186 237 306 370 445
#
# _framework density 23.600531
#
# number of rings (size 3 to 8) (size 9 to 14) (size 15 to 20)
#    0.000    0.667    1.667    8.000    0.000    3.333 
#    3.000    1.667    0.000    0.000    0.000    0.000 
#    0.000    0.000    0.000    0.000    0.000    0.000 
#
# Total GULP energy -297314.149050 kJ/mol
# GULP energy per Si atom -12388.089544 kJ/mol
# Density = 2.354681 g / cm^3
# Si number density = 23.600531 Si / 1000 Ang^3
#
#
#
# Elastic Constant Matrix: (Units=GPa)
#
#
# Indices 1 2 3 4 5 6 
#
# 1 87.5821 38.8972 38.6158 0.0000 -31.1461 0.0000
# 2 38.8972 111.3640 36.8919 0.0000 -9.0158 0.0000
# 3 38.6158 36.8919 120.5074 0.0000 -19.0211 0.0000
# 4 0.0000 0.0000 0.0000 38.6320 0.0000 -5.6900
# 5 -31.1461 -9.0158 -19.0211 0.0000 30.6973 0.0000
# 6 0.0000 0.0000 0.0000 -5.6900 0.0000 28.4038
#
#
#
# Elastic Compliance Matrix: (Units=1/GPa)
#
#
# Indices 1 2 3 4 5 6 
#
# 1 0.021422 -0.005197 -0.002310 0.000000 0.018778 0.000000
# 2 -0.005197 0.011291 -0.002328 0.000000 -0.003399 0.000000
# 3 -0.002310 -0.002328 0.010278 0.000000 0.003342 0.000000
# 4 0.000000 0.000000 0.000000 0.026672 0.000000 0.005343
# 5 0.018778 -0.003399 0.003342 0.000000 0.052701 0.000000
# 6 0.000000 0.000000 0.000000 0.005343 0.000000 0.036277
#
#
# Mechanical properties :
#
#
# Convention : Reuss Voigt Hill
#
# Bulk Modulus (GPa) = 42.87701 60.91814 51.89758
# Shear Modulus (GPa) = 26.86960 33.21652 30.04306
#
# Velocity S-wave (km/s) = 3.37785 3.75567 3.57176
# Velocity P-wave (km/s) = 5.78104 6.68393 6.24881
#
# Compressibility (1/GPa) = 0.02332252
#
# Stress axis : x y z
#
# Youngs Moduli (GPa) = 46.68090 88.56873 97.29109
#
# Poissons Ratio (x) = 0.46029 0.22471
# Poissons Ratio (y) = 0.24260 0.22647
# Poissons Ratio (z) = 0.10782 0.20616
#
# Static dielectric constant tensor:
#      x y z
#    x 6.448090 0.000000 2.587350 
#    y 0.000000 5.038560 0.000000 
#    z 2.587350 0.000000 7.131830 
# 
# 
# High freq. dielectric constant tensor:
#      x y z
#    x 1.948230 0.000000 0.012140 
#    y 0.000000 1.927230 0.000000 
#    z 0.012140 0.000000 1.950410 
# 
# From -- ./inp_files/66496.got.cif
#   From: 2010.06.25/outbox.cif.g09.slc.cpg/sg15_34_cif.got.tgz:66496.got - 2010.06.28 07:06:18.
