data_PCOD8152601
_publ_section_title
;
Structure prediction by ZEFSAII (Michael W. Deem and Ramdas Pophale) SiO2 
 PCOD8152601
Probable space group: C 2/C
;
_chemical_formula_sum "Si O2"
_cell_formula_units_Z 32
_cell_length_a 27.004899
_cell_length_b 6.736609
_cell_length_c 16.112200
_cell_angle_alpha 90.000000
_cell_angle_beta 31.379191
_cell_angle_gamma 90.000000
_cell_volume 1526.251089
_symmetry_space_group_name_H-M "C 2/C"
_symmetry_group_IT_number 15
_symmetry_cell_setting 'monoclinic'
loop_
_space_group_symop_operation_xyz
x,y,z
-x,y,1/2-z
-x,-y,-z
x,-y,1/2+z
1/2+x,1/2+y,z
1/2-x,1/2+y,1/2-z
1/2-x,1/2-y,-z
1/2+x,1/2-y,1/2+z
loop_
_atom_site_type_symbol
_atom_site_label
_atom_site_fract_x
_atom_site_fract_y
_atom_site_fract_z
Si Si1 0.635970 0.101038 0.458211
Si Si2 0.170473 0.138888 0.061196
Si Si3 0.677858 0.346141 0.913405
Si Si4 0.488967 0.594368 0.426418
O O1 0.626228 0.204262 0.561066
O O2 0.735378 0.163521 0.274375
O O3 0.548152 0.174658 0.524145
O O4 0.631537 0.869866 0.485120
O O5 0.210670 0.942578 0.954878
O O6 0.250000 0.250000 0.000000
O O7 0.089406 0.064817 0.239167
O O8 0.594225 0.483829 0.001939
O O9 0.500000 0.500000 0.500000
#
# Coordination Sequence:
#
# PCOD8152601 Si02
#       4
#     8   8   8   8
#     4  11  22  43  70  95 135 179 222 282 341 400
#     4  11  25  43  66 100 137 173 229 276 335 411
#     4  11  22  43  70  95 135 179 222 282 341 400
#     4  11  25  43  66 100 137 173 229 276 335 411
#
# _framework density 20.966405999999999
#
# number of rings (size 3 to 8) (size 9 to 14) (size 15 to 20)
#    0.000    1.000    5.000    4.500    0.000    6.000 
#    0.000    0.000    0.000    0.000    0.000    0.000 
#    0.000    0.000    0.000    0.000    0.000    0.000 
#
# Total GULP energy -198315.536202 kJ/mol
# GULP energy per Si atom -12394.721013 kJ/mol
# Density = 2.091869 g / cm^3
# Si number density = 20.966406 Si / 1000 Ang^3
#
#
#
# Elastic Constant Matrix: (Units=GPa)
#
#
# Indices 1 2 3 4 5 6 
#
# 1 130.8688 47.4416 40.9545 -0.0007 8.5717 0.0014
# 2 47.4416 111.7765 -0.3359 0.0009 13.3567 0.0071
# 3 40.9545 -0.3359 115.3309 0.0029 18.1273 -0.0011
# 4 -0.0007 0.0009 0.0029 35.4566 -0.0015 -2.5132
# 5 8.5717 13.3567 18.1273 -0.0015 33.6491 0.0004
# 6 0.0014 0.0071 -0.0011 -2.5132 0.0004 45.2549
#
#
#
# Elastic Compliance Matrix: (Units=1/GPa)
#
#
# Indices 1 2 3 4 5 6 
#
# 1 0.010455 -0.004602 -0.003927 0.000001 0.001279 0.000000
# 2 -0.004602 0.011465 0.002402 -0.000001 -0.004673 -0.000002
# 3 -0.003927 0.002402 0.010996 -0.000001 -0.005877 0.000000
# 4 0.000001 -0.000001 -0.000001 0.028315 0.000002 0.001572
# 5 0.001279 -0.004673 -0.005877 0.000002 0.034413 0.000000
# 6 0.000000 -0.000002 0.000000 0.001572 0.000000 0.022184
#
#
# Mechanical properties :
#
#
# Convention : Reuss Voigt Hill
#
# Bulk Modulus (GPa) = 48.39800 59.34407 53.87103
# Shear Modulus (GPa) = 36.50450 40.86651 38.68550
#
# Velocity S-wave (km/s) = 4.17717 4.41970 4.30014
# Velocity P-wave (km/s) = 6.81166 7.37637 7.09963
#
# Compressibility (1/GPa) = 0.02066201
#
# Stress axis : x y z
#
# Youngs Moduli (GPa) = 95.65150 87.22043 90.94344
#
# Poissons Ratio (x) = 0.40138 0.35713
# Poissons Ratio (y) = 0.44018 -0.21845
# Poissons Ratio (z) = 0.37561 -0.20950
#
# Static dielectric constant tensor:
#      x y z
#    x 4.034780 -0.000010 -0.168550 
#    y -0.000010 4.303120 0.000010 
#    z -0.168550 0.000010 3.735480 
# 
# 
# High freq. dielectric constant tensor:
#      x y z
#    x 1.814420 0.000000 0.006760 
#    y 0.000000 1.833580 0.000000 
#    z 0.006760 0.000000 1.830500 
# 
# From -- ./inp_files/172228.got.cif
#   From: 2010.06.25/outbox.cif.g09.slc.cpg/sg15_87_cif.got.tgz:172228.got - 2010.06.28 07:06:18.
