data_PCOD8152715
_publ_section_title
;
Structure prediction by ZEFSAII (Michael W. Deem and Ramdas Pophale) SiO2 
 PCOD8152715
Probable space group: C 2/C
;
_chemical_formula_sum "Si O2"
_cell_formula_units_Z 48
_cell_length_a 16.895809
_cell_length_b 8.708259
_cell_length_c 28.119518
_cell_angle_alpha 90.000000
_cell_angle_beta 33.047067
_cell_angle_gamma 90.000000
_cell_volume 2256.190866
_symmetry_space_group_name_H-M "C 2/C"
_symmetry_group_IT_number 15
_symmetry_cell_setting 'monoclinic'
loop_
_space_group_symop_operation_xyz
x,y,z
-x,y,1/2-z
-x,-y,-z
x,-y,1/2+z
1/2+x,1/2+y,z
1/2-x,1/2+y,1/2-z
1/2-x,1/2-y,-z
1/2+x,1/2-y,1/2+z
loop_
_atom_site_type_symbol
_atom_site_label
_atom_site_fract_x
_atom_site_fract_y
_atom_site_fract_z
Si Si1 0.040816 0.014547 0.351788
Si Si2 0.885683 0.927229 0.522651
Si Si3 0.715102 0.236892 0.291908
Si Si4 0.962467 0.416286 0.970391
Si Si5 0.829826 0.642250 0.831987
Si Si6 0.226391 0.861324 0.556784
O O1 0.155899 0.153320 0.301563
O O2 0.934117 0.058497 0.361980
O O3 0.129023 0.854664 0.300473
O O4 0.926145 0.000676 0.451904
O O5 0.888632 0.744804 0.520587
O O6 0.726112 0.978659 0.619882
O O7 0.000000 0.000000 0.500000
O O8 0.606644 0.106875 0.366296
O O9 0.777232 0.335169 0.304627
O O10 0.851878 0.511211 0.993247
O O11 0.000000 0.500000 0.000000
O O12 0.760166 0.773757 0.899957
O O13 0.000000 0.641131 0.750000
O O14 0.250000 0.750000 0.500000
#
# Coordination Sequence:
#
# PCOD8152715 Si02
#       6
#     8   8   8   8   8   8
#     4  11  25  43  66 102 134 178 227 284 332 400
#     4  11  22  45  68  97 137 179 226 276 343 412
#     4  11  25  43  69 100 140 175 230 276 344 408
#     4  11  24  43  73 100 134 187 225 271 347 416
#     4  12  23  44  68  99 137 180 220 281 347 404
#     4  12  25  43  71  99 137 176 227 282 336 403
#
# _framework density 21.274795000000001
#
# number of rings (size 3 to 8) (size 9 to 14) (size 15 to 20)
#    0.000    0.667    8.333    0.000    2.333    2.667 
#    3.000    0.833    0.000    0.000    0.000    0.000 
#    0.000    0.000    0.000    0.000    0.000    0.000 
#
# Total GULP energy -297577.092457 kJ/mol
# GULP energy per Si atom -12399.045519 kJ/mol
# Density = 2.122637 g / cm^3
# Si number density = 21.274795 Si / 1000 Ang^3
#
#
#
# Elastic Constant Matrix: (Units=GPa)
#
#
# Indices 1 2 3 4 5 6 
#
# 1 71.3084 49.6322 10.7101 -0.0022 -16.6177 0.0181
# 2 49.6322 133.0497 54.6934 -0.0044 -5.5357 0.0048
# 3 10.7101 54.6934 88.9649 -0.0010 -20.6587 0.0009
# 4 -0.0022 -0.0044 -0.0010 44.3527 -0.0011 -7.1826
# 5 -16.6177 -5.5357 -20.6587 -0.0011 35.7841 -0.0020
# 6 0.0181 0.0048 0.0009 -7.1826 -0.0020 42.3066
#
#
#
# Elastic Compliance Matrix: (Units=1/GPa)
#
#
# Indices 1 2 3 4 5 6 
#
# 1 0.024018 -0.011378 0.007258 -0.000001 0.013584 -0.000009
# 2 -0.011378 0.015618 -0.010275 0.000001 -0.008800 0.000003
# 3 0.007258 -0.010275 0.019744 0.000000 0.013179 -0.000002
# 4 -0.000001 0.000001 0.000000 0.023184 0.000001 0.003936
# 5 0.013584 -0.008800 0.013179 0.000001 0.040501 -0.000003
# 6 -0.000009 0.000003 -0.000002 0.003936 -0.000003 0.024305
#
#
# Mechanical properties :
#
#
# Convention : Reuss Voigt Hill
#
# Bulk Modulus (GPa) = 32.69099 58.15492 45.42295
# Shear Modulus (GPa) = 26.83002 36.37451 31.60226
#
# Velocity S-wave (km/s) = 3.55507 4.13939 3.85831
# Velocity P-wave (km/s) = 5.67898 7.08806 6.42228
#
# Compressibility (1/GPa) = 0.03058947
#
# Stress axis : x y z
#
# Youngs Moduli (GPa) = 41.63466 64.02783 50.64810
#
# Poissons Ratio (x) = 0.72851 -0.36759
# Poissons Ratio (y) = 0.47372 0.52043
# Poissons Ratio (z) = -0.30217 0.65791
#
# Static dielectric constant tensor:
#      x y z
#    x 3.764610 -0.000010 -0.523170 
#    y -0.000010 3.591980 -0.000030 
#    z -0.523170 -0.000030 2.971840 
# 
# 
# High freq. dielectric constant tensor:
#      x y z
#    x 1.831780 0.000000 -0.014450 
#    y 0.000000 1.838700 0.000000 
#    z -0.014450 0.000000 1.837940 
# 
# From -- ./inp_files/224697.got.cif
#   From: 2010.06.25/outbox.cif.g09.slc.cpg/sg15_113_cif.got.tgz:224697.got - 2010.06.28 07:06:18.
