data_PCOD8152736
_publ_section_title
;
Structure prediction by ZEFSAII (Michael W. Deem and Ramdas Pophale) SiO2 
 PCOD8152736
Probable space group: C 2/C
;
_chemical_formula_sum "Si O2"
_cell_formula_units_Z 60
_cell_length_a 18.142365
_cell_length_b 6.677214
_cell_length_c 25.722304
_cell_angle_alpha 90.000000
_cell_angle_beta 63.785573
_cell_angle_gamma 90.000000
_cell_volume 2795.520967
_symmetry_space_group_name_H-M "C 2/C"
_symmetry_group_IT_number 15
_symmetry_cell_setting 'monoclinic'
loop_
_space_group_symop_operation_xyz
x,y,z
-x,y,1/2-z
-x,-y,-z
x,-y,1/2+z
1/2+x,1/2+y,z
1/2-x,1/2+y,1/2-z
1/2-x,1/2-y,-z
1/2+x,1/2-y,1/2+z
loop_
_atom_site_type_symbol
_atom_site_label
_atom_site_fract_x
_atom_site_fract_y
_atom_site_fract_z
Si Si1 0.500000 0.756618 0.250000
Si Si2 0.639260 0.187012 0.860774
Si Si3 0.937236 0.297494 0.648144
Si Si4 0.329557 0.293144 0.941401
Si Si5 0.699172 0.404737 0.142915
Si Si6 0.590946 0.029778 0.152258
Si Si7 0.129899 0.051907 0.269029
Si Si8 0.008476 0.960074 0.557645
O O1 0.536077 0.617992 0.284697
O O2 0.578232 0.882678 0.205211
O O3 0.712582 0.204597 0.879973
O O4 0.668320 0.284096 0.796659
O O5 0.558528 0.296959 0.905866
O O6 0.622019 0.950965 0.862797
O O7 0.998215 0.428219 0.663769
O O8 0.876964 0.162129 0.701279
O O9 0.991358 0.168895 0.591428
O O10 0.304683 0.450257 0.904920
O O11 0.401180 0.382009 0.955516
O O12 0.357089 0.081356 0.908393
O O13 0.250000 0.250000 0.000000
O O14 0.631406 0.234234 0.157906
O O15 0.684166 0.531762 0.200262
O O16 0.000000 0.000000 0.500000
#
# Coordination Sequence:
#
# PCOD8152736 Si02
#       8
#     4   8   8   8   8   8   8   8
#     4  12  20  42  74 102 132 184 230 284 340 420
#     4  11  27  45  68 105 141 183 234 285 352 424
#     4  11  22  45  71  98 137 182 230 282 350 417
#     4  12  28  48  71 105 142 183 241 295 347 420
#     4  12  28  44  69 105 145 183 228 292 358 414
#     4  12  23  44  71 101 138 181 230 283 348 413
#     4  11  24  41  70 103 143 175 233 284 350 423
#     4  11  26  49  73  99 134 184 241 294 342 418
#
# _framework density 21.462904000000002
#
# number of rings (size 3 to 8) (size 9 to 14) (size 15 to 20)
#    0.000    0.533    5.333    2.400    5.600    3.200 
#    0.000    0.000    0.000    0.000    0.000    0.000 
#    0.000    0.000    0.000    0.000    0.000    0.000 
#
# Total GULP energy -372132.251600 kJ/mol
# GULP energy per Si atom -12404.408387 kJ/mol
# Density = 2.141405 g / cm^3
# Si number density = 21.462904 Si / 1000 Ang^3
#
#
#
# Elastic Constant Matrix: (Units=GPa)
#
#
# Indices 1 2 3 4 5 6 
#
# 1 110.9391 22.5776 42.0436 -0.0006 7.5446 0.0065
# 2 22.5776 102.0656 40.1331 -0.0017 -0.1850 0.0053
# 3 42.0436 40.1331 128.6703 0.0000 -1.1080 -0.0014
# 4 -0.0006 -0.0017 0.0000 22.5942 -0.0005 0.9573
# 5 7.5446 -0.1850 -1.1080 -0.0005 34.7615 -0.0010
# 6 0.0065 0.0053 -0.0014 0.9573 -0.0010 23.7713
#
#
#
# Elastic Compliance Matrix: (Units=1/GPa)
#
#
# Indices 1 2 3 4 5 6 
#
# 1 0.010592 -0.001115 -0.003134 0.000000 -0.002405 -0.000003
# 2 -0.001115 0.011285 -0.003154 0.000001 0.000202 -0.000002
# 3 -0.003134 -0.003154 0.009788 0.000000 0.000975 0.000002
# 4 0.000000 0.000001 0.000000 0.044335 0.000001 -0.001785
# 5 -0.002405 0.000202 0.000975 0.000001 0.029322 0.000002
# 6 -0.000003 -0.000002 0.000002 -0.001785 0.000002 0.042140
#
#
# Mechanical properties :
#
#
# Convention : Reuss Voigt Hill
#
# Bulk Modulus (GPa) = 59.31449 61.24264 60.27857
# Shear Modulus (GPa) = 29.78216 32.02010 30.90113
#
# Velocity S-wave (km/s) = 3.72911 3.86668 3.79851
# Velocity P-wave (km/s) = 6.79981 6.96642 6.88362
#
# Compressibility (1/GPa) = 0.01685929
#
# Stress axis : x y z
#
# Youngs Moduli (GPa) = 94.40981 88.61543 102.16725
#
# Poissons Ratio (x) = 0.09882 0.32018
# Poissons Ratio (y) = 0.10528 0.32220
# Poissons Ratio (z) = 0.29587 0.27946
#
# Static dielectric constant tensor:
#      x y z
#    x 3.910210 0.000000 0.153860 
#    y 0.000000 4.071360 0.000000 
#    z 0.153860 0.000000 3.860270 
# 
# 
# High freq. dielectric constant tensor:
#      x y z
#    x 1.848490 0.000000 0.004280 
#    y 0.000000 1.858410 0.000000 
#    z 0.004280 0.000000 1.836350 
# 
# From -- ./inp_files/300097.got.cif
#   From: 2010.06.25/outbox.cif.g09.slc.cpg/sg15_151_cif.got.tgz:300097.got - 2010.06.28 07:06:18.
