data_PCOD8152179
_publ_section_title
;
Structure prediction by ZEFSAII (Michael W. Deem and Ramdas Pophale) SiO2 
 PCOD8152179
Probable space group: C 2/C
;
_chemical_formula_sum "Si O2"
_cell_formula_units_Z 40
_cell_length_a 11.049022
_cell_length_b 9.203576
_cell_length_c 19.363488
_cell_angle_alpha 90.000000
_cell_angle_beta 113.843777
_cell_angle_gamma 90.000000
_cell_volume 1801.023913
_symmetry_space_group_name_H-M "C 2/C"
_symmetry_group_IT_number 15
_symmetry_cell_setting 'monoclinic'
loop_
_space_group_symop_operation_xyz
x,y,z
-x,y,1/2-z
-x,-y,-z
x,-y,1/2+z
1/2+x,1/2+y,z
1/2-x,1/2+y,1/2-z
1/2-x,1/2-y,-z
1/2+x,1/2-y,1/2+z
loop_
_atom_site_type_symbol
_atom_site_label
_atom_site_fract_x
_atom_site_fract_y
_atom_site_fract_z
Si Si1 0.922081 0.439085 0.155788
Si Si2 0.942621 0.768103 0.542938
Si Si3 0.282819 0.051645 0.783867
Si Si4 0.751098 0.317987 0.891164
Si Si5 0.784945 0.858858 0.846426
O O1 0.954136 0.389006 0.084216
O O2 0.830557 0.308809 0.168973
O O3 0.839011 0.588983 0.135548
O O4 0.071766 0.457067 0.222046
O O5 0.889098 0.748963 0.452832
O O6 0.838611 0.866845 0.563253
O O7 0.087043 0.842177 0.575521
O O8 0.285246 0.954247 0.852804
O O9 0.182864 0.980057 0.705408
O O10 0.241794 0.212503 0.796514
#
# Coordination Sequence:
#
# PCOD8152179 Si02
#       5
#     8   8   8   8   8
#     4   9  20  40  58  83 119 152 190 245 290 345
#     4   8  20  41  64  85 118 158 197 242 300 348
#     4  11  23  39  59  87 121 157 196 246 295 353
#     4   9  19  44  63  84 121 157 195 247 298 348
#     4  11  22  39  60  89 121 158 197 244 298 349
#
# _framework density 22.209589000000001
#
# number of rings (size 3 to 8) (size 9 to 14) (size 15 to 20)
#    1.200    1.200    0.000    1.800    0.000    6.400 
#   10.800    2.000    0.000    0.000    0.000    0.000 
#    0.000    0.000    0.000    0.000    0.000    0.000 
#
# Total GULP energy -247810.956126 kJ/mol
# GULP energy per Si atom -12390.547806 kJ/mol
# Density = 2.215904 g / cm^3
# Si number density = 22.209589 Si / 1000 Ang^3
#
#
#
# Elastic Constant Matrix: (Units=GPa)
#
#
# Indices 1 2 3 4 5 6 
#
# 1 80.4963 48.3807 19.6271 0.0000 14.8539 0.0000
# 2 48.3807 102.2129 15.4743 0.0000 8.8148 0.0000
# 3 19.6271 15.4743 75.5318 0.0000 29.0996 0.0000
# 4 0.0000 0.0000 0.0000 23.5366 0.0000 5.7267
# 5 14.8539 8.8148 29.0996 0.0000 35.0794 0.0000
# 6 0.0000 0.0000 0.0000 5.7267 0.0000 36.1641
#
#
#
# Elastic Compliance Matrix: (Units=1/GPa)
#
#
# Indices 1 2 3 4 5 6 
#
# 1 0.018516 -0.008158 -0.001336 0.000000 -0.004682 0.000000
# 2 -0.008158 0.013726 -0.001020 0.000000 0.000852 0.000000
# 3 -0.001336 -0.001020 0.019810 0.000000 -0.015611 0.000000
# 4 0.000000 0.000000 0.000000 0.044190 0.000000 -0.006998
# 5 -0.004682 0.000852 -0.015611 0.000000 0.043225 0.000000
# 6 0.000000 0.000000 0.000000 -0.006998 0.000000 0.028760
#
#
# Mechanical properties :
#
#
# Convention : Reuss Voigt Hill
#
# Bulk Modulus (GPa) = 32.23463 47.24501 39.73982
# Shear Modulus (GPa) = 25.05049 30.60659 27.82854
#
# Velocity S-wave (km/s) = 3.36209 3.71628 3.54361
# Velocity P-wave (km/s) = 5.44214 6.30340 5.88853
#
# Compressibility (1/GPa) = 0.03102254
#
# Stress axis : x y z
#
# Youngs Moduli (GPa) = 54.00741 72.85430 50.47949
#
# Poissons Ratio (x) = 0.59436 0.06746
# Poissons Ratio (y) = 0.44060 0.05150
# Poissons Ratio (z) = 0.07217 0.07433
#
# Static dielectric constant tensor:
#      x y z
#    x 3.908580 0.000000 0.123080 
#    y 0.000000 3.761450 0.000000 
#    z 0.123080 0.000000 3.989940 
# 
# 
# High freq. dielectric constant tensor:
#      x y z
#    x 1.858210 0.000000 0.007300 
#    y 0.000000 1.851170 0.000000 
#    z 0.007300 0.000000 1.886960 
# 
# From -- ./inp_files/267889.got.cif
#   From: 2010.06.25/outbox.cif.g09.slc.cpg/sg15_134_cif.got.tgz:267889.got - 2010.06.28 07:06:18.
