data_PCOD8152297
_publ_section_title
;
Structure prediction by ZEFSAII (Michael W. Deem and Ramdas Pophale) SiO2 
 PCOD8152297
Probable space group: C 2/C
;
_chemical_formula_sum "Si O2"
_cell_formula_units_Z 60
_cell_length_a 16.876091
_cell_length_b 14.986008
_cell_length_c 13.078284
_cell_angle_alpha 90.000000
_cell_angle_beta 119.233612
_cell_angle_gamma 90.000000
_cell_volume 2886.300691
_symmetry_space_group_name_H-M "C 2/C"
_symmetry_group_IT_number 15
_symmetry_cell_setting 'monoclinic'
loop_
_space_group_symop_operation_xyz
x,y,z
-x,y,1/2-z
-x,-y,-z
x,-y,1/2+z
1/2+x,1/2+y,z
1/2-x,1/2+y,1/2-z
1/2-x,1/2-y,-z
1/2+x,1/2-y,1/2+z
loop_
_atom_site_type_symbol
_atom_site_label
_atom_site_fract_x
_atom_site_fract_y
_atom_site_fract_z
Si Si1 0.813039 0.288136 0.774006
Si Si2 0.500000 0.660052 0.250000
Si Si3 0.243651 0.098126 0.743782
Si Si4 0.574384 0.204978 0.954583
Si Si5 0.327225 0.573765 0.218312
Si Si6 0.067242 0.415180 0.048005
Si Si7 0.215246 0.427193 0.448164
Si Si8 0.099525 0.405719 0.841195
O O1 0.774128 0.192581 0.711430
O O2 0.731448 0.353401 0.756258
O O3 0.870986 0.326512 0.716040
O O4 0.880742 0.266927 0.910305
O O5 0.436578 0.715500 0.132501
O O6 0.432007 0.602520 0.276798
O O7 0.340254 0.055048 0.838452
O O8 0.239913 0.121218 0.620743
O O9 0.170485 0.021838 0.723541
O O10 0.475472 0.163885 0.912650
O O11 0.633398 0.129337 0.939732
O O12 0.290294 0.557883 0.081133
O O13 0.092415 0.374101 0.953832
O O14 0.000000 0.500000 0.000000
O O15 0.176232 0.519599 0.381128
O O16 0.000000 0.443499 0.750000
#
# Coordination Sequence:
#
# PCOD8152297 Si02
#       8
#     8   4   8   8   8   8   8   8
#     4  11  24  43  66  96 136 169 214 273 330 397
#     4  12  26  44  66  92 128 176 234 272 308 382
#     4  12  24  41  67  94 129 179 217 260 341 390
#     4  11  22  40  65  99 130 167 218 273 329 384
#     4  11  24  46  64  94 130 171 225 277 313 390
#     4  12  21  38  64  99 129 163 214 271 333 395
#     4  11  22  40  70  95 130 170 213 276 339 381
#     4  12  22  38  66 102 137 165 203 270 339 390
#
# _framework density 20.787855
#
# number of rings (size 3 to 8) (size 9 to 14) (size 15 to 20)
#    0.000    0.533    5.333    4.800    0.933    2.667 
#    1.200    2.667    0.000    0.000    0.000    0.000 
#    0.000    0.000    0.000    0.000    0.000    0.000 
#
# Total GULP energy -372071.154664 kJ/mol
# GULP energy per Si atom -12402.371822 kJ/mol
# Density = 2.074054 g / cm^3
# Si number density = 20.787855 Si / 1000 Ang^3
#
#
#
# Elastic Constant Matrix: (Units=GPa)
#
#
# Indices 1 2 3 4 5 6 
#
# 1 81.2811 25.4943 22.1730 0.0000 -12.0809 0.0000
# 2 25.4943 103.4155 16.9924 0.0000 -4.4734 0.0000
# 3 22.1730 16.9924 91.7601 0.0000 -20.1683 0.0000
# 4 0.0000 0.0000 0.0000 18.9615 0.0000 0.6237
# 5 -12.0809 -4.4734 -20.1683 0.0000 33.6079 0.0000
# 6 0.0000 0.0000 0.0000 0.6237 0.0000 2.6563
#
#
#
# Elastic Compliance Matrix: (Units=1/GPa)
#
#
# Indices 1 2 3 4 5 6 
#
# 1 0.014356 -0.003037 -0.002144 0.000000 0.003470 0.000000
# 2 -0.003037 0.010617 -0.001338 0.000000 -0.000481 0.000000
# 3 -0.002144 -0.001338 0.013196 0.000000 0.006970 0.000000
# 4 0.000000 0.000000 0.000000 0.053149 0.000000 -0.012480
# 5 0.003470 -0.000481 0.006970 0.000000 0.035121 0.000000
# 6 0.000000 0.000000 0.000000 -0.012480 0.000000 0.379394
#
#
# Mechanical properties :
#
#
# Convention : Reuss Voigt Hill
#
# Bulk Modulus (GPa) = 39.79080 45.08621 42.43851
# Shear Modulus (GPa) = 9.48320 25.16495 17.32408
#
# Velocity S-wave (km/s) = 2.13818 3.48309 2.88996
# Velocity P-wave (km/s) = 5.02779 6.15724 5.62096
#
# Compressibility (1/GPa) = 0.02513144
#
# Stress axis : x y z
#
# Youngs Moduli (GPa) = 69.65705 94.18498 75.78138
#
# Poissons Ratio (x) = 0.28601 0.16248
# Poissons Ratio (y) = 0.21153 0.10141
# Poissons Ratio (z) = 0.14935 0.12604
#
# Static dielectric constant tensor:
#      x y z
#    x 3.812180 0.000000 -0.165530 
#    y 0.000000 3.634720 0.000000 
#    z -0.165530 0.000000 3.894000 
# 
# 
# High freq. dielectric constant tensor:
#      x y z
#    x 1.814050 0.000000 -0.012560 
#    y 0.000000 1.800990 0.000000 
#    z -0.012560 0.000000 1.819120 
# 
# From -- ./inp_files/105764.got.cif
#   From: 2010.06.25/outbox.cif.g09.slc.cpg/sg15_53_cif.got.tgz:105764.got - 2010.06.28 07:06:18.
