data_PCOD8152016
_publ_section_title
;
Structure prediction by ZEFSAII (Michael W. Deem and Ramdas Pophale) SiO2 
 PCOD8152016
Probable space group: C 2/C
;
_chemical_formula_sum "Si O2"
_cell_formula_units_Z 48
_cell_length_a 15.683118
_cell_length_b 10.626655
_cell_length_c 30.527158
_cell_angle_alpha 90.000000
_cell_angle_beta 25.270614
_cell_angle_gamma 90.000000
_cell_volume 2171.878558
_symmetry_space_group_name_H-M "C 2/C"
_symmetry_group_IT_number 15
_symmetry_cell_setting 'monoclinic'
loop_
_space_group_symop_operation_xyz
x,y,z
-x,y,1/2-z
-x,-y,-z
x,-y,1/2+z
1/2+x,1/2+y,z
1/2-x,1/2+y,1/2-z
1/2-x,1/2-y,-z
1/2+x,1/2-y,1/2+z
loop_
_atom_site_type_symbol
_atom_site_label
_atom_site_fract_x
_atom_site_fract_y
_atom_site_fract_z
Si Si1 0.405631 0.931287 0.748852
Si Si2 0.074983 0.222763 0.613508
Si Si3 0.630976 0.283150 0.649944
Si Si4 0.637191 0.827998 0.292363
Si Si5 0.057005 0.258101 0.425509
Si Si6 0.812754 0.931328 0.363644
O O1 0.500000 0.983496 0.750000
O O2 0.559014 0.830527 0.657654
O O3 0.191717 0.866401 0.857847
O O4 0.388652 0.041197 0.721042
O O5 0.250000 0.250000 0.500000
O O6 0.143910 0.095768 0.605663
O O7 0.869350 0.208232 0.682806
O O8 0.500000 0.220071 0.750000
O O9 0.487891 0.282003 0.673836
O O10 0.704513 0.419292 0.632041
O O11 0.835505 0.209648 0.542282
O O12 0.558221 0.835880 0.379035
O O13 0.123294 0.357566 0.432088
O O14 0.000000 0.877530 0.250000
#
# Coordination Sequence:
#
# PCOD8152016 Si02
#       6
#     8   8   8   8   8   8
#     4  11  23  46  70  95 142 180 221 272 344 404
#     4  11  25  41  69  99 132 176 233 274 336 401
#     4  11  27  42  70 101 138 170 232 279 341 389
#     4  11  26  43  68 103 135 176 224 281 335 399
#     4  11  23  46  70 100 135 184 223 277 336 401
#     4  11  21  45  69  97 131 179 223 280 333 401
#
# _framework density 22.100684000000001
#
# number of rings (size 3 to 8) (size 9 to 14) (size 15 to 20)
#    0.000    1.000    5.000    1.500    9.333    1.333 
#    0.000    2.500    0.000    0.000    0.000    0.000 
#    0.000    0.000    0.000    0.000    0.000    0.000 
#
# Total GULP energy -297535.718509 kJ/mol
# GULP energy per Si atom -12397.321605 kJ/mol
# Density = 2.205038 g / cm^3
# Si number density = 22.100684 Si / 1000 Ang^3
#
#
#
# Elastic Constant Matrix: (Units=GPa)
#
#
# Indices 1 2 3 4 5 6 
#
# 1 134.5101 32.2313 52.6731 0.0012 -14.3796 0.0013
# 2 32.2313 74.0882 24.6609 0.0014 5.6904 0.0004
# 3 52.6731 24.6609 192.9070 -0.0197 -9.4335 -0.0033
# 4 0.0012 0.0014 -0.0197 16.9662 -0.0126 7.1370
# 5 -14.3796 5.6904 -9.4335 -0.0126 22.5647 0.0026
# 6 0.0013 0.0004 -0.0033 7.1370 0.0026 35.0524
#
#
#
# Elastic Compliance Matrix: (Units=1/GPa)
#
#
# Indices 1 2 3 4 5 6 
#
# 1 0.009858 -0.004182 -0.001836 0.000003 0.006569 -0.000002
# 2 -0.004182 0.016312 -0.001302 -0.000009 -0.007323 0.000002
# 3 -0.001836 -0.001302 0.005932 0.000009 0.001638 -0.000001
# 4 0.000003 -0.000009 0.000009 0.064462 0.000045 -0.013125
# 5 0.006569 -0.007323 0.001638 0.000045 0.051035 -0.000013
# 6 -0.000002 0.000002 -0.000001 -0.013125 -0.000013 0.031201
#
#
# Mechanical properties :
#
#
# Convention : Reuss Voigt Hill
#
# Bulk Modulus (GPa) = 57.26374 68.95955 63.11165
# Shear Modulus (GPa) = 25.09293 34.37931 29.73612
#
# Velocity S-wave (km/s) = 3.37321 3.94836 3.67206
# Velocity P-wave (km/s) = 6.41390 7.21500 6.82621
#
# Compressibility (1/GPa) = 0.01746306
#
# Stress axis : x y z
#
# Youngs Moduli (GPa) = 101.44484 61.30310 168.58856
#
# Poissons Ratio (x) = 0.25636 0.30949
# Poissons Ratio (y) = 0.42423 0.21943
# Poissons Ratio (z) = 0.18623 0.07979
#
# Static dielectric constant tensor:
#      x y z
#    x 4.415480 0.000020 0.107270 
#    y 0.000020 3.718230 0.000010 
#    z 0.107270 0.000010 4.176290 
# 
# 
# High freq. dielectric constant tensor:
#      x y z
#    x 1.882030 0.000000 0.000570 
#    y 0.000000 1.855660 0.000000 
#    z 0.000570 0.000000 1.876250 
# 
# From -- ./inp_files/296055.got.cif
#   From: 2010.06.25/outbox.cif.g09.slc.cpg/sg15_149_cif.got.tgz:296055.got - 2010.06.28 07:06:18.
