data_PCOD8152634
_publ_section_title
;
Structure prediction by ZEFSAII (Michael W. Deem and Ramdas Pophale) SiO2 
 PCOD8152634
Probable space group: C 2/C
;
_chemical_formula_sum "Si O2"
_cell_formula_units_Z 56
_cell_length_a 9.343460
_cell_length_b 17.005820
_cell_length_c 19.517672
_cell_angle_alpha 90.000000
_cell_angle_beta 60.716030
_cell_angle_gamma 90.000000
_cell_volume 2704.907832
_symmetry_space_group_name_H-M "C 2/C"
_symmetry_group_IT_number 15
_symmetry_cell_setting 'monoclinic'
loop_
_space_group_symop_operation_xyz
x,y,z
-x,y,1/2-z
-x,-y,-z
x,-y,1/2+z
1/2+x,1/2+y,z
1/2-x,1/2+y,1/2-z
1/2-x,1/2-y,-z
1/2+x,1/2-y,1/2+z
loop_
_atom_site_type_symbol
_atom_site_label
_atom_site_fract_x
_atom_site_fract_y
_atom_site_fract_z
Si Si1 0.571001 0.877806 0.037419
Si Si2 0.092534 0.127358 0.822359
Si Si3 0.899269 0.080462 0.525766
Si Si4 0.505279 0.293581 0.896130
Si Si5 0.756878 0.117757 0.363011
Si Si6 0.159386 0.703427 0.254651
Si Si7 0.275330 0.559442 0.840214
O O1 0.721713 0.928960 0.032251
O O2 0.573146 0.790423 0.067685
O O3 0.406956 0.924278 0.091870
O O4 0.598191 0.872503 0.949276
O O5 0.135069 0.104051 0.888746
O O6 0.129328 0.218478 0.804831
O O7 0.206281 0.075322 0.745253
O O8 0.900337 0.115883 0.851233
O O9 0.998558 0.148554 0.462902
O O10 0.000000 0.000000 0.500000
O O11 0.405428 0.327752 0.854799
O O12 0.694363 0.282224 0.833021
O O13 0.704843 0.136221 0.297920
O O14 0.824117 0.029157 0.346815
O O15 0.000000 0.676483 0.250000
#
# Coordination Sequence:
#
# PCOD8152634 Si02
#       7
#     8   8   8   8   8   8   8
#     4  11  22  46  66  99 126 169 221 261 324 388
#     4  11  22  44  64  93 132 173 213 256 334 377
#     4  11  25  40  68  97 135 167 216 276 323 378
#     4  11  23  44  67  96 128 173 221 260 321 391
#     4  11  25  40  69  93 130 169 214 265 321 384
#     4  12  24  42  64  98 130 171 219 267 318 385
#     4  11  24  42  68  93 132 172 214 263 326 393
#
# _framework density 20.703109999999999
#
# number of rings (size 3 to 8) (size 9 to 14) (size 15 to 20)
#    0.000    0.857    2.857    6.000    6.000    2.857 
#    0.000    2.857    0.000    0.000    0.000    0.000 
#    0.000    0.000    0.000    0.000    0.000    0.000 
#
# Total GULP energy -347347.172554 kJ/mol
# GULP energy per Si atom -12405.256163 kJ/mol
# Density = 2.065599 g / cm^3
# Si number density = 20.703110 Si / 1000 Ang^3
#
#
#
# Elastic Constant Matrix: (Units=GPa)
#
#
# Indices 1 2 3 4 5 6 
#
# 1 58.3542 12.7912 33.6069 0.0000 -18.5488 0.0000
# 2 12.7912 89.9351 2.3069 0.0000 -9.7665 0.0000
# 3 33.6069 2.3069 93.3979 0.0000 -6.5993 0.0000
# 4 0.0000 0.0000 0.0000 25.9498 0.0000 4.4358
# 5 -18.5488 -9.7665 -6.5993 0.0000 43.8783 0.0000
# 6 0.0000 0.0000 0.0000 4.4358 0.0000 25.2798
#
#
#
# Elastic Compliance Matrix: (Units=1/GPa)
#
#
# Indices 1 2 3 4 5 6 
#
# 1 0.025358 -0.002422 -0.008435 0.000000 0.008912 0.000000
# 2 -0.002422 0.011627 0.000702 0.000000 0.001670 0.000000
# 3 -0.008435 0.000702 0.013629 0.000000 -0.001360 0.000000
# 4 0.000000 0.000000 0.000000 0.039728 0.000000 -0.006971
# 5 0.008912 0.001670 -0.001360 0.000000 0.026725 0.000000
# 6 0.000000 0.000000 0.000000 -0.006971 0.000000 0.040781
#
#
# Mechanical properties :
#
#
# Convention : Reuss Voigt Hill
#
# Bulk Modulus (GPa) = 32.99917 37.67746 35.33832
# Shear Modulus (GPa) = 26.55925 31.88705 29.22315
#
# Velocity S-wave (km/s) = 3.58559 3.92880 3.76112
# Velocity P-wave (km/s) = 5.75463 6.23050 5.99729
#
# Compressibility (1/GPa) = 0.03030379
#
# Stress axis : x y z
#
# Youngs Moduli (GPa) = 39.43467 86.00705 73.37516
#
# Poissons Ratio (x) = 0.20835 0.61892
# Poissons Ratio (y) = 0.09553 -0.05154
# Poissons Ratio (z) = 0.33263 -0.06042
#
# Static dielectric constant tensor:
#      x y z
#    x 3.612700 0.000000 -0.018750 
#    y 0.000000 3.816950 0.000000 
#    z -0.018750 0.000000 4.065020 
# 
# 
# High freq. dielectric constant tensor:
#      x y z
#    x 1.802290 0.000000 -0.003410 
#    y 0.000000 1.818310 0.000000 
#    z -0.003410 0.000000 1.828990 
# 
# From -- ./inp_files/232578.got.cif
#   From: 2010.06.25/outbox.cif.g09.slc.cpg/sg15_117_cif.got.tgz:232578.got - 2010.06.28 07:06:18.
