data_PCOD8152109
_publ_section_title
;
Structure prediction by ZEFSAII (Michael W. Deem and Ramdas Pophale) SiO2 
 PCOD8152109
Probable space group: C 2/C
;
_chemical_formula_sum "Si O2"
_cell_formula_units_Z 32
_cell_length_a 8.731276
_cell_length_b 35.298031
_cell_length_c 5.053156
_cell_angle_alpha 90.000000
_cell_angle_beta 94.442969
_cell_angle_gamma 90.000000
_cell_volume 1552.686780
_symmetry_space_group_name_H-M "C 2/C"
_symmetry_group_IT_number 15
_symmetry_cell_setting 'monoclinic'
loop_
_space_group_symop_operation_xyz
x,y,z
-x,y,1/2-z
-x,-y,-z
x,-y,1/2+z
1/2+x,1/2+y,z
1/2-x,1/2+y,1/2-z
1/2-x,1/2-y,-z
1/2+x,1/2-y,1/2+z
loop_
_atom_site_type_symbol
_atom_site_label
_atom_site_fract_x
_atom_site_fract_y
_atom_site_fract_z
Si Si1 0.182825 0.022016 0.790882
Si Si2 0.681303 0.392646 0.270742
Si Si3 0.830493 0.359436 0.781993
Si Si4 0.102602 0.275652 0.526070
O O1 0.237833 0.064978 0.847762
O O2 0.000000 0.021091 0.750000
O O3 0.249299 0.004701 0.529815
O O4 0.500000 0.389504 0.250000
O O5 0.741681 0.362518 0.492373
O O6 0.744129 0.384000 0.988547
O O7 0.000000 0.375619 0.750000
O O8 0.835309 0.316268 0.875774
O O9 0.250000 0.250000 0.500000
O O10 0.000000 0.279156 0.250000
O O11 0.000000 0.258086 0.750000
#
# Coordination Sequence:
#
# PCOD8152109 Si02
#       4
#     8   8   8   8
#     4   9  17  31  53  82 115 148 189 247 302 340
#     4  11  22  37  62  92 116 152 208 253 287 344
#     4  11  23  41  60  85 124 163 191 234 305 365
#     4  11  24  43  65  91 121 158 200 242 295 354
#
# _framework density 20.609435000000001
#
# number of rings (size 3 to 8) (size 9 to 14) (size 15 to 20)
#    0.000    1.500    0.000    6.750    0.000    7.000 
#    0.000    0.000    0.000   15.000    0.000    0.000 
#    0.000    0.000    0.000    0.000    0.000    0.000 
#
# Total GULP energy -198417.998513 kJ/mol
# GULP energy per Si atom -12401.124907 kJ/mol
# Density = 2.056253 g / cm^3
# Si number density = 20.609435 Si / 1000 Ang^3
#
#
#
# Elastic Constant Matrix: (Units=GPa)
#
#
# Indices 1 2 3 4 5 6 
#
# 1 107.4324 50.5112 39.4069 0.0000 -17.4277 0.0000
# 2 50.5112 81.8827 22.2908 0.0000 -0.3411 0.0000
# 3 39.4069 22.2908 120.9693 0.0000 -8.3774 0.0000
# 4 0.0000 0.0000 0.0000 61.4809 0.0000 -21.1575
# 5 -17.4277 -0.3411 -8.3774 0.0000 44.2467 0.0000
# 6 0.0000 0.0000 0.0000 -21.1575 0.0000 36.1457
#
#
#
# Elastic Compliance Matrix: (Units=1/GPa)
#
#
# Indices 1 2 3 4 5 6 
#
# 1 0.015353 -0.008621 -0.003038 0.000000 0.005405 0.000000
# 2 -0.008621 0.017704 -0.000689 0.000000 -0.003390 0.000000
# 3 -0.003038 -0.000689 0.009424 0.000000 0.000582 0.000000
# 4 0.000000 0.000000 0.000000 0.020368 0.000000 0.011922
# 5 0.005405 -0.003390 0.000582 0.000000 0.024814 0.000000
# 6 0.000000 0.000000 0.000000 0.011922 0.000000 0.034644
#
#
# Mechanical properties :
#
#
# Convention : Reuss Voigt Hill
#
# Bulk Modulus (GPa) = 56.22963 59.41133 57.82048
# Shear Modulus (GPa) = 32.69445 41.57968 37.13707
#
# Velocity S-wave (km/s) = 3.98726 4.49654 4.24954
# Velocity P-wave (km/s) = 6.96709 7.47317 7.22457
#
# Compressibility (1/GPa) = 0.01778422
#
# Stress axis : x y z
#
# Youngs Moduli (GPa) = 65.13414 56.48416 106.11705
#
# Poissons Ratio (x) = 0.48696 0.32243
# Poissons Ratio (y) = 0.56153 0.07307
# Poissons Ratio (z) = 0.19791 0.03890
#
# Static dielectric constant tensor:
#      x y z
#    x 3.685200 0.000000 -0.163340 
#    y 0.000000 3.747690 0.000000 
#    z -0.163340 0.000000 4.050670 
# 
# 
# High freq. dielectric constant tensor:
#      x y z
#    x 1.792370 0.000000 -0.008690 
#    y 0.000000 1.807620 0.000000 
#    z -0.008690 0.000000 1.829250 
# 
# From -- ./inp_files/2365.got.cif
#   From: 2010.06.25/outbox.cif.g09.slc.cpg/sg15_2_cif.got.tgz:2365.got - 2010.06.28 07:06:18.
