data_PCOD8152015
_publ_section_title
;
Structure prediction by ZEFSAII (Michael W. Deem and Ramdas Pophale) SiO2 
 PCOD8152015
Probable space group: C 2/C
;
_chemical_formula_sum "Si O2"
_cell_formula_units_Z 32
_cell_length_a 11.951110
_cell_length_b 8.243218
_cell_length_c 12.923435
_cell_angle_alpha 90.000000
_cell_angle_beta 80.304084
_cell_angle_gamma 90.000000
_cell_volume 1254.973534
_symmetry_space_group_name_H-M "C 2/C"
_symmetry_group_IT_number 15
_symmetry_cell_setting 'monoclinic'
loop_
_space_group_symop_operation_xyz
x,y,z
-x,y,1/2-z
-x,-y,-z
x,-y,1/2+z
1/2+x,1/2+y,z
1/2-x,1/2+y,1/2-z
1/2-x,1/2-y,-z
1/2+x,1/2-y,1/2+z
loop_
_atom_site_type_symbol
_atom_site_label
_atom_site_fract_x
_atom_site_fract_y
_atom_site_fract_z
Si Si1 0.828796 0.404605 0.290964
Si Si2 0.176789 0.892712 0.966030
Si Si3 0.972146 0.334340 0.449123
Si Si4 0.726824 0.897229 0.886301
O O1 0.742374 0.528109 0.359866
O O2 0.948394 0.380162 0.332772
O O3 0.774758 0.225559 0.293463
O O4 0.844699 0.464905 0.169034
O O5 0.054504 0.820326 0.951891
O O6 0.170610 0.019086 0.064265
O O7 0.250000 0.750000 0.000000
O O8 0.851466 0.292375 0.522717
O O9 0.000000 0.500000 0.500000
#
# Coordination Sequence:
#
# PCOD8152015 Si02
#       4
#     8   8   8   8
#     4  11  25  44  68 104 140 181 234 290 349 418
#     4  11  21  45  68  99 138 181 227 290 345 411
#     4  11  23  43  74  95 136 185 229 282 351 419
#     4  11  25  44  68 104 140 181 234 290 349 418
#
# _framework density 25.498545
#
# number of rings (size 3 to 8) (size 9 to 14) (size 15 to 20)
#    0.000    1.000    5.000    4.500    0.000    5.000 
#    0.000    2.500    0.000    0.000    0.000    0.000 
#    0.000    0.000    0.000    0.000    0.000    0.000 
#
# Total GULP energy -198241.416536 kJ/mol
# GULP energy per Si atom -12390.088534 kJ/mol
# Density = 2.544051 g / cm^3
# Si number density = 25.498545 Si / 1000 Ang^3
#
#
#
# Elastic Constant Matrix: (Units=GPa)
#
#
# Indices 1 2 3 4 5 6 
#
# 1 146.9741 48.9598 45.6461 0.0000 40.6961 0.0000
# 2 48.9598 123.7689 52.2985 0.0000 13.0916 0.0000
# 3 45.6461 52.2985 152.3287 0.0000 19.4975 0.0000
# 4 0.0000 0.0000 0.0000 43.8477 0.0000 3.2193
# 5 40.6961 13.0916 19.4975 0.0000 38.1131 0.0000
# 6 0.0000 0.0000 0.0000 3.2193 0.0000 59.4302
#
#
#
# Elastic Compliance Matrix: (Units=1/GPa)
#
#
# Indices 1 2 3 4 5 6 
#
# 1 0.010845 -0.002800 -0.000994 0.000000 -0.010109 0.000000
# 2 -0.002800 0.010278 -0.002804 0.000000 0.000894 0.000000
# 3 -0.000994 -0.002804 0.008096 0.000000 -0.002117 0.000000
# 4 0.000000 0.000000 0.000000 0.022897 0.000000 -0.001240
# 5 -0.010109 0.000894 -0.002117 0.000000 0.037808 0.000000
# 6 0.000000 0.000000 0.000000 -0.001240 0.000000 0.016894
#
#
# Mechanical properties :
#
#
# Convention : Reuss Voigt Hill
#
# Bulk Modulus (GPa) = 62.41661 79.65336 71.03498
# Shear Modulus (GPa) = 39.88674 46.68935 43.28805
#
# Velocity S-wave (km/s) = 3.95938 4.28373 4.12475
# Velocity P-wave (km/s) = 6.74047 7.46815 7.11362
#
# Compressibility (1/GPa) = 0.01602138
#
# Stress axis : x y z
#
# Youngs Moduli (GPa) = 92.21055 97.29954 123.51311
#
# Poissons Ratio (x) = 0.27249 0.12281
# Poissons Ratio (y) = 0.25823 0.34631
# Poissons Ratio (z) = 0.09168 0.27281
#
# Static dielectric constant tensor:
#      x y z
#    x 3.870440 0.000000 0.269960 
#    y 0.000000 -8.086620 0.000000 
#    z 0.269960 0.000000 4.823060 
# 
# 
# High freq. dielectric constant tensor:
#      x y z
#    x 2.014760 0.000000 0.009920 
#    y 0.000000 2.043950 0.000000 
#    z 0.009920 0.000000 2.032270 
# 
# From -- ./inp_files/131755.got.cif
#   From: 2010.06.25/outbox.cif.g09.slc.cpg/sg15_66_cif.got.tgz:131755.got - 2010.06.28 07:06:18.
