data_PCOD8152610
_publ_section_title
;
Structure prediction by ZEFSAII (Michael W. Deem and Ramdas Pophale) SiO2 
 PCOD8152610
Probable space group: C 2/C
;
_chemical_formula_sum "Si O2"
_cell_formula_units_Z 32
_cell_length_a 18.635631
_cell_length_b 12.398141
_cell_length_c 12.805934
_cell_angle_alpha 90.000000
_cell_angle_beta 30.118799
_cell_angle_gamma 90.000000
_cell_volume 1484.697203
_symmetry_space_group_name_H-M "C 2/C"
_symmetry_group_IT_number 15
_symmetry_cell_setting 'monoclinic'
loop_
_space_group_symop_operation_xyz
x,y,z
-x,y,1/2-z
-x,-y,-z
x,-y,1/2+z
1/2+x,1/2+y,z
1/2-x,1/2+y,1/2-z
1/2-x,1/2-y,-z
1/2+x,1/2-y,1/2+z
loop_
_atom_site_type_symbol
_atom_site_label
_atom_site_fract_x
_atom_site_fract_y
_atom_site_fract_z
Si Si1 0.212285 0.295379 0.159940
Si Si2 0.112352 0.295775 0.879941
Si Si3 0.946488 0.078904 0.657277
Si Si4 0.287162 0.534670 0.051263
O O1 0.271135 0.213367 0.173493
O O2 0.282392 0.411378 0.095150
O O3 0.042799 0.310156 0.375225
O O4 0.250000 0.250000 0.000000
O O5 0.115802 0.189814 0.805947
O O6 0.146530 0.398533 0.762724
O O7 0.081807 0.098176 0.561120
O O8 0.814280 0.030771 0.891892
O O9 0.000000 0.000000 0.500000
#
# Coordination Sequence:
#
# PCOD8152610 Si02
#       4
#     8   8   8   8
#     4  12  26  43  71 103 141 183 234 289 352 416
#     4  12  24  46  67 102 142 178 238 287 349 419
#     4  11  22  43  71  99 137 185 230 279 354 423
#     4  11  25  42  70 102 137 186 231 291 348 413
#
# _framework density 21.553215999999999
#
# number of rings (size 3 to 8) (size 9 to 14) (size 15 to 20)
#    0.000    0.500    5.000    3.750    3.500    0.000 
#    0.000    0.000    0.000    0.000    0.000    0.000 
#    0.000    0.000    0.000    0.000    0.000    0.000 
#
# Total GULP energy -198407.835777 kJ/mol
# GULP energy per Si atom -12400.489736 kJ/mol
# Density = 2.150416 g / cm^3
# Si number density = 21.553216 Si / 1000 Ang^3
#
#
#
# Elastic Constant Matrix: (Units=GPa)
#
#
# Indices 1 2 3 4 5 6 
#
# 1 83.4216 31.1339 39.6035 0.0000 11.1741 0.0000
# 2 31.1339 96.8504 43.4836 0.0000 16.0669 0.0000
# 3 39.6035 43.4836 173.4920 0.0000 24.1314 0.0000
# 4 0.0000 0.0000 0.0000 39.6971 0.0000 -0.0562
# 5 11.1741 16.0669 24.1314 0.0000 37.9571 0.0000
# 6 0.0000 0.0000 0.0000 -0.0562 0.0000 29.3724
#
#
#
# Elastic Compliance Matrix: (Units=1/GPa)
#
#
# Indices 1 2 3 4 5 6 
#
# 1 0.014526 -0.003422 -0.002265 0.000000 -0.001388 0.000000
# 2 -0.003422 0.012847 -0.001999 0.000000 -0.003160 0.000000
# 3 -0.002265 -0.001999 0.007209 0.000000 -0.003070 0.000000
# 4 0.000000 0.000000 0.000000 0.025191 0.000000 0.000048
# 5 -0.001388 -0.003160 -0.003070 0.000000 0.030043 0.000000
# 6 0.000000 0.000000 0.000000 0.000048 0.000000 0.034046
#
#
# Mechanical properties :
#
#
# Convention : Reuss Voigt Hill
#
# Bulk Modulus (GPa) = 52.05998 64.68955 58.37476
# Shear Modulus (GPa) = 34.33169 37.37485 35.85327
#
# Velocity S-wave (km/s) = 3.99542 4.16874 4.08300
# Velocity P-wave (km/s) = 6.74471 7.29727 7.02643
#
# Compressibility (1/GPa) = 0.01920861
#
# Stress axis : x y z
#
# Youngs Moduli (GPa) = 68.84335 77.83830 138.71283
#
# Poissons Ratio (x) = 0.26639 0.31419
# Poissons Ratio (y) = 0.23561 0.27733
# Poissons Ratio (z) = 0.15593 0.15562
#
# Static dielectric constant tensor:
#      x y z
#    x 3.994400 0.000000 0.265680 
#    y 0.000000 3.930290 0.000000 
#    z 0.265680 0.000000 4.168770 
# 
# 
# High freq. dielectric constant tensor:
#      x y z
#    x 1.839920 0.000000 0.015110 
#    y 0.000000 1.846900 0.000000 
#    z 0.015110 0.000000 1.864840 
# 
# From -- ./inp_files/28013.got.cif
#   From: 2010.06.25/outbox.cif.g09.slc.cpg/sg15_15_cif.got.tgz:28013.got - 2010.06.28 07:06:18.
