data_PCOD8152203
_publ_section_title
;
Structure prediction by ZEFSAII (Michael W. Deem and Ramdas Pophale) SiO2 
 PCOD8152203
Probable space group: C 2/C
;
_chemical_formula_sum "Si O2"
_cell_formula_units_Z 48
_cell_length_a 28.587968
_cell_length_b 8.264511
_cell_length_c 9.913749
_cell_angle_alpha 90.000000
_cell_angle_beta 89.667378
_cell_angle_gamma 90.000000
_cell_volume 2342.238148
_symmetry_space_group_name_H-M "C 2/C"
_symmetry_group_IT_number 15
_symmetry_cell_setting 'monoclinic'
loop_
_space_group_symop_operation_xyz
x,y,z
-x,y,1/2-z
-x,-y,-z
x,-y,1/2+z
1/2+x,1/2+y,z
1/2-x,1/2+y,1/2-z
1/2-x,1/2-y,-z
1/2+x,1/2-y,1/2+z
loop_
_atom_site_type_symbol
_atom_site_label
_atom_site_fract_x
_atom_site_fract_y
_atom_site_fract_z
Si Si1 0.550622 0.651080 0.598298
Si Si2 0.293311 0.185787 0.242567
Si Si3 0.850789 0.813526 0.481465
Si Si4 0.353443 0.692995 0.506030
Si Si5 0.550011 0.344955 0.407119
Si Si6 0.690713 0.814577 0.252735
O O1 0.596717 0.751957 0.554360
O O2 0.548676 0.493341 0.508131
O O3 0.500799 0.746788 0.580000
O O4 0.556612 0.595574 0.753321
O O5 0.317978 0.300077 0.351488
O O6 0.313153 0.223969 0.094570
O O7 0.238337 0.214958 0.242550
O O8 0.301298 0.000756 0.282297
O O9 0.830760 0.700725 0.598586
O O10 0.851517 0.999943 0.527114
O O11 0.404635 0.761243 0.551745
O O12 0.346127 0.739751 0.351287
#
# Coordination Sequence:
#
# PCOD8152203 Si02
#       6
#     8   8   8   8   8   8
#     4   9  18  33  58  91 124 157 199 251 300 353
#     4  12  24  44  61  88 121 163 200 253 303 368
#     4  11  22  39  63  92 121 159 202 251 301 355
#     4  11  22  39  63  92 121 159 202 251 301 355
#     4   9  18  33  58  91 124 157 199 251 300 353
#     4  12  26  40  63  86 123 159 206 249 307 364
#
# _framework density 20.493220000000001
#
# number of rings (size 3 to 8) (size 9 to 14) (size 15 to 20)
#    0.000    1.333    1.667    5.000    7.000    0.000 
#    0.000    0.000    0.000    6.000    0.000    0.000 
#    0.000    0.000    0.000    0.000    0.000    0.000 
#
# Total GULP energy -297508.055696 kJ/mol
# GULP energy per Si atom -12396.168987 kJ/mol
# Density = 2.044658 g / cm^3
# Si number density = 20.493220 Si / 1000 Ang^3
#
#
#
# Elastic Constant Matrix: (Units=GPa)
#
#
# Indices 1 2 3 4 5 6 
#
# 1 166.6443 26.8690 48.9443 0.0000 3.6668 0.0000
# 2 26.8690 55.8923 10.1083 0.0000 0.7749 0.0000
# 3 48.9443 10.1083 92.3534 0.0000 2.5774 0.0000
# 4 0.0000 0.0000 0.0000 29.7950 0.0000 -0.6066
# 5 3.6668 0.7749 2.5774 0.0000 38.5496 0.0000
# 6 0.0000 0.0000 0.0000 -0.6066 0.0000 12.6546
#
#
#
# Elastic Compliance Matrix: (Units=1/GPa)
#
#
# Indices 1 2 3 4 5 6 
#
# 1 0.007568 -0.002968 -0.003674 0.000000 -0.000415 0.000000
# 2 -0.002968 0.019419 -0.000551 0.000000 -0.000071 0.000000
# 3 -0.003674 -0.000551 0.012849 0.000000 -0.000499 0.000000
# 4 0.000000 0.000000 0.000000 0.033595 0.000000 0.001610
# 5 -0.000415 -0.000071 -0.000499 0.000000 0.026015 0.000000
# 6 0.000000 0.000000 0.000000 0.001610 0.000000 0.079100
#
#
# Mechanical properties :
#
#
# Convention : Reuss Voigt Hill
#
# Bulk Modulus (GPa) = 39.29176 54.08147 46.68662
# Shear Modulus (GPa) = 24.82444 31.46441 28.14442
#
# Velocity S-wave (km/s) = 3.48422 3.92261 3.70990
# Velocity P-wave (km/s) = 5.94988 6.85296 6.41733
#
# Compressibility (1/GPa) = 0.02545063
#
# Stress axis : x y z
#
# Youngs Moduli (GPa) = 132.14319 51.49656 77.82499
#
# Poissons Ratio (x) = 0.15283 0.28594
# Poissons Ratio (y) = 0.39216 0.04285
# Poissons Ratio (z) = 0.48552 0.02836
#
# Static dielectric constant tensor:
#      x y z
#    x 4.742450 0.000000 0.032140 
#    y 0.000000 3.206320 0.000000 
#    z 0.032140 0.000000 3.814820 
# 
# 
# High freq. dielectric constant tensor:
#      x y z
#    x 1.832270 0.000000 0.002130 
#    y 0.000000 1.747100 0.000000 
#    z 0.002130 0.000000 1.820890 
# 
# From -- ./inp_files/68591.got.cif
#   From: 2010.06.25/outbox.cif.g09.slc.cpg/sg15_35_cif.got.tgz:68591.got - 2010.06.28 07:06:18.
