data_PCOD8152287
_publ_section_title
;
Structure prediction by ZEFSAII (Michael W. Deem and Ramdas Pophale) SiO2 
 PCOD8152287
Probable space group: C 2/C
;
_chemical_formula_sum "Si O2"
_cell_formula_units_Z 40
_cell_length_a 14.789655
_cell_length_b 14.084301
_cell_length_c 17.000483
_cell_angle_alpha 90.000000
_cell_angle_beta 147.241047
_cell_angle_gamma 90.000000
_cell_volume 1916.182452
_symmetry_space_group_name_H-M "C 2/C"
_symmetry_group_IT_number 15
_symmetry_cell_setting 'monoclinic'
loop_
_space_group_symop_operation_xyz
x,y,z
-x,y,1/2-z
-x,-y,-z
x,-y,1/2+z
1/2+x,1/2+y,z
1/2-x,1/2+y,1/2-z
1/2-x,1/2-y,-z
1/2+x,1/2-y,1/2+z
loop_
_atom_site_type_symbol
_atom_site_label
_atom_site_fract_x
_atom_site_fract_y
_atom_site_fract_z
Si Si1 0.639195 0.922044 0.587952
Si Si2 0.499996 0.273695 0.456434
Si Si3 0.326696 0.478554 0.593262
Si Si4 0.153478 0.185549 0.816453
Si Si5 0.506846 0.434531 0.578376
O O1 0.588362 0.825578 0.591440
O O2 0.817549 0.956027 0.751353
O O3 0.500000 0.000000 0.500000
O O4 0.672150 0.917807 0.517008
O O5 0.688890 0.255543 0.565362
O O6 0.401787 0.330220 0.315472
O O7 0.494589 0.327672 0.535910
O O8 0.500000 0.433170 0.750000
O O9 0.308181 0.587483 0.609751
O O10 0.343727 0.463882 0.511718
O O11 0.000000 0.236925 0.750000
O O12 0.500000 0.500000 0.500000
#
# Coordination Sequence:
#
# PCOD8152287 Si02
#       5
#     8   8   8   8   8
#     4  11  22  41  65  92 131 168 214 273 323 378
#     4  12  23  40  66  97 128 172 216 269 321 390
#     4   9  20  40  64  87 126 172 206 262 325 376
#     4  11  22  40  65  94 131 167 217 266 322 380
#     4  11  24  42  66  92 128 174 217 263 328 389
#
# _framework density 20.874839000000001
#
# number of rings (size 3 to 8) (size 9 to 14) (size 15 to 20)
#    0.000    1.200    4.000    4.200    0.000    0.800 
#    0.000    1.000    0.000    0.000    0.000    0.000 
#    0.000    0.000    0.000    0.000    0.000    0.000 
#
# Total GULP energy -247785.653692 kJ/mol
# GULP energy per Si atom -12389.282685 kJ/mol
# Density = 2.082733 g / cm^3
# Si number density = 20.874839 Si / 1000 Ang^3
#
#
#
# Elastic Constant Matrix: (Units=GPa)
#
#
# Indices 1 2 3 4 5 6 
#
# 1 190.8091 62.0346 33.8981 -0.0013 6.2108 -0.0010
# 2 62.0346 86.3115 22.6236 0.0010 3.0995 0.0002
# 3 33.8981 22.6236 60.1078 0.0005 1.9402 -0.0007
# 4 -0.0013 0.0010 0.0005 21.5958 -0.0002 -3.5968
# 5 6.2108 3.0995 1.9402 -0.0002 32.9552 -0.0004
# 6 -0.0010 0.0002 -0.0007 -3.5968 -0.0004 45.9755
#
#
#
# Elastic Compliance Matrix: (Units=1/GPa)
#
#
# Indices 1 2 3 4 5 6 
#
# 1 0.007139 -0.004498 -0.002308 0.000001 -0.000786 0.000000
# 2 -0.004498 0.015716 -0.003365 -0.000001 -0.000432 0.000000
# 3 -0.002308 -0.003365 0.019217 0.000000 -0.000380 0.000000
# 4 0.000001 -0.000001 0.000000 0.046917 0.000000 0.003670
# 5 -0.000786 -0.000432 -0.000380 0.000000 0.030556 0.000000
# 6 0.000000 0.000000 0.000000 0.003670 0.000000 0.022038
#
#
# Mechanical properties :
#
#
# Convention : Reuss Voigt Hill
#
# Bulk Modulus (GPa) = 46.01646 63.81565 54.91606
# Shear Modulus (GPa) = 29.55684 34.68344 32.12014
#
# Velocity S-wave (km/s) = 3.76694 4.08057 3.92688
# Velocity P-wave (km/s) = 6.40403 7.26900 6.85018
#
# Compressibility (1/GPa) = 0.02173135
#
# Stress axis : x y z
#
# Youngs Moduli (GPa) = 140.08255 63.62931 52.03752
#
# Poissons Ratio (x) = 0.28618 0.12008
# Poissons Ratio (y) = 0.63004 0.17510
# Poissons Ratio (z) = 0.32326 0.21410
#
# Static dielectric constant tensor:
#      x y z
#    x 4.700540 -0.000870 0.010200 
#    y -0.000870 18.852030 -0.000010 
#    z 0.010200 -0.000010 3.739970 
# 
# 
# High freq. dielectric constant tensor:
#      x y z
#    x 1.846740 0.000000 0.006300 
#    y 0.000000 1.801280 0.000000 
#    z 0.006300 0.000000 1.794290 
# 
# From -- ./inp_files/61388.got.cif
#   From: 2010.06.25/outbox.cif.g09.slc.cpg/sg15_31_cif.got.tgz:61388.got - 2010.06.28 07:06:18.
