data_PCOD8152574
_publ_section_title
;
Structure prediction by ZEFSAII (Michael W. Deem and Ramdas Pophale) SiO2 
 PCOD8152574
Probable space group: C 2/C
;
_chemical_formula_sum "Si O2"
_cell_formula_units_Z 48
_cell_length_a 10.427389
_cell_length_b 15.523946
_cell_length_c 20.177346
_cell_angle_alpha 90.000000
_cell_angle_beta 139.608957
_cell_angle_gamma 90.000000
_cell_volume 2116.495311
_symmetry_space_group_name_H-M "C 2/C"
_symmetry_group_IT_number 15
_symmetry_cell_setting 'monoclinic'
loop_
_space_group_symop_operation_xyz
x,y,z
-x,y,1/2-z
-x,-y,-z
x,-y,1/2+z
1/2+x,1/2+y,z
1/2-x,1/2+y,1/2-z
1/2-x,1/2-y,-z
1/2+x,1/2-y,1/2+z
loop_
_atom_site_type_symbol
_atom_site_label
_atom_site_fract_x
_atom_site_fract_y
_atom_site_fract_z
Si Si1 0.412028 0.502237 0.787316
Si Si2 0.134390 0.195300 0.743065
Si Si3 0.030076 0.713622 0.970185
Si Si4 0.929204 0.685780 0.072530
Si Si5 0.661123 0.612559 0.483127
Si Si6 0.528596 0.982419 0.839599
O O1 0.500000 0.473141 0.750000
O O2 0.454548 0.603381 0.814517
O O3 0.513024 0.451709 0.887582
O O4 0.176166 0.488997 0.699916
O O5 0.363662 0.188280 0.851428
O O6 0.000000 0.231313 0.750000
O O7 0.118217 0.265459 0.678577
O O8 0.043600 0.818442 0.983552
O O9 0.238306 0.673464 0.031646
O O10 0.980217 0.662956 0.017560
O O11 0.867129 0.602406 0.090214
O O12 0.750000 0.750000 0.000000
O O13 0.824003 0.562003 0.590058
O O14 0.500000 0.974762 0.750000
#
# Coordination Sequence:
#
# PCOD8152574 Si02
#       6
#     8   8   8   8   8   8
#     4  11  25  45  74 103 142 190 236 297 356 434
#     4  11  22  43  67 103 139 181 241 288 352 427
#     4  11  25  45  71 100 143 188 236 291 357 437
#     4  12  25  41  70 100 138 187 231 292 355 429
#     4  11  26  46  70 104 142 187 239 295 362 426
#     4  12  28  46  71 108 146 181 239 307 363 421
#
# _framework density 22.678999999999998
#
# number of rings (size 3 to 8) (size 9 to 14) (size 15 to 20)
#    0.000    0.667    3.333    3.500    7.000    2.000 
#    0.000    3.333    0.000    0.000    0.000    0.000 
#    0.000    0.000    0.000    0.000    0.000    0.000 
#
# Total GULP energy -297611.722723 kJ/mol
# GULP energy per Si atom -12400.488447 kJ/mol
# Density = 2.262738 g / cm^3
# Si number density = 22.679000 Si / 1000 Ang^3
#
#
#
# Elastic Constant Matrix: (Units=GPa)
#
#
# Indices 1 2 3 4 5 6 
#
# 1 66.8319 18.9068 14.1217 0.0000 -2.0416 0.0000
# 2 18.9068 131.8934 48.4236 0.0000 -11.5309 0.0000
# 3 14.1217 48.4236 109.0777 -0.0001 -3.2224 -0.0001
# 4 0.0000 0.0000 -0.0001 41.0547 0.0000 5.3714
# 5 -2.0416 -11.5309 -3.2224 0.0000 38.5410 0.0000
# 6 0.0000 0.0000 -0.0001 5.3714 0.0000 33.0011
#
#
#
# Elastic Compliance Matrix: (Units=1/GPa)
#
#
# Indices 1 2 3 4 5 6 
#
# 1 0.015735 -0.001783 -0.001240 0.000000 0.000196 0.000000
# 2 -0.001783 0.009483 -0.003908 0.000000 0.002416 0.000000
# 3 -0.001240 -0.003908 0.011054 0.000000 -0.000311 0.000000
# 4 0.000000 0.000000 0.000000 0.024888 0.000000 -0.004051
# 5 0.000196 0.002416 -0.000311 0.000000 0.026654 0.000000
# 6 0.000000 0.000000 0.000000 -0.004051 0.000000 0.030961
#
#
# Mechanical properties :
#
#
# Convention : Reuss Voigt Hill
#
# Bulk Modulus (GPa) = 44.62074 52.30077 48.46076
# Shear Modulus (GPa) = 35.68687 37.60943 36.64815
#
# Velocity S-wave (km/s) = 3.97112 4.07669 4.02425
# Velocity P-wave (km/s) = 6.38311 6.72834 6.55799
#
# Compressibility (1/GPa) = 0.02241110
#
# Stress axis : x y z
#
# Youngs Moduli (GPa) = 63.55110 105.44664 90.46571
#
# Poissons Ratio (x) = 0.18805 0.11215
# Poissons Ratio (y) = 0.11333 0.35352
# Poissons Ratio (z) = 0.07878 0.41206
#
# Static dielectric constant tensor:
#      x y z
#    x 3.712190 0.000000 0.052390 
#    y 0.000000 4.350130 0.000000 
#    z 0.052390 0.000000 4.163960 
# 
# 
# High freq. dielectric constant tensor:
#      x y z
#    x 1.888820 0.000000 0.005570 
#    y 0.000000 1.907930 0.000000 
#    z 0.005570 0.000000 1.897990 
# 
# From -- ./inp_files/239013.got.cif
#   From: 2010.06.25/outbox.cif.g09.slc.cpg/sg15_120_cif.got.tgz:239013.got - 2010.06.28 07:06:18.
