data_PCOD8152138
_publ_section_title
;
Structure prediction by ZEFSAII (Michael W. Deem and Ramdas Pophale) SiO2 
 PCOD8152138
Probable space group: C 2/C
;
_chemical_formula_sum "Si O2"
_cell_formula_units_Z 56
_cell_length_a 29.499846
_cell_length_b 13.799773
_cell_length_c 9.080202
_cell_angle_alpha 90.000000
_cell_angle_beta 49.395982
_cell_angle_gamma 90.000000
_cell_volume 2806.455006
_symmetry_space_group_name_H-M "C 2/C"
_symmetry_group_IT_number 15
_symmetry_cell_setting 'monoclinic'
loop_
_space_group_symop_operation_xyz
x,y,z
-x,y,1/2-z
-x,-y,-z
x,-y,1/2+z
1/2+x,1/2+y,z
1/2-x,1/2+y,1/2-z
1/2-x,1/2-y,-z
1/2+x,1/2-y,1/2+z
loop_
_atom_site_type_symbol
_atom_site_label
_atom_site_fract_x
_atom_site_fract_y
_atom_site_fract_z
Si Si1 0.685175 0.115719 0.482050
Si Si2 0.303391 0.268803 0.664978
Si Si3 0.709990 0.048603 0.743396
Si Si4 0.838145 0.952952 0.075750
Si Si5 0.380011 0.290717 0.786535
Si Si6 0.624568 0.611009 0.697334
Si Si7 0.499463 0.605319 0.427551
O O1 0.736516 0.191885 0.326186
O O2 0.707520 0.052870 0.573770
O O3 0.626413 0.177696 0.652235
O O4 0.666729 0.037378 0.395806
O O5 0.303618 0.152872 0.657484
O O6 0.344324 0.309158 0.711078
O O7 0.332938 0.302899 0.449323
O O8 0.773469 0.007797 0.666308
O O9 0.843119 0.947669 0.240083
O O10 0.849147 0.848397 0.983773
O O11 0.885861 0.030531 0.909380
O O12 0.448299 0.324639 0.623209
O O13 0.562177 0.654935 0.887556
O O14 0.500000 0.597913 0.250000
O O15 0.500000 0.500000 0.500000
#
# Coordination Sequence:
#
# PCOD8152138 Si02
#       7
#     8   8   8   8   8   8   8
#     4  11  22  39  60  88 122 160 194 246 300 351
#     4  11  23  38  60  89 121 157 197 246 295 357
#     4  11  22  38  60  90 123 160 197 236 302 357
#     4  12  20  35  58  87 124 154 194 240 290 356
#     4  11  22  40  59  82 124 159 193 243 299 350
#     4  12  24  35  56  89 121 157 198 242 292 352
#     4  12  25  39  59  88 121 158 197 239 300 355
#
# _framework density 19.953997999999999
#
# number of rings (size 3 to 8) (size 9 to 14) (size 15 to 20)
#    0.000    0.571    7.143    2.571    2.000    1.714 
#    0.000    0.000    0.000    0.857    0.000    0.000 
#    0.000    0.000    0.000    0.000    0.000    0.000 
#
# Total GULP energy -347164.179393 kJ/mol
# GULP energy per Si atom -12398.720693 kJ/mol
# Density = 1.990858 g / cm^3
# Si number density = 19.953998 Si / 1000 Ang^3
#
#
#
# Elastic Constant Matrix: (Units=GPa)
#
#
# Indices 1 2 3 4 5 6 
#
# 1 54.8679 20.5598 26.3716 0.0000 -12.9474 0.0000
# 2 20.5598 97.0464 42.3349 0.0000 -3.7805 0.0000
# 3 26.3716 42.3349 116.6626 0.0000 0.2558 0.0000
# 4 0.0000 0.0000 0.0000 42.6337 0.0000 0.1060
# 5 -12.9474 -3.7805 0.2558 0.0000 25.3990 0.0000
# 6 0.0000 0.0000 0.0000 0.1060 0.0000 23.8574
#
#
#
# Elastic Compliance Matrix: (Units=1/GPa)
#
#
# Indices 1 2 3 4 5 6 
#
# 1 0.024244 -0.002693 -0.004530 0.000000 0.012004 0.000000
# 2 -0.002693 0.012631 -0.003976 0.000000 0.000547 0.000000
# 3 -0.004530 -0.003976 0.011045 0.000000 -0.003012 0.000000
# 4 0.000000 0.000000 0.000000 0.023456 0.000000 -0.000104
# 5 0.012004 0.000547 -0.003012 0.000000 0.045602 0.000000
# 6 0.000000 0.000000 0.000000 -0.000104 0.000000 0.041916
#
#
# Mechanical properties :
#
#
# Convention : Reuss Voigt Hill
#
# Bulk Modulus (GPa) = 39.17978 49.67884 44.42931
# Shear Modulus (GPa) = 26.34375 30.33209 28.33792
#
# Velocity S-wave (km/s) = 3.63743 3.90308 3.77259
# Velocity P-wave (km/s) = 6.10892 6.72776 6.42579
#
# Compressibility (1/GPa) = 0.02552337
#
# Stress axis : x y z
#
# Youngs Moduli (GPa) = 41.24695 79.17298 90.53838
#
# Poissons Ratio (x) = 0.21319 0.41010
# Poissons Ratio (y) = 0.11107 0.35997
# Poissons Ratio (z) = 0.18683 0.31479
#
# Static dielectric constant tensor:
#      x y z
#    x 3.564370 0.000000 0.017630 
#    y 0.000000 3.557120 0.000000 
#    z 0.017630 0.000000 3.896190 
# 
# 
# High freq. dielectric constant tensor:
#      x y z
#    x 1.755010 0.000000 0.018440 
#    y 0.000000 1.770700 0.000000 
#    z 0.018440 0.000000 1.785620 
# 
# From -- ./inp_files/69886.got.cif
#   From: 2010.06.25/outbox.cif.g09.slc.cpg/sg15_35_cif.got.tgz:69886.got - 2010.06.28 07:06:18.
