data_PCOD8152901
_publ_section_title
;
Structure prediction by ZEFSAII (Michael W. Deem and Ramdas Pophale) SiO2 
 PCOD8152901
Probable space group: C 2/C
;
_chemical_formula_sum "Si O2"
_cell_formula_units_Z 64
_cell_length_a 10.675629
_cell_length_b 15.450368
_cell_length_c 25.610851
_cell_angle_alpha 90.000000
_cell_angle_beta 135.419478
_cell_angle_gamma 90.000000
_cell_volume 2965.093080
_symmetry_space_group_name_H-M "C 2/C"
_symmetry_group_IT_number 15
_symmetry_cell_setting 'monoclinic'
loop_
_space_group_symop_operation_xyz
x,y,z
-x,y,1/2-z
-x,-y,-z
x,-y,1/2+z
1/2+x,1/2+y,z
1/2-x,1/2+y,1/2-z
1/2-x,1/2-y,-z
1/2+x,1/2-y,1/2+z
loop_
_atom_site_type_symbol
_atom_site_label
_atom_site_fract_x
_atom_site_fract_y
_atom_site_fract_z
Si Si1 0.226285 0.810450 0.564253
Si Si2 0.404549 0.926422 0.351295
Si Si3 0.397800 0.518815 0.670936
Si Si4 0.611701 0.649418 0.206058
Si Si5 0.672308 0.830291 0.271684
Si Si6 0.438263 0.352264 0.088555
Si Si7 0.999556 0.567495 0.307933
Si Si8 0.040974 0.252424 0.434336
O O1 0.363936 0.736542 0.589116
O O2 0.160798 0.869046 0.495957
O O3 0.336510 0.866457 0.638543
O O4 0.051812 0.767707 0.538100
O O5 0.302768 0.980998 0.365993
O O6 0.285402 0.882348 0.269605
O O7 0.510762 0.851361 0.410690
O O8 0.536258 0.992997 0.361377
O O9 0.500000 0.565691 0.750000
O O10 0.472661 0.421905 0.686245
O O11 0.403708 0.569270 0.618093
O O12 0.627385 0.729764 0.249659
O O13 0.536518 0.682991 0.128925
O O14 0.806470 0.608805 0.259709
O O15 0.500000 0.870395 0.250000
O O16 0.850155 0.841059 0.359171
O O17 0.000000 0.528692 0.250000
O O18 0.250000 0.250000 0.500000
#
# Coordination Sequence:
#
# PCOD8152901 Si02
#       8
#     8   8   8   8   8   8   8   8
#     4  11  25  44  69 100 139 191 226 282 352 418
#     4  11  25  43  72 101 134 182 230 284 348 411
#     4  12  22  43  71 103 138 176 238 283 343 410
#     4  11  24  40  71 105 134 182 228 297 346 406
#     4  11  23  40  68 102 136 177 232 290 348 403
#     4  11  24  43  68 100 141 184 234 280 345 423
#     4  12  23  44  71 103 141 174 241 286 350 419
#     4  11  26  50  69 101 142 189 233 286 356 422
#
# _framework density 21.584482000000001
#
# number of rings (size 3 to 8) (size 9 to 14) (size 15 to 20)
#    0.000    0.750    6.250    0.750    3.500    1.500 
#    2.250    2.500    0.000    0.000    0.000    0.000 
#    0.000    0.000    0.000    0.000    0.000    0.000 
#
# Total GULP energy -396642.417134 kJ/mol
# GULP energy per Si atom -12395.075535 kJ/mol
# Density = 2.153535 g / cm^3
# Si number density = 21.584482 Si / 1000 Ang^3
#
#
#
# Elastic Constant Matrix: (Units=GPa)
#
#
# Indices 1 2 3 4 5 6 
#
# 1 140.4637 41.3288 44.1239 0.0000 8.8778 0.0000
# 2 41.3288 86.0531 40.0635 0.0000 -0.3000 0.0000
# 3 44.1239 40.0635 75.9180 0.0000 1.1500 0.0000
# 4 0.0000 0.0000 0.0000 17.4518 0.0000 -5.3732
# 5 8.8778 -0.3000 1.1500 0.0000 36.5098 0.0000
# 6 0.0000 0.0000 0.0000 -5.3732 0.0000 38.7410
#
#
#
# Elastic Compliance Matrix: (Units=1/GPa)
#
#
# Indices 1 2 3 4 5 6 
#
# 1 0.009273 -0.002608 -0.003981 0.000000 -0.002151 0.000000
# 2 -0.002608 0.016144 -0.007019 0.000000 0.000988 0.000000
# 3 -0.003981 -0.007019 0.019185 0.000000 0.000306 0.000000
# 4 0.000000 0.000000 0.000000 0.059857 0.000000 0.008302
# 5 -0.002151 0.000988 0.000306 0.000000 0.027911 0.000000
# 6 0.000000 0.000000 0.000000 0.008302 0.000000 0.026964
#
#
# Mechanical properties :
#
#
# Convention : Reuss Voigt Hill
#
# Bulk Modulus (GPa) = 57.51264 61.49634 59.50449
# Shear Modulus (GPa) = 25.99485 30.33509 28.16497
#
# Velocity S-wave (km/s) = 3.47411 3.75295 3.61622
# Velocity P-wave (km/s) = 6.54185 6.87985 6.71298
#
# Compressibility (1/GPa) = 0.01738748
#
# Stress axis : x y z
#
# Youngs Moduli (GPa) = 107.84037 61.94086 52.12346
#
# Poissons Ratio (x) = 0.16152 0.20749
# Poissons Ratio (y) = 0.28122 0.36586
# Poissons Ratio (z) = 0.42929 0.43477
#
# Static dielectric constant tensor:
#      x y z
#    x 4.213240 0.000000 0.070200 
#    y 0.000000 4.200720 0.000000 
#    z 0.070200 0.000000 4.180180 
# 
# 
# High freq. dielectric constant tensor:
#      x y z
#    x 1.860880 0.000000 -0.004220 
#    y 0.000000 1.850130 0.000000 
#    z -0.004220 0.000000 1.836800 
# 
# From -- ./inp_files/293081.got.cif
#   From: 2010.06.25/outbox.cif.g09.slc.cpg/sg15_147_cif.got.tgz:293081.got - 2010.06.28 07:06:18.
