data_PCOD8152097
_publ_section_title
;
Structure prediction by ZEFSAII (Michael W. Deem and Ramdas Pophale) SiO2 
 PCOD8152097
Probable space group: C 2/C
;
_chemical_formula_sum "Si O2"
_cell_formula_units_Z 64
_cell_length_a 13.497412
_cell_length_b 19.387698
_cell_length_c 13.771468
_cell_angle_alpha 90.000000
_cell_angle_beta 122.504241
_cell_angle_gamma 90.000000
_cell_volume 3039.244916
_symmetry_space_group_name_H-M "C 2/C"
_symmetry_group_IT_number 15
_symmetry_cell_setting 'monoclinic'
loop_
_space_group_symop_operation_xyz
x,y,z
-x,y,1/2-z
-x,-y,-z
x,-y,1/2+z
1/2+x,1/2+y,z
1/2-x,1/2+y,1/2-z
1/2-x,1/2-y,-z
1/2+x,1/2-y,1/2+z
loop_
_atom_site_type_symbol
_atom_site_label
_atom_site_fract_x
_atom_site_fract_y
_atom_site_fract_z
Si Si1 0.641560 0.041940 0.435931
Si Si2 0.049232 0.054165 0.669477
Si Si3 0.635507 0.056916 0.214746
Si Si4 0.530090 0.585934 0.065420
Si Si5 0.704629 0.912878 0.168187
Si Si6 0.869461 0.688300 0.714902
Si Si7 0.224259 0.098726 0.493359
Si Si8 0.199801 0.163606 0.280137
O O1 0.683063 0.062823 0.350376
O O2 0.501681 0.043191 0.364446
O O3 0.681717 0.095598 0.540745
O O4 0.694834 0.967002 0.488161
O O5 0.953608 0.087038 0.544044
O O6 0.159999 0.105575 0.737806
O O7 0.000000 0.040123 0.750000
O O8 0.089765 0.980734 0.645859
O O9 0.676806 0.129490 0.189219
O O10 0.690599 0.992585 0.188608
O O11 0.389180 0.580452 0.002876
O O12 0.593787 0.650793 0.147673
O O13 0.621301 0.863764 0.188502
O O14 0.805102 0.653351 0.590904
O O15 0.792285 0.754119 0.706335
O O16 0.000000 0.709752 0.750000
O O17 0.169447 0.131497 0.368023
#
# Coordination Sequence:
#
# PCOD8152097 Si02
#       8
#     8   8   8   8   8   8   8   8
#     4  11  23  39  70 100 131 170 226 286 335 391
#     4  11  22  36  65  96 128 168 223 282 336 388
#     4  11  23  42  65 100 133 173 228 277 332 402
#     4  11  22  40  62  98 132 171 218 278 335 396
#     4  12  22  42  67  99 131 177 223 282 336 392
#     4  12  27  45  67 101 139 177 222 276 340 409
#     4  12  22  42  69  99 137 168 223 281 339 402
#     4  12  26  42  66  96 137 183 220 270 343 404
#
# _framework density 21.057862
#
# number of rings (size 3 to 8) (size 9 to 14) (size 15 to 20)
#    0.000    0.500    5.000    4.125    5.250    0.000 
#    0.000    0.625    2.750    0.000    0.000    0.000 
#    0.000    0.000    0.000    0.000    0.000    0.000 
#
# Total GULP energy -396700.481732 kJ/mol
# GULP energy per Si atom -12396.890054 kJ/mol
# Density = 2.100993 g / cm^3
# Si number density = 21.057862 Si / 1000 Ang^3
#
#
#
# Elastic Constant Matrix: (Units=GPa)
#
#
# Indices 1 2 3 4 5 6 
#
# 1 44.1759 19.6612 10.2012 0.0000 -10.5054 0.0000
# 2 19.6612 91.0942 21.3533 0.0000 -4.7463 0.0000
# 3 10.2012 21.3533 123.2733 0.0000 -28.4511 0.0000
# 4 0.0000 0.0000 0.0000 19.1375 0.0000 0.3315
# 5 -10.5054 -4.7463 -28.4511 0.0000 46.0568 0.0000
# 6 0.0000 0.0000 0.0000 0.3315 0.0000 26.2297
#
#
#
# Elastic Compliance Matrix: (Units=1/GPa)
#
#
# Indices 1 2 3 4 5 6 
#
# 1 0.026337 -0.005404 0.000017 0.000000 0.005461 0.000000
# 2 -0.005404 0.012551 -0.001998 0.000000 -0.001173 0.000000
# 3 0.000017 -0.001998 0.009808 0.000000 0.005857 0.000000
# 4 0.000000 0.000000 0.000000 0.052265 0.000000 -0.000661
# 5 0.005461 -0.001173 0.005857 0.000000 0.026455 0.000000
# 6 0.000000 0.000000 0.000000 -0.000661 0.000000 0.038133
#
#
# Mechanical properties :
#
#
# Convention : Reuss Voigt Hill
#
# Bulk Modulus (GPa) = 29.47488 40.10831 34.79160
# Shear Modulus (GPa) = 26.09229 32.10663 29.09946
#
# Velocity S-wave (km/s) = 3.52387 3.90896 3.72140
# Velocity P-wave (km/s) = 5.53031 6.28183 5.91801
#
# Compressibility (1/GPa) = 0.03392719
#
# Stress axis : x y z
#
# Youngs Moduli (GPa) = 37.97003 79.67424 101.95246
#
# Poissons Ratio (x) = 0.43054 -0.00173
# Poissons Ratio (y) = 0.20518 0.20367
# Poissons Ratio (z) = -0.00064 0.15916
#
# Static dielectric constant tensor:
#      x y z
#    x 3.836040 0.000000 -0.120900 
#    y 0.000000 3.433440 0.000000 
#    z -0.120900 0.000000 4.218730 
# 
# 
# High freq. dielectric constant tensor:
#      x y z
#    x 1.829500 0.000000 -0.004970 
#    y 0.000000 1.779510 0.000000 
#    z -0.004970 0.000000 1.854580 
# 
# From -- ./inp_files/155529.got.cif
#   From: 2010.06.25/outbox.cif.g09.slc.cpg/sg15_78_cif.got.tgz:155529.got - 2010.06.28 07:06:18.
