data_PCOD8152378
_publ_section_title
;
Structure prediction by ZEFSAII (Michael W. Deem and Ramdas Pophale) SiO2 
 PCOD8152378
Probable space group: C 2/C
;
_chemical_formula_sum "Si O2"
_cell_formula_units_Z 40
_cell_length_a 8.334486
_cell_length_b 31.005493
_cell_length_c 11.530687
_cell_angle_alpha 90.000000
_cell_angle_beta 40.858658
_cell_angle_gamma 90.000000
_cell_volume 1949.306070
_symmetry_space_group_name_H-M "C 2/C"
_symmetry_group_IT_number 15
_symmetry_cell_setting 'monoclinic'
loop_
_space_group_symop_operation_xyz
x,y,z
-x,y,1/2-z
-x,-y,-z
x,-y,1/2+z
1/2+x,1/2+y,z
1/2-x,1/2+y,1/2-z
1/2-x,1/2-y,-z
1/2+x,1/2-y,1/2+z
loop_
_atom_site_type_symbol
_atom_site_label
_atom_site_fract_x
_atom_site_fract_y
_atom_site_fract_z
Si Si1 0.311176 0.892051 0.254517
Si Si2 0.522053 0.952759 0.541764
Si Si3 0.727968 0.301578 0.206569
Si Si4 0.388264 0.453292 0.549117
Si Si5 0.759335 0.273783 0.614607
O O1 0.500000 0.878471 0.250000
O O2 0.178895 0.848601 0.285176
O O3 0.107887 0.919986 0.429430
O O4 0.443600 0.917699 0.077942
O O5 0.753845 0.950752 0.499502
O O6 0.281339 0.942040 0.748349
O O7 0.500000 0.000000 0.500000
O O8 0.500000 0.290398 0.250000
O O9 0.739110 0.263007 0.289999
O O10 0.999252 0.303416 0.997491
O O11 0.500000 0.500000 0.500000
O O12 0.500000 0.300786 0.750000
O O13 0.750000 0.250000 0.500000
#
# Coordination Sequence:
#
# PCOD8152378 Si02
#       5
#     8   8   8   8   8
#     4  12  25  42  64  92 129 170 214 267 319 377
#     4  11  23  40  63  92 124 166 216 263 322 379
#     4  11  22  41  66  95 128 165 210 264 319 383
#     4  11  23  40  64  90 125 167 213 265 320 382
#     4   9  19  39  65  91 124 162 203 250 315 384
#
# _framework density 20.520123000000002
#
# number of rings (size 3 to 8) (size 9 to 14) (size 15 to 20)
#    0.000    1.200    2.000    5.400    0.000    2.400 
#   10.800    0.000    0.000    0.000    0.000    0.000 
#    0.000    0.000    0.000    0.000    0.000    0.000 
#
# Total GULP energy -247881.881920 kJ/mol
# GULP energy per Si atom -12394.094096 kJ/mol
# Density = 2.047342 g / cm^3
# Si number density = 20.520123 Si / 1000 Ang^3
#
#
#
# Elastic Constant Matrix: (Units=GPa)
#
#
# Indices 1 2 3 4 5 6 
#
# 1 128.9335 20.8380 50.5060 0.0000 -11.2201 0.0000
# 2 20.8380 82.2878 19.3233 0.0000 -6.8917 0.0000
# 3 50.5060 19.3233 107.8835 0.0000 -15.7649 0.0000
# 4 0.0000 0.0000 0.0000 28.5077 0.0000 -1.8912
# 5 -11.2201 -6.8917 -15.7649 0.0000 45.2257 0.0000
# 6 0.0000 0.0000 0.0000 -1.8912 0.0000 29.4564
#
#
#
# Elastic Compliance Matrix: (Units=1/GPa)
#
#
# Indices 1 2 3 4 5 6 
#
# 1 0.009682 -0.001411 -0.004173 0.000000 0.000732 0.000000
# 2 -0.001411 0.012954 -0.001499 0.000000 0.001102 0.000000
# 3 -0.004173 -0.001499 0.011914 0.000000 0.002889 0.000000
# 4 0.000000 0.000000 0.000000 0.035228 0.000000 0.002262
# 5 0.000732 0.001102 0.002889 0.000000 0.023468 0.000000
# 6 0.000000 0.000000 0.000000 0.002262 0.000000 0.034094
#
#
# Mechanical properties :
#
#
# Convention : Reuss Voigt Hill
#
# Bulk Modulus (GPa) = 49.05652 55.60438 52.33045
# Shear Modulus (GPa) = 33.71546 35.86713 34.79130
#
# Velocity S-wave (km/s) = 4.05785 4.18533 4.12208
# Velocity P-wave (km/s) = 6.77593 7.10720 6.94354
#
# Compressibility (1/GPa) = 0.02038465
#
# Stress axis : x y z
#
# Youngs Moduli (GPa) = 103.28061 77.19679 83.93780
#
# Poissons Ratio (x) = 0.10889 0.35028
# Poissons Ratio (y) = 0.14569 0.12581
# Poissons Ratio (z) = 0.43100 0.11571
#
# Static dielectric constant tensor:
#      x y z
#    x 4.155710 0.000000 -0.122840 
#    y 0.000000 3.434320 0.000000 
#    z -0.122840 0.000000 5.247180 
# 
# 
# High freq. dielectric constant tensor:
#      x y z
#    x 1.822980 0.000000 -0.008390 
#    y 0.000000 1.788040 0.000000 
#    z -0.008390 0.000000 1.818030 
# 
# From -- ./inp_files/81988.got.cif
#   From: 2010.06.25/outbox.cif.g09.slc.cpg/sg15_41_cif.got.tgz:81988.got - 2010.06.28 07:06:18.
