data_PCOD8152954
_publ_section_title
;
Structure prediction by ZEFSAII (Michael W. Deem and Ramdas Pophale) SiO2 
 PCOD8152954
Probable space group: C 2/C
;
_chemical_formula_sum "Si O2"
_cell_formula_units_Z 40
_cell_length_a 16.291252
_cell_length_b 17.931825
_cell_length_c 10.408806
_cell_angle_alpha 90.000000
_cell_angle_beta 141.632562
_cell_angle_gamma 90.000000
_cell_volume 1887.396822
_symmetry_space_group_name_H-M "C 2/C"
_symmetry_group_IT_number 15
_symmetry_cell_setting 'monoclinic'
loop_
_space_group_symop_operation_xyz
x,y,z
-x,y,1/2-z
-x,-y,-z
x,-y,1/2+z
1/2+x,1/2+y,z
1/2-x,1/2+y,1/2-z
1/2-x,1/2-y,-z
1/2+x,1/2-y,1/2+z
loop_
_atom_site_type_symbol
_atom_site_label
_atom_site_fract_x
_atom_site_fract_y
_atom_site_fract_z
Si Si1 0.468914 0.579829 0.407171
Si Si2 0.190688 0.603219 0.380728
Si Si3 0.900235 0.204178 0.517567
Si Si4 0.395708 0.133017 0.945545
Si Si5 0.788776 0.940783 0.467657
O O1 0.500000 0.500000 0.500000
O O2 0.470366 0.641456 0.518786
O O3 0.589367 0.594622 0.459612
O O4 0.324575 0.579659 0.159448
O O5 0.266111 0.674972 0.417734
O O6 0.186075 0.604962 0.530103
O O7 0.270665 0.530020 0.433243
O O8 0.045606 0.605593 0.142022
O O9 0.875626 0.278279 0.404393
O O10 0.000000 0.230602 0.750000
O O11 0.343433 0.097549 0.748430
#
# Coordination Sequence:
#
# PCOD8152954 Si02
#       5
#     8   8   8   8   8
#     4  11  23  41  66  97 123 176 218 271 317 381
#     4  11  23  41  66  96 131 172 218 268 321 390
#     4  12  23  41  68  95 131 170 224 270 322 385
#     4  11  25  41  65  96 133 172 212 269 333 388
#     4  11  23  42  66  93 133 166 222 267 324 386
#
# _framework density 21.193211000000002
#
# number of rings (size 3 to 8) (size 9 to 14) (size 15 to 20)
#    0.000    0.800    4.000    4.800    2.800    0.800 
#    0.000    0.000    0.000    0.000    0.000    0.000 
#    0.000    0.000    0.000    0.000    0.000    0.000 
#
# Total GULP energy -248000.833851 kJ/mol
# GULP energy per Si atom -12400.041693 kJ/mol
# Density = 2.114497 g / cm^3
# Si number density = 21.193211 Si / 1000 Ang^3
#
#
#
# Elastic Constant Matrix: (Units=GPa)
#
#
# Indices 1 2 3 4 5 6 
#
# 1 57.1235 12.6470 19.2168 0.0000 8.7699 0.0000
# 2 12.6470 105.3945 29.4454 0.0000 -6.7729 0.0000
# 3 19.2168 29.4454 111.5756 0.0000 -15.0281 0.0000
# 4 0.0000 0.0000 0.0000 28.7404 0.0000 -6.5373
# 5 8.7699 -6.7729 -15.0281 0.0000 32.0501 0.0000
# 6 0.0000 0.0000 0.0000 -6.5373 0.0000 28.3955
#
#
#
# Elastic Compliance Matrix: (Units=1/GPa)
#
#
# Indices 1 2 3 4 5 6 
#
# 1 0.020512 -0.001820 -0.004121 0.000000 -0.007930 0.000000
# 2 -0.001820 0.010432 -0.002216 0.000000 0.001664 0.000000
# 3 -0.004121 -0.002216 0.011043 0.000000 0.005837 0.000000
# 4 0.000000 0.000000 0.000000 0.036717 0.000000 0.008453
# 5 -0.007930 0.001664 0.005837 0.000000 0.036460 0.000000
# 6 0.000000 0.000000 0.000000 0.008453 0.000000 0.037163
#
#
# Mechanical properties :
#
#
# Convention : Reuss Voigt Hill
#
# Bulk Modulus (GPa) = 38.94707 44.07912 41.51309
# Shear Modulus (GPa) = 28.21693 32.02281 30.11987
#
# Velocity S-wave (km/s) = 3.65281 3.89137 3.77398
# Velocity P-wave (km/s) = 6.01729 6.40579 6.21458
#
# Compressibility (1/GPa) = 0.02567588
#
# Stress axis : x y z
#
# Youngs Moduli (GPa) = 48.75092 95.85462 90.55335
#
# Poissons Ratio (x) = 0.17443 0.37314
# Poissons Ratio (y) = 0.08872 0.20064
# Poissons Ratio (z) = 0.20089 0.21238
#
# Static dielectric constant tensor:
#      x y z
#    x 4.534030 0.000000 0.274910 
#    y 0.000000 3.757060 0.000000 
#    z 0.274910 0.000000 4.278690 
# 
# 
# High freq. dielectric constant tensor:
#      x y z
#    x 1.818770 0.000000 0.002720 
#    y 0.000000 1.831670 0.000000 
#    z 0.002720 0.000000 1.842610 
# 
# From -- ./inp_files/106248.got.cif
#   From: 2010.06.25/outbox.cif.g09.slc.cpg/sg15_54_cif.got.tgz:106248.got - 2010.06.28 07:06:18.
