data_PCOD8152145
_publ_section_title
;
Structure prediction by ZEFSAII (Michael W. Deem and Ramdas Pophale) SiO2 
 PCOD8152145
Probable space group: C 2/C
;
_chemical_formula_sum "Si O2"
_cell_formula_units_Z 48
_cell_length_a 17.325154
_cell_length_b 8.661098
_cell_length_c 17.858179
_cell_angle_alpha 90.000000
_cell_angle_beta 127.231957
_cell_angle_gamma 90.000000
_cell_volume 2133.562413
_symmetry_space_group_name_H-M "C 2/C"
_symmetry_group_IT_number 15
_symmetry_cell_setting 'monoclinic'
loop_
_space_group_symop_operation_xyz
x,y,z
-x,y,1/2-z
-x,-y,-z
x,-y,1/2+z
1/2+x,1/2+y,z
1/2-x,1/2+y,1/2-z
1/2-x,1/2-y,-z
1/2+x,1/2-y,1/2+z
loop_
_atom_site_type_symbol
_atom_site_label
_atom_site_fract_x
_atom_site_fract_y
_atom_site_fract_z
Si Si1 0.199880 0.944280 0.305522
Si Si2 0.007743 0.605254 0.669032
Si Si3 0.305789 0.085783 0.226168
Si Si4 0.855686 0.933304 0.442949
Si Si5 0.689492 0.864668 0.518016
Si Si6 0.467623 0.563546 0.366716
O O1 0.255094 0.037818 0.273226
O O2 0.209539 0.764797 0.297053
O O3 0.244605 0.996886 0.411109
O O4 0.084621 0.988544 0.236432
O O5 0.081317 0.461606 0.704591
O O6 0.046783 0.751364 0.644761
O O7 0.000000 0.658674 0.750000
O O8 0.901767 0.555513 0.576858
O O9 0.252801 0.003744 0.123358
O O10 0.847785 0.746264 0.436099
O O11 0.917684 0.976836 0.555137
O O12 0.912221 0.994407 0.404960
O O13 0.750000 0.750000 0.500000
#
# Coordination Sequence:
#
# PCOD8152145 Si02
#       6
#     8   8   8   8   8   8
#     4  11  22  38  63  92 124 165 207 253 310 370
#     4  11  23  41  64  90 124 161 205 260 314 372
#     4  11  22  38  62  90 126 163 204 257 308 368
#     4   9  18  35  59  86 118 157 202 251 298 359
#     4  11  23  41  66  92 123 165 209 256 314 373
#     4   9  18  35  60  86 115 156 203 248 299 361
#
# _framework density 22.497585999999998
#
# number of rings (size 3 to 8) (size 9 to 14) (size 15 to 20)
#    0.000    1.667    0.000    7.000    0.000    2.000 
#    0.000    7.500    0.000    0.000    0.000    0.000 
#    0.000    0.000    0.000    0.000    0.000    0.000 
#
# Total GULP energy -297335.619275 kJ/mol
# GULP energy per Si atom -12388.984136 kJ/mol
# Density = 2.244638 g / cm^3
# Si number density = 22.497586 Si / 1000 Ang^3
#
#
#
# Elastic Constant Matrix: (Units=GPa)
#
#
# Indices 1 2 3 4 5 6 
#
# 1 59.1228 28.1780 29.3551 0.0000 7.6631 0.0000
# 2 28.1780 125.9441 66.3694 0.0000 3.6148 0.0000
# 3 29.3551 66.3694 216.4938 0.0000 40.9534 0.0000
# 4 0.0000 0.0000 0.0000 40.4710 0.0000 3.3961
# 5 7.6631 3.6148 40.9534 0.0000 32.1825 0.0000
# 6 0.0000 0.0000 0.0000 3.3961 0.0000 22.3341
#
#
#
# Elastic Compliance Matrix: (Units=1/GPa)
#
#
# Indices 1 2 3 4 5 6 
#
# 1 0.019581 -0.003818 -0.000901 0.000000 -0.003088 0.000000
# 2 -0.003818 0.010517 -0.003497 0.000000 0.004177 0.000000
# 3 -0.000901 -0.003497 0.007505 0.000000 -0.008943 0.000000
# 4 0.000000 0.000000 0.000000 0.025028 0.000000 -0.003806
# 5 -0.003088 0.004177 -0.008943 0.000000 0.042719 0.000000
# 6 0.000000 0.000000 0.000000 -0.003806 0.000000 0.045353
#
#
# Mechanical properties :
#
#
# Convention : Reuss Voigt Hill
#
# Bulk Modulus (GPa) = 47.23069 72.15174 59.69121
# Shear Modulus (GPa) = 28.70414 37.50807 33.10610
#
# Velocity S-wave (km/s) = 3.57582 4.08757 3.84023
# Velocity P-wave (km/s) = 6.17154 7.37687 6.80096
#
# Compressibility (1/GPa) = 0.02117268
#
# Stress axis : x y z
#
# Youngs Moduli (GPa) = 51.07043 95.08451 133.24671
#
# Poissons Ratio (x) = 0.36300 0.12000
# Poissons Ratio (y) = 0.19497 0.46593
# Poissons Ratio (z) = 0.04599 0.33248
#
# Static dielectric constant tensor:
#      x y z
#    x 3.905510 0.000000 0.446150 
#    y 0.000000 3.897660 0.000000 
#    z 0.446150 0.000000 5.398520 
# 
# 
# High freq. dielectric constant tensor:
#      x y z
#    x 1.859830 0.000000 0.018980 
#    y 0.000000 1.868450 0.000000 
#    z 0.018980 0.000000 1.921410 
# 
# From -- ./inp_files/252000.got.cif
#   From: 2010.06.25/outbox.cif.g09.slc.cpg/sg15_126_cif.got.tgz:252000.got - 2010.06.28 07:06:18.
