data_PCOD8152525
_publ_section_title
;
Structure prediction by ZEFSAII (Michael W. Deem and Ramdas Pophale) SiO2 
 PCOD8152525
Probable space group: C 2/C
;
_chemical_formula_sum "Si O2"
_cell_formula_units_Z 48
_cell_length_a 12.129714
_cell_length_b 8.596386
_cell_length_c 22.845537
_cell_angle_alpha 90.000000
_cell_angle_beta 66.911426
_cell_angle_gamma 90.000000
_cell_volume 2191.332735
_symmetry_space_group_name_H-M "C 2/C"
_symmetry_group_IT_number 15
_symmetry_cell_setting 'monoclinic'
loop_
_space_group_symop_operation_xyz
x,y,z
-x,y,1/2-z
-x,-y,-z
x,-y,1/2+z
1/2+x,1/2+y,z
1/2-x,1/2+y,1/2-z
1/2-x,1/2-y,-z
1/2+x,1/2-y,1/2+z
loop_
_atom_site_type_symbol
_atom_site_label
_atom_site_fract_x
_atom_site_fract_y
_atom_site_fract_z
Si Si1 0.691434 0.129729 0.851075
Si Si2 0.005243 0.193090 0.181543
Si Si3 0.767214 0.319167 0.432439
Si Si4 0.310676 0.817576 0.930719
Si Si5 0.088901 0.305186 0.885411
Si Si6 0.593909 0.366070 0.273313
O O1 0.593893 0.222613 0.835544
O O2 0.749728 0.240108 0.887340
O O3 0.625101 0.981797 0.893295
O O4 0.793742 0.067975 0.786188
O O5 0.979330 0.009560 0.183388
O O6 0.000000 0.252343 0.250000
O O7 0.134717 0.224134 0.125661
O O8 0.750000 0.250000 0.500000
O O9 0.800865 0.498141 0.428835
O O10 0.639810 0.303283 0.426263
O O11 0.448931 0.775049 0.907906
O O12 0.250000 0.750000 0.000000
O O13 0.143901 0.252385 0.811500
O O14 0.500000 0.276365 0.250000
#
# Coordination Sequence:
#
# PCOD8152525 Si02
#       6
#     8   8   8   8   8   8
#     4  12  24  46  73 107 148 187 242 303 363 432
#     4  11  25  45  74 109 149 191 243 301 361 434
#     4  12  28  49  76 107 146 196 243 300 368 433
#     4  12  29  48  74 109 142 192 246 297 364 435
#     4  12  26  47  75 104 148 188 237 302 360 428
#     4  11  22  42  71 108 145 187 239 294 361 435
#
# _framework density 21.904478000000001
#
# number of rings (size 3 to 8) (size 9 to 14) (size 15 to 20)
#    0.000    0.333    3.333    6.000    4.667    4.000 
#    0.000    0.000    0.000    0.000    0.000    0.000 
#    0.000    0.000    0.000    0.000    0.000    0.000 
#
# Total GULP energy -297671.312784 kJ/mol
# GULP energy per Si atom -12402.971366 kJ/mol
# Density = 2.185462 g / cm^3
# Si number density = 21.904478 Si / 1000 Ang^3
#
#
#
# Elastic Constant Matrix: (Units=GPa)
#
#
# Indices 1 2 3 4 5 6 
#
# 1 146.5426 24.8190 47.8293 0.0000 21.0581 0.0000
# 2 24.8190 85.1166 36.5622 0.0000 2.3337 0.0000
# 3 47.8293 36.5622 134.1095 0.0000 4.9110 0.0000
# 4 0.0000 0.0000 0.0000 36.8338 0.0000 3.5488
# 5 21.0581 2.3337 4.9110 0.0000 35.1886 0.0000
# 6 0.0000 0.0000 0.0000 3.5488 0.0000 40.7604
#
#
#
# Elastic Compliance Matrix: (Units=1/GPa)
#
#
# Indices 1 2 3 4 5 6 
#
# 1 0.008535 -0.001276 -0.002525 0.000000 -0.004671 0.000000
# 2 -0.001276 0.013503 -0.003238 0.000000 0.000320 0.000000
# 3 -0.002525 -0.003238 0.009224 0.000000 0.000439 0.000000
# 4 0.000000 0.000000 0.000000 0.027379 0.000000 -0.002384
# 5 -0.004671 0.000320 0.000439 0.000000 0.031131 0.000000
# 6 0.000000 0.000000 0.000000 -0.002384 0.000000 0.024741
#
#
# Mechanical properties :
#
#
# Convention : Reuss Voigt Hill
#
# Bulk Modulus (GPa) = 58.19426 64.90997 61.55212
# Shear Modulus (GPa) = 37.22480 39.66044 38.44262
#
# Velocity S-wave (km/s) = 4.12687 4.25974 4.19383
# Velocity P-wave (km/s) = 7.02375 7.34108 7.18416
#
# Compressibility (1/GPa) = 0.01718382
#
# Stress axis : x y z
#
# Youngs Moduli (GPa) = 117.15844 74.05906 108.41453
#
# Poissons Ratio (x) = 0.09450 0.27377
# Poissons Ratio (y) = 0.14950 0.35103
# Poissons Ratio (z) = 0.29585 0.23979
#
# Static dielectric constant tensor:
#      x y z
#    x 4.358550 0.000000 0.053090 
#    y 0.000000 3.710820 0.000000 
#    z 0.053090 0.000000 4.087780 
# 
# 
# High freq. dielectric constant tensor:
#      x y z
#    x 1.889650 0.000000 0.005960 
#    y 0.000000 1.862490 0.000000 
#    z 0.005960 0.000000 1.865140 
# 
# From -- ./inp_files/268013.got.cif
#   From: 2010.06.25/outbox.cif.g09.slc.cpg/sg15_135_cif.got.tgz:268013.got - 2010.06.28 07:06:18.
