data_PCOD8152591
_publ_section_title
;
Structure prediction by ZEFSAII (Michael W. Deem and Ramdas Pophale) SiO2 
 PCOD8152591
Probable space group: C 2/C
;
_chemical_formula_sum "Si O2"
_cell_formula_units_Z 56
_cell_length_a 10.912560
_cell_length_b 10.906653
_cell_length_c 24.829599
_cell_angle_alpha 90.000000
_cell_angle_beta 62.019916
_cell_angle_gamma 90.000000
_cell_volume 2609.774641
_symmetry_space_group_name_H-M "C 2/C"
_symmetry_group_IT_number 15
_symmetry_cell_setting 'monoclinic'
loop_
_space_group_symop_operation_xyz
x,y,z
-x,y,1/2-z
-x,-y,-z
x,-y,1/2+z
1/2+x,1/2+y,z
1/2-x,1/2+y,1/2-z
1/2-x,1/2-y,-z
1/2+x,1/2-y,1/2+z
loop_
_atom_site_type_symbol
_atom_site_label
_atom_site_fract_x
_atom_site_fract_y
_atom_site_fract_z
Si Si1 0.529410 0.155684 0.088957
Si Si2 0.340034 0.960001 0.168745
Si Si3 0.915592 0.988258 0.713481
Si Si4 0.645034 0.620215 0.611295
Si Si5 0.770079 0.457867 0.498077
Si Si6 0.480596 0.762495 0.316875
Si Si7 0.308566 0.266455 0.067292
O O1 0.405187 0.094654 0.148658
O O2 0.643758 0.232917 0.099710
O O3 0.455843 0.258860 0.067160
O O4 0.600386 0.045299 0.042013
O O5 0.239127 0.967981 0.241307
O O6 0.261440 0.913741 0.131244
O O7 0.465869 0.871060 0.156548
O O8 0.000000 0.963721 0.750000
O O9 0.927123 0.854894 0.683197
O O10 0.989263 0.093061 0.663804
O O11 0.664011 0.540726 0.553581
O O12 0.701078 0.401049 0.458210
O O13 0.820710 0.341998 0.521478
O O14 0.500000 0.795405 0.250000
O O15 0.319377 0.742043 0.365267
#
# Coordination Sequence:
#
# PCOD8152591 Si02
#       7
#     8   8   8   8   8   8   8
#     4  12  24  43  70  96 138 174 221 279 333 401
#     4  11  24  44  68  97 137 175 224 279 340 400
#     4   9  20  41  63  90 127 172 220 268 333 393
#     4  11  24  43  68  98 134 178 222 275 341 399
#     4  11  23  44  66 102 134 177 228 271 335 406
#     4  11  22  43  69  97 132 179 227 276 335 397
#     4  11  23  42  73  97 132 182 225 272 339 396
#
# _framework density 21.457792000000001
#
# number of rings (size 3 to 8) (size 9 to 14) (size 15 to 20)
#    0.000    1.143    4.286    2.571    4.000    0.571 
#    5.143    0.000    0.000    0.000    0.000    0.000 
#    0.000    0.000    0.000    0.000    0.000    0.000 
#
# Total GULP energy -347105.081086 kJ/mol
# GULP energy per Si atom -12396.610039 kJ/mol
# Density = 2.140895 g / cm^3
# Si number density = 21.457792 Si / 1000 Ang^3
#
#
#
# Elastic Constant Matrix: (Units=GPa)
#
#
# Indices 1 2 3 4 5 6 
#
# 1 66.5744 52.1962 22.9073 0.0000 -3.5434 0.0000
# 2 52.1962 114.5661 40.5357 0.0000 1.6890 0.0000
# 3 22.9073 40.5357 104.0370 0.0000 -7.1129 0.0000
# 4 0.0000 0.0000 0.0000 27.5948 0.0000 -2.9235
# 5 -3.5434 1.6890 -7.1129 0.0000 23.4275 0.0000
# 6 0.0000 0.0000 0.0000 -2.9235 0.0000 41.7447
#
#
#
# Elastic Compliance Matrix: (Units=1/GPa)
#
#
# Indices 1 2 3 4 5 6 
#
# 1 0.023869 -0.010643 -0.000827 0.000000 0.004127 0.000000
# 2 -0.010643 0.014960 -0.003747 0.000000 -0.003826 0.000000
# 3 -0.000827 -0.003747 0.011503 0.000000 0.003637 0.000000
# 4 0.000000 0.000000 0.000000 0.036510 0.000000 0.002557
# 5 0.004127 -0.003826 0.003637 0.000000 0.044689 0.000000
# 6 0.000000 0.000000 0.000000 0.002557 0.000000 0.024134
#
#
# Mechanical properties :
#
#
# Convention : Reuss Voigt Hill
#
# Bulk Modulus (GPa) = 50.25554 57.38398 53.81976
# Shear Modulus (GPa) = 25.94287 29.85594 27.89941
#
# Velocity S-wave (km/s) = 3.48087 3.73417 3.60974
# Velocity P-wave (km/s) = 6.29498 6.73742 6.51995
#
# Compressibility (1/GPa) = 0.01989830
#
# Stress axis : x y z
#
# Youngs Moduli (GPa) = 41.89448 66.84595 86.93735
#
# Poissons Ratio (x) = 0.71146 0.07186
# Poissons Ratio (y) = 0.44589 0.32574
# Poissons Ratio (z) = 0.03463 0.25046
#
# Static dielectric constant tensor:
#      x y z
#    x 3.558890 0.000000 -0.033540 
#    y 0.000000 3.935170 0.000000 
#    z -0.033540 0.000000 4.179900 
# 
# 
# High freq. dielectric constant tensor:
#      x y z
#    x 1.815430 0.000000 -0.012510 
#    y 0.000000 1.850850 0.000000 
#    z -0.012510 0.000000 1.853290 
# 
# From -- ./inp_files/310223.got.cif
#   From: 2010.06.25/outbox.cif.g09.slc.cpg/sg15_156_cif.got.tgz:310223.got - 2010.06.28 07:06:18.
