data_PCOD8152541
_publ_section_title
;
Structure prediction by ZEFSAII (Michael W. Deem and Ramdas Pophale) SiO2 
 PCOD8152541
Probable space group: C 2/C
;
_chemical_formula_sum "Si O2"
_cell_formula_units_Z 40
_cell_length_a 18.762004
_cell_length_b 8.778429
_cell_length_c 11.977572
_cell_angle_alpha 90.000000
_cell_angle_beta 76.297030
_cell_angle_gamma 90.000000
_cell_volume 1916.567368
_symmetry_space_group_name_H-M "C 2/C"
_symmetry_group_IT_number 15
_symmetry_cell_setting 'monoclinic'
loop_
_space_group_symop_operation_xyz
x,y,z
-x,y,1/2-z
-x,-y,-z
x,-y,1/2+z
1/2+x,1/2+y,z
1/2-x,1/2+y,1/2-z
1/2-x,1/2-y,-z
1/2+x,1/2-y,1/2+z
loop_
_atom_site_type_symbol
_atom_site_label
_atom_site_fract_x
_atom_site_fract_y
_atom_site_fract_z
Si Si1 0.687921 0.106251 0.800196
Si Si2 0.890165 0.661569 0.452308
Si Si3 0.925396 0.348811 0.337231
Si Si4 0.968405 0.833445 0.023002
Si Si5 0.159124 0.747319 0.266846
O O1 0.635185 0.192881 0.732481
O O2 0.770896 0.146209 0.738702
O O3 0.674760 0.925128 0.799459
O O4 0.670463 0.175205 0.928301
O O5 0.897062 0.484424 0.424314
O O6 0.863860 0.755371 0.354361
O O7 0.968454 0.716867 0.466410
O O8 0.936988 0.204078 0.412119
O O9 0.000000 0.401204 0.250000
O O10 0.905029 0.824116 0.138234
O O11 0.000000 0.000000 0.000000
#
# Coordination Sequence:
#
# PCOD8152541 Si02
#       5
#     8   8   8   8   8
#     4  11  24  43  71  98 138 174 222 275 337 400
#     4  11  22  46  70  94 131 180 223 273 332 403
#     4  11  22  42  72  95 128 177 223 273 333 399
#     4  12  26  43  69 100 135 173 226 280 328 395
#     4  11  26  44  67 103 134 176 221 276 337 397
#
# _framework density 20.870645
#
# number of rings (size 3 to 8) (size 9 to 14) (size 15 to 20)
#    0.000    0.800    4.000    4.200    2.800    4.000 
#    0.000    0.000    0.000    0.000    0.000    0.000 
#    0.000    0.000    0.000    0.000    0.000    0.000 
#
# Total GULP energy -248119.562579 kJ/mol
# GULP energy per Si atom -12405.978129 kJ/mol
# Density = 2.082314 g / cm^3
# Si number density = 20.870645 Si / 1000 Ang^3
#
#
#
# Elastic Constant Matrix: (Units=GPa)
#
#
# Indices 1 2 3 4 5 6 
#
# 1 113.8495 45.0881 60.2976 0.0000 -14.4713 0.0000
# 2 45.0881 80.2864 51.4260 0.0000 7.6645 0.0000
# 3 60.2976 51.4260 140.7454 0.0000 1.2664 0.0000
# 4 0.0000 0.0000 0.0000 16.3902 0.0000 -6.8877
# 5 -14.4713 7.6645 1.2664 0.0000 39.9621 0.0000
# 6 0.0000 0.0000 0.0000 -6.8877 0.0000 38.6631
#
#
#
# Elastic Compliance Matrix: (Units=1/GPa)
#
#
# Indices 1 2 3 4 5 6 
#
# 1 0.014016 -0.005998 -0.003870 0.000000 0.006349 0.000000
# 2 -0.005998 0.019179 -0.004387 0.000000 -0.005712 0.000000
# 3 -0.003870 -0.004387 0.010374 0.000000 -0.000889 0.000000
# 4 0.000000 0.000000 0.000000 0.065949 0.000000 0.011749
# 5 0.006349 -0.005712 -0.000889 0.000000 0.028446 0.000000
# 6 0.000000 0.000000 0.000000 0.011749 0.000000 0.027957
#
#
# Mechanical properties :
#
#
# Convention : Reuss Voigt Hill
#
# Bulk Modulus (GPa) = 66.40639 72.05609 69.23124
# Shear Modulus (GPa) = 25.06889 30.87438 27.97163
#
# Velocity S-wave (km/s) = 3.46953 3.85037 3.66490
# Velocity P-wave (km/s) = 6.92368 7.37341 7.15208
#
# Compressibility (1/GPa) = 0.01505879
#
# Stress axis : x y z
#
# Youngs Moduli (GPa) = 71.34889 52.14053 96.39718
#
# Poissons Ratio (x) = 0.31275 0.37306
# Poissons Ratio (y) = 0.42797 0.42285
# Poissons Ratio (z) = 0.27612 0.22871
#
# Static dielectric constant tensor:
#      x y z
#    x 3.962030 0.000000 0.258610 
#    y 0.000000 3.557620 0.000000 
#    z 0.258610 0.000000 4.193300 
# 
# 
# High freq. dielectric constant tensor:
#      x y z
#    x 1.826970 0.000000 0.002200 
#    y 0.000000 1.802910 0.000000 
#    z 0.002200 0.000000 1.838170 
# 
# From -- ./inp_files/102663.got.cif
#   From: 2010.06.25/outbox.cif.g09.slc.cpg/sg15_52_cif.got.tgz:102663.got - 2010.06.28 07:06:18.
