data_PCOD8152253
_publ_section_title
;
Structure prediction by ZEFSAII (Michael W. Deem and Ramdas Pophale) SiO2 
 PCOD8152253
Probable space group: C 2/C
;
_chemical_formula_sum "Si O2"
_cell_formula_units_Z 48
_cell_length_a 20.494369
_cell_length_b 17.797723
_cell_length_c 17.155331
_cell_angle_alpha 90.000000
_cell_angle_beta 20.497141
_cell_angle_gamma 90.000000
_cell_volume 2191.116282
_symmetry_space_group_name_H-M "C 2/C"
_symmetry_group_IT_number 15
_symmetry_cell_setting 'monoclinic'
loop_
_space_group_symop_operation_xyz
x,y,z
-x,y,1/2-z
-x,-y,-z
x,-y,1/2+z
1/2+x,1/2+y,z
1/2-x,1/2+y,1/2-z
1/2-x,1/2-y,-z
1/2+x,1/2-y,1/2+z
loop_
_atom_site_type_symbol
_atom_site_label
_atom_site_fract_x
_atom_site_fract_y
_atom_site_fract_z
Si Si1 0.873086 0.407557 0.523419
Si Si2 0.871846 0.826531 0.209693
Si Si3 0.780445 0.345685 0.796606
Si Si4 0.489361 0.662730 0.109320
Si Si5 0.037348 0.569666 0.119865
Si Si6 0.694235 0.802098 0.135039
O O1 0.858356 0.373769 0.626478
O O2 0.680943 0.395551 0.690315
O O3 0.903827 0.496147 0.494115
O O4 0.042251 0.366605 0.287351
O O5 0.850332 0.737597 0.236259
O O6 0.697200 0.867516 0.443004
O O7 0.885895 0.855848 0.105122
O O8 0.057238 0.849492 0.048896
O O9 0.853560 0.398302 0.784063
O O10 0.396880 0.745260 0.199950
O O11 0.619220 0.659649 0.040189
O O12 0.000000 0.545769 0.250000
O O13 0.750000 0.750000 0.000000
#
# Coordination Sequence:
#
# PCOD8152253 Si02
#       6
#     8   8   8   8   8   8
#     4  11  26  44  70 102 145 183 232 290 354 421
#     4  11  22  45  75 101 130 178 250 287 345 418
#     4  11  22  46  77 101 131 186 240 294 343 428
#     4  11  22  39  69  99 133 185 236 284 327 424
#     4  12  29  46  67 106 148 181 228 300 367 415
#     4  12  23  37  66 105 142 188 229 278 348 414
#
# _framework density 21.906642000000002
#
# number of rings (size 3 to 8) (size 9 to 14) (size 15 to 20)
#    0.000    0.667    5.000    3.000    2.333    5.333 
#    0.000    0.000    0.000    0.000    0.000    0.000 
#    0.000    0.000    0.000    0.000    0.000    0.000 
#
# Total GULP energy -297648.865005 kJ/mol
# GULP energy per Si atom -12402.036042 kJ/mol
# Density = 2.185678 g / cm^3
# Si number density = 21.906642 Si / 1000 Ang^3
#
#
#
# Elastic Constant Matrix: (Units=GPa)
#
#
# Indices 1 2 3 4 5 6 
#
# 1 98.0836 21.0046 41.6517 -0.0007 -24.7797 -0.0128
# 2 21.0046 111.5501 17.3523 -0.0354 -4.2772 0.0030
# 3 41.6517 17.3523 72.6985 -0.0208 -18.4603 -0.0072
# 4 -0.0007 -0.0354 -0.0208 28.8633 0.0039 2.1026
# 5 -24.7797 -4.2772 -18.4603 0.0039 35.0235 0.0106
# 6 -0.0128 0.0030 -0.0072 2.1026 0.0106 24.1441
#
#
#
# Elastic Compliance Matrix: (Units=1/GPa)
#
#
# Indices 1 2 3 4 5 6 
#
# 1 0.015056 -0.001559 -0.006462 -0.000007 0.007056 0.000004
# 2 -0.001559 0.009472 -0.001563 0.000011 -0.000770 -0.000003
# 3 -0.006462 -0.001563 0.019190 0.000011 0.005352 -0.000001
# 4 -0.000007 0.000011 0.000011 0.034867 -0.000001 -0.003036
# 5 0.007056 -0.000770 0.005352 -0.000001 0.036271 -0.000010
# 6 0.000004 -0.000003 -0.000001 -0.003036 -0.000010 0.041682
#
#
# Mechanical properties :
#
#
# Convention : Reuss Voigt Hill
#
# Bulk Modulus (GPa) = 40.73559 49.14996 44.94278
# Shear Modulus (GPa) = 27.19000 31.09439 29.14220
#
# Velocity S-wave (km/s) = 3.52686 3.77159 3.65127
# Velocity P-wave (km/s) = 5.93468 6.43827 6.19159
#
# Compressibility (1/GPa) = 0.02454856
#
# Stress axis : x y z
#
# Youngs Moduli (GPa) = 66.41799 105.57658 52.11047
#
# Poissons Ratio (x) = 0.16462 0.33676
# Poissons Ratio (y) = 0.10356 0.08145
# Poissons Ratio (z) = 0.42922 0.16502
#
# Static dielectric constant tensor:
#      x y z
#    x 3.844040 -0.000020 -0.205590 
#    y -0.000020 3.848650 0.000110 
#    z -0.205590 0.000110 4.134910 
# 
# 
# High freq. dielectric constant tensor:
#      x y z
#    x 1.855060 0.000000 -0.016050 
#    y 0.000000 1.849000 0.000010 
#    z -0.016050 0.000010 1.871910 
# 
# From -- ./inp_files/216253.got.cif
#   From: 2010.06.25/outbox.cif.g09.slc.cpg/sg15_109_cif.got.tgz:216253.got - 2010.06.28 07:06:18.
