data_PCOD8152261
_publ_section_title
;
Structure prediction by ZEFSAII (Michael W. Deem and Ramdas Pophale) SiO2 
 PCOD8152261
Probable space group: C 2/C
;
_chemical_formula_sum "Si O2"
_cell_formula_units_Z 48
_cell_length_a 9.162193
_cell_length_b 13.567179
_cell_length_c 28.876827
_cell_angle_alpha 90.000000
_cell_angle_beta 139.591688
_cell_angle_gamma 90.000000
_cell_volume 2326.847052
_symmetry_space_group_name_H-M "C 2/C"
_symmetry_group_IT_number 15
_symmetry_cell_setting 'monoclinic'
loop_
_space_group_symop_operation_xyz
x,y,z
-x,y,1/2-z
-x,-y,-z
x,-y,1/2+z
1/2+x,1/2+y,z
1/2-x,1/2+y,1/2-z
1/2-x,1/2-y,-z
1/2+x,1/2-y,1/2+z
loop_
_atom_site_type_symbol
_atom_site_label
_atom_site_fract_x
_atom_site_fract_y
_atom_site_fract_z
Si Si1 0.079360 0.197874 0.820162
Si Si2 0.677814 0.996206 0.614110
Si Si3 0.284516 0.519876 0.037462
Si Si4 0.977552 0.193891 0.043640
Si Si5 0.260749 0.795199 0.820710
Si Si6 0.459343 0.319919 0.046306
O O1 0.127475 0.079370 0.831924
O O2 0.317797 0.240579 0.891278
O O3 0.000000 0.228966 0.750000
O O4 0.897967 0.245898 0.811307
O O5 0.707370 0.949696 0.570244
O O6 0.419388 0.035403 0.549295
O O7 0.691402 0.911762 0.657448
O O8 0.486098 0.593572 0.074468
O O9 0.394122 0.412719 0.061964
O O10 0.750000 0.250000 0.000000
O O11 0.991985 0.156688 0.994666
O O12 0.320473 0.732934 0.880522
O O13 0.000000 0.779522 0.750000
O O14 0.250000 0.250000 0.000000
#
# Coordination Sequence:
#
# PCOD8152261 Si02
#       6
#     8   8   8   8   8   8
#     4  12  27  48  68 104 145 181 233 290 348 425
#     4  11  22  45  73 100 137 182 235 287 351 419
#     4  11  22  39  72 108 133 176 238 293 347 414
#     4  12  24  41  70 105 137 181 232 292 351 410
#     4  12  27  45  73 101 139 192 230 283 357 420
#     4  12  22  45  70  99 139 178 237 290 339 414
#
# _framework density 20.628772999999999
#
# number of rings (size 3 to 8) (size 9 to 14) (size 15 to 20)
#    0.000    0.333    6.667    2.000    4.667    0.000 
#    0.000    2.500    0.000    0.000    0.000    0.000 
#    0.000    0.000    0.000    0.000    0.000    0.000 
#
# Total GULP energy -297435.745914 kJ/mol
# GULP energy per Si atom -12393.156080 kJ/mol
# Density = 2.058182 g / cm^3
# Si number density = 20.628773 Si / 1000 Ang^3
#
#
#
# Elastic Constant Matrix: (Units=GPa)
#
#
# Indices 1 2 3 4 5 6 
#
# 1 102.3569 43.9829 38.0155 0.0000 4.8874 0.0000
# 2 43.9829 123.6237 26.0769 0.0000 3.4871 0.0000
# 3 38.0155 26.0769 116.8838 0.0002 9.2696 0.0000
# 4 0.0000 0.0000 0.0002 10.5798 0.0000 -3.1114
# 5 4.8874 3.4871 9.2696 0.0000 38.6065 0.0000
# 6 0.0000 0.0000 0.0000 -3.1114 0.0000 40.1444
#
#
#
# Elastic Compliance Matrix: (Units=1/GPa)
#
#
# Indices 1 2 3 4 5 6 
#
# 1 0.012620 -0.003797 -0.003219 0.000000 -0.000482 0.000000
# 2 -0.003797 0.009635 -0.000901 0.000000 -0.000173 0.000000
# 3 -0.003219 -0.000901 0.009954 0.000000 -0.001901 0.000000
# 4 0.000000 0.000000 0.000000 0.096725 0.000000 0.007497
# 5 -0.000482 -0.000173 -0.001901 0.000000 0.026435 0.000000
# 6 0.000000 0.000000 0.000000 0.007497 0.000000 0.025491
#
#
# Mechanical properties :
#
#
# Convention : Reuss Voigt Hill
#
# Bulk Modulus (GPa) = 61.06981 62.11278 61.59130
# Shear Modulus (GPa) = 24.73372 33.51876 29.12624
#
# Velocity S-wave (km/s) = 3.46640 4.03532 3.76163
# Velocity P-wave (km/s) = 6.75942 7.20326 6.98486
#
# Compressibility (1/GPa) = 0.01637470
#
# Stress axis : x y z
#
# Youngs Moduli (GPa) = 79.23889 103.78847 100.45955
#
# Poissons Ratio (x) = 0.39412 0.32340
# Poissons Ratio (y) = 0.30090 0.09049
# Poissons Ratio (z) = 0.25508 0.09349
#
# Static dielectric constant tensor:
#      x y z
#    x 3.268460 0.000000 0.312560 
#    y 0.000000 3.820040 0.000000 
#    z 0.312560 0.000000 3.731380 
# 
# 
# High freq. dielectric constant tensor:
#      x y z
#    x 1.811100 0.000000 -0.001540 
#    y 0.000000 1.818080 0.000000 
#    z -0.001540 0.000000 1.803560 
# 
# From -- ./inp_files/289115.got.cif
#   From: 2010.06.25/outbox.cif.g09.slc.cpg/sg15_145_cif.got.tgz:289115.got - 2010.06.28 07:06:18.
