data_PCOD8152334
_publ_section_title
;
Structure prediction by ZEFSAII (Michael W. Deem and Ramdas Pophale) SiO2 
 PCOD8152334
Probable space group: C 2/C
;
_chemical_formula_sum "Si O2"
_cell_formula_units_Z 52
_cell_length_a 18.049354
_cell_length_b 17.709176
_cell_length_c 9.854591
_cell_angle_alpha 90.000000
_cell_angle_beta 126.876292
_cell_angle_gamma 90.000000
_cell_volume 2519.719823
_symmetry_space_group_name_H-M "C 2/C"
_symmetry_group_IT_number 15
_symmetry_cell_setting 'monoclinic'
loop_
_space_group_symop_operation_xyz
x,y,z
-x,y,1/2-z
-x,-y,-z
x,-y,1/2+z
1/2+x,1/2+y,z
1/2-x,1/2+y,1/2-z
1/2-x,1/2-y,-z
1/2+x,1/2-y,1/2+z
loop_
_atom_site_type_symbol
_atom_site_label
_atom_site_fract_x
_atom_site_fract_y
_atom_site_fract_z
Si Si1 0.000000 0.083966 0.750000
Si Si2 0.744387 0.564140 0.664214
Si Si3 0.232614 0.760237 0.139636
Si Si4 0.144117 0.017662 0.287760
Si Si5 0.600793 0.333905 0.581620
Si Si6 0.970901 0.279405 0.064906
Si Si7 0.041361 0.559664 0.646704
O O1 0.919563 0.133725 0.590415
O O2 0.948809 0.033134 0.807609
O O3 0.723487 0.652012 0.664429
O O4 0.680426 0.526972 0.479983
O O5 0.722202 0.520843 0.779569
O O6 0.848772 0.551440 0.730597
O O7 0.312275 0.723025 0.319704
O O8 0.250000 0.750000 0.000000
O O9 0.139081 0.716263 0.073653
O O10 0.118696 0.100136 0.207829
O O11 0.508072 0.289149 0.517026
O O12 0.000000 0.263085 0.250000
O O13 0.014410 0.357797 0.062094
O O14 0.000000 0.545875 0.750000
O O15 0.000000 0.500000 0.500000
#
# Coordination Sequence:
#
# PCOD8152334 Si02
#       7
#     4   8   8   8   8   8   8
#     4  12  28  46  64 110 144 184 226 290 364 424
#     4  12  24  45  68 107 134 182 237 284 352 415
#     4  12  22  40  71 101 132 178 234 289 339 412
#     4  12  26  42  75  99 144 181 230 290 350 418
#     4  12  25  45  68 101 141 179 230 289 349 419
#     4  11  22  40  69 100 131 176 232 284 340 410
#     4  11  24  43  66  98 140 178 232 287 343 413
#
# _framework density 20.637214
#
# number of rings (size 3 to 8) (size 9 to 14) (size 15 to 20)
#    0.000    0.308    6.154    3.231    5.385    0.000 
#    1.385    3.077    0.000    0.000    0.000    0.000 
#    0.000    0.000    0.000    0.000    0.000    0.000 
#
# Total GULP energy -322545.140789 kJ/mol
# GULP energy per Si atom -12405.582338 kJ/mol
# Density = 2.059024 g / cm^3
# Si number density = 20.637214 Si / 1000 Ang^3
#
#
#
# Elastic Constant Matrix: (Units=GPa)
#
#
# Indices 1 2 3 4 5 6 
#
# 1 127.7779 39.3339 22.6963 0.0000 13.7932 0.0000
# 2 39.3339 126.5982 38.3155 0.0000 -8.2552 0.0000
# 3 22.6963 38.3155 83.8829 0.0000 12.2106 0.0000
# 4 0.0000 0.0000 0.0000 33.2370 0.0000 5.8226
# 5 13.7932 -8.2552 12.2106 0.0000 33.8804 0.0000
# 6 0.0000 0.0000 0.0000 5.8226 0.0000 29.3627
#
#
#
# Elastic Compliance Matrix: (Units=1/GPa)
#
#
# Indices 1 2 3 4 5 6 
#
# 1 0.009316 -0.003025 -0.000506 0.000000 -0.004347 0.000000
# 2 -0.003025 0.010678 -0.004873 0.000000 0.005589 0.000000
# 3 -0.000506 -0.004873 0.015226 0.000000 -0.006468 0.000000
# 4 0.000000 0.000000 0.000000 0.031170 0.000000 -0.006181
# 5 -0.004347 0.005589 -0.006468 0.000000 0.034979 0.000000
# 6 0.000000 0.000000 0.000000 -0.006181 0.000000 0.035283
#
#
# Mechanical properties :
#
#
# Convention : Reuss Voigt Hill
#
# Bulk Modulus (GPa) = 54.31054 59.88338 57.09696
# Shear Modulus (GPa) = 31.32913 35.15690 33.24301
#
# Velocity S-wave (km/s) = 3.90049 4.13191 4.01787
# Velocity P-wave (km/s) = 6.83074 7.20026 7.01793
#
# Compressibility (1/GPa) = 0.01841263
#
# Stress axis : x y z
#
# Youngs Moduli (GPa) = 107.33716 93.65040 65.67877
#
# Poissons Ratio (x) = 0.28328 0.03325
# Poissons Ratio (y) = 0.32468 0.32003
# Poissons Ratio (z) = 0.05434 0.45632
#
# Static dielectric constant tensor:
#      x y z
#    x 3.415040 0.000000 0.036020 
#    y 0.000000 3.943830 0.000000 
#    z 0.036020 0.000000 3.608080 
# 
# 
# High freq. dielectric constant tensor:
#      x y z
#    x 1.813620 0.000000 0.016020 
#    y 0.000000 1.824680 0.000000 
#    z 0.016020 0.000000 1.799160 
# 
# From -- ./inp_files/49236.got.cif
#   From: 2010.06.25/outbox.cif.g09.slc.cpg/sg15_25_cif.got.tgz:49236.got - 2010.06.28 07:06:18.
