data_PCOD8152848
_publ_section_title
;
Structure prediction by ZEFSAII (Michael W. Deem and Ramdas Pophale) SiO2 
 PCOD8152848
Probable space group: C 2/C
;
_chemical_formula_sum "Si O2"
_cell_formula_units_Z 40
_cell_length_a 25.418426
_cell_length_b 15.032187
_cell_length_c 4.930057
_cell_angle_alpha 90.000000
_cell_angle_beta 103.006063
_cell_angle_gamma 90.000000
_cell_volume 1835.422640
_symmetry_space_group_name_H-M "C 2/C"
_symmetry_group_IT_number 15
_symmetry_cell_setting 'monoclinic'
loop_
_space_group_symop_operation_xyz
x,y,z
-x,y,1/2-z
-x,-y,-z
x,-y,1/2+z
1/2+x,1/2+y,z
1/2-x,1/2+y,1/2-z
1/2-x,1/2-y,-z
1/2+x,1/2-y,1/2+z
loop_
_atom_site_type_symbol
_atom_site_label
_atom_site_fract_x
_atom_site_fract_y
_atom_site_fract_z
Si Si1 0.690919 0.940199 0.791585
Si Si2 0.218340 0.182252 0.269288
Si Si3 0.436783 0.275180 0.671288
Si Si4 0.629151 0.439851 0.885632
Si Si5 0.876003 0.712154 0.089653
O O1 0.742181 0.874932 0.877882
O O2 0.692146 0.973311 0.483101
O O3 0.637087 0.885470 0.807473
O O4 0.250000 0.250000 0.500000
O O5 0.184049 0.116064 0.418496
O O6 0.179654 0.234482 0.017220
O O7 0.500000 0.259009 0.750000
O O8 0.422015 0.376212 0.739276
O O9 0.408254 0.205368 0.843164
O O10 0.585868 0.262656 0.155844
O O11 0.627214 0.474859 0.189482
#
# Coordination Sequence:
#
# PCOD8152848 Si02
#       5
#     8   8   8   8   8
#     4  12  24  39  63  94 130 166 204 253 310 371
#     4  11  23  41  63  93 132 176 213 243 298 374
#     4  11  24  44  69  90 117 165 214 259 315 374
#     4  11  23  39  60  92 132 163 203 260 310 362
#     4  11  24  43  64  92 126 162 210 260 303 370
#
# _framework density 21.793346
#
# number of rings (size 3 to 8) (size 9 to 14) (size 15 to 20)
#    0.000    0.800    0.000    9.600    0.000    5.600 
#    0.000    0.000    0.000   12.000    0.000    0.000 
#    0.000    0.000    0.000    0.000    0.000    0.000 
#
# Total GULP energy -248085.614585 kJ/mol
# GULP energy per Si atom -12404.280729 kJ/mol
# Density = 2.174374 g / cm^3
# Si number density = 21.793346 Si / 1000 Ang^3
#
#
#
# Elastic Constant Matrix: (Units=GPa)
#
#
# Indices 1 2 3 4 5 6 
#
# 1 116.1730 50.9195 26.1875 0.0000 10.1582 0.0000
# 2 50.9195 88.5233 21.0140 0.0000 1.3117 0.0000
# 3 26.1875 21.0140 90.9814 0.0000 12.6581 0.0000
# 4 0.0000 0.0000 0.0000 47.3048 0.0000 -16.8870
# 5 10.1582 1.3117 12.6581 0.0000 36.8007 0.0000
# 6 0.0000 0.0000 0.0000 -16.8870 0.0000 23.1296
#
#
#
# Elastic Compliance Matrix: (Units=1/GPa)
#
#
# Indices 1 2 3 4 5 6 
#
# 1 0.012046 -0.006509 -0.001611 0.000000 -0.002539 0.000000
# 2 -0.006509 0.015479 -0.001969 0.000000 0.001922 0.000000
# 3 -0.001611 -0.001969 0.012433 0.000000 -0.003762 0.000000
# 4 0.000000 0.000000 0.000000 0.028591 0.000000 0.020875
# 5 -0.002539 0.001922 -0.003762 0.000000 0.029100 0.000000
# 6 0.000000 0.000000 0.000000 0.020875 0.000000 0.058475
#
#
# Mechanical properties :
#
#
# Convention : Reuss Voigt Hill
#
# Bulk Modulus (GPa) = 50.55403 54.65773 52.60588
# Shear Modulus (GPa) = 27.33796 34.61746 30.97771
#
# Velocity S-wave (km/s) = 3.54562 3.98985 3.77428
# Velocity P-wave (km/s) = 6.32529 6.80879 6.57149
#
# Compressibility (1/GPa) = 0.01978082
#
# Stress axis : x y z
#
# Youngs Moduli (GPa) = 83.01623 64.60177 80.43084
#
# Poissons Ratio (x) = 0.42049 0.12954
# Poissons Ratio (y) = 0.54035 0.15839
# Poissons Ratio (z) = 0.13370 0.12722
#
# Static dielectric constant tensor:
#      x y z
#    x 3.928160 0.000000 -0.183040 
#    y 0.000000 3.989380 0.000000 
#    z -0.183040 0.000000 3.879000 
# 
# 
# High freq. dielectric constant tensor:
#      x y z
#    x 1.840080 0.000000 -0.014760 
#    y 0.000000 1.857690 0.000000 
#    z -0.014760 0.000000 1.869480 
# 
# From -- ./inp_files/12796.got.cif
#   From: 2010.06.25/outbox.cif.g09.slc.cpg/sg15_7_cif.got.tgz:12796.got - 2010.06.28 07:06:18.
