data_PCOD8152007
_publ_section_title
;
Structure prediction by ZEFSAII (Michael W. Deem and Ramdas Pophale) SiO2 
 PCOD8152007
Probable space group: C 2/C
;
_chemical_formula_sum "Si O2"
_cell_formula_units_Z 60
_cell_length_a 9.575554
_cell_length_b 22.904903
_cell_length_c 13.590305
_cell_angle_alpha 90.000000
_cell_angle_beta 70.514546
_cell_angle_gamma 90.000000
_cell_volume 2810.005371
_symmetry_space_group_name_H-M "C 2/C"
_symmetry_group_IT_number 15
_symmetry_cell_setting 'monoclinic'
loop_
_space_group_symop_operation_xyz
x,y,z
-x,y,1/2-z
-x,-y,-z
x,-y,1/2+z
1/2+x,1/2+y,z
1/2-x,1/2+y,1/2-z
1/2-x,1/2-y,-z
1/2+x,1/2-y,1/2+z
loop_
_atom_site_type_symbol
_atom_site_label
_atom_site_fract_x
_atom_site_fract_y
_atom_site_fract_z
Si Si1 0.488398 0.123215 0.637322
Si Si2 0.203515 0.540402 0.278919
Si Si3 0.097103 0.500564 0.092683
Si Si4 0.277739 0.412473 0.426002
Si Si5 0.000000 0.029747 0.750000
Si Si6 0.325276 0.699701 0.043956
Si Si7 0.102758 0.730030 0.483796
Si Si8 0.346684 0.830393 0.732000
O O1 0.500000 0.138498 0.750000
O O2 0.319752 0.107032 0.645936
O O3 0.531313 0.178208 0.562321
O O4 0.600560 0.069889 0.586868
O O5 0.147682 0.521801 0.186289
O O6 0.360563 0.510124 0.257082
O O7 0.228397 0.609355 0.284044
O O8 0.073727 0.521472 0.386565
O O9 0.205520 0.529408 0.988375
O O10 0.444273 0.428361 0.351688
O O11 0.288853 0.362863 0.505806
O O12 0.262855 0.702814 0.168805
O O13 0.250000 0.750000 0.000000
O O14 0.499341 0.712704 0.007131
O O15 0.250000 0.750000 0.500000
O O16 0.128505 0.711201 0.366007
O O17 0.500000 0.845159 0.750000
#
# Coordination Sequence:
#
# PCOD8152007 Si02
#       8
#     8   8   8   8   4   8   8   8
#     4  12  24  44  74 104 144 189 237 294 362 436
#     4  11  22  43  70 108 140 187 236 288 359 434
#     4  11  21  44  76 102 138 190 246 282 354 451
#     4  12  25  46  73 106 143 194 242 294 365 437
#     4  12  28  38  66 114 154 178 228 310 366 412
#     4  12  25  47  77 103 136 192 247 292 351 429
#     4  12  31  47  74 111 141 188 245 307 365 417
#     4  12  23  48  78 101 140 196 245 288 351 449
#
# _framework density 21.352273
#
# number of rings (size 3 to 8) (size 9 to 14) (size 15 to 20)
#    0.000    0.267    8.000    1.200    3.733    4.800 
#    0.000    0.000    0.000    0.000    0.000    0.000 
#    0.000    0.000    0.000    0.000    0.000    0.000 
#
# Total GULP energy -372031.644557 kJ/mol
# GULP energy per Si atom -12401.054819 kJ/mol
# Density = 2.130367 g / cm^3
# Si number density = 21.352273 Si / 1000 Ang^3
#
#
#
# Elastic Constant Matrix: (Units=GPa)
#
#
# Indices 1 2 3 4 5 6 
#
# 1 114.8665 28.3198 37.3322 0.0000 -18.8081 0.0000
# 2 28.3198 92.1867 49.0857 0.0000 -6.6315 0.0000
# 3 37.3322 49.0857 136.7323 0.0000 -14.6744 0.0000
# 4 0.0000 0.0000 0.0000 27.2227 0.0000 -4.2412
# 5 -18.8081 -6.6315 -14.6744 0.0000 35.0279 0.0000
# 6 0.0000 0.0000 0.0000 -4.2412 0.0000 22.8392
#
#
#
# Elastic Compliance Matrix: (Units=1/GPa)
#
#
# Indices 1 2 3 4 5 6 
#
# 1 0.010485 -0.002014 -0.001651 0.000000 0.004557 0.000000
# 2 -0.002014 0.013808 -0.004442 0.000000 -0.000328 0.000000
# 3 -0.001651 -0.004442 0.009605 0.000000 0.002297 0.000000
# 4 0.000000 0.000000 0.000000 0.037828 0.000000 0.007025
# 5 0.004557 -0.000328 0.002297 0.000000 0.031896 0.000000
# 6 0.000000 0.000000 0.000000 0.007025 0.000000 0.045089
#
#
# Mechanical properties :
#
#
# Convention : Reuss Voigt Hill
#
# Bulk Modulus (GPa) = 56.54752 63.69565 60.12158
# Shear Modulus (GPa) = 29.27051 32.28780 30.77916
#
# Velocity S-wave (km/s) = 3.70650 3.89285 3.80082
# Velocity P-wave (km/s) = 6.69762 7.07823 6.89056
#
# Compressibility (1/GPa) = 0.01768424
#
# Stress axis : x y z
#
# Youngs Moduli (GPa) = 95.37453 72.42155 104.10777
#
# Poissons Ratio (x) = 0.14588 0.17183
# Poissons Ratio (y) = 0.19212 0.46247
# Poissons Ratio (z) = 0.15742 0.32171
#
# Static dielectric constant tensor:
#      x y z
#    x 4.030490 0.000000 0.117910 
#    y 0.000000 2.682360 0.000000 
#    z 0.117910 0.000000 4.003950 
# 
# 
# High freq. dielectric constant tensor:
#      x y z
#    x 1.831980 0.000000 0.006010 
#    y 0.000000 1.846400 0.000000 
#    z 0.006010 0.000000 1.852300 
# 
# From -- ./inp_files/137777.got.cif
#   From: 2010.06.25/outbox.cif.g09.slc.cpg/sg15_69_cif.got.tgz:137777.got - 2010.06.28 07:06:18.
