data_PCOD8152238
_publ_section_title
;
Structure prediction by ZEFSAII (Michael W. Deem and Ramdas Pophale) SiO2 
 PCOD8152238
Probable space group: C 2/C
;
_chemical_formula_sum "Si O2"
_cell_formula_units_Z 60
_cell_length_a 19.561194
_cell_length_b 11.914999
_cell_length_c 17.423072
_cell_angle_alpha 90.000000
_cell_angle_beta 135.799091
_cell_angle_gamma 90.000000
_cell_volume 2831.110542
_symmetry_space_group_name_H-M "C 2/C"
_symmetry_group_IT_number 15
_symmetry_cell_setting 'monoclinic'
loop_
_space_group_symop_operation_xyz
x,y,z
-x,y,1/2-z
-x,-y,-z
x,-y,1/2+z
1/2+x,1/2+y,z
1/2-x,1/2+y,1/2-z
1/2-x,1/2-y,-z
1/2+x,1/2-y,1/2+z
loop_
_atom_site_type_symbol
_atom_site_label
_atom_site_fract_x
_atom_site_fract_y
_atom_site_fract_z
Si Si1 0.520720 0.089152 0.453637
Si Si2 0.721160 0.998185 0.079712
Si Si3 0.500000 0.353875 0.750000
Si Si4 0.096328 0.035853 0.181254
Si Si5 0.042357 0.843695 0.485531
Si Si6 0.277916 0.634263 0.485472
Si Si7 0.651003 0.816828 0.422666
Si Si8 0.405489 0.022203 0.220785
O O1 0.636032 0.093499 0.523889
O O2 0.497391 0.218802 0.453036
O O3 0.441548 0.032634 0.334932
O O4 0.500000 0.000000 0.500000
O O5 0.787538 0.015634 0.208919
O O6 0.789025 0.958759 0.062296
O O7 0.658729 0.109561 0.006480
O O8 0.444366 0.427936 0.768314
O O9 0.432091 0.276836 0.641461
O O10 0.083850 0.127742 0.103868
O O11 0.048126 0.921865 0.111858
O O12 0.124629 0.861156 0.486820
O O13 0.250000 0.750000 0.500000
O O14 0.186039 0.604490 0.358788
O O15 0.750000 0.750000 0.500000
O O16 0.628381 0.896621 0.330945
O O17 0.500000 0.065200 0.250000
#
# Coordination Sequence:
#
# PCOD8152238 Si02
#       8
#     8   8   4   8   8   8   8   8
#     4  12  27  44  69 101 136 185 227 287 349 404
#     4  11  23  46  66 101 132 178 238 277 343 420
#     4  12  22  44  74  98 136 188 224 280 344 418
#     4  11  27  46  69 102 141 180 231 282 354 410
#     4  11  27  48  66 104 142 181 231 291 346 415
#     4  11  22  43  71  99 135 178 230 280 345 412
#     4  11  22  39  67 102 132 174 232 285 331 401
#     4  11  22  42  66 101 135 176 234 285 339 407
#
# _framework density 21.193095
#
# number of rings (size 3 to 8) (size 9 to 14) (size 15 to 20)
#    0.000    0.800    6.000    0.800    9.333    0.000 
#    1.200    0.000    0.000    0.000    0.000    0.000 
#    0.000    0.000    0.000    0.000    0.000    0.000 
#
# Total GULP energy -371704.423428 kJ/mol
# GULP energy per Si atom -12390.147448 kJ/mol
# Density = 2.114486 g / cm^3
# Si number density = 21.193095 Si / 1000 Ang^3
#
#
#
# Elastic Constant Matrix: (Units=GPa)
#
#
# Indices 1 2 3 4 5 6 
#
# 1 59.7698 23.4168 19.8093 0.0000 -8.9215 0.0000
# 2 23.4168 110.3210 55.8518 0.0000 -3.6355 0.0000
# 3 19.8093 55.8518 182.2910 0.0000 -4.7946 0.0000
# 4 0.0000 0.0000 0.0000 35.3540 0.0000 5.9152
# 5 -8.9215 -3.6355 -4.7946 0.0000 36.4849 0.0000
# 6 0.0000 0.0000 0.0000 5.9152 0.0000 33.2897
#
#
#
# Elastic Compliance Matrix: (Units=1/GPa)
#
#
# Indices 1 2 3 4 5 6 
#
# 1 0.019002 -0.003439 -0.000901 0.000000 0.004185 0.000000
# 2 -0.003439 0.011366 -0.003112 0.000000 -0.000117 0.000000
# 3 -0.000901 -0.003112 0.006546 0.000000 0.000330 0.000000
# 4 0.000000 0.000000 0.000000 0.029152 0.000000 -0.005180
# 5 0.004185 -0.000117 0.000330 0.000000 0.028464 0.000000
# 6 0.000000 0.000000 0.000000 -0.005180 0.000000 0.030960
#
#
# Mechanical properties :
#
#
# Convention : Reuss Voigt Hill
#
# Bulk Modulus (GPa) = 45.43531 61.17083 53.30307
# Shear Modulus (GPa) = 33.84571 37.91266 35.87918
#
# Velocity S-wave (km/s) = 4.00060 4.23415 4.11903
# Velocity P-wave (km/s) = 6.54408 7.26844 6.91575
#
# Compressibility (1/GPa) = 0.02200932
#
# Stress axis : x y z
#
# Youngs Moduli (GPa) = 52.62703 87.98195 152.77133
#
# Poissons Ratio (x) = 0.30259 0.13766
# Poissons Ratio (y) = 0.18099 0.47539
# Poissons Ratio (z) = 0.04742 0.27378
#
# Static dielectric constant tensor:
#      x y z
#    x 4.568870 0.000000 -1.073200 
#    y 0.000000 5.589950 0.000000 
#    z -1.073200 0.000000 5.172840 
# 
# 
# High freq. dielectric constant tensor:
#      x y z
#    x 1.812630 0.000000 0.006420 
#    y 0.000000 1.839190 0.000000 
#    z 0.006420 0.000000 1.853490 
# 
# From -- ./inp_files/215222.got.cif
#   From: 2010.06.25/outbox.cif.g09.slc.cpg/sg15_108_cif.got.tgz:215222.got - 2010.06.28 07:06:18.
