data_PCOD8152017
_publ_section_title
;
Structure prediction by ZEFSAII (Michael W. Deem and Ramdas Pophale) SiO2 
 PCOD8152017
Probable space group: C 2/C
;
_chemical_formula_sum "Si O2"
_cell_formula_units_Z 48
_cell_length_a 9.473941
_cell_length_b 18.023865
_cell_length_c 12.679400
_cell_angle_alpha 90.000000
_cell_angle_beta 84.934214
_cell_angle_gamma 90.000000
_cell_volume 2156.639801
_symmetry_space_group_name_H-M "C 2/C"
_symmetry_group_IT_number 15
_symmetry_cell_setting 'monoclinic'
loop_
_space_group_symop_operation_xyz
x,y,z
-x,y,1/2-z
-x,-y,-z
x,-y,1/2+z
1/2+x,1/2+y,z
1/2-x,1/2+y,1/2-z
1/2-x,1/2-y,-z
1/2+x,1/2-y,1/2+z
loop_
_atom_site_type_symbol
_atom_site_label
_atom_site_fract_x
_atom_site_fract_y
_atom_site_fract_z
Si Si1 0.623880 0.944360 0.166503
Si Si2 0.790492 0.677592 0.184667
Si Si3 0.639864 0.658525 0.807182
Si Si4 0.033875 0.832573 0.548609
Si Si5 0.514021 0.833172 0.488706
Si Si6 0.243850 0.404050 0.600504
O O1 0.500000 0.975450 0.250000
O O2 0.743455 0.903464 0.229404
O O3 0.698532 0.010102 0.096356
O O4 0.558731 0.884970 0.091583
O O5 0.793891 0.762002 0.226299
O O6 0.645116 0.658910 0.135255
O O7 0.923290 0.664459 0.101048
O O8 0.806183 0.624586 0.282863
O O9 0.500000 0.641815 0.750000
O O10 0.611678 0.653180 0.933658
O O11 0.911788 0.893340 0.574677
O O12 0.970388 0.749668 0.557460
O O13 0.670094 0.861279 0.508440
#
# Coordination Sequence:
#
# PCOD8152017 Si02
#       6
#     8   8   8   8   8   8
#     4  12  27  45  67 100 143 186 227 289 354 404
#     4  11  21  45  69  97 138 177 227 288 345 404
#     4  11  24  44  70 101 137 181 234 291 339 414
#     4  11  23  43  71 101 132 178 233 288 342 406
#     4  11  22  46  69  98 134 181 235 283 340 413
#     4  12  27  40  68 104 136 183 228 282 351 415
#
# _framework density 22.256845999999999
#
# number of rings (size 3 to 8) (size 9 to 14) (size 15 to 20)
#    0.000    0.667    3.333    6.000    4.667    2.000 
#    0.000    0.000    0.000    0.000    0.000    0.000 
#    0.000    0.000    0.000    0.000    0.000    0.000 
#
# Total GULP energy -297750.193381 kJ/mol
# GULP energy per Si atom -12406.258058 kJ/mol
# Density = 2.220619 g / cm^3
# Si number density = 22.256846 Si / 1000 Ang^3
#
#
#
# Elastic Constant Matrix: (Units=GPa)
#
#
# Indices 1 2 3 4 5 6 
#
# 1 135.2477 33.7228 11.8283 0.0000 27.3521 0.0000
# 2 33.7228 86.3385 11.6684 0.0000 2.1809 0.0000
# 3 11.8283 11.6684 48.9764 0.0000 18.8078 0.0000
# 4 0.0000 0.0000 0.0000 17.5248 0.0000 -5.5228
# 5 27.3521 2.1809 18.8078 0.0000 48.1326 0.0000
# 6 0.0000 0.0000 0.0000 -5.5228 0.0000 40.0873
#
#
#
# Elastic Compliance Matrix: (Units=1/GPa)
#
#
# Indices 1 2 3 4 5 6 
#
# 1 0.009324 -0.003597 0.000679 0.000000 -0.005401 0.000000
# 2 -0.003597 0.013374 -0.003376 0.000000 0.002757 0.000000
# 3 0.000679 -0.003376 0.024881 0.000000 -0.009955 0.000000
# 4 0.000000 0.000000 0.000000 0.059652 0.000000 0.008218
# 5 -0.005401 0.002757 -0.009955 0.000000 0.027610 0.000000
# 6 0.000000 0.000000 0.000000 0.008218 0.000000 0.026078
#
#
# Mechanical properties :
#
#
# Convention : Reuss Voigt Hill
#
# Bulk Modulus (GPa) = 28.57931 42.77795 35.67863
# Shear Modulus (GPa) = 27.00208 35.37180 31.18694
#
# Velocity S-wave (km/s) = 3.48689 3.99087 3.74736
# Velocity P-wave (km/s) = 5.39256 6.36380 5.89820
#
# Compressibility (1/GPa) = 0.03499035
#
# Stress axis : x y z
#
# Youngs Moduli (GPa) = 107.25538 74.77225 40.19059
#
# Poissons Ratio (x) = 0.26896 -0.02730
# Poissons Ratio (y) = 0.38580 0.13570
# Poissons Ratio (z) = -0.07285 0.25247
#
# Static dielectric constant tensor:
#      x y z
#    x 4.171660 0.000000 0.086920 
#    y 0.000000 3.980410 0.000000 
#    z 0.086920 0.000000 3.900390 
# 
# 
# High freq. dielectric constant tensor:
#      x y z
#    x 1.892710 0.000000 0.011170 
#    y 0.000000 1.869820 0.000000 
#    z 0.011170 0.000000 1.874580 
# 
# From -- ./inp_files/134866.got.cif
#   From: 2010.06.25/outbox.cif.g09.slc.cpg/sg15_68_cif.got.tgz:134866.got - 2010.06.28 07:06:18.
