data_PCOD8152183
_publ_section_title
;
Structure prediction by ZEFSAII (Michael W. Deem and Ramdas Pophale) SiO2 
 PCOD8152183
Probable space group: C 2/C
;
_chemical_formula_sum "Si O2"
_cell_formula_units_Z 64
_cell_length_a 18.176021
_cell_length_b 13.172669
_cell_length_c 24.667093
_cell_angle_alpha 90.000000
_cell_angle_beta 29.353088
_cell_angle_gamma 90.000000
_cell_volume 2895.044538
_symmetry_space_group_name_H-M "C 2/C"
_symmetry_group_IT_number 15
_symmetry_cell_setting 'monoclinic'
loop_
_space_group_symop_operation_xyz
x,y,z
-x,y,1/2-z
-x,-y,-z
x,-y,1/2+z
1/2+x,1/2+y,z
1/2-x,1/2+y,1/2-z
1/2-x,1/2-y,-z
1/2+x,1/2-y,1/2+z
loop_
_atom_site_type_symbol
_atom_site_label
_atom_site_fract_x
_atom_site_fract_y
_atom_site_fract_z
Si Si1 0.729421 0.648546 0.338090
Si Si2 0.271177 0.643642 0.763394
Si Si3 0.382723 0.335571 0.072118
Si Si4 0.017137 0.784675 0.674940
Si Si5 0.226272 0.927296 0.722387
Si Si6 0.168676 0.492761 0.148293
Si Si7 0.570558 0.882663 0.998500
Si Si8 0.190001 0.598350 0.530259
O O1 0.781872 0.765836 0.300518
O O2 0.554627 0.628011 0.462770
O O3 0.769925 0.592284 0.256430
O O4 0.822835 0.601719 0.328081
O O5 0.330046 0.683831 0.667760
O O6 0.355497 0.538907 0.727487
O O7 0.098832 0.609087 0.873337
O O8 0.270981 0.414700 0.116271
O O9 0.376625 0.234810 0.039650
O O10 0.042941 0.667193 0.641440
O O11 0.158969 0.840313 0.559886
O O12 0.000000 0.796974 0.750000
O O13 0.873690 0.835316 0.737148
O O14 0.384139 0.934937 0.587533
O O15 0.217060 0.496327 0.053844
O O16 0.000000 0.453448 0.250000
O O17 0.668164 0.938170 0.982671
#
# Coordination Sequence:
#
# PCOD8152183 Si02
#       8
#     8   8   8   8   8   8   8   8
#     4  11  25  44  67 102 133 176 239 281 329 398
#     4  11  24  42  67  96 130 180 227 283 333 392
#     4  11  22  42  71 102 135 176 224 284 338 406
#     4  11  22  39  60  99 138 174 208 269 339 413
#     4  12  23  41  69  95 137 178 226 274 336 404
#     4  12  25  40  67 101 136 174 219 277 343 405
#     4  11  23  40  64 101 138 170 220 280 342 403
#     4  11  23  36  62  96 140 168 211 265 345 405
#
# _framework density 22.106742000000001
#
# number of rings (size 3 to 8) (size 9 to 14) (size 15 to 20)
#    0.000    0.750    3.750    5.625    3.500    0.000 
#    0.000    0.625    0.000    1.500    0.000    0.000 
#    0.000    0.000    0.000    0.000    0.000    0.000 
#
# Total GULP energy -396496.769294 kJ/mol
# GULP energy per Si atom -12390.524040 kJ/mol
# Density = 2.205643 g / cm^3
# Si number density = 22.106742 Si / 1000 Ang^3
#
#
#
# Elastic Constant Matrix: (Units=GPa)
#
#
# Indices 1 2 3 4 5 6 
#
# 1 99.5856 29.5016 41.3086 -0.0030 25.7301 -0.0004
# 2 29.5016 70.9935 6.0564 -0.0004 14.2592 0.0010
# 3 41.3086 6.0564 114.8922 0.0091 21.8592 0.0027
# 4 -0.0030 -0.0004 0.0091 19.2058 0.0079 6.9346
# 5 25.7301 14.2592 21.8592 0.0079 32.0466 -0.0001
# 6 -0.0004 0.0010 0.0027 6.9346 -0.0001 30.7643
#
#
#
# Elastic Compliance Matrix: (Units=1/GPa)
#
#
# Indices 1 2 3 4 5 6 
#
# 1 0.014765 -0.004331 -0.003667 0.000007 -0.007426 -0.000001
# 2 -0.004331 0.016771 0.001645 0.000001 -0.005107 -0.000001
# 3 -0.003667 0.001645 0.010934 -0.000003 -0.005245 0.000000
# 4 0.000007 0.000001 -0.000003 0.056681 -0.000018 -0.012776
# 5 -0.007426 -0.005107 -0.005245 -0.000018 0.043017 0.000005
# 6 -0.000001 -0.000001 0.000000 -0.012776 0.000005 0.035385
#
#
# Mechanical properties :
#
#
# Convention : Reuss Voigt Hill
#
# Bulk Modulus (GPa) = 33.60021 48.80051 41.20036
# Shear Modulus (GPa) = 24.97753 30.31031 27.64392
#
# Velocity S-wave (km/s) = 3.36499 3.70684 3.54004
# Velocity P-wave (km/s) = 5.50723 6.35954 5.94867
#
# Compressibility (1/GPa) = 0.02976172
#
# Stress axis : x y z
#
# Youngs Moduli (GPa) = 67.72991 59.62677 91.46093
#
# Poissons Ratio (x) = 0.25825 0.33542
# Poissons Ratio (y) = 0.29335 -0.15043
# Poissons Ratio (z) = 0.24839 -0.09807
#
# Static dielectric constant tensor:
#      x y z
#    x 3.917780 0.000000 0.223810 
#    y 0.000000 4.148420 0.000010 
#    z 0.223810 0.000010 4.477790 
# 
# 
# High freq. dielectric constant tensor:
#      x y z
#    x 1.847190 0.000000 0.021470 
#    y 0.000000 1.853600 0.000000 
#    z 0.021470 0.000000 1.893270 
# 
# From -- ./inp_files/277631.got.cif
#   From: 2010.06.25/outbox.cif.g09.slc.cpg/sg15_139_cif.got.tgz:277631.got - 2010.06.28 07:06:18.
