data_PCOD8152558
_publ_section_title
;
Structure prediction by ZEFSAII (Michael W. Deem and Ramdas Pophale) SiO2 
 PCOD8152558
Probable space group: C 2/C
;
_chemical_formula_sum "Si O2"
_cell_formula_units_Z 40
_cell_length_a 7.486826
_cell_length_b 14.939163
_cell_length_c 24.315969
_cell_angle_alpha 90.000000
_cell_angle_beta 142.825887
_cell_angle_gamma 90.000000
_cell_volume 1643.328783
_symmetry_space_group_name_H-M "C 2/C"
_symmetry_group_IT_number 15
_symmetry_cell_setting 'monoclinic'
loop_
_space_group_symop_operation_xyz
x,y,z
-x,y,1/2-z
-x,-y,-z
x,-y,1/2+z
1/2+x,1/2+y,z
1/2-x,1/2+y,1/2-z
1/2-x,1/2-y,-z
1/2+x,1/2-y,1/2+z
loop_
_atom_site_type_symbol
_atom_site_label
_atom_site_fract_x
_atom_site_fract_y
_atom_site_fract_z
Si Si1 0.177708 0.934031 0.188112
Si Si2 0.706632 0.743443 0.752985
Si Si3 0.761913 0.390900 0.504710
Si Si4 0.845416 0.751024 0.459348
Si Si5 0.210319 0.579320 0.201604
O O1 0.500000 0.966567 0.250000
O O2 0.159104 0.827094 0.191844
O O3 0.938620 0.957528 0.081887
O O4 0.137865 0.992914 0.232855
O O5 0.500000 0.705204 0.750000
O O6 0.573752 0.841590 0.705761
O O7 0.048512 0.744340 0.851688
O O8 0.547601 0.335138 0.492433
O O9 0.967627 0.335701 0.512868
O O10 0.972583 0.449221 0.596707
O O11 0.750000 0.750000 0.500000
O O12 0.500000 0.630843 0.250000
#
# Coordination Sequence:
#
# PCOD8152558 Si02
#       5
#     8   8   8   8   8
#     4  12  26  47  72 106 147 192 247 307 368 439
#     4  12  23  46  74 105 147 189 244 308 366 436
#     4  11  24  46  74 105 150 192 242 309 374 433
#     4  11  22  42  77 112 141 191 247 305 376 444
#     4  12  26  47  72 106 147 192 247 307 368 439
#
# _framework density 24.34084
#
# number of rings (size 3 to 8) (size 9 to 14) (size 15 to 20)
#    0.000    0.400    4.000    6.600    0.000    1.600 
#    3.600    0.000    0.000    0.000    0.000    0.000 
#    0.000    0.000    0.000    0.000    0.000    0.000 
#
# Total GULP energy -247874.685891 kJ/mol
# GULP energy per Si atom -12393.734295 kJ/mol
# Density = 2.428544 g / cm^3
# Si number density = 24.340840 Si / 1000 Ang^3
#
#
#
# Elastic Constant Matrix: (Units=GPa)
#
#
# Indices 1 2 3 4 5 6 
#
# 1 127.9948 14.9926 42.9425 -0.0008 -1.5126 -0.0009
# 2 14.9926 88.0926 38.2529 0.0009 -16.5146 -0.0011
# 3 42.9425 38.2529 213.1826 0.0008 -11.9968 -0.0036
# 4 -0.0008 0.0009 0.0008 4.5927 -0.0010 -10.0031
# 5 -1.5126 -16.5146 -11.9968 -0.0010 41.5465 -0.0004
# 6 -0.0009 -0.0011 -0.0036 -10.0031 -0.0004 17.4146
#
#
#
# Elastic Compliance Matrix: (Units=1/GPa)
#
#
# Indices 1 2 3 4 5 6 
#
# 1 0.008434 -0.000842 -0.001575 -0.000007 -0.000482 -0.000004
# 2 -0.000842 0.013211 -0.001939 0.000002 0.004661 0.000002
# 3 -0.001575 -0.001939 0.005397 -0.000006 0.000731 -0.000002
# 4 -0.000007 0.000002 -0.000006 -0.867165 -0.000028 -0.498108
# 5 -0.000482 0.004661 0.000731 -0.000028 0.026115 -0.000015
# 6 -0.000004 0.000002 -0.000002 -0.498108 -0.000015 -0.228694
#
#
# Mechanical properties :
#
#
# Convention : Reuss Voigt Hill
#
# Bulk Modulus (GPa) = 54.55337 69.07178 61.81257
# Shear Modulus (GPa) = -4.86437 34.91621 15.02592
#
# Velocity S-wave (km/s) = -1.41520 3.79155 2.48727
# Velocity P-wave (km/s) = 4.44866 6.89973 5.80504
#
# Compressibility (1/GPa) = 0.01833067
#
# Stress axis : x y z
#
# Youngs Moduli (GPa) = 118.56549 75.69726 185.28677
#
# Poissons Ratio (x) = 0.06373 0.29183
# Poissons Ratio (y) = 0.09982 0.35919
# Poissons Ratio (z) = 0.18674 0.14675
#
# Static dielectric constant tensor:
#      x y z
#    x 4.802360 0.000000 0.010000 
#    y 0.000000 3.786180 0.000000 
#    z 0.010000 0.000000 4.661000 
# 
# 
# High freq. dielectric constant tensor:
#      x y z
#    x 1.983000 0.000000 0.006710 
#    y 0.000000 1.934660 0.000000 
#    z 0.006710 0.000000 1.989690 
# 
# From -- ./inp_files/308357.got.cif
#   From: 2010.06.25/outbox.cif.g09.slc.cpg/sg15_155_cif.got.tgz:308357.got - 2010.06.28 07:06:18.
