data_PCOD8152836
_publ_section_title
;
Structure prediction by ZEFSAII (Michael W. Deem and Ramdas Pophale) SiO2 
 PCOD8152836
Probable space group: C 2/C
;
_chemical_formula_sum "Si O2"
_cell_formula_units_Z 32
_cell_length_a 8.359240
_cell_length_b 11.328857
_cell_length_c 22.917947
_cell_angle_alpha 90.000000
_cell_angle_beta 142.898064
_cell_angle_gamma 90.000000
_cell_volume 1309.227402
_symmetry_space_group_name_H-M "C 2/C"
_symmetry_group_IT_number 15
_symmetry_cell_setting 'monoclinic'
loop_
_space_group_symop_operation_xyz
x,y,z
-x,y,1/2-z
-x,-y,-z
x,-y,1/2+z
1/2+x,1/2+y,z
1/2-x,1/2+y,1/2-z
1/2-x,1/2-y,-z
1/2+x,1/2-y,1/2+z
loop_
_atom_site_type_symbol
_atom_site_label
_atom_site_fract_x
_atom_site_fract_y
_atom_site_fract_z
Si Si1 0.503545 0.011370 0.904327
Si Si2 0.739294 0.514311 0.209239
Si Si3 0.737572 0.157066 0.067760
Si Si4 0.548741 0.351017 0.460044
O O1 0.373120 0.922182 0.912108
O O2 0.305575 0.032327 0.793417
O O3 0.776625 0.953171 0.957794
O O4 0.580655 0.130649 0.961678
O O5 0.550983 0.630107 0.154856
O O6 0.588596 0.403618 0.137297
O O7 0.000000 0.551560 0.250000
O O8 0.681005 0.295847 0.065146
O O9 0.750000 0.250000 0.500000
#
# Coordination Sequence:
#
# PCOD8152836 Si02
#       4
#     8   8   8   8
#     4   9  19  39  64  92 130 171 213 271 329 380
#     4  11  23  38  62  96 135 171 212 276 331 383
#     4   9  19  39  66  92 127 173 217 265 326 394
#     4   9  20  39  63  94 127 166 218 268 322 389
#
# _framework density 24.441896
#
# number of rings (size 3 to 8) (size 9 to 14) (size 15 to 20)
#    0.000    2.500    0.000    2.250    0.000    8.000 
#    0.000   10.000    0.000    0.000    0.000    0.000 
#    0.000    0.000    0.000    0.000    0.000    0.000 
#
# Total GULP energy -198359.809086 kJ/mol
# GULP energy per Si atom -12397.488068 kJ/mol
# Density = 2.438627 g / cm^3
# Si number density = 24.441896 Si / 1000 Ang^3
#
#
#
# Elastic Constant Matrix: (Units=GPa)
#
#
# Indices 1 2 3 4 5 6 
#
# 1 103.7481 23.8035 48.3994 0.0000 14.7137 0.0000
# 2 23.8035 99.3130 63.7063 0.0000 -1.3339 0.0000
# 3 48.3994 63.7063 193.4915 0.0000 -11.6387 0.0000
# 4 0.0000 0.0000 0.0000 27.8322 0.0000 8.5123
# 5 14.7137 -1.3339 -11.6387 0.0000 45.9908 0.0000
# 6 0.0000 0.0000 0.0000 8.5123 0.0000 43.2734
#
#
#
# Elastic Compliance Matrix: (Units=1/GPa)
#
#
# Indices 1 2 3 4 5 6 
#
# 1 0.011880 -0.001048 -0.002901 0.000000 -0.004565 0.000000
# 2 -0.001048 0.012880 -0.003997 0.000000 -0.000303 0.000000
# 3 -0.002901 -0.003997 0.007371 0.000000 0.002678 0.000000
# 4 0.000000 0.000000 0.000000 0.038230 0.000000 -0.007520
# 5 -0.004565 -0.000303 0.002678 0.000000 0.023873 0.000000
# 6 0.000000 0.000000 0.000000 -0.007520 0.000000 0.024588
#
#
# Mechanical properties :
#
#
# Convention : Reuss Voigt Hill
#
# Bulk Modulus (GPa) = 61.57862 74.26343 67.92103
# Shear Modulus (GPa) = 35.68204 40.79551 38.23878
#
# Velocity S-wave (km/s) = 3.82497 4.08987 3.95964
# Velocity P-wave (km/s) = 6.68998 7.26308 6.98241
#
# Compressibility (1/GPa) = 0.01623940
#
# Stress axis : x y z
#
# Youngs Moduli (GPa) = 84.17464 77.63928 135.66816
#
# Poissons Ratio (x) = 0.08134 0.39362
# Poissons Ratio (y) = 0.08819 0.54225
# Poissons Ratio (z) = 0.24422 0.31031
#
# Static dielectric constant tensor:
#      x y z
#    x 4.918280 0.000000 0.338380 
#    y 0.000000 4.537320 0.000000 
#    z 0.338380 0.000000 4.609510 
# 
# 
# High freq. dielectric constant tensor:
#      x y z
#    x 1.989580 0.000000 0.006250 
#    y 0.000000 1.958750 0.000000 
#    z 0.006250 0.000000 1.973000 
# 
# From -- ./inp_files/132073.got.cif
#   From: 2010.06.25/outbox.cif.g09.slc.cpg/sg15_67_cif.got.tgz:132073.got - 2010.06.28 07:06:18.
