data_PCOD8152615
_publ_section_title
;
Structure prediction by ZEFSAII (Michael W. Deem and Ramdas Pophale) SiO2 
 PCOD8152615
Probable space group: C 2/C
;
_chemical_formula_sum "Si O2"
_cell_formula_units_Z 36
_cell_length_a 16.091622
_cell_length_b 9.310654
_cell_length_c 11.809983
_cell_angle_alpha 90.000000
_cell_angle_beta 115.832032
_cell_angle_gamma 90.000000
_cell_volume 1592.605204
_symmetry_space_group_name_H-M "C 2/C"
_symmetry_group_IT_number 15
_symmetry_cell_setting 'monoclinic'
loop_
_space_group_symop_operation_xyz
x,y,z
-x,y,1/2-z
-x,-y,-z
x,-y,1/2+z
1/2+x,1/2+y,z
1/2-x,1/2+y,1/2-z
1/2-x,1/2-y,-z
1/2+x,1/2-y,1/2+z
loop_
_atom_site_type_symbol
_atom_site_label
_atom_site_fract_x
_atom_site_fract_y
_atom_site_fract_z
Si Si1 0.367362 0.359058 0.850570
Si Si2 0.000000 0.745507 0.750000
Si Si3 0.248828 0.912376 0.328211
Si Si4 0.416235 0.695854 0.625007
Si Si5 0.921138 0.490959 0.047477
O O1 0.438855 0.351014 0.789813
O O2 0.303679 0.218269 0.804707
O O3 0.306570 0.502535 0.801504
O O4 0.422817 0.366957 0.001704
O O5 0.065434 0.647532 0.866789
O O6 0.181669 0.849711 0.383465
O O7 0.321476 0.022177 0.428487
O O8 0.500000 0.634325 0.750000
O O9 0.422506 0.868053 0.626615
O O10 0.000000 0.500000 0.000000
#
# Coordination Sequence:
#
# PCOD8152615 Si02
#       5
#     8   4   8   8   8
#     4  11  27  47  71 108 140 183 239 290 353 417
#     4  12  24  42  74 108 144 178 242 288 354 414
#     4  11  27  45  72 103 145 186 232 291 350 421
#     4  11  25  45  75  99 143 189 235 288 349 416
#     4  11  22  43  72 104 137 192 234 280 340 431
#
# _framework density 22.604474
#
# number of rings (size 3 to 8) (size 9 to 14) (size 15 to 20)
#    0.000    0.889    5.556    2.667   10.889    1.778 
#    0.000    0.000    0.000    0.000    0.000    0.000 
#    0.000    0.000    0.000    0.000    0.000    0.000 
#
# Total GULP energy -223281.370961 kJ/mol
# GULP energy per Si atom -12404.520609 kJ/mol
# Density = 2.255302 g / cm^3
# Si number density = 22.604474 Si / 1000 Ang^3
#
#
#
# Elastic Constant Matrix: (Units=GPa)
#
#
# Indices 1 2 3 4 5 6 
#
# 1 142.7348 23.5009 60.9788 0.0000 3.6330 0.0000
# 2 23.5009 66.1885 44.6904 0.0000 6.6596 0.0000
# 3 60.9788 44.6904 152.7080 0.0000 8.3280 0.0000
# 4 0.0000 0.0000 0.0000 27.7231 0.0000 -7.2910
# 5 3.6330 6.6596 8.3280 0.0000 32.9367 0.0000
# 6 0.0000 0.0000 0.0000 -7.2910 0.0000 35.9634
#
#
#
# Elastic Compliance Matrix: (Units=1/GPa)
#
#
# Indices 1 2 3 4 5 6 
#
# 1 0.008490 -0.000907 -0.003127 0.000000 0.000038 0.000000
# 2 -0.000907 0.019122 -0.005099 0.000000 -0.002477 0.000000
# 3 -0.003127 -0.005099 0.009343 0.000000 -0.000987 0.000000
# 4 0.000000 0.000000 0.000000 0.038102 0.000000 0.007725
# 5 0.000038 -0.002477 -0.000987 0.000000 0.031107 0.000000
# 6 0.000000 0.000000 0.000000 0.007725 0.000000 0.029372
#
#
# Mechanical properties :
#
#
# Convention : Reuss Voigt Hill
#
# Bulk Modulus (GPa) = 53.50449 68.88571 61.19510
# Shear Modulus (GPa) = 31.24345 34.82207 33.03276
#
# Velocity S-wave (km/s) = 3.72180 3.92917 3.82689
# Velocity P-wave (km/s) = 6.49541 7.15018 6.83064
#
# Compressibility (1/GPa) = 0.01869002
#
# Stress axis : x y z
#
# Youngs Moduli (GPa) = 117.78210 52.29454 107.03104
#
# Poissons Ratio (x) = 0.04743 0.33467
# Poissons Ratio (y) = 0.10683 0.54575
# Poissons Ratio (z) = 0.36829 0.26665
#
# Static dielectric constant tensor:
#      x y z
#    x 4.170570 0.000000 0.099570 
#    y 0.000000 4.022720 0.000000 
#    z 0.099570 0.000000 4.212830 
# 
# 
# High freq. dielectric constant tensor:
#      x y z
#    x 1.902060 0.000000 0.003290 
#    y 0.000000 1.886380 0.000000 
#    z 0.003290 0.000000 1.895990 
# 
# From -- ./inp_files/94452.got.cif
#   From: 2010.06.25/outbox.cif.g09.slc.cpg/sg15_48_cif.got.tgz:94452.got - 2010.06.28 07:06:18.
