data_PCOD8152922
_publ_section_title
;
Structure prediction by ZEFSAII (Michael W. Deem and Ramdas Pophale) SiO2 
 PCOD8152922
Probable space group: C 2/C
;
_chemical_formula_sum "Si O2"
_cell_formula_units_Z 40
_cell_length_a 9.252211
_cell_length_b 13.503486
_cell_length_c 31.140409
_cell_angle_alpha 90.000000
_cell_angle_beta 29.284243
_cell_angle_gamma 90.000000
_cell_volume 1903.054521
_symmetry_space_group_name_H-M "C 2/C"
_symmetry_group_IT_number 15
_symmetry_cell_setting 'monoclinic'
loop_
_space_group_symop_operation_xyz
x,y,z
-x,y,1/2-z
-x,-y,-z
x,-y,1/2+z
1/2+x,1/2+y,z
1/2-x,1/2+y,1/2-z
1/2-x,1/2-y,-z
1/2+x,1/2-y,1/2+z
loop_
_atom_site_type_symbol
_atom_site_label
_atom_site_fract_x
_atom_site_fract_y
_atom_site_fract_z
Si Si1 0.681339 0.162604 0.315680
Si Si2 0.578708 0.371760 0.106148
Si Si3 0.298784 0.848416 0.514216
Si Si4 0.295151 0.535133 0.014174
Si Si5 0.290239 0.563344 0.199897
O O1 0.629139 0.279663 0.329780
O O2 0.448608 0.109989 0.406366
O O3 0.658210 0.121191 0.274164
O O4 0.000000 0.135984 0.250000
O O5 0.472915 0.463166 0.163697
O O6 0.533203 0.406417 0.068336
O O7 0.918276 0.342339 0.027780
O O8 0.250000 0.750000 0.500000
O O9 0.003081 0.862806 0.618571
O O10 0.355963 0.938183 0.466671
O O11 0.500000 0.500000 0.000000
O O12 0.000000 0.529977 0.250000
#
# Coordination Sequence:
#
# PCOD8152922 Si02
#       5
#     8   8   8   8   8
#     4  12  24  39  63  95 124 158 205 263 313 362
#     4  11  23  43  63  88 127 169 205 252 313 383
#     4  11  23  42  65  89 123 170 211 251 310 384
#     4  11  23  41  65  92 123 165 210 254 311 383
#     4  11  23  41  61  90 124 160 206 262 314 366
#
# _framework density 21.018840999999998
#
# number of rings (size 3 to 8) (size 9 to 14) (size 15 to 20)
#    0.000    0.800    0.000   10.800    0.000    3.200 
#    0.000    4.000    0.000    0.000    0.000    0.000 
#    0.000    0.000    0.000    0.000    0.000    0.000 
#
# Total GULP energy -248037.627393 kJ/mol
# GULP energy per Si atom -12401.881370 kJ/mol
# Density = 2.097100 g / cm^3
# Si number density = 21.018841 Si / 1000 Ang^3
#
#
#
# Elastic Constant Matrix: (Units=GPa)
#
#
# Indices 1 2 3 4 5 6 
#
# 1 106.6045 25.0839 18.6885 0.0053 -0.8218 0.0015
# 2 25.0839 145.3514 45.3406 -0.0128 29.0688 0.0030
# 3 18.6885 45.3406 80.9074 0.1401 6.4986 -0.0212
# 4 0.0053 -0.0128 0.1401 46.8054 -0.0371 2.0335
# 5 -0.8218 29.0688 6.4986 -0.0371 43.8213 -0.0365
# 6 0.0015 0.0030 -0.0212 2.0335 -0.0365 36.6582
#
#
#
# Elastic Compliance Matrix: (Units=1/GPa)
#
#
# Indices 1 2 3 4 5 6 
#
# 1 0.010027 -0.001525 -0.001576 0.000004 0.001434 0.000000
# 2 -0.001525 0.009755 -0.004648 0.000013 -0.005810 -0.000010
# 3 -0.001576 -0.004648 0.015265 -0.000047 0.000790 0.000013
# 4 0.000004 0.000013 -0.000047 0.021417 0.000016 -0.001188
# 5 0.001434 -0.005810 0.000790 0.000016 0.026584 0.000026
# 6 0.000000 -0.000010 0.000013 -0.001188 0.000026 0.027345
#
#
# Mechanical properties :
#
#
# Convention : Reuss Voigt Hill
#
# Bulk Modulus (GPa) = 51.15608 56.78772 53.97190
# Shear Modulus (GPa) = 37.76225 41.70700 39.73463
#
# Velocity S-wave (km/s) = 4.24322 4.45934 4.35262
# Velocity P-wave (km/s) = 6.95684 7.32055 7.14101
#
# Compressibility (1/GPa) = 0.01954802
#
# Stress axis : x y z
#
# Youngs Moduli (GPa) = 99.73287 102.51279 65.50876
#
# Poissons Ratio (x) = 0.15637 0.10327
# Poissons Ratio (y) = 0.15213 0.30446
# Poissons Ratio (z) = 0.15722 0.47644
#
# Static dielectric constant tensor:
#      x y z
#    x 3.945170 0.000140 -0.030020 
#    y 0.000140 3.969220 -0.000470 
#    z -0.030020 -0.000470 3.851070 
# 
# 
# High freq. dielectric constant tensor:
#      x y z
#    x 1.827900 0.000000 -0.004780 
#    y 0.000000 1.837550 -0.000010 
#    z -0.004780 -0.000010 1.830710 
# 
# From -- ./inp_files/133161.got.cif
#   From: 2010.06.25/outbox.cif.g09.slc.cpg/sg15_67_cif.got.tgz:133161.got - 2010.06.28 07:06:18.
