data_PCOD8152027
_publ_section_title
;
Structure prediction by ZEFSAII (Michael W. Deem and Ramdas Pophale) SiO2 
 PCOD8152027
Probable space group: C 2/C
;
_chemical_formula_sum "Si O2"
_cell_formula_units_Z 64
_cell_length_a 25.377240
_cell_length_b 15.945632
_cell_length_c 10.362606
_cell_angle_alpha 90.000000
_cell_angle_beta 42.118778
_cell_angle_gamma 90.000000
_cell_volume 2812.314154
_symmetry_space_group_name_H-M "C 2/C"
_symmetry_group_IT_number 15
_symmetry_cell_setting 'monoclinic'
loop_
_space_group_symop_operation_xyz
x,y,z
-x,y,1/2-z
-x,-y,-z
x,-y,1/2+z
1/2+x,1/2+y,z
1/2-x,1/2+y,1/2-z
1/2-x,1/2-y,-z
1/2+x,1/2-y,1/2+z
loop_
_atom_site_type_symbol
_atom_site_label
_atom_site_fract_x
_atom_site_fract_y
_atom_site_fract_z
Si Si1 0.407662 0.748843 0.601783
Si Si2 0.075602 0.704447 0.847111
Si Si3 0.650368 0.670598 0.046979
Si Si4 0.451760 0.029447 0.708836
Si Si5 0.052989 0.009771 0.274319
Si Si6 0.330385 0.362465 0.450439
Si Si7 0.315798 0.204886 0.631405
Si Si8 0.830751 0.398565 0.851970
O O1 0.495529 0.741699 0.499122
O O2 0.405338 0.709504 0.463670
O O3 0.347333 0.695156 0.795831
O O4 0.383787 0.848350 0.649076
O O5 0.146111 0.763647 0.671400
O O6 0.064888 0.627852 0.767834
O O7 0.105070 0.677423 0.935568
O O8 0.618983 0.582390 0.160096
O O9 0.740353 0.666374 0.840041
O O10 0.500000 0.006276 0.750000
O O11 0.500000 0.000000 0.500000
O O12 0.368834 0.981282 0.845185
O O13 0.000000 0.033885 0.250000
O O14 0.095997 0.923047 0.162352
O O15 0.000000 0.000000 0.500000
O O16 0.314222 0.305808 0.607810
O O17 0.253251 0.418904 0.560125
O O18 0.320335 0.166570 0.484033
#
# Coordination Sequence:
#
# PCOD8152027 Si02
#       8
#     8   8   8   8   8   8   8   8
#     4  11  21  45  73  99 134 192 240 290 362 434
#     4  12  26  41  71 101 146 190 236 301 359 434
#     4  12  24  48  69 100 150 187 242 292 367 439
#     4  12  26  46  70 112 146 190 245 297 371 445
#     4  12  29  49  76 110 146 193 249 308 368 436
#     4  11  24  45  76 101 139 190 247 300 365 434
#     4  11  25  46  69 108 139 192 242 300 364 437
#     4  11  23  45  73  99 145 187 241 295 368 438
#
# _framework density 22.757059000000002
#
# number of rings (size 3 to 8) (size 9 to 14) (size 15 to 20)
#    0.000    0.500    3.750    5.250    5.250    1.000 
#    2.250    0.000    0.000    0.000    0.000    0.000 
#    0.000    0.000    0.000    0.000    0.000    0.000 
#
# Total GULP energy -396731.366836 kJ/mol
# GULP energy per Si atom -12397.855214 kJ/mol
# Density = 2.270526 g / cm^3
# Si number density = 22.757059 Si / 1000 Ang^3
#
#
#
# Elastic Constant Matrix: (Units=GPa)
#
#
# Indices 1 2 3 4 5 6 
#
# 1 104.4095 11.8887 35.0441 0.0000 -20.1721 0.0000
# 2 11.8887 97.6593 35.1627 0.0000 -1.3295 0.0000
# 3 35.0441 35.1627 100.4975 0.0000 -3.0316 0.0000
# 4 0.0000 0.0000 0.0000 39.1520 0.0000 -3.2006
# 5 -20.1721 -1.3295 -3.0316 0.0000 35.5491 0.0000
# 6 0.0000 0.0000 0.0000 -3.2006 0.0000 26.5591
#
#
#
# Elastic Compliance Matrix: (Units=1/GPa)
#
#
# Indices 1 2 3 4 5 6 
#
# 1 0.012213 0.000074 -0.004086 0.000000 0.006584 0.000000
# 2 0.000074 0.011716 -0.004121 0.000000 0.000129 0.000000
# 3 -0.004086 -0.004121 0.012776 0.000000 -0.001383 0.000000
# 4 0.000000 0.000000 0.000000 0.025796 0.000000 0.003109
# 5 0.006584 0.000129 -0.001383 0.000000 0.031753 0.000000
# 6 0.000000 0.000000 0.000000 0.003109 0.000000 0.038026
#
#
# Mechanical properties :
#
#
# Convention : Reuss Voigt Hill
#
# Bulk Modulus (GPa) = 48.92793 51.86191 50.39492
# Shear Modulus (GPa) = 32.18352 34.95011 33.56682
#
# Velocity S-wave (km/s) = 3.76469 3.92317 3.84475
# Velocity P-wave (km/s) = 6.35956 6.58487 6.47320
#
# Compressibility (1/GPa) = 0.02043822
#
# Stress axis : x y z
#
# Youngs Moduli (GPa) = 81.88152 85.35104 78.27444
#
# Poissons Ratio (x) = -0.00632 0.31983
# Poissons Ratio (y) = -0.00606 0.32259
# Poissons Ratio (z) = 0.33456 0.35176
#
# Static dielectric constant tensor:
#      x y z
#    x 3.986330 0.000000 0.035930 
#    y 0.000000 4.599390 0.000000 
#    z 0.035930 0.000000 4.217320 
# 
# 
# High freq. dielectric constant tensor:
#      x y z
#    x 1.900360 0.000000 -0.006300 
#    y 0.000000 1.894820 0.000000 
#    z -0.006300 0.000000 1.902490 
# 
# From -- ./inp_files/123523.got.cif
#   From: 2010.06.25/outbox.cif.g09.slc.cpg/sg15_62_cif.got.tgz:123523.got - 2010.06.28 07:06:18.
