data_PCOD8152137
_publ_section_title
;
Structure prediction by ZEFSAII (Michael W. Deem and Ramdas Pophale) SiO2 
 PCOD8152137
Probable space group: C 2/C
;
_chemical_formula_sum "Si O2"
_cell_formula_units_Z 56
_cell_length_a 5.009034
_cell_length_b 24.909932
_cell_length_c 23.516721
_cell_angle_alpha 90.000000
_cell_angle_beta 78.437403
_cell_angle_gamma 90.000000
_cell_volume 2874.744102
_symmetry_space_group_name_H-M "C 2/C"
_symmetry_group_IT_number 15
_symmetry_cell_setting 'monoclinic'
loop_
_space_group_symop_operation_xyz
x,y,z
-x,y,1/2-z
-x,-y,-z
x,-y,1/2+z
1/2+x,1/2+y,z
1/2-x,1/2+y,1/2-z
1/2-x,1/2-y,-z
1/2+x,1/2-y,1/2+z
loop_
_atom_site_type_symbol
_atom_site_label
_atom_site_fract_x
_atom_site_fract_y
_atom_site_fract_z
Si Si1 0.258815 0.403264 0.049715
Si Si2 0.104635 0.945217 0.573419
Si Si3 0.500000 0.038832 0.250000
Si Si4 0.346362 0.781768 0.914163
Si Si5 0.763164 0.331501 0.038659
Si Si6 0.106804 0.166125 0.132165
Si Si7 0.500000 0.612245 0.250000
Si Si8 0.055578 0.498867 0.124224
O O1 0.537427 0.376660 0.059091
O O2 0.140099 0.437795 0.107046
O O3 0.056874 0.356186 0.039218
O O4 0.320612 0.445724 0.996483
O O5 0.168599 0.885788 0.592001
O O6 0.285444 0.987918 0.599852
O O7 0.788671 0.958982 0.596369
O O8 0.766924 0.075411 0.232779
O O9 0.486653 0.002231 0.194187
O O10 0.286046 0.718556 0.917619
O O11 0.666844 0.789466 0.891618
O O12 0.186183 0.808324 0.868556
O O13 0.240585 0.811241 0.975175
O O14 0.126265 0.150368 0.196965
#
# Coordination Sequence:
#
# PCOD8152137 Si02
#       8
#     8   8   4   8   8   8   4   8
#     4  12  23  37  59  87 121 154 194 235 289 348
#     4  12  21  38  57  88 121 154 184 236 293 355
#     4  12  22  40  56  83 114 157 200 236 268 346
#     4  11  22  38  61  86 117 149 187 240 294 340
#     4  11  22  38  60  87 113 151 193 236 287 345
#     4  12  21  38  60  87 120 151 184 237 293 348
#     4  12  24  36  62  83 118 153 194 230 290 342
#     4  12  24  38  57  83 121 158 192 239 286 340
#
# _framework density 19.479994000000001
#
# number of rings (size 3 to 8) (size 9 to 14) (size 15 to 20)
#    0.000    0.286    5.714    5.143    0.000    2.286 
#    0.000    0.000    0.000    5.143    0.000    0.000 
#    0.000    0.000    0.000    0.000    0.000    0.000 
#
# Total GULP energy -347432.804162 kJ/mol
# GULP energy per Si atom -12408.314434 kJ/mol
# Density = 1.943566 g / cm^3
# Si number density = 19.479994 Si / 1000 Ang^3
#
#
#
# Elastic Constant Matrix: (Units=GPa)
#
#
# Indices 1 2 3 4 5 6 
#
# 1 70.1629 7.5116 -2.8066 0.0000 -7.5217 0.0000
# 2 7.5116 74.1771 35.8680 0.0000 -2.4357 0.0000
# 3 -2.8066 35.8680 78.7002 0.0000 -0.9285 0.0000
# 4 0.0000 0.0000 0.0000 623.6715 0.0000 -163.8004
# 5 -7.5217 -2.4357 -0.9285 0.0000 22.4275 0.0000
# 6 0.0000 0.0000 0.0000 -163.8004 0.0000 66.1923
#
#
#
# Elastic Compliance Matrix: (Units=1/GPa)
#
#
# Indices 1 2 3 4 5 6 
#
# 1 0.015066 -0.002120 0.001561 0.000000 0.004887 0.000000
# 2 -0.002120 0.017645 -0.008107 0.000000 0.000870 0.000000
# 3 0.001561 -0.008107 0.016461 0.000000 0.000325 0.000000
# 4 0.000000 0.000000 0.000000 0.004580 0.000000 0.011334
# 5 0.004887 0.000870 0.000325 0.000000 0.046335 0.000000
# 6 0.000000 0.000000 0.000000 0.011334 0.000000 0.043156
#
#
# Mechanical properties :
#
#
# Convention : Reuss Voigt Hill
#
# Bulk Modulus (GPa) = 31.40757 33.79848 32.60302
# Shear Modulus (GPa) = 29.20783 154.62274 91.91528
#
# Velocity S-wave (km/s) = 3.87638 8.91894 6.87655
# Velocity P-wave (km/s) = 6.01607 11.11086 8.93433
#
# Compressibility (1/GPa) = 0.03183946
#
# Stress axis : x y z
#
# Youngs Moduli (GPa) = 66.37516 56.67466 60.75061
#
# Poissons Ratio (x) = 0.12015 -0.09484
# Poissons Ratio (y) = 0.14072 0.49250
# Poissons Ratio (z) = -0.10362 0.45946
#
# Static dielectric constant tensor:
#      x y z
#    x 3.527410 0.000000 -0.067830 
#    y 0.000000 3.442560 0.000000 
#    z -0.067830 0.000000 3.421860 
# 
# 
# High freq. dielectric constant tensor:
#      x y z
#    x 1.778540 0.000000 -0.003120 
#    y 0.000000 1.748220 0.000000 
#    z -0.003120 0.000000 1.741100 
# 
# From -- ./inp_files/261374.got.cif
#   From: 2010.06.25/outbox.cif.g09.slc.cpg/sg15_131_cif.got.tgz:261374.got - 2010.06.28 07:06:18.
