data_PCOD8152085
_publ_section_title
;
Structure prediction by ZEFSAII (Michael W. Deem and Ramdas Pophale) SiO2 
 PCOD8152085
Probable space group: C 2/C
;
_chemical_formula_sum "Si O2"
_cell_formula_units_Z 56
_cell_length_a 18.396067
_cell_length_b 14.764276
_cell_length_c 21.439488
_cell_angle_alpha 90.000000
_cell_angle_beta 26.810723
_cell_angle_gamma 90.000000
_cell_volume 2626.461370
_symmetry_space_group_name_H-M "C 2/C"
_symmetry_group_IT_number 15
_symmetry_cell_setting 'monoclinic'
loop_
_space_group_symop_operation_xyz
x,y,z
-x,y,1/2-z
-x,-y,-z
x,-y,1/2+z
1/2+x,1/2+y,z
1/2-x,1/2+y,1/2-z
1/2-x,1/2-y,-z
1/2+x,1/2-y,1/2+z
loop_
_atom_site_type_symbol
_atom_site_label
_atom_site_fract_x
_atom_site_fract_y
_atom_site_fract_z
Si Si1 0.822232 0.269908 0.172704
Si Si2 0.988914 0.701384 0.417572
Si Si3 0.633488 0.525732 0.094518
Si Si4 0.024136 0.098839 0.406299
Si Si5 0.238175 0.955540 0.298427
Si Si6 0.529893 0.028911 0.153766
Si Si7 0.394093 0.679713 0.891456
O O1 0.672733 0.200510 0.299157
O O2 0.952645 0.207644 0.108457
O O3 0.815892 0.370042 0.204677
O O4 0.861289 0.286747 0.070366
O O5 0.932263 0.619229 0.416014
O O6 0.997539 0.795397 0.372583
O O7 0.500000 0.540208 0.250000
O O8 0.573214 0.583398 0.082659
O O9 0.659747 0.421839 0.055041
O O10 0.821550 0.544683 0.969284
O O11 0.919912 0.077159 0.546244
O O12 0.184915 0.034539 0.289690
O O13 0.367272 0.988856 0.249938
O O14 0.500000 0.051057 0.250000
O O15 0.500000 0.690425 0.750000
O O16 0.250000 0.750000 0.000000
#
# Coordination Sequence:
#
# PCOD8152085 Si02
#       7
#     8   8   8   8   8   8   8
#     4  12  26  45  70 103 137 183 243 283 345 415
#     4  12  25  39  65 104 138 179 228 292 346 417
#     4  11  26  43  66 102 139 182 228 288 353 410
#     4  11  24  47  72 100 145 188 227 290 354 418
#     4  11  25  46  72 100 141 190 236 282 347 425
#     4  12  25  44  70 102 140 186 234 285 353 419
#     4  11  22  36  58  93 140 174 212 274 351 417
#
# _framework density 21.321465
#
# number of rings (size 3 to 8) (size 9 to 14) (size 15 to 20)
#    0.000    0.571    5.714    2.143    8.000    1.714 
#    0.000    1.429    0.000    0.000    0.000    0.000 
#    0.000    0.000    0.000    0.000    0.000    0.000 
#
# Total GULP energy -346919.338902 kJ/mol
# GULP energy per Si atom -12389.976389 kJ/mol
# Density = 2.127294 g / cm^3
# Si number density = 21.321465 Si / 1000 Ang^3
#
#
#
# Elastic Constant Matrix: (Units=GPa)
#
#
# Indices 1 2 3 4 5 6 
#
# 1 90.5211 36.6138 15.9984 -0.0118 -3.8181 0.0025
# 2 36.6138 101.0393 24.3908 -0.0234 8.5474 0.0027
# 3 15.9984 24.3908 85.4273 -0.0091 2.2676 0.0019
# 4 -0.0118 -0.0234 -0.0091 14.0861 0.0051 -11.5959
# 5 -3.8181 8.5474 2.2676 0.0051 36.9322 -0.0021
# 6 0.0025 0.0027 0.0019 -11.5959 -0.0021 30.7711
#
#
#
# Elastic Compliance Matrix: (Units=1/GPa)
#
#
# Indices 1 2 3 4 5 6 
#
# 1 0.013284 -0.004739 -0.001202 0.000002 0.002544 0.000000
# 2 -0.004739 0.012515 -0.002600 0.000023 -0.003227 0.000008
# 3 -0.001202 -0.002600 0.012681 0.000004 -0.000301 0.000001
# 4 0.000002 0.000023 0.000004 0.102921 -0.000017 0.038785
# 5 0.002544 -0.003227 -0.000301 -0.000017 0.028105 -0.000005
# 6 0.000000 0.000008 0.000001 0.038785 -0.000005 0.047114
#
#
# Mechanical properties :
#
#
# Convention : Reuss Voigt Hill
#
# Bulk Modulus (GPa) = 46.73348 47.88818 47.31083
# Shear Modulus (GPa) = 20.76122 29.69020 25.22571
#
# Velocity S-wave (km/s) = 3.12384 3.73567 3.44337
# Velocity P-wave (km/s) = 5.91416 6.41216 6.16819
#
# Compressibility (1/GPa) = 0.02139794
#
# Stress axis : x y z
#
# Youngs Moduli (GPa) = 75.28104 79.90493 78.85575
#
# Poissons Ratio (x) = 0.37863 0.09481
# Poissons Ratio (y) = 0.35672 0.20503
# Poissons Ratio (z) = 0.09051 0.20776
#
# Static dielectric constant tensor:
#      x y z
#    x 3.960780 0.000020 -0.330020 
#    y 0.000020 4.030420 0.000060 
#    z -0.330020 0.000060 4.288140 
# 
# 
# High freq. dielectric constant tensor:
#      x y z
#    x 1.838670 0.000000 -0.011650 
#    y 0.000000 1.820400 0.000010 
#    z -0.011650 0.000010 1.850450 
# 
# From -- ./inp_files/249210.got.cif
#   From: 2010.06.25/outbox.cif.g09.slc.cpg/sg15_125_cif.got.tgz:249210.got - 2010.06.28 07:06:18.
