data_PCOD8152867
_publ_section_title
;
Structure prediction by ZEFSAII (Michael W. Deem and Ramdas Pophale) SiO2 
 PCOD8152867
Probable space group: C 2/C
;
_chemical_formula_sum "Si O2"
_cell_formula_units_Z 56
_cell_length_a 10.645115
_cell_length_b 30.674876
_cell_length_c 9.470452
_cell_angle_alpha 90.000000
_cell_angle_beta 60.453468
_cell_angle_gamma 90.000000
_cell_volume 2690.301263
_symmetry_space_group_name_H-M "C 2/C"
_symmetry_group_IT_number 15
_symmetry_cell_setting 'monoclinic'
loop_
_space_group_symop_operation_xyz
x,y,z
-x,y,1/2-z
-x,-y,-z
x,-y,1/2+z
1/2+x,1/2+y,z
1/2-x,1/2+y,1/2-z
1/2-x,1/2-y,-z
1/2+x,1/2-y,1/2+z
loop_
_atom_site_type_symbol
_atom_site_label
_atom_site_fract_x
_atom_site_fract_y
_atom_site_fract_z
Si Si1 0.057059 0.669878 0.932603
Si Si2 0.917275 0.760500 0.931762
Si Si3 0.500000 0.101603 0.750000
Si Si4 0.981876 0.074826 0.597121
Si Si5 0.500000 0.127948 0.250000
Si Si6 0.103805 0.166662 0.825918
Si Si7 0.301722 0.032101 0.723542
Si Si8 0.705111 0.949853 0.602998
O O1 0.228589 0.664755 0.813651
O O2 0.006456 0.717383 0.918642
O O3 0.963010 0.633924 0.899373
O O4 0.013206 0.661495 0.116281
O O5 0.000000 0.780691 0.750000
O O6 0.750000 0.750000 0.000000
O O7 0.929724 0.793785 0.052399
O O8 0.370089 0.071406 0.772666
O O9 0.127988 0.056336 0.450880
O O10 0.000000 0.085676 0.750000
O O11 0.931664 0.122092 0.566606
O O12 0.866044 0.036332 0.642725
O O13 0.362096 0.096470 0.322432
O O14 0.000000 0.173782 0.750000
O O15 0.327828 0.035713 0.540648
O O16 0.358589 0.985977 0.753243
#
# Coordination Sequence:
#
# PCOD8152867 Si02
#       8
#     8   8   4   8   4   8   8   8
#     4  12  25  46  69 101 136 182 226 288 344 408
#     4  12  26  46  71 106 146 182 227 284 345 416
#     4  12  21  42  68  90 132 182 220 266 355 400
#     4   9  19  42  66  91 129 174 221 274 337 403
#     4  12  25  42  68  96 134 170 232 286 331 406
#     4  11  23  45  75 100 136 181 233 278 350 408
#     4  11  23  39  67  92 131 176 221 277 343 405
#     4  11  24  41  62 100 129 171 226 282 337 404
#
# _framework density 20.815512999999999
#
# number of rings (size 3 to 8) (size 9 to 14) (size 15 to 20)
#    0.000    0.857    5.000    2.571    3.000    4.000 
#    0.000    1.429    0.000    0.000    0.000    0.000 
#    0.000    0.000    0.000    0.000    0.000    0.000 
#
# Total GULP energy -347062.341103 kJ/mol
# GULP energy per Si atom -12395.083611 kJ/mol
# Density = 2.076814 g / cm^3
# Si number density = 20.815513 Si / 1000 Ang^3
#
#
#
# Elastic Constant Matrix: (Units=GPa)
#
#
# Indices 1 2 3 4 5 6 
#
# 1 86.9513 19.9830 42.6983 0.0000 4.1123 0.0000
# 2 19.9830 77.6162 30.8369 0.0000 17.4413 0.0000
# 3 42.6983 30.8369 114.5919 0.0000 -0.2057 0.0000
# 4 0.0000 0.0000 0.0000 33.1292 0.0000 9.7554
# 5 4.1123 17.4413 -0.2057 0.0000 23.4560 0.0000
# 6 0.0000 0.0000 0.0000 9.7554 0.0000 47.0880
#
#
#
# Elastic Compliance Matrix: (Units=1/GPa)
#
#
# Indices 1 2 3 4 5 6 
#
# 1 0.014331 -0.001367 -0.004975 0.000000 -0.001539 0.000000
# 2 -0.001367 0.017903 -0.004332 0.000000 -0.013110 0.000000
# 3 -0.004975 -0.004332 0.011753 0.000000 0.004196 0.000000
# 4 0.000000 0.000000 0.000000 0.032146 0.000000 -0.006660
# 5 -0.001539 -0.013110 0.004196 0.000000 0.052688 0.000000
# 6 0.000000 0.000000 0.000000 -0.006660 0.000000 0.022617
#
#
# Mechanical properties :
#
#
# Convention : Reuss Voigt Hill
#
# Bulk Modulus (GPa) = 44.17004 51.79952 47.98478
# Shear Modulus (GPa) = 27.72671 33.11072 30.41872
#
# Velocity S-wave (km/s) = 3.65365 3.99265 3.82691
# Velocity P-wave (km/s) = 6.25017 6.79663 6.52912
#
# Compressibility (1/GPa) = 0.02263978
#
# Stress axis : x y z
#
# Youngs Moduli (GPa) = 69.78114 55.85651 85.08151
#
# Poissons Ratio (x) = 0.07637 0.42324
# Poissons Ratio (y) = 0.09541 0.36856
# Poissons Ratio (z) = 0.34713 0.24196
#
# Static dielectric constant tensor:
#      x y z
#    x 3.741540 0.000000 0.044810 
#    y 0.000000 3.937610 0.000000 
#    z 0.044810 0.000000 3.761140 
# 
# 
# High freq. dielectric constant tensor:
#      x y z
#    x 1.827740 0.000000 -0.005090 
#    y 0.000000 1.829060 0.000000 
#    z -0.005090 0.000000 1.803230 
# 
# From -- ./inp_files/35620.got.cif
#   From: 2010.06.25/outbox.cif.g09.slc.cpg/sg15_18_cif.got.tgz:35620.got - 2010.06.28 07:06:18.
