data_PCOD8152437
_publ_section_title
;
Structure prediction by ZEFSAII (Michael W. Deem and Ramdas Pophale) SiO2 
 PCOD8152437
Probable space group: C 2/C
;
_chemical_formula_sum "Si O2"
_cell_formula_units_Z 52
_cell_length_a 7.830642
_cell_length_b 21.762052
_cell_length_c 19.586824
_cell_angle_alpha 90.000000
_cell_angle_beta 133.967122
_cell_angle_gamma 90.000000
_cell_volume 2402.347598
_symmetry_space_group_name_H-M "C 2/C"
_symmetry_group_IT_number 15
_symmetry_cell_setting 'monoclinic'
loop_
_space_group_symop_operation_xyz
x,y,z
-x,y,1/2-z
-x,-y,-z
x,-y,1/2+z
1/2+x,1/2+y,z
1/2-x,1/2+y,1/2-z
1/2-x,1/2-y,-z
1/2+x,1/2-y,1/2+z
loop_
_atom_site_type_symbol
_atom_site_label
_atom_site_fract_x
_atom_site_fract_y
_atom_site_fract_z
Si Si1 0.946747 0.719948 0.314531
Si Si2 0.829186 0.132085 0.463016
Si Si3 0.632665 0.993261 0.966919
Si Si4 0.783900 0.153073 0.820686
Si Si5 0.000000 0.149262 0.250000
Si Si6 0.479411 0.575164 0.370156
Si Si7 0.174546 0.532164 0.737571
O O1 0.917716 0.791931 0.319905
O O2 0.703940 0.688234 0.271076
O O3 0.000000 0.708584 0.250000
O O4 0.161028 0.692125 0.419748
O O5 0.687637 0.075553 0.458221
O O6 0.859301 0.121294 0.390162
O O7 0.083697 0.144205 0.569379
O O8 0.875290 0.030033 0.040973
O O9 0.500000 0.000000 0.000000
O O10 0.468831 0.032017 0.871392
O O11 0.500000 0.166330 0.750000
O O12 0.841020 0.092893 0.789007
O O13 0.887049 0.109623 0.155411
O O14 0.292378 0.533774 0.277537
O O15 0.000000 0.545260 0.750000
#
# Coordination Sequence:
#
# PCOD8152437 Si02
#       7
#     8   8   8   8   4   8   8
#     4  12  26  50  74 103 144 199 249 304 361 428
#     4  12  24  45  75 109 144 194 248 299 375 439
#     4  12  25  40  66 109 148 185 236 299 369 444
#     4  11  25  47  71 103 148 191 251 301 357 442
#     4  12  26  46  74 108 146 188 248 298 362 448
#     4  12  22  43  71 107 143 182 235 297 367 441
#     4  11  22  41  70 103 142 189 230 292 372 430
#
# _framework density 21.645493999999999
#
# number of rings (size 3 to 8) (size 9 to 14) (size 15 to 20)
#    0.000    0.308    5.385    5.538    0.000    1.231 
#    1.385    6.154    0.000    0.000    0.000    0.000 
#    0.000    0.000    0.000    0.000    0.000    0.000 
#
# Total GULP energy -322235.859024 kJ/mol
# GULP energy per Si atom -12393.686886 kJ/mol
# Density = 2.159623 g / cm^3
# Si number density = 21.645494 Si / 1000 Ang^3
#
#
#
# Elastic Constant Matrix: (Units=GPa)
#
#
# Indices 1 2 3 4 5 6 
#
# 1 108.2817 43.2720 48.4882 0.0000 -18.4937 0.0000
# 2 43.2720 106.6205 39.4173 0.0000 -8.4779 0.0000
# 3 48.4882 39.4173 126.8420 0.0000 -10.8434 0.0000
# 4 0.0000 0.0000 0.0000 28.1732 0.0000 9.6711
# 5 -18.4937 -8.4779 -10.8434 0.0000 40.9427 0.0000
# 6 0.0000 0.0000 0.0000 9.6711 0.0000 22.1704
#
#
#
# Elastic Compliance Matrix: (Units=1/GPa)
#
#
# Indices 1 2 3 4 5 6 
#
# 1 0.012957 -0.003646 -0.003463 0.000000 0.004181 0.000000
# 2 -0.003646 0.011696 -0.002225 0.000000 0.000186 0.000000
# 3 -0.003463 -0.002225 0.009951 0.000000 0.000611 0.000000
# 4 0.000000 0.000000 0.000000 0.041746 0.000000 -0.018210
# 5 0.004181 0.000186 0.000611 0.000000 0.026513 0.000000
# 6 0.000000 0.000000 0.000000 -0.018210 0.000000 0.053049
#
#
# Mechanical properties :
#
#
# Convention : Reuss Voigt Hill
#
# Bulk Modulus (GPa) = 62.74796 67.12213 64.93505
# Shear Modulus (GPa) = 27.79458 32.29502 30.04480
#
# Velocity S-wave (km/s) = 3.58730 3.86683 3.72968
# Velocity P-wave (km/s) = 6.79780 7.14238 6.97222
#
# Compressibility (1/GPa) = 0.01593677
#
# Stress axis : x y z
#
# Youngs Moduli (GPa) = 77.17995 85.49826 100.49094
#
# Poissons Ratio (x) = 0.31172 0.34796
# Poissons Ratio (y) = 0.28140 0.22360
# Poissons Ratio (z) = 0.26724 0.19024
#
# Static dielectric constant tensor:
#      x y z
#    x 3.877280 0.000000 0.076570 
#    y 0.000000 4.355570 0.000000 
#    z 0.076570 0.000000 3.994000 
# 
# 
# High freq. dielectric constant tensor:
#      x y z
#    x 1.843310 0.000000 -0.002240 
#    y 0.000000 1.860310 0.000000 
#    z -0.002240 0.000000 1.863810 
# 
# From -- ./inp_files/192613.got.cif
#   From: 2010.06.25/outbox.cif.g09.slc.cpg/sg15_97_cif.got.tgz:192613.got - 2010.06.28 07:06:18.
