data_PCOD8152483
_publ_section_title
;
Structure prediction by ZEFSAII (Michael W. Deem and Ramdas Pophale) SiO2 
 PCOD8152483
Probable space group: C 2/C
;
_chemical_formula_sum "Si O2"
_cell_formula_units_Z 48
_cell_length_a 27.747247
_cell_length_b 13.283782
_cell_length_c 9.490060
_cell_angle_alpha 90.000000
_cell_angle_beta 142.874251
_cell_angle_gamma 90.000000
_cell_volume 2111.230386
_symmetry_space_group_name_H-M "C 2/C"
_symmetry_group_IT_number 15
_symmetry_cell_setting 'monoclinic'
loop_
_space_group_symop_operation_xyz
x,y,z
-x,y,1/2-z
-x,-y,-z
x,-y,1/2+z
1/2+x,1/2+y,z
1/2-x,1/2+y,1/2-z
1/2-x,1/2-y,-z
1/2+x,1/2-y,1/2+z
loop_
_atom_site_type_symbol
_atom_site_label
_atom_site_fract_x
_atom_site_fract_y
_atom_site_fract_z
Si Si1 0.665371 0.478885 0.480370
Si Si2 0.085152 0.704024 0.007481
Si Si3 0.924868 0.066717 0.986720
Si Si4 0.407149 0.988543 0.801689
Si Si5 0.179305 0.419837 0.161698
Si Si6 0.755003 0.229236 0.343262
O O1 0.650336 0.539609 0.589658
O O2 0.589542 0.488610 0.196490
O O3 0.741804 0.530395 0.588599
O O4 0.687630 0.363461 0.558035
O O5 0.000000 0.664694 0.750000
O O6 0.068838 0.814959 0.032636
O O7 0.112552 0.623749 0.187730
O O8 0.161438 0.713624 0.077536
O O9 0.000000 0.024576 0.250000
O O10 0.361116 0.995718 0.546093
O O11 0.379875 0.079848 0.841564
O O12 0.500000 0.000000 0.000000
O O13 0.200757 0.312905 0.146617
O O14 0.750000 0.250000 0.500000
#
# Coordination Sequence:
#
# PCOD8152483 Si02
#       6
#     8   8   8   8   8   8
#     4  12  22  42  68  96 128 171 223 272 328 402
#     4  11  22  42  67  95 131 181 219 270 347 402
#     4  11  24  42  67  96 131 174 217 269 334 400
#     4  12  25  43  68 101 140 178 227 282 345 410
#     4  12  23  42  69 100 132 180 227 280 340 404
#     4  12  21  43  68  95 132 179 224 275 337 406
#
# _framework density 22.735558000000001
#
# number of rings (size 3 to 8) (size 9 to 14) (size 15 to 20)
#    0.000    0.333    6.667    3.000    0.000    0.000 
#    0.000   11.667    0.000    0.000    0.000    0.000 
#    0.000    0.000    0.000    0.000    0.000    0.000 
#
# Total GULP energy -297394.525314 kJ/mol
# GULP energy per Si atom -12391.438555 kJ/mol
# Density = 2.268381 g / cm^3
# Si number density = 22.735558 Si / 1000 Ang^3
#
#
#
# Elastic Constant Matrix: (Units=GPa)
#
#
# Indices 1 2 3 4 5 6 
#
# 1 90.3465 22.0985 10.1681 0.0000 14.0155 0.0000
# 2 22.0985 81.5072 14.2957 0.0000 3.6731 0.0000
# 3 10.1681 14.2957 115.7429 0.0000 15.6043 0.0000
# 4 0.0000 0.0000 0.0000 27.8324 0.0000 8.2066
# 5 14.0155 3.6731 15.6043 0.0000 35.5425 0.0000
# 6 0.0000 0.0000 0.0000 8.2066 0.0000 31.3620
#
#
#
# Elastic Compliance Matrix: (Units=1/GPa)
#
#
# Indices 1 2 3 4 5 6 
#
# 1 0.012569 -0.003185 -0.000092 0.000000 -0.004587 0.000000
# 2 -0.003185 0.013362 -0.001439 0.000000 0.000507 0.000000
# 3 -0.000092 -0.001439 0.009354 0.000000 -0.003922 0.000000
# 4 0.000000 0.000000 0.000000 0.038933 0.000000 -0.010188
# 5 -0.004587 0.000507 -0.003922 0.000000 0.031613 0.000000
# 6 0.000000 0.000000 0.000000 -0.010188 0.000000 0.034552
#
#
# Mechanical properties :
#
#
# Convention : Reuss Voigt Hill
#
# Bulk Modulus (GPa) = 38.67996 42.30235 40.49116
# Shear Modulus (GPa) = 31.55881 35.01635 33.28758
#
# Velocity S-wave (km/s) = 3.72974 3.92874 3.83053
# Velocity P-wave (km/s) = 5.96639 6.26312 6.11656
#
# Compressibility (1/GPa) = 0.02585318
#
# Stress axis : x y z
#
# Youngs Moduli (GPa) = 79.55768 74.83968 106.90150
#
# Poissons Ratio (x) = 0.23836 0.00989
# Poissons Ratio (y) = 0.25339 0.15382
# Poissons Ratio (z) = 0.00736 0.10768
#
# Static dielectric constant tensor:
#      x y z
#    x 4.075740 0.000000 0.276720 
#    y 0.000000 4.115780 0.000000 
#    z 0.276720 0.000000 4.458580 
# 
# 
# High freq. dielectric constant tensor:
#      x y z
#    x 1.882280 0.000000 0.023120 
#    y 0.000000 1.892120 0.000000 
#    z 0.023120 0.000000 1.913910 
# 
# From -- ./inp_files/66466.got.cif
#   From: 2010.06.25/outbox.cif.g09.slc.cpg/sg15_34_cif.got.tgz:66466.got - 2010.06.28 07:06:18.
