data_PCOD8152471
_publ_section_title
;
Structure prediction by ZEFSAII (Michael W. Deem and Ramdas Pophale) SiO2 
 PCOD8152471
Probable space group: C 2/C
;
_chemical_formula_sum "Si O2"
_cell_formula_units_Z 48
_cell_length_a 29.827503
_cell_length_b 10.076017
_cell_length_c 14.526303
_cell_angle_alpha 90.000000
_cell_angle_beta 148.285832
_cell_angle_gamma 90.000000
_cell_volume 2295.006993
_symmetry_space_group_name_H-M "C 2/C"
_symmetry_group_IT_number 15
_symmetry_cell_setting 'monoclinic'
loop_
_space_group_symop_operation_xyz
x,y,z
-x,y,1/2-z
-x,-y,-z
x,-y,1/2+z
1/2+x,1/2+y,z
1/2-x,1/2+y,1/2-z
1/2-x,1/2-y,-z
1/2+x,1/2-y,1/2+z
loop_
_atom_site_type_symbol
_atom_site_label
_atom_site_fract_x
_atom_site_fract_y
_atom_site_fract_z
Si Si1 0.828041 0.294288 0.902649
Si Si2 0.902151 0.018856 0.302620
Si Si3 0.400935 0.930101 0.558582
Si Si4 0.652090 0.299191 0.651575
Si Si5 0.757366 0.175966 0.607991
Si Si6 0.902458 0.017481 0.089089
O O1 0.752653 0.319752 0.843597
O O2 0.782806 0.291516 0.723875
O O3 0.896560 0.412320 0.030022
O O4 0.862016 0.149048 0.979202
O O5 0.887991 0.166765 0.319044
O O6 0.879985 0.999287 0.157377
O O7 0.836391 0.927235 0.244817
O O8 0.000000 0.000000 0.500000
O O9 0.500000 0.893898 0.750000
O O10 0.372709 0.851760 0.417171
O O11 0.334218 0.890670 0.523802
O O12 0.621840 0.389581 0.512464
O O13 0.750000 0.250000 0.500000
O O14 0.000000 0.044468 0.250000
#
# Coordination Sequence:
#
# PCOD8152471 Si02
#       6
#     8   8   8   8   8   8
#     4  11  22  45  64  92 135 169 208 274 333 378
#     4  12  23  40  70 101 124 168 233 267 313 395
#     4  11  24  42  66  94 134 173 213 265 335 389
#     4  11  22  42  65  96 125 171 219 266 316 387
#     4  11  24  43  67  95 132 175 217 270 331 388
#     4  12  23  42  70  94 128 172 214 274 323 378
#
# _framework density 20.91497
#
# number of rings (size 3 to 8) (size 9 to 14) (size 15 to 20)
#    0.000    0.667    5.000    4.000    2.333    0.667 
#    3.000    0.833    0.000    0.000    0.000    0.000 
#    0.000    0.000    0.000    0.000    0.000    0.000 
#
# Total GULP energy -297381.885375 kJ/mol
# GULP energy per Si atom -12390.911891 kJ/mol
# Density = 2.086737 g / cm^3
# Si number density = 20.914970 Si / 1000 Ang^3
#
#
#
# Elastic Constant Matrix: (Units=GPa)
#
#
# Indices 1 2 3 4 5 6 
#
# 1 93.8200 1.8028 25.1916 0.0000 9.7099 0.0000
# 2 1.8028 86.2428 6.8095 0.0000 11.6391 0.0000
# 3 25.1916 6.8095 89.6952 0.0000 24.7070 0.0000
# 4 0.0000 0.0000 0.0000 31.7000 0.0000 3.6559
# 5 9.7099 11.6391 24.7070 0.0000 50.6490 0.0000
# 6 0.0000 0.0000 0.0000 3.6559 0.0000 28.6760
#
#
#
# Elastic Compliance Matrix: (Units=1/GPa)
#
#
# Indices 1 2 3 4 5 6 
#
# 1 0.011552 0.000100 -0.003045 0.000000 -0.000752 0.000000
# 2 0.000100 0.011970 -0.000201 0.000000 -0.002672 0.000000
# 3 -0.003045 -0.000201 0.013685 0.000000 -0.006046 0.000000
# 4 0.000000 0.000000 0.000000 0.032016 0.000000 -0.004082
# 5 -0.000752 -0.002672 -0.006046 0.000000 0.023451 0.000000
# 6 0.000000 0.000000 0.000000 -0.004082 0.000000 0.035393
#
#
# Mechanical properties :
#
#
# Convention : Reuss Voigt Hill
#
# Bulk Modulus (GPa) = 32.34615 37.48508 34.91562
# Shear Modulus (GPa) = 34.56319 37.93527 36.24923
#
# Velocity S-wave (km/s) = 4.06958 4.26348 4.16765
# Velocity P-wave (km/s) = 6.13034 6.49599 6.31581
#
# Compressibility (1/GPa) = 0.03091558
#
# Stress axis : x y z
#
# Youngs Moduli (GPa) = 86.56334 83.54550 73.07488
#
# Poissons Ratio (x) = -0.00839 0.22251
# Poissons Ratio (y) = -0.00870 0.01468
# Poissons Ratio (z) = 0.26358 0.01679
#
# Static dielectric constant tensor:
#      x y z
#    x 4.158160 0.000000 0.027470 
#    y 0.000000 3.787000 0.000000 
#    z 0.027470 0.000000 3.850120 
# 
# 
# High freq. dielectric constant tensor:
#      x y z
#    x 1.822340 0.000000 0.013560 
#    y 0.000000 1.820120 0.000000 
#    z 0.013560 0.000000 1.826660 
# 
# From -- ./inp_files/181820.got.cif
#   From: 2010.06.25/outbox.cif.g09.slc.cpg/sg15_91_cif.got.tgz:181820.got - 2010.06.28 07:06:18.
