data_PCOD8152294
_publ_section_title
;
Structure prediction by ZEFSAII (Michael W. Deem and Ramdas Pophale) SiO2 
 PCOD8152294
Probable space group: C 2/C
;
_chemical_formula_sum "Si O2"
_cell_formula_units_Z 60
_cell_length_a 13.079640
_cell_length_b 15.340114
_cell_length_c 25.745739
_cell_angle_alpha 90.000000
_cell_angle_beta 147.783624
_cell_angle_gamma 90.000000
_cell_volume 2753.931763
_symmetry_space_group_name_H-M "C 2/C"
_symmetry_group_IT_number 15
_symmetry_cell_setting 'monoclinic'
loop_
_space_group_symop_operation_xyz
x,y,z
-x,y,1/2-z
-x,-y,-z
x,-y,1/2+z
1/2+x,1/2+y,z
1/2-x,1/2+y,1/2-z
1/2-x,1/2-y,-z
1/2+x,1/2-y,1/2+z
loop_
_atom_site_type_symbol
_atom_site_label
_atom_site_fract_x
_atom_site_fract_y
_atom_site_fract_z
Si Si1 0.726311 0.554634 0.976117
Si Si2 0.044830 0.215246 0.646454
Si Si3 0.258814 0.367673 0.550029
Si Si4 0.026532 0.706874 0.654186
Si Si5 0.003544 0.328969 0.532684
Si Si6 0.000000 0.607359 0.750000
Si Si7 0.821475 0.281616 0.640589
Si Si8 0.716420 0.472190 0.589403
O O1 0.543724 0.618712 0.896108
O O2 0.659365 0.464817 0.920805
O O3 0.909531 0.591099 0.023463
O O4 0.790462 0.532197 0.062235
O O5 0.248401 0.213521 0.764234
O O6 0.076946 0.253732 0.603041
O O7 0.890989 0.277739 0.609964
O O8 0.433877 0.302736 0.614366
O O9 0.084594 0.353012 0.434750
O O10 0.184408 0.359752 0.577112
O O11 0.013566 0.666773 0.705582
O O12 0.853713 0.285171 0.427910
O O13 0.818188 0.544378 0.667948
O O14 0.754906 0.376939 0.630587
O O15 0.000000 0.246240 0.750000
O O16 0.500000 0.500000 0.500000
#
# Coordination Sequence:
#
# PCOD8152294 Si02
#       8
#     8   8   8   8   8   4   8   8
#     4  11  22  46  65 103 131 179 232 278 343 411
#     4  11  22  43  71  94 136 180 229 280 339 416
#     4  11  25  44  67  98 142 176 230 279 348 411
#     4  11  25  43  66  97 133 180 222 280 348 413
#     4  11  22  41  73  95 138 186 219 283 338 422
#     4  12  24  44  66  96 138 174 224 286 350 408
#     4  11  22  40  65  98 131 173 228 279 347 404
#     4  12  24  38  67 102 132 170 226 293 341 405
#
# _framework density 21.787032
#
# number of rings (size 3 to 8) (size 9 to 14) (size 15 to 20)
#    0.000    0.800    4.667    3.600    1.867    1.067 
#    4.800    0.000   14.667    0.000    0.000    0.000 
#    0.000    0.000    0.000    0.000    0.000    0.000 
#
# Total GULP energy -372117.344263 kJ/mol
# GULP energy per Si atom -12403.911475 kJ/mol
# Density = 2.173744 g / cm^3
# Si number density = 21.787032 Si / 1000 Ang^3
#
#
#
# Elastic Constant Matrix: (Units=GPa)
#
#
# Indices 1 2 3 4 5 6 
#
# 1 68.9364 29.5503 6.3147 -0.0004 0.2284 0.0000
# 2 29.5503 138.8181 32.9103 -0.0004 1.4620 -0.0001
# 3 6.3147 32.9103 100.5874 -0.0055 8.5546 -0.0012
# 4 -0.0004 -0.0004 -0.0055 23.4550 0.0000 -9.7897
# 5 0.2284 1.4620 8.5546 0.0000 30.7070 0.0001
# 6 0.0000 -0.0001 -0.0012 -9.7897 0.0001 19.4208
#
#
#
# Elastic Compliance Matrix: (Units=1/GPa)
#
#
# Indices 1 2 3 4 5 6 
#
# 1 0.015964 -0.003426 0.000118 0.000000 0.000012 0.000000
# 2 -0.003426 0.008548 -0.002611 -0.000001 0.000346 0.000000
# 3 0.000118 -0.002611 0.011040 0.000004 -0.002952 0.000003
# 4 0.000000 -0.000001 0.000004 0.053995 -0.000001 0.027218
# 5 0.000012 0.000346 -0.002952 -0.000001 0.033372 -0.000001
# 6 0.000000 0.000000 0.000003 0.027218 -0.000001 0.065211
#
#
# Mechanical properties :
#
#
# Convention : Reuss Voigt Hill
#
# Bulk Modulus (GPa) = 42.17151 49.54361 45.85756
# Shear Modulus (GPa) = 24.05303 30.68767 27.37035
#
# Velocity S-wave (km/s) = 3.32626 3.75711 3.54823
# Velocity P-wave (km/s) = 5.84383 6.45062 6.15471
#
# Compressibility (1/GPa) = 0.02371269
#
# Stress axis : x y z
#
# Youngs Moduli (GPa) = 62.64084 116.98032 90.58303
#
# Poissons Ratio (x) = 0.40081 -0.01068
# Poissons Ratio (y) = 0.21463 0.23653
# Poissons Ratio (z) = -0.00738 0.30546
#
# Static dielectric constant tensor:
#      x y z
#    x 3.910740 0.000000 -0.097330 
#    y 0.000000 3.973180 0.000000 
#    z -0.097330 0.000000 4.116730 
# 
# 
# High freq. dielectric constant tensor:
#      x y z
#    x 1.858740 0.000000 -0.003740 
#    y 0.000000 1.859220 0.000000 
#    z -0.003740 0.000000 1.854890 
# 
# From -- ./inp_files/296720.got.cif
#   From: 2010.06.25/outbox.cif.g09.slc.cpg/sg15_149_cif.got.tgz:296720.got - 2010.06.28 07:06:18.
