data_PCOD8152316
_publ_section_title
;
Structure prediction by ZEFSAII (Michael W. Deem and Ramdas Pophale) SiO2 
 PCOD8152316
Probable space group: C 2/C
;
_chemical_formula_sum "Si O2"
_cell_formula_units_Z 48
_cell_length_a 26.742564
_cell_length_b 13.774970
_cell_length_c 9.247380
_cell_angle_alpha 90.000000
_cell_angle_beta 139.987727
_cell_angle_gamma 90.000000
_cell_volume 2190.235171
_symmetry_space_group_name_H-M "C 2/C"
_symmetry_group_IT_number 15
_symmetry_cell_setting 'monoclinic'
loop_
_space_group_symop_operation_xyz
x,y,z
-x,y,1/2-z
-x,-y,-z
x,-y,1/2+z
1/2+x,1/2+y,z
1/2-x,1/2+y,1/2-z
1/2-x,1/2-y,-z
1/2+x,1/2-y,1/2+z
loop_
_atom_site_type_symbol
_atom_site_label
_atom_site_fract_x
_atom_site_fract_y
_atom_site_fract_z
Si Si1 0.115533 0.061195 0.957963
Si Si2 0.331368 0.104294 0.069115
Si Si3 0.421218 0.385191 0.802042
Si Si4 0.688521 0.717867 0.632621
Si Si5 0.921800 0.220261 0.845767
Si Si6 0.289721 0.061585 0.293964
O O1 0.112246 0.160799 0.863494
O O2 0.063129 0.979868 0.762254
O O3 0.081588 0.078886 0.040469
O O4 0.204848 0.025658 0.159333
O O5 0.272327 0.182081 0.869326
O O6 0.349137 0.016553 0.997349
O O7 0.409643 0.165117 0.281080
O O8 0.295296 0.057436 0.133776
O O9 0.339805 0.334558 0.576880
O O10 0.488259 0.304702 0.928915
O O11 0.625614 0.692129 0.616176
O O12 0.691671 0.831831 0.606024
#
# Coordination Sequence:
#
# PCOD8152316 Si02
#       6
#     8   8   8   8   8   8
#     4  12  22  40  63  97 134 161 205 261 317 382
#     4  11  22  42  66  90 131 164 211 264 306 376
#     4  12  26  38  64  97 131 168 205 256 323 380
#     4  11  22  42  65  92 126 171 208 261 309 377
#     4  11  23  43  60  89 132 170 206 255 320 374
#     4  11  22  40  67  96 124 168 214 256 314 364
#
# _framework density 21.915455999999999
#
# number of rings (size 3 to 8) (size 9 to 14) (size 15 to 20)
#    0.000    0.667    5.000    4.500    0.000    3.333 
#    0.000    0.833    0.000    2.000    0.000    0.000 
#    0.000    0.000    0.000    0.000    0.000    0.000 
#
# Total GULP energy -297690.213405 kJ/mol
# GULP energy per Si atom -12403.758892 kJ/mol
# Density = 2.186558 g / cm^3
# Si number density = 21.915456 Si / 1000 Ang^3
#
#
#
# Elastic Constant Matrix: (Units=GPa)
#
#
# Indices 1 2 3 4 5 6 
#
# 1 74.3741 50.5865 46.3030 0.0000 1.6363 0.0000
# 2 50.5865 138.5700 46.1468 0.0000 -16.8090 0.0000
# 3 46.3030 46.1468 67.8521 0.0000 -7.9491 0.0000
# 4 0.0000 0.0000 0.0000 52.4594 0.0000 -3.8772
# 5 1.6363 -16.8090 -7.9491 0.0000 25.3815 0.0000
# 6 0.0000 0.0000 0.0000 -3.8772 0.0000 25.1716
#
#
#
# Elastic Compliance Matrix: (Units=1/GPa)
#
#
# Indices 1 2 3 4 5 6 
#
# 1 0.027920 -0.006136 -0.016159 0.000000 -0.010925 0.000000
# 2 -0.006136 0.011165 -0.002589 0.000000 0.006979 0.000000
# 3 -0.016159 -0.002589 0.028492 0.000000 0.008251 0.000000
# 4 0.000000 0.000000 0.000000 0.019282 0.000000 0.002970
# 5 -0.010925 0.006979 0.008251 0.000000 0.047309 0.000000
# 6 0.000000 0.000000 0.000000 0.002970 0.000000 0.040185
#
#
# Mechanical properties :
#
#
# Convention : Reuss Voigt Hill
#
# Bulk Modulus (GPa) = 56.15060 62.98542 59.56801
# Shear Modulus (GPa) = 21.73363 29.78648 25.76006
#
# Velocity S-wave (km/s) = 3.15255 3.69067 3.43217
# Velocity P-wave (km/s) = 6.23927 6.85303 6.55334
#
# Compressibility (1/GPa) = 0.01780925
#
# Stress axis : x y z
#
# Youngs Moduli (GPa) = 35.81681 89.56313 35.09708
#
# Poissons Ratio (x) = 0.54958 0.56715
# Poissons Ratio (y) = 0.21978 0.09085
# Poissons Ratio (z) = 0.57878 0.23184
#
# Static dielectric constant tensor:
#      x y z
#    x 3.671580 0.000000 -0.143830 
#    y 0.000000 4.032790 0.000000 
#    z -0.143830 0.000000 3.992360 
# 
# 
# High freq. dielectric constant tensor:
#      x y z
#    x 1.838070 0.000000 -0.017950 
#    y 0.000000 1.870430 0.000000 
#    z -0.017950 0.000000 1.864710 
# 
# From -- ./inp_files/66483.got.cif
#   From: 2010.06.25/outbox.cif.g09.slc.cpg/sg15_34_cif.got.tgz:66483.got - 2010.06.28 07:06:18.
