data_PCOD8152877
_publ_section_title
;
Structure prediction by ZEFSAII (Michael W. Deem and Ramdas Pophale) SiO2 
 PCOD8152877
Probable space group: C 2/C
;
_chemical_formula_sum "Si O2"
_cell_formula_units_Z 32
_cell_length_a 12.875376
_cell_length_b 24.886325
_cell_length_c 4.896076
_cell_angle_alpha 90.000000
_cell_angle_beta 107.070544
_cell_angle_gamma 90.000000
_cell_volume 1499.689382
_symmetry_space_group_name_H-M "C 2/C"
_symmetry_group_IT_number 15
_symmetry_cell_setting 'monoclinic'
loop_
_space_group_symop_operation_xyz
x,y,z
-x,y,1/2-z
-x,-y,-z
x,-y,1/2+z
1/2+x,1/2+y,z
1/2-x,1/2+y,1/2-z
1/2-x,1/2-y,-z
1/2+x,1/2-y,1/2+z
loop_
_atom_site_type_symbol
_atom_site_label
_atom_site_fract_x
_atom_site_fract_y
_atom_site_fract_z
Si Si1 0.234714 0.813007 0.493473
Si Si2 0.753292 0.035946 0.821736
Si Si3 0.427881 0.114684 0.939115
Si Si4 0.623719 0.638874 0.428551
O O1 0.250000 0.750000 0.500000
O O2 0.345960 0.839785 0.478354
O O3 0.204506 0.836595 0.765047
O O4 0.137101 0.826353 0.212054
O O5 0.635821 0.064393 0.744194
O O6 0.765346 0.016269 0.520029
O O7 0.847246 0.077422 0.977917
O O8 0.500000 0.139476 0.750000
O O9 0.500000 0.095034 0.250000
O O10 0.500000 0.642330 0.250000
#
# Coordination Sequence:
#
# PCOD8152877 Si02
#       4
#     8   8   8   8
#     4  11  24  43  65  93 127 162 205 256 307 366
#     4  11  23  40  62  90 124 162 206 254 305 364
#     4  11  23  40  62  91 126 162 205 254 305 366
#     4  11  24  43  65  93 126 161 207 257 306 365
#
# _framework density 21.337754
#
# number of rings (size 3 to 8) (size 9 to 14) (size 15 to 20)
#    0.000    1.000    0.000    9.000    0.000    7.000 
#    0.000    0.000    0.000    0.000    0.000    0.000 
#    0.000    0.000    0.000    0.000    0.000    0.000 
#
# Total GULP energy -198443.765375 kJ/mol
# GULP energy per Si atom -12402.735336 kJ/mol
# Density = 2.128919 g / cm^3
# Si number density = 21.337754 Si / 1000 Ang^3
#
#
#
# Elastic Constant Matrix: (Units=GPa)
#
#
# Indices 1 2 3 4 5 6 
#
# 1 61.3631 22.6636 0.7461 0.0000 3.1922 0.0000
# 2 22.6636 133.2185 28.6400 0.0000 4.7578 0.0000
# 3 0.7461 28.6400 91.9606 0.0000 4.6707 0.0000
# 4 0.0000 0.0000 0.0000 21.2759 0.0000 -5.4744
# 5 3.1922 4.7578 4.6707 0.0000 47.0402 0.0000
# 6 0.0000 0.0000 0.0000 -5.4744 0.0000 12.5514
#
#
#
# Elastic Compliance Matrix: (Units=1/GPa)
#
#
# Indices 1 2 3 4 5 6 
#
# 1 0.017492 -0.003131 0.000882 0.000000 -0.000958 0.000000
# 2 -0.003131 0.008621 -0.002639 0.000000 -0.000397 0.000000
# 3 0.000882 -0.002639 0.011738 0.000000 -0.000958 0.000000
# 4 0.000000 0.000000 0.000000 0.052943 0.000000 0.023092
# 5 -0.000958 -0.000397 -0.000958 0.000000 0.021459 0.000000
# 6 0.000000 0.000000 0.000000 0.023092 0.000000 0.089744
#
#
# Mechanical properties :
#
#
# Convention : Reuss Voigt Hill
#
# Bulk Modulus (GPa) = 35.62087 43.40461 39.51274
# Shear Modulus (GPa) = 22.61105 31.80636 27.20870
#
# Velocity S-wave (km/s) = 3.25879 3.86504 3.57479
# Velocity P-wave (km/s) = 5.55785 6.34853 5.96630
#
# Compressibility (1/GPa) = 0.02807343
#
# Stress axis : x y z
#
# Youngs Moduli (GPa) = 57.16895 115.99932 85.19557
#
# Poissons Ratio (x) = 0.36322 -0.07514
# Poissons Ratio (y) = 0.17901 0.22485
# Poissons Ratio (z) = -0.05042 0.30615
#
# Static dielectric constant tensor:
#      x y z
#    x 3.746800 0.000000 -0.020240 
#    y 0.000000 3.772390 0.000000 
#    z -0.020240 0.000000 4.312210 
# 
# 
# High freq. dielectric constant tensor:
#      x y z
#    x 1.831990 0.000000 0.000400 
#    y 0.000000 1.832630 0.000000 
#    z 0.000400 0.000000 1.868330 
# 
# From -- ./inp_files/3971.got.cif
#   From: 2010.06.25/outbox.cif.g09.slc.cpg/sg15_2_cif.got.tgz:3971.got - 2010.06.28 07:06:18.
