data_PCOD8152273
_publ_section_title
;
Structure prediction by ZEFSAII (Michael W. Deem and Ramdas Pophale) SiO2 
 PCOD8152273
Probable space group: C 2/C
;
_chemical_formula_sum "Si O2"
_cell_formula_units_Z 56
_cell_length_a 30.800668
_cell_length_b 7.530782
_cell_length_c 11.274396
_cell_angle_alpha 90.000000
_cell_angle_beta 112.856004
_cell_angle_gamma 90.000000
_cell_volume 2409.801461
_symmetry_space_group_name_H-M "C 2/C"
_symmetry_group_IT_number 15
_symmetry_cell_setting 'monoclinic'
loop_
_space_group_symop_operation_xyz
x,y,z
-x,y,1/2-z
-x,-y,-z
x,-y,1/2+z
1/2+x,1/2+y,z
1/2-x,1/2+y,1/2-z
1/2-x,1/2-y,-z
1/2+x,1/2-y,1/2+z
loop_
_atom_site_type_symbol
_atom_site_label
_atom_site_fract_x
_atom_site_fract_y
_atom_site_fract_z
Si Si1 0.343252 0.285655 0.199650
Si Si2 0.309301 0.819060 0.331618
Si Si3 0.972325 0.488864 0.096118
Si Si4 0.810261 0.849478 0.590612
Si Si5 0.391426 0.697246 0.992023
Si Si6 0.401798 0.711226 0.535159
Si Si7 0.258631 0.048845 0.137176
O O1 0.322814 0.482152 0.185791
O O2 0.364280 0.232361 0.348067
O O3 0.386076 0.280118 0.153988
O O4 0.300691 0.153878 0.114880
O O5 0.303773 0.801188 0.181866
O O6 0.364095 0.827560 0.419404
O O7 0.287152 0.671381 0.392331
O O8 0.277275 0.998260 0.292992
O O9 0.950169 0.684990 0.076244
O O10 0.000000 0.464108 0.250000
O O11 0.936063 0.324197 0.058923
O O12 0.000000 0.500000 0.000000
O O13 0.854636 0.787767 0.559615
O O14 0.763143 0.888809 0.465027
O O15 0.407769 0.490733 0.994962
#
# Coordination Sequence:
#
# PCOD8152273 Si02
#       7
#     8   8   8   8   8   8   8
#     4  11  22  42  66  98 144 186 238 278 332 405
#     4  12  24  39  61  98 140 188 242 281 339 396
#     4  12  30  51  80 111 136 171 236 301 376 454
#     4  11  22  40  63  95 138 187 239 280 332 404
#     4  11  24  47  74 100 141 183 225 291 356 425
#     4  11  26  45  74 102 140 187 224 290 361 420
#     4  12  24  36  62  98 144 194 240 289 316 396
#
# _framework density 23.238430999999999
#
# number of rings (size 3 to 8) (size 9 to 14) (size 15 to 20)
#    0.000    0.571    4.286    4.286    6.000    1.143 
#    0.000    0.000    0.000    0.000    0.000    0.000 
#    0.000    0.000    0.000    0.000    0.000    0.000 
#
# Total GULP energy -346996.526213 kJ/mol
# GULP energy per Si atom -12392.733079 kJ/mol
# Density = 2.318554 g / cm^3
# Si number density = 23.238431 Si / 1000 Ang^3
#
#
#
# Elastic Constant Matrix: (Units=GPa)
#
#
# Indices 1 2 3 4 5 6 
#
# 1 89.6145 41.5105 35.1759 0.0000 10.8864 0.0000
# 2 41.5105 60.1991 19.5962 0.0000 7.2583 0.0000
# 3 35.1759 19.5962 126.4273 0.0000 16.4035 0.0000
# 4 0.0000 0.0000 0.0000 43.7955 0.0000 11.0658
# 5 10.8864 7.2583 16.4035 0.0000 33.5782 0.0000
# 6 0.0000 0.0000 0.0000 11.0658 0.0000 41.7797
#
#
#
# Elastic Compliance Matrix: (Units=1/GPa)
#
#
# Indices 1 2 3 4 5 6 
#
# 1 0.017630 -0.010965 -0.002959 0.000000 -0.001900 0.000000
# 2 -0.010965 0.024532 -0.000561 0.000000 -0.001474 0.000000
# 3 -0.002959 -0.000561 0.009267 0.000000 -0.003447 0.000000
# 4 0.000000 0.000000 0.000000 0.024471 0.000000 -0.006481
# 5 -0.001900 -0.001474 -0.003447 0.000000 0.032400 0.000000
# 6 0.000000 0.000000 0.000000 -0.006481 0.000000 0.025652
#
#
# Mechanical properties :
#
#
# Convention : Reuss Voigt Hill
#
# Bulk Modulus (GPa) = 44.52153 52.08958 48.30555
# Shear Modulus (GPa) = 29.34133 35.82788 32.58461
#
# Velocity S-wave (km/s) = 3.55719 3.93077 3.74864
# Velocity P-wave (km/s) = 6.00597 6.56241 6.29035
#
# Compressibility (1/GPa) = 0.02246105
#
# Stress axis : x y z
#
# Youngs Moduli (GPa) = 56.72074 40.76233 107.90875
#
# Poissons Ratio (x) = 0.44694 0.31932
# Poissons Ratio (y) = 0.62192 0.06049
# Poissons Ratio (z) = 0.16785 0.02285
#
# Static dielectric constant tensor:
#      x y z
#    x 4.039160 0.000000 -0.026560 
#    y 0.000000 4.396320 0.000000 
#    z -0.026560 0.000000 4.236590 
# 
# 
# High freq. dielectric constant tensor:
#      x y z
#    x 1.908300 0.000000 -0.003940 
#    y 0.000000 1.936080 0.000000 
#    z -0.003940 0.000000 1.934150 
# 
# From -- ./inp_files/125965.got.cif
#   From: 2010.06.25/outbox.cif.g09.slc.cpg/sg15_63_cif.got.tgz:125965.got - 2010.06.28 07:06:18.
