data_PCOD8152514
_publ_section_title
;
Structure prediction by ZEFSAII (Michael W. Deem and Ramdas Pophale) SiO2 
 PCOD8152514
Probable space group: C 2/C
;
_chemical_formula_sum "Si O2"
_cell_formula_units_Z 40
_cell_length_a 14.831065
_cell_length_b 7.380489
_cell_length_c 14.472356
_cell_angle_alpha 90.000000
_cell_angle_beta 74.635450
_cell_angle_gamma 90.000000
_cell_volume 1527.533171
_symmetry_space_group_name_H-M "C 2/C"
_symmetry_group_IT_number 15
_symmetry_cell_setting 'monoclinic'
loop_
_space_group_symop_operation_xyz
x,y,z
-x,y,1/2-z
-x,-y,-z
x,-y,1/2+z
1/2+x,1/2+y,z
1/2-x,1/2+y,1/2-z
1/2-x,1/2-y,-z
1/2+x,1/2-y,1/2+z
loop_
_atom_site_type_symbol
_atom_site_label
_atom_site_fract_x
_atom_site_fract_y
_atom_site_fract_z
Si Si1 0.064203 0.340383 0.020508
Si Si2 0.599299 0.453134 0.018077
Si Si3 0.919432 0.625366 0.345080
Si Si4 0.784000 0.196770 0.172743
Si Si5 0.247316 0.421491 0.877974
O O1 0.085559 0.417125 0.117451
O O2 0.162041 0.303743 0.941426
O O3 0.000000 0.500000 0.000000
O O4 0.023012 0.128523 0.033515
O O5 0.648270 0.427067 0.905954
O O6 0.677644 0.533501 0.064951
O O7 0.560765 0.267027 0.075112
O O8 0.823678 0.665623 0.321038
O O9 0.000000 0.653501 0.250000
O O10 0.808534 0.402217 0.142273
O O11 0.800217 0.170267 0.277402
#
# Coordination Sequence:
#
# PCOD8152514 Si02
#       5
#     8   8   8   8   8
#     4  12  25  43  67 102 140 183 233 300 362 427
#     4  11  24  47  72  96 143 190 239 297 359 431
#     4  11  24  45  65 100 148 179 235 303 360 425
#     4  11  22  42  72 102 136 188 249 297 354 435
#     4  11  22  42  70 102 135 187 242 298 362 424
#
# _framework density 26.186011000000001
#
# number of rings (size 3 to 8) (size 9 to 14) (size 15 to 20)
#    0.000    0.800    4.000    4.200    2.800    3.200 
#    7.200    0.000    0.000    0.000    0.000    0.000 
#    0.000    0.000    0.000    0.000    0.000    0.000 
#
# Total GULP energy -247950.181806 kJ/mol
# GULP energy per Si atom -12397.509090 kJ/mol
# Density = 2.612641 g / cm^3
# Si number density = 26.186011 Si / 1000 Ang^3
#
#
#
# Elastic Constant Matrix: (Units=GPa)
#
#
# Indices 1 2 3 4 5 6 
#
# 1 70.8446 26.7928 55.7024 0.0000 -21.1032 0.0000
# 2 26.7928 175.6648 38.2512 0.0000 -7.7431 0.0000
# 3 55.7024 38.2512 189.2663 0.0000 -25.4821 0.0000
# 4 0.0000 0.0000 0.0000 30.7305 0.0000 7.9057
# 5 -21.1032 -7.7431 -25.4821 0.0000 40.3910 0.0000
# 6 0.0000 0.0000 0.0000 7.9057 0.0000 37.0834
#
#
#
# Elastic Compliance Matrix: (Units=1/GPa)
#
#
# Indices 1 2 3 4 5 6 
#
# 1 0.020757 -0.001804 -0.004733 0.000000 0.007513 0.000000
# 2 -0.001804 0.006118 -0.000737 0.000000 -0.000235 0.000000
# 3 -0.004733 -0.000737 0.007074 0.000000 0.001849 0.000000
# 4 0.000000 0.000000 0.000000 0.034429 0.000000 -0.007340
# 5 0.007513 -0.000235 0.001849 0.000000 0.029805 0.000000
# 6 0.000000 0.000000 0.000000 -0.007340 0.000000 0.028531
#
#
# Mechanical properties :
#
#
# Convention : Reuss Voigt Hill
#
# Bulk Modulus (GPa) = 51.54291 75.25205 63.39748
# Shear Modulus (GPa) = 33.84559 42.64291 38.24425
#
# Velocity S-wave (km/s) = 3.59904 4.03980 3.82577
# Velocity P-wave (km/s) = 6.08251 7.11054 6.61652
#
# Compressibility (1/GPa) = 0.01940131
#
# Stress axis : x y z
#
# Youngs Moduli (GPa) = 48.17662 163.45234 141.35547
#
# Poissons Ratio (x) = 0.29490 0.66900
# Poissons Ratio (y) = 0.08692 0.10419
# Poissons Ratio (z) = 0.22801 0.12048
#
# Static dielectric constant tensor:
#      x y z
#    x 5.060840 0.000000 0.423830 
#    y 0.000000 7.376080 0.000000 
#    z 0.423830 0.000000 4.973550 
# 
# 
# High freq. dielectric constant tensor:
#      x y z
#    x 2.075920 0.000000 0.015290 
#    y 0.000000 2.079470 0.000000 
#    z 0.015290 0.000000 2.046870 
# 
# From -- ./inp_files/217434.got.cif
#   From: 2010.06.25/outbox.cif.g09.slc.cpg/sg15_109_cif.got.tgz:217434.got - 2010.06.28 07:06:18.
