data_PCOD8152511
_publ_section_title
;
Structure prediction by ZEFSAII (Michael W. Deem and Ramdas Pophale) SiO2 
 PCOD8152511
Probable space group: C 2/C
;
_chemical_formula_sum "Si O2"
_cell_formula_units_Z 44
_cell_length_a 11.648570
_cell_length_b 15.019993
_cell_length_c 11.044212
_cell_angle_alpha 90.000000
_cell_angle_beta 96.869008
_cell_angle_gamma 90.000000
_cell_volume 1918.441452
_symmetry_space_group_name_H-M "C 2/C"
_symmetry_group_IT_number 15
_symmetry_cell_setting 'monoclinic'
loop_
_space_group_symop_operation_xyz
x,y,z
-x,y,1/2-z
-x,-y,-z
x,-y,1/2+z
1/2+x,1/2+y,z
1/2-x,1/2+y,1/2-z
1/2-x,1/2-y,-z
1/2+x,1/2-y,1/2+z
loop_
_atom_site_type_symbol
_atom_site_label
_atom_site_fract_x
_atom_site_fract_y
_atom_site_fract_z
Si Si1 0.654493 0.876794 0.124521
Si Si2 0.876399 0.571492 0.363844
Si Si3 0.674428 0.334824 0.963255
Si Si4 0.118108 0.851056 0.226271
Si Si5 0.886316 0.662660 0.134419
Si Si6 0.500000 0.740001 0.250000
O O1 0.770295 0.902825 0.211793
O O2 0.584512 0.801214 0.183700
O O3 0.583260 0.969554 0.107582
O O4 0.690008 0.838165 0.996744
O O5 0.765684 0.589857 0.434381
O O6 0.842198 0.584333 0.217832
O O7 0.983045 0.640574 0.398095
O O8 0.577487 0.320873 0.847849
O O9 0.750000 0.250000 0.000000
O O10 0.612071 0.356461 0.080832
O O11 0.000000 0.900199 0.250000
O O12 0.878999 0.753492 0.209920
#
# Coordination Sequence:
#
# PCOD8152511 Si02
#       6
#     8   8   8   8   8   4
#     4  12  26  39  70 102 136 168 231 275 339 389
#     4  11  24  42  66 101 138 175 209 295 333 386
#     4  12  23  45  68  97 140 173 229 269 333 401
#     4  12  24  45  68  95 133 187 219 276 324 405
#     4  11  22  42  69  97 137 174 228 269 339 392
#     4  12  24  40  72 106 124 184 222 276 330 404
#
# _framework density 22.935283999999999
#
# number of rings (size 3 to 8) (size 9 to 14) (size 15 to 20)
#    0.000    0.364    5.455    4.364    2.545    1.455 
#    1.636    0.909    0.000    0.000    0.000    0.000 
#    0.000    0.000    0.000    0.000    0.000    0.000 
#
# Total GULP energy -272660.750959 kJ/mol
# GULP energy per Si atom -12393.670498 kJ/mol
# Density = 2.288308 g / cm^3
# Si number density = 22.935284 Si / 1000 Ang^3
#
#
#
# Elastic Constant Matrix: (Units=GPa)
#
#
# Indices 1 2 3 4 5 6 
#
# 1 97.1264 12.7716 29.6664 0.0000 -18.3671 0.0000
# 2 12.7716 50.8533 17.2988 0.0000 -4.3854 0.0000
# 3 29.6664 17.2988 161.9343 0.0000 -14.5155 0.0000
# 4 0.0000 0.0000 0.0000 22.6921 0.0000 0.5263
# 5 -18.3671 -4.3854 -14.5155 0.0000 45.6322 0.0000
# 6 0.0000 0.0000 0.0000 0.5263 0.0000 18.8690
#
#
#
# Elastic Compliance Matrix: (Units=1/GPa)
#
#
# Indices 1 2 3 4 5 6 
#
# 1 0.011819 -0.002081 -0.001579 0.000000 0.004055 0.000000
# 2 -0.002081 0.020848 -0.001792 0.000000 0.000596 0.000000
# 3 -0.001579 -0.001792 0.006777 0.000000 0.001348 0.000000
# 4 0.000000 0.000000 0.000000 0.044097 0.000000 -0.001230
# 5 0.004055 0.000596 0.001348 0.000000 0.024032 0.000000
# 6 0.000000 0.000000 0.000000 -0.001230 0.000000 0.053031
#
#
# Mechanical properties :
#
#
# Convention : Reuss Voigt Hill
#
# Bulk Modulus (GPa) = 35.04146 47.70973 41.37559
# Shear Modulus (GPa) = 27.62079 34.11715 30.86897
#
# Velocity S-wave (km/s) = 3.47406 3.86105 3.67265
# Velocity P-wave (km/s) = 5.60390 6.38153 6.00532
#
# Compressibility (1/GPa) = 0.02853763
#
# Stress axis : x y z
#
# Youngs Moduli (GPa) = 84.61164 47.96572 147.55836
#
# Poissons Ratio (x) = 0.09983 0.23305
# Poissons Ratio (y) = 0.17610 0.26449
# Poissons Ratio (z) = 0.13364 0.08598
#
# Static dielectric constant tensor:
#      x y z
#    x 4.384330 0.000000 0.061270 
#    y 0.000000 3.933740 0.000000 
#    z 0.061270 0.000000 4.606610 
# 
# 
# High freq. dielectric constant tensor:
#      x y z
#    x 1.903650 0.000000 -0.005780 
#    y 0.000000 1.875480 0.000000 
#    z -0.005780 0.000000 1.929550 
# 
# From -- ./inp_files/86147.got.cif
#   From: 2010.06.25/outbox.cif.g09.slc.cpg/sg15_44_cif.got.tgz:86147.got - 2010.06.28 07:06:18.
