data_PCOD8152413
_publ_section_title
;
Structure prediction by ZEFSAII (Michael W. Deem and Ramdas Pophale) SiO2 
 PCOD8152413
Probable space group: C 2/C
;
_chemical_formula_sum "Si O2"
_cell_formula_units_Z 40
_cell_length_a 19.631588
_cell_length_b 11.183106
_cell_length_c 13.086324
_cell_angle_alpha 90.000000
_cell_angle_beta 138.730100
_cell_angle_gamma 90.000000
_cell_volume 1895.050267
_symmetry_space_group_name_H-M "C 2/C"
_symmetry_group_IT_number 15
_symmetry_cell_setting 'monoclinic'
loop_
_space_group_symop_operation_xyz
x,y,z
-x,y,1/2-z
-x,-y,-z
x,-y,1/2+z
1/2+x,1/2+y,z
1/2-x,1/2+y,1/2-z
1/2-x,1/2-y,-z
1/2+x,1/2-y,1/2+z
loop_
_atom_site_type_symbol
_atom_site_label
_atom_site_fract_x
_atom_site_fract_y
_atom_site_fract_z
Si Si1 0.336798 0.076305 0.828609
Si Si2 0.604758 0.795134 0.408802
Si Si3 0.440822 0.818693 0.926276
Si Si4 0.718696 0.422686 0.982925
Si Si5 0.801955 0.162142 0.637895
O O1 0.266213 0.092750 0.649458
O O2 0.271272 0.115366 0.853593
O O3 0.376593 0.940995 0.866906
O O4 0.436897 0.162026 0.944621
O O5 0.500000 0.855703 0.250000
O O6 0.586509 0.747360 0.502090
O O7 0.632958 0.679878 0.372023
O O8 0.690653 0.898630 0.497317
O O9 0.402191 0.733993 0.790920
O O10 0.665534 0.548111 0.894737
O O11 0.750000 0.250000 0.500000
#
# Coordination Sequence:
#
# PCOD8152413 Si02
#       5
#     8   8   8   8   8
#     4  11  23  42  68  95 131 181 223 269 337 406
#     4  11  22  41  68  95 128 179 230 270 324 411
#     4  11  23  41  69  99 131 175 229 276 330 406
#     4  11  23  41  67  95 134 179 223 271 338 399
#     4  12  25  43  67 103 140 170 221 293 341 394
#
# _framework density 21.107620000000001
#
# number of rings (size 3 to 8) (size 9 to 14) (size 15 to 20)
#    0.000    0.800    8.000    0.000    0.000    0.800 
#    3.600    1.000    0.000    0.000    0.000    0.000 
#    0.000    0.000    0.000    0.000    0.000    0.000 
#
# Total GULP energy -247825.837626 kJ/mol
# GULP energy per Si atom -12391.291881 kJ/mol
# Density = 2.105958 g / cm^3
# Si number density = 21.107620 Si / 1000 Ang^3
#
#
#
# Elastic Constant Matrix: (Units=GPa)
#
#
# Indices 1 2 3 4 5 6 
#
# 1 61.4106 26.4428 31.0841 0.0000 -0.2478 0.0000
# 2 26.4428 114.3046 34.8919 0.0000 0.7793 0.0000
# 3 31.0841 34.8919 106.7842 0.0000 -10.5244 0.0000
# 4 0.0000 0.0000 0.0000 44.6699 0.0000 -5.4881
# 5 -0.2478 0.7793 -10.5244 0.0000 31.4349 0.0000
# 6 0.0000 0.0000 0.0000 -5.4881 0.0000 23.1922
#
#
#
# Elastic Compliance Matrix: (Units=1/GPa)
#
#
# Indices 1 2 3 4 5 6 
#
# 1 0.020148 -0.003130 -0.004983 0.000000 -0.001432 0.000000
# 2 -0.003130 0.010260 -0.002553 0.000000 -0.001134 0.000000
# 3 -0.004983 -0.002553 0.012049 0.000000 0.004058 0.000000
# 4 0.000000 0.000000 0.000000 0.023057 0.000000 0.005456
# 5 -0.001432 -0.001134 0.004058 0.000000 0.033187 0.000000
# 6 0.000000 0.000000 0.000000 0.005456 0.000000 0.044409
#
#
# Mechanical properties :
#
#
# Convention : Reuss Voigt Hill
#
# Bulk Modulus (GPa) = 47.33828 51.92634 49.63231
# Shear Modulus (GPa) = 29.15708 32.53143 30.84425
#
# Velocity S-wave (km/s) = 3.72069 3.93009 3.82682
# Velocity P-wave (km/s) = 6.39795 6.72669 6.56438
#
# Compressibility (1/GPa) = 0.02112455
#
# Stress axis : x y z
#
# Youngs Moduli (GPa) = 49.63206 97.46890 82.99121
#
# Poissons Ratio (x) = 0.30508 0.41358
# Poissons Ratio (y) = 0.15535 0.21187
# Poissons Ratio (z) = 0.24734 0.24884
#
# Static dielectric constant tensor:
#      x y z
#    x 3.799380 0.000000 -0.117480 
#    y 0.000000 3.922120 0.000000 
#    z -0.117480 0.000000 4.012800 
# 
# 
# High freq. dielectric constant tensor:
#      x y z
#    x 1.825870 0.000000 -0.011080 
#    y 0.000000 1.826760 0.000000 
#    z -0.011080 0.000000 1.831830 
# 
# From -- ./inp_files/103945.got.cif
#   From: 2010.06.25/outbox.cif.g09.slc.cpg/sg15_52_cif.got.tgz:103945.got - 2010.06.28 07:06:18.
