data_PCOD8152072
_publ_section_title
;
Structure prediction by ZEFSAII (Michael W. Deem and Ramdas Pophale) SiO2 
 PCOD8152072
Probable space group: C 2/C
;
_chemical_formula_sum "Si O2"
_cell_formula_units_Z 52
_cell_length_a 17.236466
_cell_length_b 18.765885
_cell_length_c 14.300002
_cell_angle_alpha 90.000000
_cell_angle_beta 144.558053
_cell_angle_gamma 90.000000
_cell_volume 2682.191893
_symmetry_space_group_name_H-M "C 2/C"
_symmetry_group_IT_number 15
_symmetry_cell_setting 'monoclinic'
loop_
_space_group_symop_operation_xyz
x,y,z
-x,y,1/2-z
-x,-y,-z
x,-y,1/2+z
1/2+x,1/2+y,z
1/2-x,1/2+y,1/2-z
1/2-x,1/2-y,-z
1/2+x,1/2-y,1/2+z
loop_
_atom_site_type_symbol
_atom_site_label
_atom_site_fract_x
_atom_site_fract_y
_atom_site_fract_z
Si Si1 0.414613 0.445390 0.855687
Si Si2 0.445671 0.030356 0.294533
Si Si3 0.211072 0.883857 0.485572
Si Si4 0.681554 0.043039 0.664737
Si Si5 0.574995 0.693720 0.016748
Si Si6 0.222215 0.815290 0.299507
Si Si7 0.000000 0.996319 0.750000
O O1 0.262223 0.474161 0.707153
O O2 0.411373 0.365167 0.889313
O O3 0.483423 0.444519 0.821864
O O4 0.500000 0.500000 0.000000
O O5 0.500000 0.997533 0.250000
O O6 0.564947 0.060689 0.475718
O O7 0.371814 0.969492 0.282486
O O8 0.346951 0.095887 0.173483
O O9 0.114430 0.839049 0.456314
O O10 0.247265 0.835681 0.432168
O O11 0.133630 0.955806 0.381928
O O12 0.774290 0.112984 0.759675
O O13 0.667078 0.761074 0.130310
O O14 0.422514 0.720130 0.857635
#
# Coordination Sequence:
#
# PCOD8152072 Si02
#       7
#     8   8   8   8   8   8   4
#     4  12  20  41  68  93 124 168 224 275 318 383
#     4  11  22  35  62  95 125 166 210 270 324 378
#     4  12  20  39  62  95 129 167 210 265 331 393
#     4  11  22  39  62  89 129 165 218 262 323 393
#     4  12  26  40  64  93 135 177 214 268 338 394
#     4  12  25  41  60  96 133 176 213 268 333 407
#     4  12  20  36  72  98 120 160 234 270 316 376
#
# _framework density 19.387129000000002
#
# number of rings (size 3 to 8) (size 9 to 14) (size 15 to 20)
#    0.000    0.308    9.231    0.462    2.154    0.000 
#    0.000    0.000    1.692    0.923    0.000    0.000 
#    0.000    0.000    0.000    0.000    0.000    0.000 
#
# Total GULP energy -322458.466983 kJ/mol
# GULP energy per Si atom -12402.248730 kJ/mol
# Density = 1.934300 g / cm^3
# Si number density = 19.387129 Si / 1000 Ang^3
#
#
#
# Elastic Constant Matrix: (Units=GPa)
#
#
# Indices 1 2 3 4 5 6 
#
# 1 137.4902 42.8917 30.6975 0.0000 -8.9052 0.0000
# 2 42.8917 84.8986 38.2482 0.0000 -3.8393 0.0000
# 3 30.6975 38.2482 113.1217 0.0000 21.2015 0.0000
# 4 0.0000 0.0000 0.0000 30.3804 0.0000 8.1208
# 5 -8.9052 -3.8393 21.2015 0.0000 29.9805 0.0000
# 6 0.0000 0.0000 0.0000 8.1208 0.0000 37.6377
#
#
#
# Elastic Compliance Matrix: (Units=1/GPa)
#
#
# Indices 1 2 3 4 5 6 
#
# 1 0.009040 -0.003534 -0.001933 0.000000 0.003600 0.000000
# 2 -0.003534 0.016238 -0.005446 0.000000 0.004882 0.000000
# 3 -0.001933 -0.005446 0.013193 0.000000 -0.010602 0.000000
# 4 0.000000 0.000000 0.000000 0.034931 0.000000 -0.007537
# 5 0.003600 0.004882 -0.010602 0.000000 0.042547 0.000000
# 6 0.000000 0.000000 0.000000 -0.007537 0.000000 0.028195
#
#
# Mechanical properties :
#
#
# Convention : Reuss Voigt Hill
#
# Bulk Modulus (GPa) = 60.07638 62.13167 61.10402
# Shear Modulus (GPa) = 29.15124 34.51127 31.83126
#
# Velocity S-wave (km/s) = 3.88188 4.22372 4.05640
# Velocity P-wave (km/s) = 7.15172 7.47689 7.31611
#
# Compressibility (1/GPa) = 0.01664548
#
# Stress axis : x y z
#
# Youngs Moduli (GPa) = 110.61494 61.58231 75.79692
#
# Poissons Ratio (x) = 0.21760 0.14653
# Poissons Ratio (y) = 0.39086 0.41283
# Poissons Ratio (z) = 0.21384 0.33541
#
# Static dielectric constant tensor:
#      x y z
#    x 3.910970 0.000000 0.210400 
#    y 0.000000 3.351030 0.000000 
#    z 0.210400 0.000000 3.719130 
# 
# 
# High freq. dielectric constant tensor:
#      x y z
#    x 1.764280 0.000000 0.018890 
#    y 0.000000 1.721940 0.000000 
#    z 0.018890 0.000000 1.764570 
# 
# From -- ./inp_files/163659.got.cif
#   From: 2010.06.25/outbox.cif.g09.slc.cpg/sg15_82_cif.got.tgz:163659.got - 2010.06.28 07:06:18.
