data_PCOD8152476
_publ_section_title
;
Structure prediction by ZEFSAII (Michael W. Deem and Ramdas Pophale) SiO2 
 PCOD8152476
Probable space group: C 2/C
;
_chemical_formula_sum "Si O2"
_cell_formula_units_Z 60
_cell_length_a 12.938630
_cell_length_b 20.755061
_cell_length_c 17.657205
_cell_angle_alpha 90.000000
_cell_angle_beta 142.365703
_cell_angle_gamma 90.000000
_cell_volume 2895.374900
_symmetry_space_group_name_H-M "C 2/C"
_symmetry_group_IT_number 15
_symmetry_cell_setting 'monoclinic'
loop_
_space_group_symop_operation_xyz
x,y,z
-x,y,1/2-z
-x,-y,-z
x,-y,1/2+z
1/2+x,1/2+y,z
1/2-x,1/2+y,1/2-z
1/2-x,1/2-y,-z
1/2+x,1/2-y,1/2+z
loop_
_atom_site_type_symbol
_atom_site_label
_atom_site_fract_x
_atom_site_fract_y
_atom_site_fract_z
Si Si1 0.000000 0.231837 0.750000
Si Si2 0.565747 0.381413 0.381002
Si Si3 0.908292 0.444264 0.777096
Si Si4 0.036488 0.733891 0.001881
Si Si5 0.280286 0.333598 0.890708
Si Si6 0.375088 0.203432 0.746774
Si Si7 0.236391 0.428018 0.252356
Si Si8 0.622287 0.894645 0.033345
O O1 0.014937 0.189431 0.681441
O O2 0.835355 0.274330 0.654409
O O3 0.707309 0.378087 0.527952
O O4 0.425960 0.432349 0.327741
O O5 0.673369 0.396111 0.366523
O O6 0.792056 0.380225 0.716395
O O7 0.796788 0.508701 0.717458
O O8 0.000000 0.444138 0.750000
O O9 0.033535 0.440286 0.920868
O O10 0.960491 0.804548 0.973764
O O11 0.990539 0.721939 0.886720
O O12 0.235360 0.742170 0.140265
O O13 0.955238 0.677752 0.007777
O O14 0.500000 0.193643 0.750000
O O15 0.281994 0.135396 0.706944
O O16 0.103222 0.425829 0.105266
#
# Coordination Sequence:
#
# PCOD8152476 Si02
#       8
#     4   8   8   8   8   8   8   8
#     4  12  20  36  64 100 132 154 202 258 342 390
#     4  12  21  38  64  95 129 161 201 269 334 384
#     4  12  25  41  59  89 129 176 216 260 317 391
#     4  11  23  40  69  99 130 162 215 279 345 393
#     4  12  23  35  61  99 130 159 201 267 335 396
#     4  11  23  43  64  92 127 175 222 273 323 387
#     4  11  24  42  61  88 126 176 219 260 314 399
#     4  11  22  42  66  93 123 162 213 268 333 387
#
# _framework density 20.722705000000001
#
# number of rings (size 3 to 8) (size 9 to 14) (size 15 to 20)
#    0.000    0.533    6.000    3.200    1.867    0.533 
#    0.000    0.000    0.000    9.600    0.000    0.000 
#    0.000    0.000    0.000    0.000    0.000    0.000 
#
# Total GULP energy -371808.640793 kJ/mol
# GULP energy per Si atom -12393.621360 kJ/mol
# Density = 2.067554 g / cm^3
# Si number density = 20.722705 Si / 1000 Ang^3
#
#
#
# Elastic Constant Matrix: (Units=GPa)
#
#
# Indices 1 2 3 4 5 6 
#
# 1 95.0377 34.7602 35.4321 0.0000 1.7163 0.0002
# 2 34.7602 87.4788 28.5068 -0.0008 3.2604 -0.0002
# 3 35.4321 28.5068 95.0780 -0.0049 -2.6071 -0.0018
# 4 0.0000 -0.0008 -0.0049 26.6326 -0.0020 7.7032
# 5 1.7163 3.2604 -2.6071 -0.0020 27.0802 -0.0004
# 6 0.0002 -0.0002 -0.0018 7.7032 -0.0004 27.9475
#
#
#
# Elastic Compliance Matrix: (Units=1/GPa)
#
#
# Indices 1 2 3 4 5 6 
#
# 1 0.013446 -0.004074 -0.003809 -0.000001 -0.000728 0.000000
# 2 -0.004074 0.014002 -0.002726 0.000000 -0.001690 0.000000
# 3 -0.003809 -0.002726 0.012804 0.000002 0.001802 0.000000
# 4 -0.000001 0.000000 0.000002 0.040801 0.000003 -0.011246
# 5 -0.000728 -0.001690 0.001802 0.000003 0.037351 0.000000
# 6 0.000000 0.000000 0.000000 -0.011246 0.000000 0.038881
#
#
# Mechanical properties :
#
#
# Convention : Reuss Voigt Hill
#
# Bulk Modulus (GPa) = 52.54214 52.77696 52.65955
# Shear Modulus (GPa) = 27.04951 28.25843 27.65397
#
# Velocity S-wave (km/s) = 3.61682 3.69676 3.65701
# Velocity P-wave (km/s) = 6.54613 6.61399 6.58015
#
# Compressibility (1/GPa) = 0.01903234
#
# Stress axis : x y z
#
# Youngs Moduli (GPa) = 74.37389 71.42042 78.10092
#
# Poissons Ratio (x) = 0.29099 0.29749
# Poissons Ratio (y) = 0.30302 0.21291
# Poissons Ratio (z) = 0.28330 0.19469
#
# Static dielectric constant tensor:
#      x y z
#    x 3.998800 0.000000 -0.169180 
#    y 0.000000 3.561230 0.000000 
#    z -0.169180 0.000000 4.002400 
# 
# 
# High freq. dielectric constant tensor:
#      x y z
#    x 1.800840 0.000000 -0.011130 
#    y 0.000000 1.787810 0.000000 
#    z -0.011130 0.000000 1.832250 
# 
# From -- ./inp_files/200539.got.cif
#   From: 2010.06.25/outbox.cif.g09.slc.cpg/sg15_101_cif.got.tgz:200539.got - 2010.06.28 07:06:18.
