data_PCOD8152079
_publ_section_title
;
Structure prediction by ZEFSAII (Michael W. Deem and Ramdas Pophale) SiO2 
 PCOD8152079
Probable space group: C 2/C
;
_chemical_formula_sum "Si O2"
_cell_formula_units_Z 48
_cell_length_a 13.018270
_cell_length_b 12.254613
_cell_length_c 16.763928
_cell_angle_alpha 90.000000
_cell_angle_beta 111.690804
_cell_angle_gamma 90.000000
_cell_volume 2485.043982
_symmetry_space_group_name_H-M "C 2/C"
_symmetry_group_IT_number 15
_symmetry_cell_setting 'monoclinic'
loop_
_space_group_symop_operation_xyz
x,y,z
-x,y,1/2-z
-x,-y,-z
x,-y,1/2+z
1/2+x,1/2+y,z
1/2-x,1/2+y,1/2-z
1/2-x,1/2-y,-z
1/2+x,1/2-y,1/2+z
loop_
_atom_site_type_symbol
_atom_site_label
_atom_site_fract_x
_atom_site_fract_y
_atom_site_fract_z
Si Si1 0.783963 0.373703 0.002884
Si Si2 0.113226 0.050252 0.002560
Si Si3 0.317037 0.610684 0.181047
Si Si4 0.391038 0.624090 0.676093
Si Si5 0.530504 0.196988 0.842108
Si Si6 0.691203 0.284103 0.656497
O O1 0.694883 0.449088 0.019335
O O2 0.899554 0.386107 0.082773
O O3 0.750000 0.250000 0.000000
O O4 0.787960 0.402951 0.909487
O O5 0.170810 0.131952 0.079988
O O6 0.091488 0.112491 0.913489
O O7 0.000000 0.000000 0.000000
O O8 0.371467 0.493337 0.211370
O O9 0.406648 0.690318 0.164008
O O10 0.273128 0.655126 0.252077
O O11 0.500000 0.674006 0.750000
O O12 0.287592 0.702072 0.660893
O O13 0.500000 0.136721 0.750000
O O14 0.422279 0.220252 0.862294
#
# Coordination Sequence:
#
# PCOD8152079 Si02
#       6
#     8   8   8   8   8   8
#     4   9  18  34  57  85 108 139 193 238 273 332
#     4  11  22  38  61  83 113 154 194 233 281 343
#     4   9  19  37  58  81 107 145 192 231 277 344
#     4  11  23  39  57  83 116 149 189 236 282 340
#     4   9  18  34  56  82 111 144 189 239 283 341
#     4  11  22  36  57  86 114 147 190 237 287 338
#
# _framework density 19.315553999999999
#
# number of rings (size 3 to 8) (size 9 to 14) (size 15 to 20)
#    0.000    2.000    0.000    6.000    0.000    9.333 
#    0.000    5.833    0.000    0.000    0.000    0.000 
#    0.000    0.000    0.000    0.000    0.000    0.000 
#
# Total GULP energy -297485.742181 kJ/mol
# GULP energy per Si atom -12395.239258 kJ/mol
# Density = 1.927159 g / cm^3
# Si number density = 19.315554 Si / 1000 Ang^3
#
#
#
# Elastic Constant Matrix: (Units=GPa)
#
#
# Indices 1 2 3 4 5 6 
#
# 1 121.2960 67.6915 89.5716 0.0000 -1.5846 0.0000
# 2 67.6915 72.3879 56.5356 0.0000 2.1262 0.0000
# 3 89.5716 56.5356 175.6235 0.0000 9.1370 0.0000
# 4 0.0000 0.0000 0.0000 32.0549 0.0000 -0.8154
# 5 -1.5846 2.1262 9.1370 0.0000 36.1669 0.0000
# 6 0.0000 0.0000 0.0000 -0.8154 0.0000 20.0814
#
#
#
# Elastic Compliance Matrix: (Units=1/GPa)
#
#
# Indices 1 2 3 4 5 6 
#
# 1 0.021344 -0.015254 -0.006152 0.000000 0.003386 0.000000
# 2 -0.015254 0.029363 -0.001568 0.000000 -0.001998 0.000000
# 3 -0.006152 -0.001568 0.009470 0.000000 -0.002570 0.000000
# 4 0.000000 0.000000 0.000000 0.031229 0.000000 0.001268
# 5 0.003386 -0.001998 -0.002570 0.000000 0.028565 0.000000
# 6 0.000000 0.000000 0.000000 0.001268 0.000000 0.049849
#
#
# Mechanical properties :
#
#
# Convention : Reuss Voigt Hill
#
# Bulk Modulus (GPa) = 70.28174 88.54497 79.41335
# Shear Modulus (GPa) = 22.67472 28.02791 25.35131
#
# Velocity S-wave (km/s) = 3.42995 3.81340 3.62675
# Velocity P-wave (km/s) = 7.22158 8.08271 7.66425
#
# Compressibility (1/GPa) = 0.01422845
#
# Stress axis : x y z
#
# Youngs Moduli (GPa) = 46.85127 34.05687 105.59757
#
# Poissons Ratio (x) = 0.51952 0.64958
# Poissons Ratio (y) = 0.71469 0.16560
# Poissons Ratio (z) = 0.28821 0.05341
#
# Static dielectric constant tensor:
#      x y z
#    x 3.456160 0.000000 0.328220 
#    y 0.000000 3.451020 0.000000 
#    z 0.328220 0.000000 4.536170 
# 
# 
# High freq. dielectric constant tensor:
#      x y z
#    x 1.733340 0.000000 0.005010 
#    y 0.000000 1.732300 0.000000 
#    z 0.005010 0.000000 1.783330 
# 
# From -- ./inp_files/196595.got.cif
#   From: 2010.06.25/outbox.cif.g09.slc.cpg/sg15_99_cif.got.tgz:196595.got - 2010.06.28 07:06:18.
