data_PCOD8152148
_publ_section_title
;
Structure prediction by ZEFSAII (Michael W. Deem and Ramdas Pophale) SiO2 
 PCOD8152148
Probable space group: C 2/C
;
_chemical_formula_sum "Si O2"
_cell_formula_units_Z 64
_cell_length_a 31.464004
_cell_length_b 17.288729
_cell_length_c 9.194224
_cell_angle_alpha 90.000000
_cell_angle_beta 38.989264
_cell_angle_gamma 90.000000
_cell_volume 3146.758598
_symmetry_space_group_name_H-M "C 2/C"
_symmetry_group_IT_number 15
_symmetry_cell_setting 'monoclinic'
loop_
_space_group_symop_operation_xyz
x,y,z
-x,y,1/2-z
-x,-y,-z
x,-y,1/2+z
1/2+x,1/2+y,z
1/2-x,1/2+y,1/2-z
1/2-x,1/2-y,-z
1/2+x,1/2-y,1/2+z
loop_
_atom_site_type_symbol
_atom_site_label
_atom_site_fract_x
_atom_site_fract_y
_atom_site_fract_z
Si Si1 0.610191 0.917291 0.813030
Si Si2 0.122621 0.568604 0.622242
Si Si3 0.266577 0.432050 0.877501
Si Si4 0.586794 0.778436 0.378380
Si Si5 0.312916 0.316185 0.554695
Si Si6 0.763617 0.105852 0.905564
Si Si7 0.061357 0.722169 0.275158
Si Si8 0.785684 0.186417 0.566823
O O1 0.685491 0.892285 0.566695
O O2 0.560872 0.849850 0.888289
O O3 0.587254 0.995208 0.791973
O O4 0.606673 0.932519 0.993925
O O5 0.202293 0.564351 0.441632
O O6 0.092726 0.646030 0.766201
O O7 0.324918 0.390489 0.627279
O O8 0.288870 0.517951 0.866754
O O9 0.250711 0.379655 0.060583
O O10 0.513737 0.741622 0.531402
O O11 0.587076 0.803116 0.546530
O O12 0.645809 0.717489 0.188765
O O13 0.271123 0.340495 0.525160
O O14 0.385793 0.286321 0.309194
O O15 0.268152 0.254923 0.766055
O O16 0.805986 0.145344 0.663618
#
# Coordination Sequence:
#
# PCOD8152148 Si02
#       8
#     8   8   8   8   8   8   8   8
#     4  11  23  39  61  95 129 168 202 253 312 380
#     4  11  23  38  62  93 131 164 207 249 313 383
#     4  11  22  38  63  95 126 163 202 257 312 374
#     4  11  24  43  61  91 121 168 211 257 311 374
#     4  12  21  40  63  95 125 163 206 262 310 365
#     4  11  24  36  62  97 132 156 204 261 318 369
#     4  11  25  41  64  87 126 165 210 259 313 368
#     4  12  22  38  67  92 125 165 211 257 314 365
#
# _framework density 20.33839
#
# number of rings (size 3 to 8) (size 9 to 14) (size 15 to 20)
#    0.000    0.750    5.000    3.000    7.000    1.000 
#    0.000    0.000    0.000    4.500    0.000    0.000 
#    0.000    0.000    0.000    0.000    0.000    0.000 
#
# Total GULP energy -396795.124196 kJ/mol
# GULP energy per Si atom -12399.847631 kJ/mol
# Density = 2.029210 g / cm^3
# Si number density = 20.338390 Si / 1000 Ang^3
#
#
#
# Elastic Constant Matrix: (Units=GPa)
#
#
# Indices 1 2 3 4 5 6 
#
# 1 88.0857 35.0846 35.3883 0.0000 11.9771 0.0000
# 2 35.0846 76.7677 18.7300 0.0000 -5.6184 0.0000
# 3 35.3883 18.7300 62.3802 0.0000 3.7475 0.0000
# 4 0.0000 0.0000 0.0000 26.4159 0.0000 10.8200
# 5 11.9771 -5.6184 3.7475 0.0000 38.9145 0.0000
# 6 0.0000 0.0000 0.0000 10.8200 0.0000 36.9655
#
#
#
# Elastic Compliance Matrix: (Units=1/GPa)
#
#
# Indices 1 2 3 4 5 6 
#
# 1 0.017950 -0.006716 -0.007822 0.000000 -0.005741 0.000000
# 2 -0.006716 0.016805 -0.001515 0.000000 0.004639 0.000000
# 3 -0.007822 -0.001515 0.020912 0.000000 0.000175 0.000000
# 4 0.000000 0.000000 0.000000 0.043013 0.000000 -0.012590
# 5 -0.005741 0.004639 0.000175 0.000000 0.028117 0.000000
# 6 0.000000 0.000000 0.000000 -0.012590 0.000000 0.030737
#
#
# Mechanical properties :
#
#
# Convention : Reuss Voigt Hill
#
# Bulk Modulus (GPa) = 42.43927 45.07105 43.75516
# Shear Modulus (GPa) = 25.31722 29.66121 27.48921
#
# Velocity S-wave (km/s) = 3.53200 3.82302 3.68039
# Velocity P-wave (km/s) = 6.12742 6.45725 6.29449
#
# Compressibility (1/GPa) = 0.02356308
#
# Stress axis : x y z
#
# Youngs Moduli (GPa) = 55.70876 59.50783 47.81836
#
# Poissons Ratio (x) = 0.39963 0.37404
# Poissons Ratio (y) = 0.37411 0.07243
# Poissons Ratio (z) = 0.43576 0.09013
#
# Static dielectric constant tensor:
#      x y z
#    x 3.715330 0.000000 0.131230 
#    y 0.000000 3.927450 0.000000 
#    z 0.131230 0.000000 3.630210 
# 
# 
# High freq. dielectric constant tensor:
#      x y z
#    x 1.798320 0.000000 0.024990 
#    y 0.000000 1.793390 0.000000 
#    z 0.024990 0.000000 1.779120 
# 
# From -- ./inp_files/70571.got.cif
#   From: 2010.06.25/outbox.cif.g09.slc.cpg/sg15_36_cif.got.tgz:70571.got - 2010.06.28 07:06:18.
