data_PCOD8152725
_publ_section_title
;
Structure prediction by ZEFSAII (Michael W. Deem and Ramdas Pophale) SiO2 
 PCOD8152725
Probable space group: C 2/C
;
_chemical_formula_sum "Si O2"
_cell_formula_units_Z 60
_cell_length_a 24.461297
_cell_length_b 14.081083
_cell_length_c 19.538583
_cell_angle_alpha 90.000000
_cell_angle_beta 155.286556
_cell_angle_gamma 90.000000
_cell_volume 2813.638133
_symmetry_space_group_name_H-M "C 2/C"
_symmetry_group_IT_number 15
_symmetry_cell_setting 'monoclinic'
loop_
_space_group_symop_operation_xyz
x,y,z
-x,y,1/2-z
-x,-y,-z
x,-y,1/2+z
1/2+x,1/2+y,z
1/2-x,1/2+y,1/2-z
1/2-x,1/2-y,-z
1/2+x,1/2-y,1/2+z
loop_
_atom_site_type_symbol
_atom_site_label
_atom_site_fract_x
_atom_site_fract_y
_atom_site_fract_z
Si Si1 0.136024 0.487102 0.842110
Si Si2 0.469092 0.918842 0.911128
Si Si3 0.682765 0.664875 0.095923
Si Si4 0.088615 0.207732 0.469849
Si Si5 0.500000 0.158285 0.750000
Si Si6 0.619554 0.762924 0.151744
Si Si7 0.854759 0.702937 0.069398
Si Si8 0.409496 0.504422 0.083724
O O1 0.023222 0.453052 0.659805
O O2 0.108686 0.590220 0.841404
O O3 0.150831 0.411037 0.921137
O O4 0.262003 0.506325 0.940949
O O5 0.329217 0.872419 0.763763
O O6 0.580531 0.842795 0.052612
O O7 0.500000 0.000000 0.000000
O O8 0.642408 0.673355 0.129129
O O9 0.678642 0.762488 0.045756
O O10 0.578586 0.587101 0.951143
O O11 0.243123 0.208331 0.658841
O O12 0.047767 0.100047 0.406442
O O13 0.068882 0.275616 0.383309
O O14 0.996246 0.244002 0.426062
O O15 0.000000 0.741075 0.250000
O O16 0.750000 0.750000 0.000000
O O17 0.500000 0.485481 0.250000
#
# Coordination Sequence:
#
# PCOD8152725 Si02
#       8
#     8   8   8   8   4   8   8   8
#     4  11  25  42  73 107 138 189 240 287 362 429
#     4  11  22  45  69  98 144 191 235 281 350 435
#     4  11  25  42  72 105 150 185 234 293 369 420
#     4  12  27  48  74  99 143 187 247 293 355 415
#     4  12  26  48  74 104 136 186 248 296 340 440
#     4  12  26  46  70 104 140 192 232 297 355 428
#     4  12  23  43  70 109 148 183 231 294 359 428
#     4  11  24  44  68 105 141 189 231 304 358 407
#
# _framework density 21.324705000000002
#
# number of rings (size 3 to 8) (size 9 to 14) (size 15 to 20)
#    0.000    0.533    5.333    4.400    1.867    1.600 
#    0.000    0.000    0.000    0.000    0.000    0.000 
#    0.000    0.000    0.000    0.000    0.000    0.000 
#
# Total GULP energy -371821.398289 kJ/mol
# GULP energy per Si atom -12394.046610 kJ/mol
# Density = 2.127617 g / cm^3
# Si number density = 21.324705 Si / 1000 Ang^3
#
#
#
# Elastic Constant Matrix: (Units=GPa)
#
#
# Indices 1 2 3 4 5 6 
#
# 1 94.3611 27.5139 36.5525 -0.0001 -8.8300 -0.0003
# 2 27.5139 110.1300 29.5904 -0.0001 -28.6903 -0.0003
# 3 36.5525 29.5904 104.1177 -0.0001 -14.4358 -0.0004
# 4 -0.0001 -0.0001 -0.0001 54.6075 -0.0001 -24.1106
# 5 -8.8300 -28.6903 -14.4358 -0.0001 36.3507 -0.0003
# 6 -0.0003 -0.0003 -0.0004 -24.1106 -0.0003 41.8614
#
#
#
# Elastic Compliance Matrix: (Units=1/GPa)
#
#
# Indices 1 2 3 4 5 6 
#
# 1 0.012716 -0.002182 -0.003868 0.000000 -0.000169 0.000000
# 2 -0.002182 0.012262 -0.001535 0.000000 0.008538 0.000000
# 3 -0.003868 -0.001535 0.011747 0.000000 0.002514 0.000000
# 4 0.000000 0.000000 0.000000 0.024558 0.000000 0.014144
# 5 -0.000169 0.008538 0.002514 0.000000 0.035206 0.000001
# 6 0.000000 0.000000 0.000000 0.014144 0.000001 0.032035
#
#
# Mechanical properties :
#
#
# Convention : Reuss Voigt Hill
#
# Bulk Modulus (GPa) = 46.38987 55.10247 50.74617
# Shear Modulus (GPa) = 33.13928 40.89405 37.01666
#
# Velocity S-wave (km/s) = 3.94640 4.38389 4.17088
# Velocity P-wave (km/s) = 6.52431 7.17778 6.85883
#
# Compressibility (1/GPa) = 0.02155643
#
# Stress axis : x y z
#
# Youngs Moduli (GPa) = 78.64032 81.55231 85.12692
#
# Poissons Ratio (x) = 0.17792 0.32924
# Poissons Ratio (y) = 0.17157 0.13068
# Poissons Ratio (z) = 0.30415 0.12519
#
# Static dielectric constant tensor:
#      x y z
#    x 3.980490 0.000000 -0.396260 
#    y 0.000000 4.165490 0.000000 
#    z -0.396260 0.000000 4.354130 
# 
# 
# High freq. dielectric constant tensor:
#      x y z
#    x 1.840190 0.000000 -0.005670 
#    y 0.000000 1.844970 0.000000 
#    z -0.005670 0.000000 1.846070 
# 
# From -- ./inp_files/219600.got.cif
#   From: 2010.06.25/outbox.cif.g09.slc.cpg/sg15_110_cif.got.tgz:219600.got - 2010.06.28 07:06:18.
