data_PCOD8152055
_publ_section_title
;
Structure prediction by ZEFSAII (Michael W. Deem and Ramdas Pophale) SiO2 
 PCOD8152055
Probable space group: C 2/C
;
_chemical_formula_sum "Si O2"
_cell_formula_units_Z 56
_cell_length_a 12.388327
_cell_length_b 17.671739
_cell_length_c 19.911784
_cell_angle_alpha 90.000000
_cell_angle_beta 130.282182
_cell_angle_gamma 90.000000
_cell_volume 3325.464649
_symmetry_space_group_name_H-M "C 2/C"
_symmetry_group_IT_number 15
_symmetry_cell_setting 'monoclinic'
loop_
_space_group_symop_operation_xyz
x,y,z
-x,y,1/2-z
-x,-y,-z
x,-y,1/2+z
1/2+x,1/2+y,z
1/2-x,1/2+y,1/2-z
1/2-x,1/2-y,-z
1/2+x,1/2-y,1/2+z
loop_
_atom_site_type_symbol
_atom_site_label
_atom_site_fract_x
_atom_site_fract_y
_atom_site_fract_z
Si Si1 0.532141 0.965446 0.117294
Si Si2 0.196077 0.996562 0.203398
Si Si3 0.297958 0.165187 0.011255
Si Si4 0.863102 0.553911 0.150997
Si Si5 0.071792 0.063633 0.845132
Si Si6 0.848373 0.907855 0.691079
Si Si7 0.057894 0.384837 0.541185
O O1 0.673740 0.945407 0.216039
O O2 0.404685 0.987294 0.116052
O O3 0.563918 0.034442 0.080301
O O4 0.486412 0.893247 0.054610
O O5 0.232537 0.023781 0.142948
O O6 0.181707 0.071138 0.243639
O O7 0.049573 0.949369 0.146811
O O8 0.311004 0.127464 0.089615
O O9 0.449981 0.169983 0.035766
O O10 0.250000 0.250000 0.000000
O O11 0.191277 0.118016 0.921812
O O12 0.000000 0.577092 0.250000
O O13 0.000000 0.101155 0.750000
O O14 0.141267 0.984275 0.850197
O O15 0.721041 0.854915 0.611671
O O16 0.000000 0.864381 0.750000
#
# Coordination Sequence:
#
# PCOD8152055 Si02
#       7
#     8   8   8   8   8   8   8
#     4   8  13  23  44  67  86 114 144 180 233 277
#     4   8  14  25  42  66  93 113 136 187 241 270
#     4  11  22  31  42  64  93 129 160 175 207 270
#     4   9  17  29  45  69  95 115 144 186 235 278
#     4   9  17  30  47  69  92 114 150 192 229 270
#     4   8  14  25  46  72  89 108 142 188 240 278
#     4   9  14  26  43  60  88 116 146 187 219 256
#
# _framework density 16.839751
#
# number of rings (size 3 to 8) (size 9 to 14) (size 15 to 20)
#    0.000    3.429    0.000    5.143    0.000    1.143 
#    0.000    0.000    0.000    0.000    0.000   12.000 
#    0.000    1.143    0.000    0.000    0.000    0.000 
#
# Total GULP energy -346936.638344 kJ/mol
# GULP energy per Si atom -12390.594227 kJ/mol
# Density = 1.680142 g / cm^3
# Si number density = 16.839751 Si / 1000 Ang^3
#
#
#
# Elastic Constant Matrix: (Units=GPa)
#
#
# Indices 1 2 3 4 5 6 
#
# 1 140.5124 34.3111 50.4268 0.0000 6.9687 0.0000
# 2 34.3111 41.0598 28.3905 0.0000 5.5497 0.0000
# 3 50.4268 28.3905 91.2565 0.0000 6.0884 0.0000
# 4 0.0000 0.0000 0.0000 8.7562 0.0000 1.9774
# 5 6.9687 5.5497 6.0884 0.0000 34.9848 0.0000
# 6 0.0000 0.0000 0.0000 1.9774 0.0000 13.0834
#
#
#
# Elastic Compliance Matrix: (Units=1/GPa)
#
#
# Indices 1 2 3 4 5 6 
#
# 1 0.009821 -0.005627 -0.003648 0.000000 -0.000429 0.000000
# 2 -0.005627 0.034630 -0.007459 0.000000 -0.003074 0.000000
# 3 -0.003648 -0.007459 0.015345 0.000000 -0.000761 0.000000
# 4 0.000000 0.000000 0.000000 0.118241 0.000000 -0.017871
# 5 -0.000429 -0.003074 -0.000761 0.000000 0.029289 0.000000
# 6 0.000000 0.000000 0.000000 -0.017871 0.000000 0.079134
#
#
# Mechanical properties :
#
#
# Convention : Reuss Voigt Hill
#
# Bulk Modulus (GPa) = 37.98153 55.45393 46.71773
# Shear Modulus (GPa) = 15.21124 22.01156 18.61140
#
# Velocity S-wave (km/s) = 3.00875 3.61933 3.32807
# Velocity P-wave (km/s) = 5.88844 7.10408 6.52463
#
# Compressibility (1/GPa) = 0.02632859
#
# Stress axis : x y z
#
# Youngs Moduli (GPa) = 101.82069 28.87695 65.16676
#
# Poissons Ratio (x) = 0.16248 0.23772
# Poissons Ratio (y) = 0.57291 0.48609
# Poissons Ratio (z) = 0.37143 0.21540
#
# Static dielectric constant tensor:
#      x y z
#    x 3.505840 0.000000 0.159180 
#    y 0.000000 2.459400 0.000000 
#    z 0.159180 0.000000 3.407390 
# 
# 
# High freq. dielectric constant tensor:
#      x y z
#    x 1.668060 0.000000 0.010100 
#    y 0.000000 1.558060 0.000000 
#    z 0.010100 0.000000 1.658400 
# 
# From -- ./inp_files/239356.got.cif
#   From: 2010.06.25/outbox.cif.g09.slc.cpg/sg15_120_cif.got.tgz:239356.got - 2010.06.28 07:06:18.
