data_PCOD8152290
_publ_section_title
;
Structure prediction by ZEFSAII (Michael W. Deem and Ramdas Pophale) SiO2 
 PCOD8152290
Probable space group: C 2/C
;
_chemical_formula_sum "Si O2"
_cell_formula_units_Z 32
_cell_length_a 18.999514
_cell_length_b 9.856268
_cell_length_c 8.620683
_cell_angle_alpha 90.000000
_cell_angle_beta 106.587756
_cell_angle_gamma 90.000000
_cell_volume 1547.162913
_symmetry_space_group_name_H-M "C 2/C"
_symmetry_group_IT_number 15
_symmetry_cell_setting 'monoclinic'
loop_
_space_group_symop_operation_xyz
x,y,z
-x,y,1/2-z
-x,-y,-z
x,-y,1/2+z
1/2+x,1/2+y,z
1/2-x,1/2+y,1/2-z
1/2-x,1/2-y,-z
1/2+x,1/2-y,1/2+z
loop_
_atom_site_type_symbol
_atom_site_label
_atom_site_fract_x
_atom_site_fract_y
_atom_site_fract_z
Si Si1 0.184539 0.897740 0.326162
Si Si2 0.648707 0.854828 0.988239
Si Si3 0.671962 0.678686 0.471061
Si Si4 0.416543 0.908435 0.232517
O O1 0.271232 0.875868 0.390425
O O2 0.141923 0.796196 0.414934
O O3 0.158419 0.869686 0.136382
O O4 0.164881 0.051654 0.352116
O O5 0.590926 0.875375 0.090271
O O6 0.633876 0.962050 0.841658
O O7 0.750000 0.750000 0.500000
O O8 0.607322 0.781326 0.386610
O O9 0.500000 0.945089 0.250000
#
# Coordination Sequence:
#
# PCOD8152290 Si02
#       4
#     8   8   8   8
#     4  11  23  39  68  98 123 163 222 272 317 362
#     4  11  22  40  65  95 131 165 216 269 316 379
#     4  12  23  41  66  95 131 166 217 270 314 378
#     4  12  25  42  64  97 135 175 210 258 328 391
#
# _framework density 20.683018000000001
#
# number of rings (size 3 to 8) (size 9 to 14) (size 15 to 20)
#    0.000    0.500    5.000    3.750    3.500    0.000 
#    0.000    6.250    0.000    0.000    0.000    0.000 
#    0.000    0.000    0.000    0.000    0.000    0.000 
#
# Total GULP energy -198524.768915 kJ/mol
# GULP energy per Si atom -12407.798057 kJ/mol
# Density = 2.063594 g / cm^3
# Si number density = 20.683018 Si / 1000 Ang^3
#
#
#
# Elastic Constant Matrix: (Units=GPa)
#
#
# Indices 1 2 3 4 5 6 
#
# 1 39.3181 18.5078 22.9702 0.0000 -19.6217 0.0000
# 2 18.5078 140.6693 32.1435 0.0000 3.2335 0.0000
# 3 22.9702 32.1435 104.6584 0.0000 -14.5161 0.0000
# 4 0.0000 0.0000 0.0000 33.0776 0.0000 -10.0007
# 5 -19.6217 3.2335 -14.5161 0.0000 29.1673 0.0000
# 6 0.0000 0.0000 0.0000 -10.0007 0.0000 19.9600
#
#
#
# Elastic Compliance Matrix: (Units=1/GPa)
#
#
# Indices 1 2 3 4 5 6 
#
# 1 0.044821 -0.005614 -0.004130 0.000000 0.028719 0.000000
# 2 -0.005614 0.008478 -0.002176 0.000000 -0.005799 0.000000
# 3 -0.004130 -0.002176 0.011577 0.000000 0.003225 0.000000
# 4 0.000000 0.000000 0.000000 0.035629 0.000000 0.017852
# 5 0.028719 -0.005799 0.003225 0.000000 0.055853 0.000000
# 6 0.000000 0.000000 0.000000 0.017852 0.000000 0.059044
#
#
# Mechanical properties :
#
#
# Convention : Reuss Voigt Hill
#
# Bulk Modulus (GPa) = 24.36826 47.98764 36.17795
# Shear Modulus (GPa) = 19.76905 30.50927 25.13916
#
# Velocity S-wave (km/s) = 3.09497 3.84485 3.49011
# Velocity P-wave (km/s) = 4.95774 6.55457 5.81126
#
# Compressibility (1/GPa) = 0.04103698
#
# Stress axis : x y z
#
# Youngs Moduli (GPa) = 22.31098 117.95233 86.37890
#
# Poissons Ratio (x) = 0.66213 0.35672
# Poissons Ratio (y) = 0.12524 0.18797
# Poissons Ratio (z) = 0.09214 0.25668
#
# Static dielectric constant tensor:
#      x y z
#    x 3.389030 0.000000 -0.044160 
#    y 0.000000 4.028720 0.000000 
#    z -0.044160 0.000000 4.006900 
# 
# 
# High freq. dielectric constant tensor:
#      x y z
#    x 1.778380 0.000000 -0.009830 
#    y 0.000000 1.826840 0.000000 
#    z -0.009830 0.000000 1.826420 
# 
# From -- ./inp_files/53385.got.cif
#   From: 2010.06.25/outbox.cif.g09.slc.cpg/sg15_27_cif.got.tgz:53385.got - 2010.06.28 07:06:18.
