data_PCOD8152813
_publ_section_title
;
Structure prediction by ZEFSAII (Michael W. Deem and Ramdas Pophale) SiO2 
 PCOD8152813
Probable space group: C 2/C
;
_chemical_formula_sum "Si O2"
_cell_formula_units_Z 48
_cell_length_a 13.203771
_cell_length_b 11.843852
_cell_length_c 18.869265
_cell_angle_alpha 90.000000
_cell_angle_beta 57.491496
_cell_angle_gamma 90.000000
_cell_volume 2488.479453
_symmetry_space_group_name_H-M "C 2/C"
_symmetry_group_IT_number 15
_symmetry_cell_setting 'monoclinic'
loop_
_space_group_symop_operation_xyz
x,y,z
-x,y,1/2-z
-x,-y,-z
x,-y,1/2+z
1/2+x,1/2+y,z
1/2-x,1/2+y,1/2-z
1/2-x,1/2-y,-z
1/2+x,1/2-y,1/2+z
loop_
_atom_site_type_symbol
_atom_site_label
_atom_site_fract_x
_atom_site_fract_y
_atom_site_fract_z
Si Si1 0.441540 0.529409 0.946628
Si Si2 0.036305 0.155040 0.316914
Si Si3 0.797007 0.413719 0.752839
Si Si4 0.005297 0.231996 0.829649
Si Si5 0.517204 0.091792 0.827439
Si Si6 0.682089 0.923860 0.590612
O O1 0.444037 0.417026 0.898192
O O2 0.516623 0.626762 0.878493
O O3 0.500000 0.500000 0.000000
O O4 0.304772 0.572052 0.000634
O O5 0.167324 0.100289 0.268159
O O6 0.031768 0.281527 0.350964
O O7 0.000000 0.157887 0.250000
O O8 0.862830 0.523583 0.695266
O O9 0.781569 0.433473 0.841619
O O10 0.874424 0.303690 0.705524
O O11 0.889288 0.307035 0.894168
O O12 0.000000 0.190136 0.750000
O O13 0.500000 0.086424 0.750000
O O14 0.400466 0.029237 0.903839
#
# Coordination Sequence:
#
# PCOD8152813 Si02
#       6
#     8   8   8   8   8   8
#     4  12  23  35  56  89 122 149 187 240 298 331
#     4  11  23  36  56  88 117 153 188 235 287 343
#     4   9  18  37  62  83 109 154 199 233 279 338
#     4   9  20  38  63  86 108 154 201 239 275 336
#     4   8  18  36  59  80 112 153 194 232 281 343
#     4   9  18  39  60  82 114 151 191 238 289 339
#
# _framework density 19.288886999999999
#
# number of rings (size 3 to 8) (size 9 to 14) (size 15 to 20)
#    0.000    2.333    1.667    3.000    2.333    2.000 
#    0.000    0.000    0.000    4.000    0.000    0.000 
#    0.000    0.000    0.000    0.000    0.000    0.000 
#
# Total GULP energy -297545.118088 kJ/mol
# GULP energy per Si atom -12397.713254 kJ/mol
# Density = 1.924498 g / cm^3
# Si number density = 19.288887 Si / 1000 Ang^3
#
#
#
# Elastic Constant Matrix: (Units=GPa)
#
#
# Indices 1 2 3 4 5 6 
#
# 1 89.7262 36.1715 24.1684 0.0000 -12.8971 0.0000
# 2 36.1715 138.7533 55.7041 0.0000 -0.4360 0.0000
# 3 24.1684 55.7041 80.6709 0.0000 -12.1649 0.0000
# 4 0.0000 0.0000 0.0000 28.3446 0.0000 3.1324
# 5 -12.8971 -0.4360 -12.1649 0.0000 28.6640 0.0000
# 6 0.0000 0.0000 0.0000 3.1324 0.0000 19.4367
#
#
#
# Elastic Compliance Matrix: (Units=1/GPa)
#
#
# Indices 1 2 3 4 5 6 
#
# 1 0.013468 -0.003057 -0.001087 0.000000 0.005552 0.000000
# 2 -0.003057 0.010906 -0.007262 0.000000 -0.004292 0.000000
# 3 -0.001087 -0.007262 0.018852 0.000000 0.007401 0.000000
# 4 0.000000 0.000000 0.000000 0.035920 0.000000 -0.005789
# 5 0.005552 -0.004292 0.007401 0.000000 0.040461 0.000000
# 6 0.000000 0.000000 0.000000 -0.005789 0.000000 0.052382
#
#
# Mechanical properties :
#
#
# Convention : Reuss Voigt Hill
#
# Bulk Modulus (GPa) = 48.98442 60.13759 54.56101
# Shear Modulus (GPa) = 24.80092 28.16284 26.48188
#
# Velocity S-wave (km/s) = 3.58964 3.82521 3.70930
# Velocity P-wave (km/s) = 6.52924 7.12423 6.83322
#
# Compressibility (1/GPa) = 0.02041465
#
# Stress axis : x y z
#
# Youngs Moduli (GPa) = 74.24845 91.69326 53.04456
#
# Poissons Ratio (x) = 0.28034 0.05764
# Poissons Ratio (y) = 0.22700 0.38520
# Poissons Ratio (z) = 0.08068 0.66586
#
# Static dielectric constant tensor:
#      x y z
#    x 3.496530 0.000000 -0.284540 
#    y 0.000000 3.793210 0.000000 
#    z -0.284540 0.000000 3.405630 
# 
# 
# High freq. dielectric constant tensor:
#      x y z
#    x 1.745470 0.000000 -0.018710 
#    y 0.000000 1.761690 0.000000 
#    z -0.018710 0.000000 1.729640 
# 
# From -- ./inp_files/152084.got.cif
#   From: 2010.06.25/outbox.cif.g09.slc.cpg/sg15_77_cif.got.tgz:152084.got - 2010.06.28 07:06:18.
