data_PCOD8152144
_publ_section_title
;
Structure prediction by ZEFSAII (Michael W. Deem and Ramdas Pophale) SiO2 
 PCOD8152144
Probable space group: C 2/C
;
_chemical_formula_sum "Si O2"
_cell_formula_units_Z 56
_cell_length_a 25.045540
_cell_length_b 18.476421
_cell_length_c 9.385801
_cell_angle_alpha 90.000000
_cell_angle_beta 139.348867
_cell_angle_gamma 90.000000
_cell_volume 2829.448025
_symmetry_space_group_name_H-M "C 2/C"
_symmetry_group_IT_number 15
_symmetry_cell_setting 'monoclinic'
loop_
_space_group_symop_operation_xyz
x,y,z
-x,y,1/2-z
-x,-y,-z
x,-y,1/2+z
1/2+x,1/2+y,z
1/2-x,1/2+y,1/2-z
1/2-x,1/2-y,-z
1/2+x,1/2-y,1/2+z
loop_
_atom_site_type_symbol
_atom_site_label
_atom_site_fract_x
_atom_site_fract_y
_atom_site_fract_z
Si Si1 0.425520 0.448164 0.816030
Si Si2 0.731152 0.858660 0.115501
Si Si3 0.578896 0.237564 0.309912
Si Si4 0.178676 0.001759 0.640533
Si Si5 0.196951 0.745616 0.032583
Si Si6 0.213972 0.147570 0.089777
Si Si7 0.524394 0.707613 0.140026
O O1 0.351811 0.467093 0.774017
O O2 0.394465 0.456663 0.590190
O O3 0.455431 0.366545 0.902617
O O4 0.500000 0.500000 0.000000
O O5 0.787060 0.817381 0.342815
O O6 0.745143 0.944118 0.172819
O O7 0.635739 0.834568 0.935375
O O8 0.763198 0.835176 0.025888
O O9 0.500000 0.228371 0.250000
O O10 0.631711 0.307757 0.463869
O O11 0.548622 0.249900 0.086888
O O12 0.206254 0.937935 0.591477
O O13 0.215131 0.673932 0.160374
O O14 0.250000 0.750000 0.000000
O O15 0.102893 0.740413 0.795953
O O16 0.500000 0.688265 0.250000
#
# Coordination Sequence:
#
# PCOD8152144 Si02
#       7
#     8   8   8   8   8   8   8
#     4  12  24  37  58  94 133 162 201 251 324 384
#     4  11  23  43  62  90 130 172 210 253 317 387
#     4  11  23  41  64  92 125 163 210 263 320 368
#     4  12  23  41  61  92 128 171 207 253 318 381
#     4  11  22  38  62  90 121 163 215 260 301 371
#     4  11  23  41  63  91 127 166 212 256 317 384
#     4  12  22  37  61  92 125 160 205 259 316 368
#
# _framework density 19.791846
#
# number of rings (size 3 to 8) (size 9 to 14) (size 15 to 20)
#    0.000    0.571    2.857    9.000    0.000    0.000 
#    0.000    0.000    0.000    4.286    0.000    0.000 
#    0.000    0.000    0.000    0.000    0.000    0.000 
#
# Total GULP energy -347280.627025 kJ/mol
# GULP energy per Si atom -12402.879537 kJ/mol
# Density = 1.974680 g / cm^3
# Si number density = 19.791846 Si / 1000 Ang^3
#
#
#
# Elastic Constant Matrix: (Units=GPa)
#
#
# Indices 1 2 3 4 5 6 
#
# 1 96.0886 45.0197 27.0716 0.0000 0.1059 0.0000
# 2 45.0197 91.5894 49.5893 0.0000 14.6634 0.0000
# 3 27.0716 49.5893 114.6893 0.0000 10.5107 0.0000
# 4 0.0000 0.0000 0.0000 37.8064 0.0000 1.9946
# 5 0.1059 14.6634 10.5107 0.0000 41.7007 0.0000
# 6 0.0000 0.0000 0.0000 1.9946 0.0000 29.2241
#
#
#
# Elastic Compliance Matrix: (Units=1/GPa)
#
#
# Indices 1 2 3 4 5 6 
#
# 1 0.013781 -0.006908 -0.000497 0.000000 0.002519 0.000000
# 2 -0.006908 0.018248 -0.005807 0.000000 -0.004935 0.000000
# 3 -0.000497 -0.005807 0.011424 0.000000 -0.000836 0.000000
# 4 0.000000 0.000000 0.000000 0.026546 0.000000 -0.001812
# 5 0.002519 -0.004935 -0.000836 0.000000 0.025920 0.000000
# 6 0.000000 0.000000 0.000000 -0.001812 0.000000 0.034342
#
#
# Mechanical properties :
#
#
# Convention : Reuss Voigt Hill
#
# Bulk Modulus (GPa) = 58.72430 60.63653 59.68041
# Shear Modulus (GPa) = 30.79528 33.79201 32.29365
#
# Velocity S-wave (km/s) = 3.94884 4.13652 4.04377
# Velocity P-wave (km/s) = 7.10820 7.31560 7.21265
#
# Compressibility (1/GPa) = 0.01702872
#
# Stress axis : x y z
#
# Youngs Moduli (GPa) = 72.56418 54.79948 87.53463
#
# Poissons Ratio (x) = 0.37857 0.04349
# Poissons Ratio (y) = 0.50129 0.50834
# Poissons Ratio (z) = 0.03605 0.31824
#
# Static dielectric constant tensor:
#      x y z
#    x 3.559560 0.000000 -0.395520 
#    y 0.000000 3.526060 0.000000 
#    z -0.395520 0.000000 4.333720 
# 
# 
# High freq. dielectric constant tensor:
#      x y z
#    x 1.773230 0.000000 -0.017370 
#    y 0.000000 1.754470 0.000000 
#    z -0.017370 0.000000 1.783110 
# 
# From -- ./inp_files/67210.got.cif
#   From: 2010.06.25/outbox.cif.g09.slc.cpg/sg15_34_cif.got.tgz:67210.got - 2010.06.28 07:06:18.
