data_PCOD8152478
_publ_section_title
;
Structure prediction by ZEFSAII (Michael W. Deem and Ramdas Pophale) SiO2 
 PCOD8152478
Probable space group: C 2/C
;
_chemical_formula_sum "Si O2"
_cell_formula_units_Z 44
_cell_length_a 19.181475
_cell_length_b 14.199224
_cell_length_c 11.676143
_cell_angle_alpha 90.000000
_cell_angle_beta 39.363241
_cell_angle_gamma 90.000000
_cell_volume 2016.953856
_symmetry_space_group_name_H-M "C 2/C"
_symmetry_group_IT_number 15
_symmetry_cell_setting 'monoclinic'
loop_
_space_group_symop_operation_xyz
x,y,z
-x,y,1/2-z
-x,-y,-z
x,-y,1/2+z
1/2+x,1/2+y,z
1/2-x,1/2+y,1/2-z
1/2-x,1/2-y,-z
1/2+x,1/2-y,1/2+z
loop_
_atom_site_type_symbol
_atom_site_label
_atom_site_fract_x
_atom_site_fract_y
_atom_site_fract_z
Si Si1 0.392983 0.336411 0.463589
Si Si2 0.500000 0.409241 0.750000
Si Si3 0.491145 0.715189 0.465376
Si Si4 0.237283 0.176306 0.687163
Si Si5 0.312665 0.830521 0.346939
Si Si6 0.708922 0.484992 0.045897
O O1 0.500000 0.348462 0.250000
O O2 0.424546 0.340433 0.557600
O O3 0.334809 0.237286 0.507390
O O4 0.302991 0.417675 0.551150
O O5 0.554022 0.346263 0.582750
O O6 0.410159 0.467177 0.794123
O O7 0.378116 0.735696 0.678135
O O8 0.557427 0.805267 0.330921
O O9 0.259783 0.157560 0.790670
O O10 0.230963 0.076626 0.630631
O O11 0.250000 0.750000 0.500000
O O12 0.301919 0.933777 0.419158
#
# Coordination Sequence:
#
# PCOD8152478 Si02
#       6
#     8   4   8   8   8   8
#     4  11  24  41  67  96 135 177 228 282 341 403
#     4  12  22  38  70  96 132 166 232 282 338 388
#     4  11  22  42  66  96 136 177 220 279 345 401
#     4  11  24  41  70  95 136 180 225 282 340 406
#     4  11  24  42  65  98 139 176 220 285 345 405
#     4  12  23  39  66 103 128 170 230 286 332 400
#
# _framework density 21.815076999999999
#
# number of rings (size 3 to 8) (size 9 to 14) (size 15 to 20)
#    0.000    0.727    6.364    0.545    2.545    1.455 
#    0.000    0.909    6.000    0.000    0.000    0.000 
#    0.000    0.000    0.000    0.000    0.000    0.000 
#
# Total GULP energy -272564.826998 kJ/mol
# GULP energy per Si atom -12389.310318 kJ/mol
# Density = 2.176542 g / cm^3
# Si number density = 21.815077 Si / 1000 Ang^3
#
#
#
# Elastic Constant Matrix: (Units=GPa)
#
#
# Indices 1 2 3 4 5 6 
#
# 1 88.7446 53.6466 25.6137 0.0000 12.3190 0.0000
# 2 53.6466 148.9568 67.2843 0.0000 -1.9642 0.0000
# 3 25.6137 67.2843 84.9534 0.0000 -3.3625 0.0000
# 4 0.0000 0.0000 0.0000 29.9692 0.0000 -2.1010
# 5 12.3190 -1.9642 -3.3625 0.0000 29.9936 0.0000
# 6 0.0000 0.0000 0.0000 -2.1010 0.0000 33.7044
#
#
#
# Elastic Compliance Matrix: (Units=1/GPa)
#
#
# Indices 1 2 3 4 5 6 
#
# 1 0.015711 -0.005428 -0.000710 0.000000 -0.006888 0.000000
# 2 -0.005428 0.012330 -0.008045 0.000000 0.002135 0.000000
# 3 -0.000710 -0.008045 0.018429 0.000000 0.001831 0.000000
# 4 0.000000 0.000000 0.000000 0.033514 0.000000 0.002089
# 5 -0.006888 0.002135 0.001831 0.000000 0.036515 0.000000
# 6 0.000000 0.000000 0.000000 0.002089 0.000000 0.029800
#
#
# Mechanical properties :
#
#
# Convention : Reuss Voigt Hill
#
# Bulk Modulus (GPa) = 55.23602 68.41598 61.82600
# Shear Modulus (GPa) = 27.67022 30.47411 29.07216
#
# Velocity S-wave (km/s) = 3.56532 3.74161 3.65453
# Velocity P-wave (km/s) = 6.50567 7.07785 6.79779
#
# Compressibility (1/GPa) = 0.01810413
#
# Stress axis : x y z
#
# Youngs Moduli (GPa) = 63.65041 81.10129 54.26173
#
# Poissons Ratio (x) = 0.44024 0.03854
# Poissons Ratio (y) = 0.34551 0.43651
# Poissons Ratio (z) = 0.04521 0.65243
#
# Static dielectric constant tensor:
#      x y z
#    x 4.108840 0.000000 0.011170 
#    y 0.000000 4.107350 0.000000 
#    z 0.011170 0.000000 3.954420 
# 
# 
# High freq. dielectric constant tensor:
#      x y z
#    x 1.868560 0.000000 0.008500 
#    y 0.000000 1.840330 0.000000 
#    z 0.008500 0.000000 1.851910 
# 
# From -- ./inp_files/112629.got.cif
#   From: 2010.06.25/outbox.cif.g09.slc.cpg/sg15_57_cif.got.tgz:112629.got - 2010.06.28 07:06:18.
