data_PCOD8152513
_publ_section_title
;
Structure prediction by ZEFSAII (Michael W. Deem and Ramdas Pophale) SiO2 
 PCOD8152513
Probable space group: C 2/C
;
_chemical_formula_sum "Si O2"
_cell_formula_units_Z 32
_cell_length_a 13.701018
_cell_length_b 12.276890
_cell_length_c 7.846926
_cell_angle_alpha 90.000000
_cell_angle_beta 93.209276
_cell_angle_gamma 90.000000
_cell_volume 1317.829199
_symmetry_space_group_name_H-M "C 2/C"
_symmetry_group_IT_number 15
_symmetry_cell_setting 'monoclinic'
loop_
_space_group_symop_operation_xyz
x,y,z
-x,y,1/2-z
-x,-y,-z
x,-y,1/2+z
1/2+x,1/2+y,z
1/2-x,1/2+y,1/2-z
1/2-x,1/2-y,-z
1/2+x,1/2-y,1/2+z
loop_
_atom_site_type_symbol
_atom_site_label
_atom_site_fract_x
_atom_site_fract_y
_atom_site_fract_z
Si Si1 0.602944 0.159762 0.301707
Si Si2 0.924169 0.946062 0.617245
Si Si3 0.193005 0.868473 0.189541
Si Si4 0.102710 0.426179 0.182271
O O1 0.500000 0.219137 0.250000
O O2 0.684429 0.249682 0.273160
O O3 0.616041 0.119210 0.494846
O O4 0.606997 0.057447 0.173236
O O5 0.851100 0.866917 0.507017
O O6 0.000000 0.881116 0.750000
O O7 0.858854 0.037196 0.705137
O O8 0.000000 0.000000 0.500000
O O9 0.308644 0.887494 0.189348
O O10 0.000000 0.385917 0.250000
#
# Coordination Sequence:
#
# PCOD8152513 Si02
#       4
#     8   8   8   8
#     4  11  23  44  67  94 133 179 223 276 335 396
#     4   9  19  38  64 101 139 167 211 277 337 397
#     4  11  22  42  69  99 135 179 221 273 338 403
#     4  11  24  44  67  98 138 177 224 278 329 400
#
# _framework density 24.282357000000001
#
# number of rings (size 3 to 8) (size 9 to 14) (size 15 to 20)
#    0.000    1.500    0.000    7.500    0.000    0.000 
#    0.000   32.500    0.000    1.500    0.000    0.000 
#    0.000    0.000    0.000    0.000    0.000    0.000 
#
# Total GULP energy -198312.554334 kJ/mol
# GULP energy per Si atom -12394.534646 kJ/mol
# Density = 2.422709 g / cm^3
# Si number density = 24.282357 Si / 1000 Ang^3
#
#
#
# Elastic Constant Matrix: (Units=GPa)
#
#
# Indices 1 2 3 4 5 6 
#
# 1 199.5815 45.4822 62.1641 0.0000 29.6195 0.0000
# 2 45.4822 95.5195 45.0254 0.0000 -0.1326 0.0000
# 3 62.1641 45.0254 141.7748 0.0000 33.4348 0.0000
# 4 0.0000 0.0000 0.0000 25.3412 0.0000 -0.2595
# 5 29.6195 -0.1326 33.4348 0.0000 43.8017 0.0000
# 6 0.0000 0.0000 0.0000 -0.2595 0.0000 21.2684
#
#
#
# Elastic Compliance Matrix: (Units=1/GPa)
#
#
# Indices 1 2 3 4 5 6 
#
# 1 0.006477 -0.002509 -0.001230 0.000000 -0.003449 0.000000
# 2 -0.002509 0.013792 -0.004500 0.000000 0.005174 0.000000
# 3 -0.001230 -0.004500 0.010767 0.000000 -0.007401 0.000000
# 4 0.000000 0.000000 0.000000 0.039466 0.000000 0.000482
# 5 -0.003449 0.005174 -0.007401 0.000000 0.030827 0.000000
# 6 0.000000 0.000000 0.000000 0.000482 0.000000 0.047024
#
#
# Mechanical properties :
#
#
# Convention : Reuss Voigt Hill
#
# Bulk Modulus (GPa) = 68.68898 82.46882 75.57890
# Shear Modulus (GPa) = 29.46631 37.02918 33.24775
#
# Velocity S-wave (km/s) = 3.48729 3.90929 3.70430
# Velocity P-wave (km/s) = 6.67562 7.37651 7.03480
#
# Compressibility (1/GPa) = 0.01455838
#
# Stress axis : x y z
#
# Youngs Moduli (GPa) = 154.38764 72.50454 92.87504
#
# Poissons Ratio (x) = 0.18193 0.11422
# Poissons Ratio (y) = 0.38740 0.41794
# Poissons Ratio (z) = 0.18987 0.32627
#
# Static dielectric constant tensor:
#      x y z
#    x 4.291250 0.000000 -0.309350 
#    y 0.000000 3.987880 0.000000 
#    z -0.309350 0.000000 3.728690 
# 
# 
# High freq. dielectric constant tensor:
#      x y z
#    x 1.984080 0.000000 0.014900 
#    y 0.000000 1.940130 0.000000 
#    z 0.014900 0.000000 1.974370 
# 
# From -- ./inp_files/36545.got.cif
#   From: 2010.06.25/outbox.cif.g09.slc.cpg/sg15_19_cif.got.tgz:36545.got - 2010.06.28 07:06:18.
