data_PCOD8152786
_publ_section_title
;
Structure prediction by ZEFSAII (Michael W. Deem and Ramdas Pophale) SiO2 
 PCOD8152786
Probable space group: C 2/C
;
_chemical_formula_sum "Si O2"
_cell_formula_units_Z 60
_cell_length_a 17.837287
_cell_length_b 9.018745
_cell_length_c 22.216390
_cell_angle_alpha 90.000000
_cell_angle_beta 51.130986
_cell_angle_gamma 90.000000
_cell_volume 2782.614960
_symmetry_space_group_name_H-M "C 2/C"
_symmetry_group_IT_number 15
_symmetry_cell_setting 'monoclinic'
loop_
_space_group_symop_operation_xyz
x,y,z
-x,y,1/2-z
-x,-y,-z
x,-y,1/2+z
1/2+x,1/2+y,z
1/2-x,1/2+y,1/2-z
1/2-x,1/2-y,-z
1/2+x,1/2-y,1/2+z
loop_
_atom_site_type_symbol
_atom_site_label
_atom_site_fract_x
_atom_site_fract_y
_atom_site_fract_z
Si Si1 0.790488 0.081691 0.861648
Si Si2 0.824959 0.008891 0.657425
Si Si3 0.500000 0.635033 0.750000
Si Si4 0.803414 0.125951 0.039628
Si Si5 0.703699 0.097156 0.502424
Si Si6 0.494609 0.708726 0.620231
Si Si7 0.994248 0.473402 0.073681
Si Si8 0.307552 0.814400 0.204556
O O1 0.758949 0.229639 0.913431
O O2 0.764757 0.106008 0.805609
O O3 0.903441 0.040245 0.809280
O O4 0.738306 0.940784 0.917329
O O5 0.923866 0.083820 0.629445
O O6 0.733182 0.120636 0.711807
O O7 0.835001 0.965582 0.582609
O O8 0.801958 0.862516 0.708290
O O9 0.485952 0.729620 0.696517
O O10 0.897901 0.170953 0.955058
O O11 0.734956 0.028243 0.033064
O O12 0.750000 0.250000 0.500000
O O13 0.588595 0.097845 0.556597
O O14 0.462698 0.868649 0.614354
O O15 0.915333 0.353834 0.131842
O O16 0.000000 0.500000 0.000000
#
# Coordination Sequence:
#
# PCOD8152786 Si02
#       8
#     8   8   4   8   8   8   8   8
#     4  11  22  47  67  99 135 192 229 294 355 430
#     4  11  25  43  70 105 136 191 232 305 351 439
#     4  12  24  40  78  98 136 182 244 286 354 432
#     4  11  24  45  69  99 142 180 239 284 349 444
#     4  12  26  42  70 104 139 180 235 300 361 416
#     4  12  24  44  76 102 136 190 244 286 362 433
#     4  12  25  44  71 102 139 189 231 302 366 438
#     4  11  24  43  69  99 143 176 243 287 368 427
#
# _framework density 21.562450999999999
#
# number of rings (size 3 to 8) (size 9 to 14) (size 15 to 20)
#    0.000    0.533    5.333    3.200    5.600    1.067 
#    0.000    0.000    0.000    0.000    0.000    0.000 
#    0.000    0.000    0.000    0.000    0.000    0.000 
#
# Total GULP energy -371938.690866 kJ/mol
# GULP energy per Si atom -12397.956362 kJ/mol
# Density = 2.151337 g / cm^3
# Si number density = 21.562451 Si / 1000 Ang^3
#
#
#
# Elastic Constant Matrix: (Units=GPa)
#
#
# Indices 1 2 3 4 5 6 
#
# 1 111.3348 22.9807 20.4892 0.0000 -18.7736 0.0000
# 2 22.9807 71.6611 12.7486 -0.0001 5.4217 0.0000
# 3 20.4892 12.7486 95.5632 0.0000 -6.8968 0.0000
# 4 0.0000 -0.0001 0.0000 28.8759 0.0000 1.1913
# 5 -18.7736 5.4217 -6.8968 0.0000 46.6782 0.0000
# 6 0.0000 0.0000 0.0000 1.1913 0.0000 34.6209
#
#
#
# Elastic Compliance Matrix: (Units=1/GPa)
#
#
# Indices 1 2 3 4 5 6 
#
# 1 0.010746 -0.003519 -0.001509 0.000000 0.004508 0.000000
# 2 -0.003519 0.015626 -0.001580 0.000000 -0.003464 0.000000
# 3 -0.001509 -0.001580 0.011086 0.000000 0.001215 0.000000
# 4 0.000000 0.000000 0.000000 0.034680 0.000000 -0.001193
# 5 0.004508 -0.003464 0.001215 0.000000 0.023818 0.000000
# 6 0.000000 0.000000 0.000000 -0.001193 0.000000 0.028925
#
#
# Mechanical properties :
#
#
# Convention : Reuss Voigt Hill
#
# Bulk Modulus (GPa) = 41.25016 43.44401 42.34709
# Shear Modulus (GPa) = 34.20467 36.85773 35.53120
#
# Velocity S-wave (km/s) = 3.98717 4.13891 4.06375
# Velocity P-wave (km/s) = 6.35364 6.55992 6.45760
#
# Compressibility (1/GPa) = 0.02424233
#
# Stress axis : x y z
#
# Youngs Moduli (GPa) = 93.05740 63.99545 90.20113
#
# Poissons Ratio (x) = 0.22518 0.13614
# Poissons Ratio (y) = 0.32744 0.14253
# Poissons Ratio (z) = 0.14045 0.10112
#
# Static dielectric constant tensor:
#      x y z
#    x 4.636660 0.000000 0.784110 
#    y 0.000000 3.919190 0.000000 
#    z 0.784110 0.000000 5.105170 
# 
# 
# High freq. dielectric constant tensor:
#      x y z
#    x 1.857220 0.000000 -0.004290 
#    y 0.000000 1.837160 0.000000 
#    z -0.004290 0.000000 1.865800 
# 
# From -- ./inp_files/247817.got.cif
#   From: 2010.06.25/outbox.cif.g09.slc.cpg/sg15_124_cif.got.tgz:247817.got - 2010.06.28 07:06:18.
