data_PCOD8152218
_publ_section_title
;
Structure prediction by ZEFSAII (Michael W. Deem and Ramdas Pophale) SiO2 
 PCOD8152218
Probable space group: C 2/C
;
_chemical_formula_sum "Si O2"
_cell_formula_units_Z 40
_cell_length_a 19.037899
_cell_length_b 17.836567
_cell_length_c 12.814371
_cell_angle_alpha 90.000000
_cell_angle_beta 151.721470
_cell_angle_gamma 90.000000
_cell_volume 2061.504843
_symmetry_space_group_name_H-M "C 2/C"
_symmetry_group_IT_number 15
_symmetry_cell_setting 'monoclinic'
loop_
_space_group_symop_operation_xyz
x,y,z
-x,y,1/2-z
-x,-y,-z
x,-y,1/2+z
1/2+x,1/2+y,z
1/2-x,1/2+y,1/2-z
1/2-x,1/2-y,-z
1/2+x,1/2-y,1/2+z
loop_
_atom_site_type_symbol
_atom_site_label
_atom_site_fract_x
_atom_site_fract_y
_atom_site_fract_z
Si Si1 0.067603 0.451778 0.233913
Si Si2 0.580191 0.741033 0.752264
Si Si3 0.894308 0.110598 0.869058
Si Si4 0.401373 0.477052 0.717957
Si Si5 0.062932 0.393446 0.006912
O O1 0.244154 0.451196 0.469344
O O2 0.000000 0.414407 0.250000
O O3 0.997353 0.534447 0.133274
O O4 0.021152 0.401715 0.074184
O O5 0.500000 0.707785 0.750000
O O6 0.556578 0.687221 0.622436
O O7 0.518107 0.822229 0.645191
O O8 0.750000 0.750000 0.000000
O O9 0.738256 0.117411 0.723321
O O10 0.878763 0.047079 0.762606
O O11 0.020819 0.091293 0.118772
O O12 0.500000 0.503271 0.750000
#
# Coordination Sequence:
#
# PCOD8152218 Si02
#       5
#     8   8   8   8   8
#     4  11  22  40  67  90 122 162 203 253 308 357
#     4  12  24  41  65  90 125 162 201 251 306 358
#     4  11  23  40  62  95 124 159 208 250 300 367
#     4  11  22  39  65  92 123 160 204 256 304 351
#     4  11  23  41  63  92 126 160 204 252 303 365
#
# _framework density 19.403300999999999
#
# number of rings (size 3 to 8) (size 9 to 14) (size 15 to 20)
#    0.000    0.800    6.000    2.400    0.000    1.600 
#    0.000    2.000    0.000    0.000    0.000    0.000 
#    0.000    0.000    0.000    0.000    0.000    0.000 
#
# Total GULP energy -248085.067149 kJ/mol
# GULP energy per Si atom -12404.253357 kJ/mol
# Density = 1.935914 g / cm^3
# Si number density = 19.403301 Si / 1000 Ang^3
#
#
#
# Elastic Constant Matrix: (Units=GPa)
#
#
# Indices 1 2 3 4 5 6 
#
# 1 137.2625 17.7194 13.2844 0.0000 1.6308 0.0000
# 2 17.7194 59.1412 -4.3218 0.0000 -1.6026 0.0000
# 3 13.2844 -4.3218 64.0869 0.0000 9.9979 0.0000
# 4 0.0000 0.0000 0.0000 -39.1316 0.0000 31.4737
# 5 1.6308 -1.6026 9.9979 0.0000 38.9138 0.0000
# 6 0.0000 0.0000 0.0000 31.4737 0.0000 4.9551
#
#
#
# Elastic Compliance Matrix: (Units=1/GPa)
#
#
# Indices 1 2 3 4 5 6 
#
# 1 0.007775 -0.002459 -0.001782 0.000000 0.000031 0.000000
# 2 -0.002459 0.017777 0.001644 0.000000 0.000413 0.000000
# 3 -0.001782 0.001644 0.016733 0.000000 -0.004157 0.000000
# 4 0.000000 0.000000 0.000000 -0.004183 0.000000 0.026571
# 5 0.000031 0.000413 -0.004157 0.000000 0.026781 0.000000
# 6 0.000000 0.000000 0.000000 0.026571 0.000000 0.033036
#
#
# Mechanical properties :
#
#
# Convention : Reuss Voigt Hill
#
# Bulk Modulus (GPa) = 26.96134 34.87273 30.91703
# Shear Modulus (GPa) = 43.29899 16.53471 29.91685
#
# Velocity S-wave (km/s) = 4.72903 2.92234 3.93089
# Velocity P-wave (km/s) = 6.61390 5.42203 6.04740
#
# Compressibility (1/GPa) = 0.03709015
#
# Stress axis : x y z
#
# Youngs Moduli (GPa) = 128.61988 56.25335 59.76370
#
# Poissons Ratio (x) = 0.13832 0.10651
# Poissons Ratio (y) = 0.31626 -0.09826
# Poissons Ratio (z) = 0.22923 -0.09249
#
# Static dielectric constant tensor:
#      x y z
#    x 3.698320 0.000000 -0.044970 
#    y 0.000000 3.550830 0.000000 
#    z -0.044970 0.000000 3.628870 
# 
# 
# High freq. dielectric constant tensor:
#      x y z
#    x 1.779990 0.000000 -0.000330 
#    y 0.000000 1.730520 0.000000 
#    z -0.000330 0.000000 1.768010 
# 
# From -- ./inp_files/29102.got.cif
#   From: 2010.06.25/outbox.cif.g09.slc.cpg/sg15_15_cif.got.tgz:29102.got - 2010.06.28 07:06:18.
