data_PCOD8152172
_publ_section_title
;
Structure prediction by ZEFSAII (Michael W. Deem and Ramdas Pophale) SiO2 
 PCOD8152172
Probable space group: C 2/C
;
_chemical_formula_sum "Si O2"
_cell_formula_units_Z 56
_cell_length_a 20.498247
_cell_length_b 20.966339
_cell_length_c 11.391401
_cell_angle_alpha 90.000000
_cell_angle_beta 150.412402
_cell_angle_gamma 90.000000
_cell_volume 2417.279021
_symmetry_space_group_name_H-M "C 2/C"
_symmetry_group_IT_number 15
_symmetry_cell_setting 'monoclinic'
loop_
_space_group_symop_operation_xyz
x,y,z
-x,y,1/2-z
-x,-y,-z
x,-y,1/2+z
1/2+x,1/2+y,z
1/2-x,1/2+y,1/2-z
1/2-x,1/2-y,-z
1/2+x,1/2-y,1/2+z
loop_
_atom_site_type_symbol
_atom_site_label
_atom_site_fract_x
_atom_site_fract_y
_atom_site_fract_z
Si Si1 0.356536 0.916932 0.563171
Si Si2 0.849755 0.562542 0.517965
Si Si3 0.290074 0.419621 0.937086
Si Si4 0.380467 0.360269 0.440415
Si Si5 0.230404 0.339608 0.437685
Si Si6 0.500000 0.684584 0.750000
Si Si7 0.927164 0.768410 0.890199
Si Si8 0.000000 0.971576 0.750000
O O1 0.500000 0.890910 0.750000
O O2 0.334159 0.919314 0.668301
O O3 0.250805 0.870700 0.339463
O O4 0.337875 0.987414 0.483864
O O5 0.764474 0.591292 0.278346
O O6 0.796732 0.588502 0.560186
O O7 0.000000 0.585875 0.750000
O O8 0.382841 0.360101 0.114495
O O9 0.373935 0.484746 0.084191
O O10 0.342455 0.340967 0.513238
O O11 0.455587 0.301761 0.497993
O O12 0.466372 0.425952 0.584474
O O13 0.094523 0.305849 0.179995
O O14 0.287815 0.301831 0.640237
O O15 0.453263 0.729058 0.570038
#
# Coordination Sequence:
#
# PCOD8152172 Si02
#       8
#     8   8   8   8   8   4   8   4
#     4  11  26  42  68 105 151 191 230 289 364 435
#     4  11  25  41  67 100 143 188 232 286 353 435
#     4  11  23  41  69 106 145 185 232 300 361 428
#     4  12  23  45  71 104 140 187 238 300 353 426
#     4  11  25  44  68 100 141 187 242 288 356 429
#     4  11  22  44  70 108 136 178 241 302 366 406
#     4  11  24  45  71  99 140 186 240 299 348 421
#     4  11  22  38  72 106 142 178 237 294 364 422
#
# _framework density 23.166543999999998
#
# number of rings (size 3 to 8) (size 9 to 14) (size 15 to 20)
#    0.000    0.857    5.714    0.857    2.000    4.000 
#    1.286    0.714    0.000    0.000    0.000    0.000 
#    0.000    0.000    0.000    0.000    0.000    0.000 
#
# Total GULP energy -347192.338672 kJ/mol
# GULP energy per Si atom -12399.726381 kJ/mol
# Density = 2.311382 g / cm^3
# Si number density = 23.166544 Si / 1000 Ang^3
#
#
#
# Elastic Constant Matrix: (Units=GPa)
#
#
# Indices 1 2 3 4 5 6 
#
# 1 141.0846 28.5133 52.1028 0.0000 0.9327 0.0000
# 2 28.5133 58.2126 49.4600 0.0000 -0.9679 0.0000
# 3 52.1028 49.4600 135.6272 0.0000 -5.7926 0.0000
# 4 0.0000 0.0000 0.0000 34.7532 0.0000 -10.1283
# 5 0.9327 -0.9679 -5.7926 0.0000 42.9613 0.0000
# 6 0.0000 0.0000 0.0000 -10.1283 0.0000 18.0830
#
#
#
# Elastic Compliance Matrix: (Units=1/GPa)
#
#
# Indices 1 2 3 4 5 6 
#
# 1 0.008430 -0.001980 -0.002541 0.000000 -0.000570 0.000000
# 2 -0.001980 0.025375 -0.008516 0.000000 -0.000534 0.000000
# 3 -0.002541 -0.008516 0.011515 0.000000 0.001416 0.000000
# 4 0.000000 0.000000 0.000000 0.034387 0.000000 0.019261
# 5 -0.000570 -0.000534 0.001416 0.000000 0.023468 0.000000
# 6 0.000000 0.000000 0.000000 0.019261 0.000000 0.066088
#
#
# Mechanical properties :
#
#
# Convention : Reuss Voigt Hill
#
# Bulk Modulus (GPa) = 51.95587 66.11963 59.03775
# Shear Modulus (GPa) = 24.78283 32.81608 28.79945
#
# Velocity S-wave (km/s) = 3.27428 3.76776 3.52966
# Velocity P-wave (km/s) = 6.06386 6.89427 6.49236
#
# Compressibility (1/GPa) = 0.01924710
#
# Stress axis : x y z
#
# Youngs Moduli (GPa) = 118.62107 39.40943 86.84147
#
# Poissons Ratio (x) = 0.07802 0.22066
# Poissons Ratio (y) = 0.23485 0.73952
# Poissons Ratio (z) = 0.30141 0.33560
#
# Static dielectric constant tensor:
#      x y z
#    x 3.983620 0.000000 0.008570 
#    y 0.000000 4.039730 0.000000 
#    z 0.008570 0.000000 4.283350 
# 
# 
# High freq. dielectric constant tensor:
#      x y z
#    x 1.907270 0.000000 -0.003670 
#    y 0.000000 1.905310 0.000000 
#    z -0.003670 0.000000 1.926030 
# 
# From -- ./inp_files/114780.got.cif
#   From: 2010.06.25/outbox.cif.g09.slc.cpg/sg15_58_cif.got.tgz:114780.got - 2010.06.28 07:06:18.
