data_PCOD8152701
_publ_section_title
;
Structure prediction by ZEFSAII (Michael W. Deem and Ramdas Pophale) SiO2 
 PCOD8152701
Probable space group: C 2/C
;
_chemical_formula_sum "Si O2"
_cell_formula_units_Z 56
_cell_length_a 20.281726
_cell_length_b 10.131775
_cell_length_c 11.774114
_cell_angle_alpha 90.000000
_cell_angle_beta 71.013619
_cell_angle_gamma 90.000000
_cell_volume 2287.832795
_symmetry_space_group_name_H-M "C 2/C"
_symmetry_group_IT_number 15
_symmetry_cell_setting 'monoclinic'
loop_
_space_group_symop_operation_xyz
x,y,z
-x,y,1/2-z
-x,-y,-z
x,-y,1/2+z
1/2+x,1/2+y,z
1/2-x,1/2+y,1/2-z
1/2-x,1/2-y,-z
1/2+x,1/2-y,1/2+z
loop_
_atom_site_type_symbol
_atom_site_label
_atom_site_fract_x
_atom_site_fract_y
_atom_site_fract_z
Si Si1 0.928413 0.177538 0.257223
Si Si2 0.190916 0.023346 0.292834
Si Si3 0.707965 0.828201 0.615190
Si Si4 0.133754 0.789808 0.462396
Si Si5 0.057545 0.552638 0.878748
Si Si6 0.564704 0.781012 0.785473
Si Si7 0.191664 0.507995 0.432652
O O1 0.883137 0.083487 0.202567
O O2 0.886618 0.205681 0.395381
O O3 0.955755 0.308710 0.175899
O O4 0.000000 0.101286 0.250000
O O5 0.241876 0.139118 0.308227
O O6 0.233631 0.961166 0.162564
O O7 0.176916 0.918584 0.400865
O O8 0.750000 0.750000 0.500000
O O9 0.640218 0.742310 0.690996
O O10 0.685610 0.965995 0.567466
O O11 0.066235 0.771137 0.415688
O O12 0.184097 0.664477 0.422502
O O13 0.061272 0.439663 0.780793
O O14 0.131108 0.568940 0.899915
O O15 0.000000 0.500000 0.000000
O O16 0.500000 0.719785 0.750000
#
# Coordination Sequence:
#
# PCOD8152701 Si02
#       7
#     8   8   8   8   8   8   8
#     4  12  27  47  74 105 146 195 249 313 381 454
#     4  12  27  46  68 105 143 196 250 307 372 454
#     4  12  24  43  68 105 140 190 246 306 380 444
#     4  11  26  46  71 108 143 199 252 301 384 455
#     4  11  22  44  75 111 145 186 246 309 379 441
#     4  11  23  43  70 104 146 186 239 307 375 451
#     4  11  24  43  72 103 147 190 245 316 371 453
#
# _framework density 24.477314
#
# number of rings (size 3 to 8) (size 9 to 14) (size 15 to 20)
#    0.000    0.571    2.857    6.429    2.000    3.429 
#    0.000    0.000    0.000    0.000    0.000    0.000 
#    0.000    0.000    0.000    0.000    0.000    0.000 
#
# Total GULP energy -347114.092408 kJ/mol
# GULP energy per Si atom -12396.931872 kJ/mol
# Density = 2.442160 g / cm^3
# Si number density = 24.477314 Si / 1000 Ang^3
#
#
#
# Elastic Constant Matrix: (Units=GPa)
#
#
# Indices 1 2 3 4 5 6 
#
# 1 154.2824 23.7285 26.5290 0.0000 -3.8768 0.0000
# 2 23.7285 51.7400 27.6916 0.0000 -4.4679 0.0000
# 3 26.5290 27.6916 127.3543 0.0000 -10.2059 0.0000
# 4 0.0000 0.0000 0.0000 32.9668 0.0000 -1.9192
# 5 -3.8768 -4.4679 -10.2059 0.0000 41.9178 0.0000
# 6 0.0000 0.0000 0.0000 -1.9192 0.0000 27.4018
#
#
#
# Elastic Compliance Matrix: (Units=1/GPa)
#
#
# Indices 1 2 3 4 5 6 
#
# 1 0.007058 -0.002765 -0.000857 0.000000 0.000149 0.000000
# 2 -0.002765 0.023015 -0.004337 0.000000 0.001141 0.000000
# 3 -0.000857 -0.004337 0.009108 0.000000 0.001676 0.000000
# 4 0.000000 0.000000 0.000000 0.030458 0.000000 0.002133
# 5 0.000149 0.001141 0.001676 0.000000 0.024400 0.000000
# 6 0.000000 0.000000 0.000000 0.002133 0.000000 0.036643
#
#
# Mechanical properties :
#
#
# Convention : Reuss Voigt Hill
#
# Bulk Modulus (GPa) = 42.98689 54.36388 48.67538
# Shear Modulus (GPa) = 32.39289 37.48577 34.93933
#
# Velocity S-wave (km/s) = 3.64178 3.91762 3.78222
# Velocity P-wave (km/s) = 5.93999 6.53619 6.24521
#
# Compressibility (1/GPa) = 0.02326291
#
# Stress axis : x y z
#
# Youngs Moduli (GPa) = 141.68238 43.44932 109.79424
#
# Poissons Ratio (x) = 0.12015 0.09409
# Poissons Ratio (y) = 0.39180 0.47616
# Poissons Ratio (z) = 0.12142 0.18843
#
# Static dielectric constant tensor:
#      x y z
#    x 4.534300 0.000000 -0.919820 
#    y 0.000000 0.099280 0.000000 
#    z -0.919820 0.000000 0.734360 
# 
# 
# High freq. dielectric constant tensor:
#      x y z
#    x 1.981740 0.000000 0.002230 
#    y 0.000000 1.957210 0.000000 
#    z 0.002230 0.000000 1.985240 
# 
# From -- ./inp_files/111554.got.cif
#   From: 2010.06.25/outbox.cif.g09.slc.cpg/sg15_56_cif.got.tgz:111554.got - 2010.06.28 07:06:18.
