data_PCOD8152944
_publ_section_title
;
Structure prediction by ZEFSAII (Michael W. Deem and Ramdas Pophale) SiO2 
 PCOD8152944
Probable space group: C 2/C
;
_chemical_formula_sum "Si O2"
_cell_formula_units_Z 40
_cell_length_a 9.351378
_cell_length_b 10.963299
_cell_length_c 18.262441
_cell_angle_alpha 90.000000
_cell_angle_beta 81.892614
_cell_angle_gamma 90.000000
_cell_volume 1853.588379
_symmetry_space_group_name_H-M "C 2/C"
_symmetry_group_IT_number 15
_symmetry_cell_setting 'monoclinic'
loop_
_space_group_symop_operation_xyz
x,y,z
-x,y,1/2-z
-x,-y,-z
x,-y,1/2+z
1/2+x,1/2+y,z
1/2-x,1/2+y,1/2-z
1/2-x,1/2-y,-z
1/2+x,1/2-y,1/2+z
loop_
_atom_site_type_symbol
_atom_site_label
_atom_site_fract_x
_atom_site_fract_y
_atom_site_fract_z
Si Si1 0.416993 0.520334 0.331762
Si Si2 0.883169 0.111894 0.055078
Si Si3 0.853878 0.252372 0.844443
Si Si4 0.669507 0.200124 0.316211
Si Si5 0.154929 0.839973 0.457901
O O1 0.500000 0.513492 0.250000
O O2 0.514535 0.591009 0.382410
O O3 0.389055 0.385594 0.363579
O O4 0.262572 0.584926 0.334083
O O5 0.753044 0.199061 0.086134
O O6 0.817012 0.984138 0.028944
O O7 0.983534 0.180714 0.987702
O O8 0.783427 0.256260 0.768148
O O9 0.999484 0.334468 0.832221
O O10 0.692529 0.312916 0.370604
O O11 0.250000 0.750000 0.500000
#
# Coordination Sequence:
#
# PCOD8152944 Si02
#       5
#     8   8   8   8   8
#     4  12  21  42  68  94 130 173 220 273 328 377
#     4  11  24  42  69  95 131 179 213 267 333 383
#     4  11  24  43  66  98 129 166 226 273 316 391
#     4  11  23  41  65  95 131 168 216 274 322 382
#     4  11  23  43  67  98 136 171 217 268 325 398
#
# _framework density 21.579763
#
# number of rings (size 3 to 8) (size 9 to 14) (size 15 to 20)
#    0.000    0.800    8.000    0.000    0.000    2.400 
#    0.000    2.000    0.000    0.000    0.000    0.000 
#    0.000    0.000    0.000    0.000    0.000    0.000 
#
# Total GULP energy -247974.794847 kJ/mol
# GULP energy per Si atom -12398.739742 kJ/mol
# Density = 2.153065 g / cm^3
# Si number density = 21.579763 Si / 1000 Ang^3
#
#
#
# Elastic Constant Matrix: (Units=GPa)
#
#
# Indices 1 2 3 4 5 6 
#
# 1 88.4394 61.0891 2.8164 0.0000 -15.5916 0.0000
# 2 61.0891 89.8878 21.6946 0.0000 -19.9469 0.0000
# 3 2.8164 21.6946 42.8772 0.0000 -23.0100 0.0000
# 4 0.0000 0.0000 0.0000 37.4828 0.0000 -0.5774
# 5 -15.5916 -19.9469 -23.0100 0.0000 46.5079 0.0000
# 6 0.0000 0.0000 0.0000 -0.5774 0.0000 39.9328
#
#
#
# Elastic Compliance Matrix: (Units=1/GPa)
#
#
# Indices 1 2 3 4 5 6 
#
# 1 0.024205 -0.017704 0.010412 0.000000 0.005673 0.000000
# 2 -0.017704 0.025954 -0.012499 0.000000 -0.000988 0.000000
# 3 0.010412 -0.012499 0.038066 0.000000 0.016963 0.000000
# 4 0.000000 0.000000 0.000000 0.026685 0.000000 0.000386
# 5 0.005673 -0.000988 0.016963 0.000000 0.031373 0.000000
# 6 0.000000 0.000000 0.000000 0.000386 0.000000 0.025048
#
#
# Mechanical properties :
#
#
# Convention : Reuss Voigt Hill
#
# Bulk Modulus (GPa) = 20.55802 43.60049 32.07926
# Shear Modulus (GPa) = 22.01417 33.82500 27.91959
#
# Velocity S-wave (km/s) = 3.19741 3.96339 3.60083
# Velocity P-wave (km/s) = 4.81440 6.41816 5.67324
#
# Compressibility (1/GPa) = 0.04864282
#
# Stress axis : x y z
#
# Youngs Moduli (GPa) = 41.31445 38.52910 26.27019
#
# Poissons Ratio (x) = 0.68212 -0.27353
# Poissons Ratio (y) = 0.73143 0.32836
# Poissons Ratio (z) = -0.43017 0.48158
#
# Static dielectric constant tensor:
#      x y z
#    x 4.076650 0.000000 -0.039350 
#    y 0.000000 3.731590 0.000000 
#    z -0.039350 0.000000 4.323670 
# 
# 
# High freq. dielectric constant tensor:
#      x y z
#    x 1.840290 0.000000 0.005720 
#    y 0.000000 1.826230 0.000000 
#    z 0.005720 0.000000 1.878930 
# 
# From -- ./inp_files/187832.got.cif
#   From: 2010.06.25/outbox.cif.g09.slc.cpg/sg15_94_cif.got.tgz:187832.got - 2010.06.28 07:06:18.
