data_PCOD8152381
_publ_section_title
;
Structure prediction by ZEFSAII (Michael W. Deem and Ramdas Pophale) SiO2 
 PCOD8152381
Probable space group: C 2/C
;
_chemical_formula_sum "Si O2"
_cell_formula_units_Z 56
_cell_length_a 27.936995
_cell_length_b 9.080491
_cell_length_c 17.021642
_cell_angle_alpha 90.000000
_cell_angle_beta 38.107663
_cell_angle_gamma 90.000000
_cell_volume 2664.863432
_symmetry_space_group_name_H-M "C 2/C"
_symmetry_group_IT_number 15
_symmetry_cell_setting 'monoclinic'
loop_
_space_group_symop_operation_xyz
x,y,z
-x,y,1/2-z
-x,-y,-z
x,-y,1/2+z
1/2+x,1/2+y,z
1/2-x,1/2+y,1/2-z
1/2-x,1/2-y,-z
1/2+x,1/2-y,1/2+z
loop_
_atom_site_type_symbol
_atom_site_label
_atom_site_fract_x
_atom_site_fract_y
_atom_site_fract_z
Si Si1 0.071547 0.274501 0.199996
Si Si2 0.345017 0.174091 0.182957
Si Si3 0.940351 0.998572 0.196398
Si Si4 0.514150 0.291994 0.999182
Si Si5 0.711419 0.843699 0.919617
Si Si6 0.858656 0.366568 0.231281
Si Si7 0.277155 0.633778 0.898488
O O1 0.036817 0.111770 0.265079
O O2 0.094087 0.363400 0.248443
O O3 0.000000 0.358762 0.250000
O O4 0.144541 0.252826 0.049138
O O5 0.312568 0.138037 0.139393
O O6 0.291453 0.293997 0.294776
O O7 0.330002 0.030610 0.255534
O O8 0.434111 0.229474 0.065266
O O9 0.942945 0.085366 0.110063
O O10 0.856132 0.938172 0.327182
O O11 0.998443 0.859603 0.106791
O O12 0.579609 0.165389 0.919363
O O13 0.790053 0.751449 0.824385
O O14 0.717290 0.000837 0.957421
O O15 0.250000 0.750000 0.000000
#
# Coordination Sequence:
#
# PCOD8152381 Si02
#       7
#     8   8   8   8   8   8   8
#     4  11  23  40  64  94 126 178 217 262 323 396
#     4  11  24  39  65 100 128 173 214 274 327 390
#     4   9  19  38  61  90 122 169 211 260 319 384
#     4   9  18  38  65  88 127 163 212 262 322 382
#     4  12  23  41  64  95 134 168 222 268 326 395
#     4  11  22  41  66  96 130 170 218 270 327 385
#     4  11  23  41  64  93 133 173 215 270 332 380
#
# _framework density 21.014211
#
# number of rings (size 3 to 8) (size 9 to 14) (size 15 to 20)
#    0.000    1.429    2.857    4.286    2.000    0.000 
#    2.571    1.429    0.000    3.429    0.000    0.000 
#    0.000    0.000    0.000    0.000    0.000    0.000 
#
# Total GULP energy -346949.185288 kJ/mol
# GULP energy per Si atom -12391.042332 kJ/mol
# Density = 2.096638 g / cm^3
# Si number density = 21.014211 Si / 1000 Ang^3
#
#
#
# Elastic Constant Matrix: (Units=GPa)
#
#
# Indices 1 2 3 4 5 6 
#
# 1 93.2397 40.4723 40.4275 -0.0001 5.0345 0.0004
# 2 40.4723 93.1138 33.9914 0.0005 0.5791 0.0005
# 3 40.4275 33.9914 118.1177 -0.0007 -7.9530 0.0004
# 4 -0.0001 0.0005 -0.0007 41.3133 0.0005 4.9210
# 5 5.0345 0.5791 -7.9530 0.0005 28.5588 -0.0006
# 6 0.0004 0.0005 0.0004 4.9210 -0.0006 19.2840
#
#
#
# Elastic Compliance Matrix: (Units=1/GPa)
#
#
# Indices 1 2 3 4 5 6 
#
# 1 0.014753 -0.004982 -0.003856 0.000000 -0.003573 0.000000
# 2 -0.004982 0.013725 -0.002246 0.000000 -0.000026 0.000000
# 3 -0.003856 -0.002246 0.010681 0.000000 0.003700 0.000000
# 4 0.000000 0.000000 0.000000 0.024964 -0.000001 -0.006370
# 5 -0.003573 -0.000026 0.003700 -0.000001 0.036676 0.000001
# 6 0.000000 0.000000 0.000000 -0.006370 0.000001 0.053482
#
#
# Mechanical properties :
#
#
# Convention : Reuss Voigt Hill
#
# Bulk Modulus (GPa) = 58.85826 59.36151 59.10989
# Shear Modulus (GPa) = 27.45520 30.46987 28.96254
#
# Velocity S-wave (km/s) = 3.61848 3.81197 3.71649
# Velocity P-wave (km/s) = 6.74741 6.90539 6.82686
#
# Compressibility (1/GPa) = 0.01698997
#
# Stress axis : x y z
#
# Youngs Moduli (GPa) = 67.78447 72.85811 93.62009
#
# Poissons Ratio (x) = 0.36301 0.36101
# Poissons Ratio (y) = 0.33773 0.21029
# Poissons Ratio (z) = 0.26138 0.16366
#
# Static dielectric constant tensor:
#      x y z
#    x 3.500630 0.000000 -0.057240 
#    y 0.000000 4.138290 0.000000 
#    z -0.057240 0.000000 4.159900 
# 
# 
# High freq. dielectric constant tensor:
#      x y z
#    x 1.794290 0.000000 -0.004890 
#    y 0.000000 1.826460 0.000000 
#    z -0.004890 0.000000 1.842470 
# 
# From -- ./inp_files/224391.got.cif
#   From: 2010.06.25/outbox.cif.g09.slc.cpg/sg15_113_cif.got.tgz:224391.got - 2010.06.28 07:06:18.
