data_PCOD8152744
_publ_section_title
;
Structure prediction by ZEFSAII (Michael W. Deem and Ramdas Pophale) SiO2 
 PCOD8152744
Probable space group: C 2/C
;
_chemical_formula_sum "Si O2"
_cell_formula_units_Z 60
_cell_length_a 12.400826
_cell_length_b 19.327692
_cell_length_c 18.878927
_cell_angle_alpha 90.000000
_cell_angle_beta 143.044413
_cell_angle_gamma 90.000000
_cell_volume 2720.344081
_symmetry_space_group_name_H-M "C 2/C"
_symmetry_group_IT_number 15
_symmetry_cell_setting 'monoclinic'
loop_
_space_group_symop_operation_xyz
x,y,z
-x,y,1/2-z
-x,-y,-z
x,-y,1/2+z
1/2+x,1/2+y,z
1/2-x,1/2+y,1/2-z
1/2-x,1/2-y,-z
1/2+x,1/2-y,1/2+z
loop_
_atom_site_type_symbol
_atom_site_label
_atom_site_fract_x
_atom_site_fract_y
_atom_site_fract_z
Si Si1 0.500000 0.368433 0.250000
Si Si2 0.899267 0.436632 0.978854
Si Si3 0.825990 0.321597 0.335314
Si Si4 0.130435 0.020850 0.924957
Si Si5 0.150104 0.092148 0.222799
Si Si6 0.590246 0.705068 0.450552
Si Si7 0.795684 0.534876 0.160611
Si Si8 0.697225 0.124563 0.825302
O O1 0.648395 0.320263 0.290425
O O2 0.384466 0.413251 0.133765
O O3 0.781520 0.465231 0.982063
O O4 0.788555 0.397972 0.859520
O O5 0.000000 0.500000 0.000000
O O6 0.046500 0.386765 0.087455
O O7 0.762541 0.327513 0.221087
O O8 0.942433 0.253272 0.410539
O O9 0.170275 0.046058 0.025714
O O10 0.941863 0.982414 0.817449
O O11 0.243095 0.089793 0.194100
O O12 0.014179 0.156879 0.160856
O O13 0.750000 0.750000 0.500000
O O14 0.662010 0.648865 0.542753
O O15 0.772142 0.456186 0.175521
O O16 0.000000 0.551295 0.250000
O O17 0.500000 0.140039 0.750000
#
# Coordination Sequence:
#
# PCOD8152744 Si02
#       8
#     4   8   8   8   8   8   8   8
#     4  12  26  44  70 100 144 188 224 292 358 430
#     4  12  22  43  72 104 139 177 232 300 356 406
#     4  12  27  45  70  99 143 190 238 281 354 427
#     4  12  21  41  68 105 138 175 228 288 356 408
#     4  12  25  43  69 107 140 180 232 290 356 415
#     4  12  27  47  69 102 140 188 240 290 346 418
#     4  11  24  41  69 103 140 176 229 290 349 418
#     4  11  22  45  74 101 137 182 232 292 354 408
#
# _framework density 22.056034
#
# number of rings (size 3 to 8) (size 9 to 14) (size 15 to 20)
#    0.000    0.267    5.333    5.200    3.733    0.000 
#    1.200    0.667    0.000    0.000    0.000    0.000 
#    0.000    0.000    0.000    0.000    0.000    0.000 
#
# Total GULP energy -372090.849984 kJ/mol
# GULP energy per Si atom -12403.028333 kJ/mol
# Density = 2.200583 g / cm^3
# Si number density = 22.056034 Si / 1000 Ang^3
#
#
#
# Elastic Constant Matrix: (Units=GPa)
#
#
# Indices 1 2 3 4 5 6 
#
# 1 119.9649 23.4558 17.0528 0.0006 10.6410 -0.0002
# 2 23.4558 65.6909 13.1225 0.0003 11.9629 -0.0002
# 3 17.0528 13.1225 75.7268 0.0026 7.3144 -0.0005
# 4 0.0006 0.0003 0.0026 25.6659 0.0013 13.3473
# 5 10.6410 11.9629 7.3144 0.0013 35.3604 -0.0004
# 6 -0.0002 -0.0002 -0.0005 13.3473 -0.0004 24.8822
#
#
#
# Elastic Compliance Matrix: (Units=1/GPa)
#
#
# Indices 1 2 3 4 5 6 
#
# 1 0.009211 -0.002716 -0.001454 0.000000 -0.001552 0.000000
# 2 -0.002716 0.017435 -0.001958 0.000000 -0.004676 0.000000
# 3 -0.001454 -0.001958 0.014046 -0.000002 -0.001806 0.000001
# 4 0.000000 0.000000 -0.000002 0.054036 -0.000002 -0.028986
# 5 -0.001552 -0.004676 -0.001806 -0.000002 0.030703 0.000001
# 6 0.000000 0.000000 0.000001 -0.028986 0.000001 0.055738
#
#
# Mechanical properties :
#
#
# Convention : Reuss Voigt Hill
#
# Bulk Modulus (GPa) = 35.16464 40.96052 38.06258
# Shear Modulus (GPa) = 24.64218 31.03180 27.83699
#
# Velocity S-wave (km/s) = 3.34616 3.75501 3.55646
# Velocity P-wave (km/s) = 5.55940 6.11650 5.84459
#
# Compressibility (1/GPa) = 0.02843766
#
# Stress axis : x y z
#
# Youngs Moduli (GPa) = 108.56447 57.35499 71.19250
#
# Poissons Ratio (x) = 0.15577 0.10349
# Poissons Ratio (y) = 0.29485 0.13940
# Poissons Ratio (z) = 0.15782 0.11230
#
# Static dielectric constant tensor:
#      x y z
#    x 4.140800 -0.000010 0.048760 
#    y -0.000010 3.604040 0.000000 
#    z 0.048760 0.000000 4.097050 
# 
# 
# High freq. dielectric constant tensor:
#      x y z
#    x 1.873660 0.000000 0.003250 
#    y 0.000000 1.845680 0.000000 
#    z 0.003250 0.000000 1.885070 
# 
# From -- ./inp_files/200537.got.cif
#   From: 2010.06.25/outbox.cif.g09.slc.cpg/sg15_101_cif.got.tgz:200537.got - 2010.06.28 07:06:18.
