data_PCOD8152537
_publ_section_title
;
Structure prediction by ZEFSAII (Michael W. Deem and Ramdas Pophale) SiO2 
 PCOD8152537
Probable space group: C 2/C
;
_chemical_formula_sum "Si O2"
_cell_formula_units_Z 40
_cell_length_a 10.191779
_cell_length_b 19.616461
_cell_length_c 8.264406
_cell_angle_alpha 90.000000
_cell_angle_beta 82.017594
_cell_angle_gamma 90.000000
_cell_volume 1636.265594
_symmetry_space_group_name_H-M "C 2/C"
_symmetry_group_IT_number 15
_symmetry_cell_setting 'monoclinic'
loop_
_space_group_symop_operation_xyz
x,y,z
-x,y,1/2-z
-x,-y,-z
x,-y,1/2+z
1/2+x,1/2+y,z
1/2-x,1/2+y,1/2-z
1/2-x,1/2-y,-z
1/2+x,1/2-y,1/2+z
loop_
_atom_site_type_symbol
_atom_site_label
_atom_site_fract_x
_atom_site_fract_y
_atom_site_fract_z
Si Si1 0.955443 0.156876 0.942357
Si Si2 0.721855 0.322421 0.577801
Si Si3 0.136337 0.702141 0.129466
Si Si4 0.721590 0.926202 0.461808
Si Si5 0.359354 0.936863 0.360822
O O1 0.856013 0.224066 0.965497
O O2 0.867306 0.091040 0.007371
O O3 0.000000 0.149727 0.750000
O O4 0.072216 0.158411 0.053690
O O5 0.750000 0.250000 0.500000
O O6 0.742170 0.314924 0.766782
O O7 0.826509 0.377628 0.493357
O O8 0.000000 0.707247 0.250000
O O9 0.125631 0.639252 0.006465
O O10 0.746325 0.935938 0.266203
O O11 0.649319 0.990883 0.549308
O O12 0.500000 0.927338 0.250000
#
# Coordination Sequence:
#
# PCOD8152537 Si02
#       5
#     8   8   8   8   8
#     4  11  23  44  70 100 141 180 224 289 337 408
#     4  12  23  45  70 104 139 180 227 280 348 408
#     4  11  22  42  72 102 140 176 229 283 338 410
#     4  12  25  46  66 100 137 182 232 281 344 400
#     4  12  26  44  72  98 139 183 232 285 336 411
#
# _framework density 24.445910999999999
#
# number of rings (size 3 to 8) (size 9 to 14) (size 15 to 20)
#    0.000    0.400    6.000    4.200    0.000    1.600 
#    0.000    0.000    0.000    0.000    0.000    0.000 
#    0.000    0.000    0.000    0.000    0.000    0.000 
#
# Total GULP energy -247943.984697 kJ/mol
# GULP energy per Si atom -12397.199235 kJ/mol
# Density = 2.439027 g / cm^3
# Si number density = 24.445911 Si / 1000 Ang^3
#
#
#
# Elastic Constant Matrix: (Units=GPa)
#
#
# Indices 1 2 3 4 5 6 
#
# 1 134.2843 28.0630 15.7201 0.0000 20.1928 0.0000
# 2 28.0630 162.6108 36.0394 0.0000 -20.3942 0.0000
# 3 15.7201 36.0394 111.5278 0.0000 11.6771 0.0000
# 4 0.0000 0.0000 0.0000 33.9879 0.0000 -6.5658
# 5 20.1928 -20.3942 11.6771 0.0000 33.3941 0.0000
# 6 0.0000 0.0000 0.0000 -6.5658 0.0000 33.9215
#
#
#
# Elastic Compliance Matrix: (Units=1/GPa)
#
#
# Indices 1 2 3 4 5 6 
#
# 1 0.009000 -0.002502 0.000280 0.000000 -0.007067 0.000000
# 2 -0.002502 0.008225 -0.003103 0.000000 0.007621 0.000000
# 3 0.000280 -0.003103 0.010531 0.000000 -0.005747 0.000000
# 4 0.000000 0.000000 0.000000 0.030565 0.000000 0.005916
# 5 -0.007067 0.007621 -0.005747 0.000000 0.040883 0.000000
# 6 0.000000 0.000000 0.000000 0.005916 0.000000 0.030625
#
#
# Mechanical properties :
#
#
# Convention : Reuss Voigt Hill
#
# Bulk Modulus (GPa) = 58.45818 63.11864 60.78841
# Shear Modulus (GPa) = 34.20429 42.16739 38.18584
#
# Velocity S-wave (km/s) = 3.74462 4.15773 3.95657
# Velocity P-wave (km/s) = 6.53157 6.99462 6.76706
#
# Compressibility (1/GPa) = 0.01710625
#
# Stress axis : x y z
#
# Youngs Moduli (GPa) = 111.11515 121.58230 94.95416
#
# Poissons Ratio (x) = 0.30414 -0.02657
# Poissons Ratio (y) = 0.27796 0.29465
# Poissons Ratio (z) = -0.03109 0.37728
#
# Static dielectric constant tensor:
#      x y z
#    x 3.912520 0.000000 -2.334700 
#    y 0.000000 4.528850 0.000000 
#    z -2.334700 0.000000 0.241370 
# 
# 
# High freq. dielectric constant tensor:
#      x y z
#    x 1.985900 0.000000 -0.009830 
#    y 0.000000 1.971870 0.000000 
#    z -0.009830 0.000000 1.986820 
# 
# From -- ./inp_files/29223.got.cif
#   From: 2010.06.25/outbox.cif.g09.slc.cpg/sg15_15_cif.got.tgz:29223.got - 2010.06.28 07:06:18.
