data_PCOD8152947
_publ_section_title
;
Structure prediction by ZEFSAII (Michael W. Deem and Ramdas Pophale) SiO2 
 PCOD8152947
Probable space group: C 2/C
;
_chemical_formula_sum "Si O2"
_cell_formula_units_Z 40
_cell_length_a 6.519009
_cell_length_b 22.236363
_cell_length_c 14.166426
_cell_angle_alpha 90.000000
_cell_angle_beta 104.012587
_cell_angle_gamma 90.000000
_cell_volume 1992.443214
_symmetry_space_group_name_H-M "C 2/C"
_symmetry_group_IT_number 15
_symmetry_cell_setting 'monoclinic'
loop_
_space_group_symop_operation_xyz
x,y,z
-x,y,1/2-z
-x,-y,-z
x,-y,1/2+z
1/2+x,1/2+y,z
1/2-x,1/2+y,1/2-z
1/2-x,1/2-y,-z
1/2+x,1/2-y,1/2+z
loop_
_atom_site_type_symbol
_atom_site_label
_atom_site_fract_x
_atom_site_fract_y
_atom_site_fract_z
Si Si1 0.176495 0.265035 0.842465
Si Si2 0.888583 0.110032 0.334984
Si Si3 0.433588 0.009905 0.143539
Si Si4 0.539210 0.209899 0.985350
Si Si5 0.200630 0.420160 0.523898
O O1 0.273934 0.326354 0.813224
O O2 0.378289 0.221416 0.880035
O O3 0.000000 0.239491 0.750000
O O4 0.062237 0.271495 0.928291
O O5 0.712190 0.063492 0.340866
O O6 0.000000 0.093789 0.250000
O O7 0.064230 0.105811 0.436270
O O8 0.500000 0.978597 0.250000
O O9 0.624534 0.039205 0.104087
O O10 0.304644 0.960933 0.069887
O O11 0.750000 0.250000 0.000000
O O12 0.560368 0.138251 0.989842
#
# Coordination Sequence:
#
# PCOD8152947 Si02
#       5
#     8   8   8   8   8
#     4  11  24  40  64  98 127 163 218 268 311 382
#     4  12  21  38  68  95 121 165 220 260 312 376
#     4  11  23  42  62  93 128 162 217 262 316 383
#     4  11  23  43  65  93 130 166 211 263 326 380
#     4  11  23  41  66  90 128 172 205 268 316 376
#
# _framework density 20.075852999999999
#
# number of rings (size 3 to 8) (size 9 to 14) (size 15 to 20)
#    0.000    0.800    6.000    2.400    0.000    0.000 
#    3.600    0.000    0.000    0.000    0.000    0.000 
#    0.000    0.000    0.000    0.000    0.000    0.000 
#
# Total GULP energy -247916.394195 kJ/mol
# GULP energy per Si atom -12395.819710 kJ/mol
# Density = 2.003016 g / cm^3
# Si number density = 20.075853 Si / 1000 Ang^3
#
#
#
# Elastic Constant Matrix: (Units=GPa)
#
#
# Indices 1 2 3 4 5 6 
#
# 1 232.1699 125.7130 114.4994 0.0000 32.7828 0.0000
# 2 125.7130 145.2796 91.6643 0.0000 17.9068 0.0000
# 3 114.4994 91.6643 180.6541 0.0000 30.8713 0.0000
# 4 0.0000 0.0000 0.0000 28.8085 0.0000 -12.0075
# 5 32.7828 17.9068 30.8713 0.0000 43.1569 0.0000
# 6 0.0000 0.0000 0.0000 -12.0075 0.0000 12.0336
#
#
#
# Elastic Compliance Matrix: (Units=1/GPa)
#
#
# Indices 1 2 3 4 5 6 
#
# 1 0.009115 -0.006176 -0.002163 0.000000 -0.002815 0.000000
# 2 -0.006176 0.014323 -0.003576 0.000000 0.001307 0.000000
# 3 -0.002163 -0.003576 0.009326 0.000000 -0.003545 0.000000
# 4 0.000000 0.000000 0.000000 0.059428 0.000000 0.059300
# 5 -0.002815 0.001307 -0.003545 0.000000 0.027303 0.000000
# 6 0.000000 0.000000 0.000000 0.059300 0.000000 0.142272
#
#
# Mechanical properties :
#
#
# Convention : Reuss Voigt Hill
#
# Bulk Modulus (GPa) = 111.92397 135.76189 123.84293
# Shear Modulus (GPa) = 17.32638 31.88158 24.60398
#
# Velocity S-wave (km/s) = 2.94095 3.98937 3.50458
# Velocity P-wave (km/s) = 8.20998 9.43352 8.84294
#
# Compressibility (1/GPa) = 0.00893464
#
# Stress axis : x y z
#
# Youngs Moduli (GPa) = 109.70408 69.81669 107.22166
#
# Poissons Ratio (x) = 0.43121 0.23187
# Poissons Ratio (y) = 0.67757 0.38346
# Poissons Ratio (z) = 0.23724 0.24969
#
# Static dielectric constant tensor:
#      x y z
#    x 3.966850 0.000000 0.135660 
#    y 0.000000 3.623330 0.000000 
#    z 0.135660 0.000000 4.297560 
# 
# 
# High freq. dielectric constant tensor:
#      x y z
#    x 1.796350 0.000000 0.007870 
#    y 0.000000 1.771540 0.000000 
#    z 0.007870 0.000000 1.792590 
# 
# From -- ./inp_files/73074.got.cif
#   From: 2010.06.25/outbox.cif.g09.slc.cpg/sg15_37_cif.got.tgz:73074.got - 2010.06.28 07:06:18.
