data_PCOD8152502
_publ_section_title
;
Structure prediction by ZEFSAII (Michael W. Deem and Ramdas Pophale) SiO2 
 PCOD8152502
Probable space group: C 2/C
;
_chemical_formula_sum "Si O2"
_cell_formula_units_Z 52
_cell_length_a 13.049671
_cell_length_b 21.431812
_cell_length_c 10.098813
_cell_angle_alpha 90.000000
_cell_angle_beta 50.462606
_cell_angle_gamma 90.000000
_cell_volume 2178.216447
_symmetry_space_group_name_H-M "C 2/C"
_symmetry_group_IT_number 15
_symmetry_cell_setting 'monoclinic'
loop_
_space_group_symop_operation_xyz
x,y,z
-x,y,1/2-z
-x,-y,-z
x,-y,1/2+z
1/2+x,1/2+y,z
1/2-x,1/2+y,1/2-z
1/2-x,1/2-y,-z
1/2+x,1/2-y,1/2+z
loop_
_atom_site_type_symbol
_atom_site_label
_atom_site_fract_x
_atom_site_fract_y
_atom_site_fract_z
Si Si1 0.720271 0.626171 0.684943
Si Si2 0.825248 0.990477 0.107103
Si Si3 0.371472 0.428447 0.804494
Si Si4 0.076856 0.726376 0.926344
Si Si5 0.794407 0.680972 0.151495
Si Si6 0.645307 0.910800 0.680272
Si Si7 0.500000 0.287492 0.250000
O O1 0.679377 0.578050 0.830645
O O2 0.850017 0.660189 0.636535
O O3 0.751281 0.590553 0.524828
O O4 0.599171 0.673089 0.760132
O O5 0.915341 0.036942 0.127673
O O6 0.685349 0.028809 0.235246
O O7 0.851341 0.983962 0.928398
O O8 0.500000 0.389914 0.750000
O O9 0.248930 0.379753 0.898550
O O10 0.165165 0.774781 0.767915
O O11 0.078938 0.746178 0.078875
O O12 0.926473 0.717404 0.988693
O O13 0.841044 0.655219 0.255648
O O14 0.500000 0.921857 0.750000
#
# Coordination Sequence:
#
# PCOD8152502 Si02
#       7
#     8   8   8   8   8   8   4
#     4  12  24  39  70 105 140 185 237 299 359 418
#     4  11  26  45  70 109 140 192 236 300 355 435
#     4  11  26  47  74 103 148 188 240 291 365 429
#     4  12  23  43  68 107 140 189 239 300 348 428
#     4  11  25  43  72 106 140 188 241 299 357 421
#     4  11  22  42  69 102 146 182 238 294 363 421
#     4  12  24  38  70 104 146 184 250 296 356 416
#
# _framework density 23.872744000000001
#
# number of rings (size 3 to 8) (size 9 to 14) (size 15 to 20)
#    0.000    0.615    6.154    1.846    3.231    1.846 
#    0.000    3.077    0.000    0.000    0.000    0.000 
#    0.000    0.000    0.000    0.000    0.000    0.000 
#
# Total GULP energy -322171.731212 kJ/mol
# GULP energy per Si atom -12391.220431 kJ/mol
# Density = 2.381841 g / cm^3
# Si number density = 23.872744 Si / 1000 Ang^3
#
#
#
# Elastic Constant Matrix: (Units=GPa)
#
#
# Indices 1 2 3 4 5 6 
#
# 1 120.5084 40.7416 31.8200 0.0000 -10.7132 0.0000
# 2 40.7416 93.0304 21.0347 0.0000 -2.3535 0.0000
# 3 31.8200 21.0347 67.6942 0.0000 -7.7030 0.0000
# 4 0.0000 0.0000 0.0000 31.0824 0.0000 5.4658
# 5 -10.7132 -2.3535 -7.7030 0.0000 25.8543 0.0000
# 6 0.0000 0.0000 0.0000 5.4658 0.0000 39.2296
#
#
#
# Elastic Compliance Matrix: (Units=1/GPa)
#
#
# Indices 1 2 3 4 5 6 
#
# 1 0.010808 -0.003857 -0.003532 0.000000 0.003075 0.000000
# 2 -0.003857 0.012938 -0.002334 0.000000 -0.001116 0.000000
# 3 -0.003532 -0.002334 0.017563 0.000000 0.003557 0.000000
# 4 0.000000 0.000000 0.000000 0.032981 0.000000 -0.004595
# 5 0.003075 -0.001116 0.003557 0.000000 0.040911 0.000000
# 6 0.000000 0.000000 0.000000 -0.004595 0.000000 0.026131
#
#
# Mechanical properties :
#
#
# Convention : Reuss Voigt Hill
#
# Bulk Modulus (GPa) = 45.74096 52.04729 48.89412
# Shear Modulus (GPa) = 29.75048 31.74237 30.74642
#
# Velocity S-wave (km/s) = 3.53400 3.65039 3.59267
# Velocity P-wave (km/s) = 5.98783 6.29416 6.14291
#
# Compressibility (1/GPa) = 0.02186224
#
# Stress axis : x y z
#
# Youngs Moduli (GPa) = 92.52300 77.29285 56.93923
#
# Poissons Ratio (x) = 0.29811 0.20111
# Poissons Ratio (y) = 0.35685 0.13291
# Poissons Ratio (z) = 0.32679 0.18042
#
# Static dielectric constant tensor:
#      x y z
#    x 4.418880 0.000000 -0.091710 
#    y 0.000000 4.239920 0.000000 
#    z -0.091710 0.000000 4.049900 
# 
# 
# High freq. dielectric constant tensor:
#      x y z
#    x 1.956610 0.000000 -0.012210 
#    y 0.000000 1.952890 0.000000 
#    z -0.012210 0.000000 1.924520 
# 
# From -- ./inp_files/91193.got.cif
#   From: 2010.06.25/outbox.cif.g09.slc.cpg/sg15_46_cif.got.tgz:91193.got - 2010.06.28 07:06:18.
