data_PCOD8152626
_publ_section_title
;
Structure prediction by ZEFSAII (Michael W. Deem and Ramdas Pophale) SiO2 
 PCOD8152626
Probable space group: C 2/C
;
_chemical_formula_sum "Si O2"
_cell_formula_units_Z 44
_cell_length_a 16.894118
_cell_length_b 16.162545
_cell_length_c 9.328346
_cell_angle_alpha 90.000000
_cell_angle_beta 130.244903
_cell_angle_gamma 90.000000
_cell_volume 1944.193372
_symmetry_space_group_name_H-M "C 2/C"
_symmetry_group_IT_number 15
_symmetry_cell_setting 'monoclinic'
loop_
_space_group_symop_operation_xyz
x,y,z
-x,y,1/2-z
-x,-y,-z
x,-y,1/2+z
1/2+x,1/2+y,z
1/2-x,1/2+y,1/2-z
1/2-x,1/2-y,-z
1/2+x,1/2-y,1/2+z
loop_
_atom_site_type_symbol
_atom_site_label
_atom_site_fract_x
_atom_site_fract_y
_atom_site_fract_z
Si Si1 0.748472 0.614961 0.671168
Si Si2 0.000000 0.172077 0.750000
Si Si3 0.212197 0.386012 0.589295
Si Si4 0.831173 0.748213 0.225219
Si Si5 0.430230 0.964908 0.541616
Si Si6 0.894947 0.036437 0.445158
O O1 0.781013 0.658125 0.558126
O O2 0.680366 0.678093 0.678050
O O3 0.678210 0.532689 0.565282
O O4 0.851826 0.602139 0.886257
O O5 0.945437 0.235377 0.796371
O O6 0.916441 0.110300 0.581858
O O7 0.175135 0.334619 0.685571
O O8 0.132572 0.459376 0.464294
O O9 0.327596 0.421686 0.742871
O O10 0.750000 0.750000 0.000000
O O11 0.500000 0.924455 0.750000
O O12 0.500000 0.000000 0.500000
O O13 0.000000 0.000000 0.500000
#
# Coordination Sequence:
#
# PCOD8152626 Si02
#       6
#     8   4   8   8   8   8
#     4  11  25  44  74 101 138 182 237 296 346 418
#     4  12  24  46  70 106 134 190 232 288 362 416
#     4  11  25  45  68 104 141 183 232 287 354 421
#     4  12  27  46  67 101 146 186 228 287 358 426
#     4  11  24  44  71 103 135 181 238 289 346 419
#     4  11  22  43  75 103 137 177 240 295 349 403
#
# _framework density 22.631494
#
# number of rings (size 3 to 8) (size 9 to 14) (size 15 to 20)
#    0.000    0.727    5.455    1.636    5.091    1.455 
#    0.000    0.000    0.000    0.000    0.000    0.000 
#    0.000    0.000    0.000    0.000    0.000    0.000 
#
# Total GULP energy -272670.418364 kJ/mol
# GULP energy per Si atom -12394.109926 kJ/mol
# Density = 2.257998 g / cm^3
# Si number density = 22.631494 Si / 1000 Ang^3
#
#
#
# Elastic Constant Matrix: (Units=GPa)
#
#
# Indices 1 2 3 4 5 6 
#
# 1 102.4431 17.4502 37.6770 0.0000 -9.2770 0.0000
# 2 17.4502 66.9253 30.0538 0.0000 -3.1782 0.0000
# 3 37.6770 30.0538 123.9893 0.0000 -8.5596 0.0000
# 4 0.0000 0.0000 0.0000 33.5768 0.0000 -7.9525
# 5 -9.2770 -3.1782 -8.5596 0.0000 47.0852 0.0000
# 6 0.0000 0.0000 0.0000 -7.9525 0.0000 23.5304
#
#
#
# Elastic Compliance Matrix: (Units=1/GPa)
#
#
# Indices 1 2 3 4 5 6 
#
# 1 0.011246 -0.001539 -0.002935 0.000000 0.001578 0.000000
# 2 -0.001539 0.016985 -0.003637 0.000000 0.000182 0.000000
# 3 -0.002935 -0.003637 0.009906 0.000000 0.000977 0.000000
# 4 0.000000 0.000000 0.000000 0.032374 0.000000 0.010941
# 5 0.001578 0.000182 0.000977 0.000000 0.021739 0.000000
# 6 0.000000 0.000000 0.000000 0.010941 0.000000 0.046196
#
#
# Mechanical properties :
#
#
# Convention : Reuss Voigt Hill
#
# Bulk Modulus (GPa) = 45.63117 51.52440 48.57779
# Shear Modulus (GPa) = 30.86917 34.71693 32.79305
#
# Velocity S-wave (km/s) = 3.69723 3.92089 3.81070
# Velocity P-wave (km/s) = 6.19939 6.58133 6.39322
#
# Compressibility (1/GPa) = 0.02191484
#
# Stress axis : x y z
#
# Youngs Moduli (GPa) = 88.91874 58.87496 100.94731
#
# Poissons Ratio (x) = 0.09062 0.29632
# Poissons Ratio (y) = 0.13687 0.36712
# Poissons Ratio (z) = 0.26101 0.21411
#
# Static dielectric constant tensor:
#      x y z
#    x 4.036990 0.000000 -0.162580 
#    y 0.000000 3.568000 0.000000 
#    z -0.162580 0.000000 3.842290 
# 
# 
# High freq. dielectric constant tensor:
#      x y z
#    x 1.909710 0.000000 -0.003540 
#    y 0.000000 1.878710 0.000000 
#    z -0.003540 0.000000 1.902510 
# 
# From -- ./inp_files/49277.got.cif
#   From: 2010.06.25/outbox.cif.g09.slc.cpg/sg15_25_cif.got.tgz:49277.got - 2010.06.28 07:06:18.
