data_PCOD8152678
_publ_section_title
;
Structure prediction by ZEFSAII (Michael W. Deem and Ramdas Pophale) SiO2 
 PCOD8152678
Probable space group: C 2/C
;
_chemical_formula_sum "Si O2"
_cell_formula_units_Z 32
_cell_length_a 12.391455
_cell_length_b 8.186730
_cell_length_c 13.541199
_cell_angle_alpha 90.000000
_cell_angle_beta 66.877634
_cell_angle_gamma 90.000000
_cell_volume 1263.342473
_symmetry_space_group_name_H-M "C 2/C"
_symmetry_group_IT_number 15
_symmetry_cell_setting 'monoclinic'
loop_
_space_group_symop_operation_xyz
x,y,z
-x,y,1/2-z
-x,-y,-z
x,-y,1/2+z
1/2+x,1/2+y,z
1/2-x,1/2+y,1/2-z
1/2-x,1/2-y,-z
1/2+x,1/2-y,1/2+z
loop_
_atom_site_type_symbol
_atom_site_label
_atom_site_fract_x
_atom_site_fract_y
_atom_site_fract_z
Si Si1 0.435177 0.552357 0.871381
Si Si2 0.608961 0.046317 0.773390
Si Si3 0.741318 0.163541 0.360338
Si Si4 0.503149 0.741387 0.470027
O O1 0.500000 0.614317 0.750000
O O2 0.305878 0.485221 0.893204
O O3 0.516246 0.410680 0.890244
O O4 0.430543 0.702674 0.950482
O O5 0.500000 0.978531 0.750000
O O6 0.669281 0.188162 0.688451
O O7 0.565181 0.104140 0.897599
O O8 0.696628 0.898002 0.768195
O O9 0.635114 0.227304 0.465329
#
# Coordination Sequence:
#
# PCOD8152678 Si02
#       4
#     8   8   8   8
#     4  11  22  44  72 101 138 180 232 281 343 411
#     4  12  27  46  69 105 142 179 235 281 337 417
#     4  12  25  43  72  98 141 187 222 283 347 395
#     4  11  24  43  72 103 138 181 229 285 340 409
#
# _framework density 25.329632
#
# number of rings (size 3 to 8) (size 9 to 14) (size 15 to 20)
#    0.000    0.500    5.000    3.000    3.500    4.000 
#    0.000    0.000    0.000    0.000    0.000    0.000 
#    0.000    0.000    0.000    0.000    0.000    0.000 
#
# Total GULP energy -198509.071916 kJ/mol
# GULP energy per Si atom -12406.816995 kJ/mol
# Density = 2.527198 g / cm^3
# Si number density = 25.329632 Si / 1000 Ang^3
#
#
#
# Elastic Constant Matrix: (Units=GPa)
#
#
# Indices 1 2 3 4 5 6 
#
# 1 120.9507 12.8007 10.9988 0.0000 17.3052 0.0000
# 2 12.8007 21.0653 3.9700 0.0000 8.6194 0.0000
# 3 10.9988 3.9700 104.7461 0.0000 9.4352 0.0000
# 4 0.0000 0.0000 0.0000 27.9216 0.0000 12.6331
# 5 17.3052 8.6194 9.4352 0.0000 48.2071 0.0000
# 6 0.0000 0.0000 0.0000 12.6331 0.0000 36.9625
#
#
#
# Elastic Compliance Matrix: (Units=1/GPa)
#
#
# Indices 1 2 3 4 5 6 
#
# 1 0.009132 -0.004473 -0.000576 0.000000 -0.002366 0.000000
# 2 -0.004473 0.053542 -0.000857 0.000000 -0.007800 0.000000
# 3 -0.000576 -0.000857 0.009780 0.000000 -0.001554 0.000000
# 4 0.000000 0.000000 0.000000 0.042366 0.000000 -0.014480
# 5 -0.002366 -0.007800 -0.001554 0.000000 0.023292 0.000000
# 6 0.000000 0.000000 0.000000 -0.014480 0.000000 0.032003
#
#
# Mechanical properties :
#
#
# Convention : Reuss Voigt Hill
#
# Bulk Modulus (GPa) = 16.49015 33.58900 25.03958
# Shear Modulus (GPa) = 24.73512 37.21774 30.97643
#
# Velocity S-wave (km/s) = 3.12834 3.83735 3.50084
# Velocity P-wave (km/s) = 4.42414 5.73788 5.12329
#
# Compressibility (1/GPa) = 0.06064225
#
# Stress axis : x y z
#
# Youngs Moduli (GPa) = 109.50417 18.67680 102.25081
#
# Poissons Ratio (x) = 0.08354 0.05893
# Poissons Ratio (y) = 0.48978 0.08764
# Poissons Ratio (z) = 0.06311 0.01601
#
# Static dielectric constant tensor:
#      x y z
#    x 4.544990 0.000000 0.169360 
#    y 0.000000 4.354060 0.000000 
#    z 0.169360 0.000000 4.499510 
# 
# 
# High freq. dielectric constant tensor:
#      x y z
#    x 2.015820 0.000000 0.011970 
#    y 0.000000 1.997950 0.000000 
#    z 0.011970 0.000000 2.014260 
# 
# From -- ./inp_files/111924.got.cif
#   From: 2010.06.25/outbox.cif.g09.slc.cpg/sg15_56_cif.got.tgz:111924.got - 2010.06.28 07:06:18.
