data_PCOD8152801
_publ_section_title
;
Structure prediction by ZEFSAII (Michael W. Deem and Ramdas Pophale) SiO2 
 PCOD8152801
Probable space group: C 2/C
;
_chemical_formula_sum "Si O2"
_cell_formula_units_Z 60
_cell_length_a 8.938836
_cell_length_b 19.792455
_cell_length_c 22.802249
_cell_angle_alpha 90.000000
_cell_angle_beta 139.249090
_cell_angle_gamma 90.000000
_cell_volume 2633.417356
_symmetry_space_group_name_H-M "C 2/C"
_symmetry_group_IT_number 15
_symmetry_cell_setting 'monoclinic'
loop_
_space_group_symop_operation_xyz
x,y,z
-x,y,1/2-z
-x,-y,-z
x,-y,1/2+z
1/2+x,1/2+y,z
1/2-x,1/2+y,1/2-z
1/2-x,1/2-y,-z
1/2+x,1/2-y,1/2+z
loop_
_atom_site_type_symbol
_atom_site_label
_atom_site_fract_x
_atom_site_fract_y
_atom_site_fract_z
Si Si1 0.141496 0.562097 0.014184
Si Si2 0.944769 0.800668 0.419604
Si Si3 0.536629 0.862310 0.364911
Si Si4 0.097189 0.204357 0.721680
Si Si5 0.590588 0.538371 0.083773
Si Si6 0.354257 0.836013 0.616292
Si Si7 0.741006 0.848025 0.651908
Si Si8 0.500000 0.953368 0.250000
O O1 0.388115 0.535412 0.069843
O O2 0.185652 0.619869 0.073885
O O3 0.000000 0.500000 0.000000
O O4 0.027191 0.598888 0.924136
O O5 0.794990 0.845897 0.420409
O O6 0.963673 0.831455 0.358956
O O7 0.811192 0.731102 0.369637
O O8 0.198039 0.795880 0.522128
O O9 0.374171 0.795383 0.315464
O O10 0.422189 0.910144 0.282663
O O11 0.000000 0.163734 0.750000
O O12 0.984000 0.279167 0.692914
O O13 0.689681 0.613779 0.102801
O O14 0.787565 0.498311 0.172372
O O15 0.500000 0.500000 0.000000
O O16 0.557085 0.878325 0.644081
O O17 0.000000 0.861153 0.750000
#
# Coordination Sequence:
#
# PCOD8152801 Si02
#       8
#     8   8   8   8   8   8   8   4
#     4  12  29  49  75 107 150 196 256 317 378 448
#     4  11  22  48  73 102 147 199 244 305 385 448
#     4  12  25  48  75 107 145 202 247 314 383 460
#     4  11  25  40  71 112 144 182 246 313 375 444
#     4  12  26  48  74 106 143 206 257 309 372 463
#     4  11  25  46  73 102 154 195 250 307 380 451
#     4  11  26  44  73 106 149 193 241 319 380 447
#     4  12  26  46  80 100 146 200 260 302 374 458
#
# _framework density 22.784082999999999
#
# number of rings (size 3 to 8) (size 9 to 14) (size 15 to 20)
#    0.000    0.533    4.000    4.000    6.533    3.733 
#    0.000    0.000    0.000    0.000    0.000    0.000 
#    0.000    0.000    0.000    0.000    0.000    0.000 
#
# Total GULP energy -371709.361702 kJ/mol
# GULP energy per Si atom -12390.312057 kJ/mol
# Density = 2.273223 g / cm^3
# Si number density = 22.784083 Si / 1000 Ang^3
#
#
#
# Elastic Constant Matrix: (Units=GPa)
#
#
# Indices 1 2 3 4 5 6 
#
# 1 162.0553 37.9012 70.3765 -0.0009 -1.1876 -0.0015
# 2 37.9012 86.0240 56.3944 0.0003 1.3165 -0.0005
# 3 70.3765 56.3944 169.3148 0.0013 -0.0359 -0.0005
# 4 -0.0009 0.0003 0.0013 48.2426 -0.0002 0.9155
# 5 -1.1876 1.3165 -0.0359 -0.0002 48.6766 -0.0011
# 6 -0.0015 -0.0005 -0.0005 0.9155 -0.0011 38.6869
#
#
#
# Elastic Compliance Matrix: (Units=1/GPa)
#
#
# Indices 1 2 3 4 5 6 
#
# 1 0.007713 -0.001663 -0.002652 0.000000 0.000231 0.000000
# 2 -0.001663 0.015239 -0.004384 0.000000 -0.000456 0.000000
# 3 -0.002652 -0.004384 0.008469 0.000000 0.000060 0.000000
# 4 0.000000 0.000000 0.000000 0.020738 0.000000 -0.000491
# 5 0.000231 -0.000456 0.000060 0.000000 0.020562 0.000001
# 6 0.000000 0.000000 0.000000 -0.000491 0.000001 0.025860
#
#
# Mechanical properties :
#
#
# Convention : Reuss Voigt Hill
#
# Bulk Modulus (GPa) = 71.31968 82.97093 77.14530
# Shear Modulus (GPa) = 41.44100 43.96934 42.70517
#
# Velocity S-wave (km/s) = 4.26943 4.39775 4.33406
# Velocity P-wave (km/s) = 7.46153 7.89190 7.67973
#
# Compressibility (1/GPa) = 0.01402138
#
# Stress axis : x y z
#
# Youngs Moduli (GPa) = 129.64942 65.62227 118.08091
#
# Poissons Ratio (x) = 0.10915 0.31314
# Poissons Ratio (y) = 0.21565 0.51771
# Poissons Ratio (z) = 0.34382 0.28771
#
# Static dielectric constant tensor:
#      x y z
#    x 2.604840 -0.000030 -0.844670 
#    y -0.000030 3.996320 -0.000010 
#    z -0.844670 -0.000010 3.942020 
# 
# 
# High freq. dielectric constant tensor:
#      x y z
#    x 1.917730 0.000000 0.001730 
#    y 0.000000 1.878530 0.000000 
#    z 0.001730 0.000000 1.920430 
# 
# From -- ./inp_files/266270.got.cif
#   From: 2010.06.25/outbox.cif.g09.slc.cpg/sg15_134_cif.got.tgz:266270.got - 2010.06.28 07:06:18.
