data_PCOD8152398
_publ_section_title
;
Structure prediction by ZEFSAII (Michael W. Deem and Ramdas Pophale) SiO2 
 PCOD8152398
Probable space group: C 2/C
;
_chemical_formula_sum "Si O2"
_cell_formula_units_Z 56
_cell_length_a 8.675532
_cell_length_b 11.972768
_cell_length_c 28.681296
_cell_angle_alpha 90.000000
_cell_angle_beta 54.844100
_cell_angle_gamma 90.000000
_cell_volume 2435.701922
_symmetry_space_group_name_H-M "C 2/C"
_symmetry_group_IT_number 15
_symmetry_cell_setting 'monoclinic'
loop_
_space_group_symop_operation_xyz
x,y,z
-x,y,1/2-z
-x,-y,-z
x,-y,1/2+z
1/2+x,1/2+y,z
1/2-x,1/2+y,1/2-z
1/2-x,1/2-y,-z
1/2+x,1/2-y,1/2+z
loop_
_atom_site_type_symbol
_atom_site_label
_atom_site_fract_x
_atom_site_fract_y
_atom_site_fract_z
Si Si1 0.690843 0.555001 0.979990
Si Si2 0.682923 0.360289 0.577573
Si Si3 0.555959 0.462932 0.167984
Si Si4 0.572610 0.239144 0.340989
Si Si5 0.903458 0.341526 0.959933
Si Si6 0.700210 0.014099 0.285667
Si Si7 0.375066 0.159270 0.857581
O O1 0.830587 0.466836 0.980305
O O2 0.766913 0.600249 0.918444
O O3 0.500000 0.500000 0.000000
O O4 0.649374 0.646480 0.027747
O O5 0.624911 0.482015 0.607560
O O6 0.551682 0.273240 0.629932
O O7 0.901755 0.325982 0.546426
O O8 0.555608 0.329106 0.163457
O O9 0.344811 0.499337 0.218256
O O10 0.705189 0.497266 0.180750
O O11 0.439145 0.172260 0.399067
O O12 0.639642 0.144143 0.292939
O O13 0.741232 0.305843 0.337793
O O14 0.750000 0.250000 0.000000
O O15 0.535398 0.921769 0.309003
#
# Coordination Sequence:
#
# PCOD8152398 Si02
#       7
#     8   8   8   8   8   8   8
#     4  12  23  38  64 104 140 177 231 282 338 430
#     4  11  23  43  67 100 141 186 231 286 355 416
#     4  11  24  44  72  97 135 181 234 285 356 412
#     4  11  24  47  69 100 140 179 228 289 348 411
#     4  11  22  41  67  97 141 184 228 278 351 416
#     4  11  25  46  68 101 132 183 234 290 347 416
#     4  11  23  44  68  99 137 180 228 284 347 411
#
# _framework density 22.991320000000002
#
# number of rings (size 3 to 8) (size 9 to 14) (size 15 to 20)
#    0.000    0.857    4.286    4.286    2.000    2.857 
#    2.571    0.000    0.000    0.000    0.000    0.000 
#    0.000    0.000    0.000    0.000    0.000    0.000 
#
# Total GULP energy -347093.565342 kJ/mol
# GULP energy per Si atom -12396.198762 kJ/mol
# Density = 2.293899 g / cm^3
# Si number density = 22.991320 Si / 1000 Ang^3
#
#
#
# Elastic Constant Matrix: (Units=GPa)
#
#
# Indices 1 2 3 4 5 6 
#
# 1 57.1045 29.5620 22.1265 0.0000 -13.5394 0.0000
# 2 29.5620 124.9680 5.3229 0.0000 -7.5344 0.0000
# 3 22.1265 5.3229 75.1184 0.0000 -15.2123 0.0000
# 4 0.0000 0.0000 0.0000 24.2292 0.0000 3.2874
# 5 -13.5394 -7.5344 -15.2123 0.0000 18.8637 0.0000
# 6 0.0000 0.0000 0.0000 3.2874 0.0000 43.4918
#
#
#
# Elastic Compliance Matrix: (Units=1/GPa)
#
#
# Indices 1 2 3 4 5 6 
#
# 1 0.024661 -0.004912 -0.004456 0.000000 0.012145 0.000000
# 2 -0.004912 0.009178 0.000986 0.000000 0.000936 0.000000
# 3 -0.004456 0.000986 0.016717 0.000000 0.010677 0.000000
# 4 0.000000 0.000000 0.000000 0.041700 0.000000 -0.003152
# 5 0.012145 0.000936 0.010677 0.000000 0.070712 0.000000
# 6 0.000000 0.000000 0.000000 -0.003152 0.000000 0.023231
#
#
# Mechanical properties :
#
#
# Convention : Reuss Voigt Hill
#
# Bulk Modulus (GPa) = 29.59300 41.24595 35.41948
# Shear Modulus (GPa) = 23.33960 30.66224 27.00092
#
# Velocity S-wave (km/s) = 3.18960 3.65587 3.43066
# Velocity P-wave (km/s) = 5.14432 5.98325 5.57957
#
# Compressibility (1/GPa) = 0.03379178
#
# Stress axis : x y z
#
# Youngs Moduli (GPa) = 40.55049 108.95212 59.81846
#
# Poissons Ratio (x) = 0.53513 0.26658
# Poissons Ratio (y) = 0.19917 -0.05897
# Poissons Ratio (z) = 0.18071 -0.10741
#
# Static dielectric constant tensor:
#      x y z
#    x 4.198170 0.000060 0.265280 
#    y 0.000060 -4.870340 0.000170 
#    z 0.265280 0.000170 4.871430 
# 
# 
# High freq. dielectric constant tensor:
#      x y z
#    x 1.886680 0.000000 -0.003440 
#    y 0.000000 1.926770 0.000000 
#    z -0.003440 0.000000 1.915870 
# 
# From -- ./inp_files/307249.got.cif
#   From: 2010.06.25/outbox.cif.g09.slc.cpg/sg15_154_cif.got.tgz:307249.got - 2010.06.28 07:06:18.
