data_PCOD8152625
_publ_section_title
;
Structure prediction by ZEFSAII (Michael W. Deem and Ramdas Pophale) SiO2 
 PCOD8152625
Probable space group: C 2/C
;
_chemical_formula_sum "Si O2"
_cell_formula_units_Z 48
_cell_length_a 10.942269
_cell_length_b 11.139444
_cell_length_c 17.048583
_cell_angle_alpha 90.000000
_cell_angle_beta 96.465182
_cell_angle_gamma 90.000000
_cell_volume 2064.849767
_symmetry_space_group_name_H-M "C 2/C"
_symmetry_group_IT_number 15
_symmetry_cell_setting 'monoclinic'
loop_
_space_group_symop_operation_xyz
x,y,z
-x,y,1/2-z
-x,-y,-z
x,-y,1/2+z
1/2+x,1/2+y,z
1/2-x,1/2+y,1/2-z
1/2-x,1/2-y,-z
1/2+x,1/2-y,1/2+z
loop_
_atom_site_type_symbol
_atom_site_label
_atom_site_fract_x
_atom_site_fract_y
_atom_site_fract_z
Si Si1 0.073634 0.045452 0.330522
Si Si2 0.968821 0.624153 0.157618
Si Si3 0.531334 0.356170 0.074658
Si Si4 0.706180 0.042266 0.934877
Si Si5 0.497675 0.765483 0.412238
Si Si6 0.176686 0.529558 0.604137
O O1 0.044177 0.186385 0.341971
O O2 0.000000 0.998718 0.250000
O O3 0.217074 0.013206 0.327808
O O4 0.030310 0.981284 0.407067
O O5 0.835100 0.563728 0.128981
O O6 0.000000 0.599781 0.250000
O O7 0.982515 0.763954 0.137986
O O8 0.063714 0.559872 0.106395
O O9 0.677756 0.380223 0.086431
O O10 0.478701 0.316178 0.987299
O O11 0.598963 0.137188 0.939690
O O12 0.730953 0.980559 0.020414
O O13 0.369225 0.833727 0.382299
#
# Coordination Sequence:
#
# PCOD8152625 Si02
#       6
#     8   8   8   8   8   8
#     4  12  29  45  60 102 150 181 228 292 356 416
#     4  11  24  43  69 103 136 179 233 289 352 412
#     4  12  23  43  69 100 137 182 228 286 349 416
#     4  11  22  43  75 102 133 178 238 291 338 418
#     4  11  22  44  73 100 129 184 239 281 346 420
#     4  11  23  46  73  98 137 180 237 290 344 420
#
# _framework density 23.246241999999999
#
# number of rings (size 3 to 8) (size 9 to 14) (size 15 to 20)
#    0.000    0.667    5.000    3.500    2.333    4.667 
#    3.000    0.000    0.000    0.000    0.000    0.000 
#    0.000    0.000    0.000    0.000    0.000    0.000 
#
# Total GULP energy -297564.969388 kJ/mol
# GULP energy per Si atom -12398.540391 kJ/mol
# Density = 2.319333 g / cm^3
# Si number density = 23.246242 Si / 1000 Ang^3
#
#
#
# Elastic Constant Matrix: (Units=GPa)
#
#
# Indices 1 2 3 4 5 6 
#
# 1 69.7459 47.5093 16.3960 0.0000 10.4784 0.0000
# 2 47.5093 113.5911 29.8218 0.0000 10.1700 0.0000
# 3 16.3960 29.8218 73.9598 0.0000 14.0536 0.0000
# 4 0.0000 0.0000 0.0000 21.1884 0.0000 -0.2305
# 5 10.4784 10.1700 14.0536 0.0000 32.0023 0.0000
# 6 0.0000 0.0000 0.0000 -0.2305 0.0000 42.2296
#
#
#
# Elastic Compliance Matrix: (Units=1/GPa)
#
#
# Indices 1 2 3 4 5 6 
#
# 1 0.020582 -0.008114 -0.000546 0.000000 -0.003921 0.000000
# 2 -0.008114 0.013112 -0.003493 0.000000 0.000024 0.000000
# 3 -0.000546 -0.003493 0.016153 0.000000 -0.005805 0.000000
# 4 0.000000 0.000000 0.000000 0.047198 0.000000 0.000258
# 5 -0.003921 0.000024 -0.005805 0.000000 0.035073 0.000000
# 6 0.000000 0.000000 0.000000 0.000258 0.000000 0.023681
#
#
# Mechanical properties :
#
#
# Convention : Reuss Voigt Hill
#
# Bulk Modulus (GPa) = 39.15144 49.41677 44.28410
# Shear Modulus (GPa) = 26.50826 29.98872 28.24849
#
# Velocity S-wave (km/s) = 3.38053 3.59562 3.48973
# Velocity P-wave (km/s) = 5.66709 6.20823 5.94382
#
# Compressibility (1/GPa) = 0.02554185
#
# Stress axis : x y z
#
# Youngs Moduli (GPa) = 48.58537 76.26564 61.90701
#
# Poissons Ratio (x) = 0.61883 0.03381
# Poissons Ratio (y) = 0.39423 0.21622
# Poissons Ratio (z) = 0.02653 0.26637
#
# Static dielectric constant tensor:
#      x y z
#    x 4.360550 0.000000 0.149200 
#    y 0.000000 4.513940 0.000000 
#    z 0.149200 0.000000 3.867940 
# 
# 
# High freq. dielectric constant tensor:
#      x y z
#    x 1.917990 0.000000 0.005900 
#    y 0.000000 1.932200 0.000000 
#    z 0.005900 0.000000 1.904060 
# 
# From -- ./inp_files/196570.got.cif
#   From: 2010.06.25/outbox.cif.g09.slc.cpg/sg15_99_cif.got.tgz:196570.got - 2010.06.28 07:06:18.
