data_PCOD8152237
_publ_section_title
;
Structure prediction by ZEFSAII (Michael W. Deem and Ramdas Pophale) SiO2 
 PCOD8152237
Probable space group: C 2/C
;
_chemical_formula_sum "Si O2"
_cell_formula_units_Z 24
_cell_length_a 4.806482
_cell_length_b 18.184358
_cell_length_c 12.321947
_cell_angle_alpha 90.000000
_cell_angle_beta 62.476060
_cell_angle_gamma 90.000000
_cell_volume 955.078442
_symmetry_space_group_name_H-M "C 2/C"
_symmetry_group_IT_number 15
_symmetry_cell_setting 'monoclinic'
loop_
_space_group_symop_operation_xyz
x,y,z
-x,y,1/2-z
-x,-y,-z
x,-y,1/2+z
1/2+x,1/2+y,z
1/2-x,1/2+y,1/2-z
1/2-x,1/2-y,-z
1/2+x,1/2-y,1/2+z
loop_
_atom_site_type_symbol
_atom_site_label
_atom_site_fract_x
_atom_site_fract_y
_atom_site_fract_z
Si Si1 0.108224 0.695905 0.615447
Si Si2 0.319200 0.398688 0.432956
Si Si3 0.325645 0.957196 0.674635
O O1 0.250000 0.750000 0.500000
O O2 0.337030 0.624524 0.586983
O O3 0.000000 0.732312 0.750000
O O4 0.781014 0.665784 0.629498
O O5 0.310428 0.477142 0.376123
O O6 0.072256 0.402165 0.575929
O O7 0.500000 0.988433 0.750000
O O8 0.000000 0.911562 0.750000
#
# Coordination Sequence:
#
# PCOD8152237 Si02
#       3
#     8   8   8
#     4  12  26  45  68  94 131 179 229 278 329 390
#     4  11  24  42  66  97 133 175 219 272 339 402
#     4  11  22  39  67 101 136 172 215 273 340 408
#
# _framework density 25.128827999999999
#
# number of rings (size 3 to 8) (size 9 to 14) (size 15 to 20)
#    0.000    0.667    0.000    9.000    0.000    9.333 
#    0.000    0.000    0.000    0.000    0.000    0.000 
#    0.000    0.000    0.000    0.000    0.000    0.000 
#
# Total GULP energy -148702.003304 kJ/mol
# GULP energy per Si atom -12391.833609 kJ/mol
# Density = 2.507163 g / cm^3
# Si number density = 25.128828 Si / 1000 Ang^3
#
#
#
# Elastic Constant Matrix: (Units=GPa)
#
#
# Indices 1 2 3 4 5 6 
#
# 1 113.5932 8.6080 30.0300 0.0000 -5.5993 0.0000
# 2 8.6080 52.6911 35.1228 0.0000 8.3160 0.0000
# 3 30.0300 35.1228 187.2594 0.0000 -11.5816 0.0000
# 4 0.0000 0.0000 0.0000 8.4718 0.0000 22.2797
# 5 -5.5993 8.3160 -11.5816 0.0000 40.8904 0.0000
# 6 0.0000 0.0000 0.0000 22.2797 0.0000 -41.1229
#
#
#
# Elastic Compliance Matrix: (Units=1/GPa)
#
#
# Indices 1 2 3 4 5 6 
#
# 1 0.009253 -0.000843 -0.001259 0.000000 0.001082 0.000000
# 2 -0.000843 0.023137 -0.004583 0.000000 -0.006119 0.000000
# 3 -0.001259 -0.004583 0.006564 0.000000 0.002619 0.000000
# 4 0.000000 0.000000 0.000000 0.048679 0.000000 0.026374
# 5 0.001082 -0.006119 0.002619 0.000000 0.026590 0.000000
# 6 0.000000 0.000000 0.000000 0.026374 0.000000 -0.010029
#
#
# Mechanical properties :
#
#
# Convention : Reuss Voigt Hill
#
# Bulk Modulus (GPa) = 39.08717 55.67389 47.38053
# Shear Modulus (GPa) = 39.65345 20.30006 29.97676
#
# Velocity S-wave (km/s) = 3.97672 2.84534 3.45762
# Velocity P-wave (km/s) = 6.05593 5.74439 5.90222
#
# Compressibility (1/GPa) = 0.02558384
#
# Stress axis : x y z
#
# Youngs Moduli (GPa) = 108.06863 43.22112 152.35612
#
# Poissons Ratio (x) = 0.03645 0.19179
# Poissons Ratio (y) = 0.09114 0.69822
# Poissons Ratio (z) = 0.13604 0.19807
#
# Static dielectric constant tensor:
#      x y z
#    x 4.883060 0.000000 -0.221700 
#    y 0.000000 3.891070 0.000000 
#    z -0.221700 0.000000 5.351710 
# 
# 
# High freq. dielectric constant tensor:
#      x y z
#    x 2.026850 0.000000 -0.009120 
#    y 0.000000 1.950620 0.000000 
#    z -0.009120 0.000000 2.033020 
# 
# From -- ./inp_files/71366.got.cif
#   From: 2010.06.25/outbox.cif.g09.slc.cpg/sg15_36_cif.got.tgz:71366.got - 2010.06.28 07:06:18.
