data_PCOD8152815
_publ_section_title
;
Structure prediction by ZEFSAII (Michael W. Deem and Ramdas Pophale) SiO2 
 PCOD8152815
Probable space group: C 2/C
;
_chemical_formula_sum "Si O2"
_cell_formula_units_Z 64
_cell_length_a 22.975938
_cell_length_b 11.354177
_cell_length_c 12.137022
_cell_angle_alpha 90.000000
_cell_angle_beta 84.097015
_cell_angle_gamma 90.000000
_cell_volume 3149.430718
_symmetry_space_group_name_H-M "C 2/C"
_symmetry_group_IT_number 15
_symmetry_cell_setting 'monoclinic'
loop_
_space_group_symop_operation_xyz
x,y,z
-x,y,1/2-z
-x,-y,-z
x,-y,1/2+z
1/2+x,1/2+y,z
1/2-x,1/2+y,1/2-z
1/2-x,1/2-y,-z
1/2+x,1/2-y,1/2+z
loop_
_atom_site_type_symbol
_atom_site_label
_atom_site_fract_x
_atom_site_fract_y
_atom_site_fract_z
Si Si1 0.568547 0.131810 0.965114
Si Si2 0.232445 0.190751 0.179097
Si Si3 0.863089 0.787262 0.388188
Si Si4 0.315746 0.472447 0.990557
Si Si5 0.064349 0.632675 0.540778
Si Si6 0.359935 0.715047 0.632402
Si Si7 0.640516 0.881068 0.230119
Si Si8 0.215627 0.580362 0.133806
O O1 0.504006 0.161068 0.934433
O O2 0.612965 0.131042 0.855080
O O3 0.584101 0.231545 0.051855
O O4 0.573277 0.005605 0.021136
O O5 0.191702 0.128538 0.098200
O O6 0.297842 0.219896 0.125888
O O7 0.201309 0.311102 0.219319
O O8 0.235774 0.104586 0.282794
O O9 0.878662 0.797447 0.255984
O O10 0.806626 0.703016 0.413779
O O11 0.849964 0.915597 0.438211
O O12 0.354330 0.415716 0.081318
O O13 0.248989 0.504780 0.035656
O O14 0.090334 0.707727 0.435397
O O15 0.095159 0.668549 0.648916
O O16 0.658987 0.014707 0.196538
#
# Coordination Sequence:
#
# PCOD8152815 Si02
#       8
#     8   8   8   8   8   8   8   8
#     4  11  25  42  67  95 128 167 223 275 326 380
#     4  11  23  37  63  94 128 175 207 259 327 392
#     4  11  25  40  62  96 133 170 216 271 327 386
#     4  12  22  39  62  92 132 173 217 255 326 394
#     4  11  24  44  68  94 125 175 218 275 326 381
#     4  11  23  44  64  96 131 171 218 265 330 396
#     4  12  22  43  66  97 133 170 219 268 326 388
#     4  11  23  36  60  96 136 170 206 266 322 396
#
# _framework density 20.321131999999999
#
# number of rings (size 3 to 8) (size 9 to 14) (size 15 to 20)
#    0.000    0.750    3.750    4.875    3.500    0.500 
#    0.000    0.625    0.000    0.000    0.000    0.000 
#    0.000    0.000    0.000    0.000    0.000    0.000 
#
# Total GULP energy -396913.854326 kJ/mol
# GULP energy per Si atom -12403.557948 kJ/mol
# Density = 2.027488 g / cm^3
# Si number density = 20.321132 Si / 1000 Ang^3
#
#
#
# Elastic Constant Matrix: (Units=GPa)
#
#
# Indices 1 2 3 4 5 6 
#
# 1 56.7627 28.2467 26.7116 0.0000 3.1989 0.0000
# 2 28.2467 96.5752 30.6674 0.0000 0.8562 0.0000
# 3 26.7116 30.6674 79.8331 0.0000 20.8130 0.0000
# 4 0.0000 0.0000 0.0000 30.9948 0.0000 0.0756
# 5 3.1989 0.8562 20.8130 0.0000 29.0577 0.0000
# 6 0.0000 0.0000 0.0000 0.0756 0.0000 29.4320
#
#
#
# Elastic Compliance Matrix: (Units=1/GPa)
#
#
# Indices 1 2 3 4 5 6 
#
# 1 0.022836 -0.004656 -0.006434 0.000000 0.002232 0.000000
# 2 -0.004656 0.013050 -0.004290 0.000000 0.003201 0.000000
# 3 -0.006434 -0.004290 0.019808 0.000000 -0.013353 0.000000
# 4 0.000000 0.000000 0.000000 0.032264 0.000000 -0.000083
# 5 0.002232 0.003201 -0.013353 0.000000 0.043639 0.000000
# 6 0.000000 0.000000 0.000000 -0.000083 0.000000 0.033977
#
#
# Mechanical properties :
#
#
# Convention : Reuss Voigt Hill
#
# Bulk Modulus (GPa) = 40.10437 44.93582 42.52010
# Shear Modulus (GPa) = 24.43260 27.73324 26.08292
#
# Velocity S-wave (km/s) = 3.47122 3.69826 3.58653
# Velocity P-wave (km/s) = 5.98698 6.35586 6.17418
#
# Compressibility (1/GPa) = 0.02493494
#
# Stress axis : x y z
#
# Youngs Moduli (GPa) = 43.79035 76.62705 50.48453
#
# Poissons Ratio (x) = 0.35676 0.32482
# Poissons Ratio (y) = 0.20388 0.21657
# Poissons Ratio (z) = 0.28175 0.32871
#
# Static dielectric constant tensor:
#      x y z
#    x 3.485200 0.000000 0.092220 
#    y 0.000000 3.705540 0.000000 
#    z 0.092220 0.000000 3.810020 
# 
# 
# High freq. dielectric constant tensor:
#      x y z
#    x 1.774340 0.000000 0.007240 
#    y 0.000000 1.797700 0.000000 
#    z 0.007240 0.000000 1.806430 
# 
# From -- ./inp_files/117588.got.cif
#   From: 2010.06.25/outbox.cif.g09.slc.cpg/sg15_59_cif.got.tgz:117588.got - 2010.06.28 07:06:18.
