data_PCOD8152689
_publ_section_title
;
Structure prediction by ZEFSAII (Michael W. Deem and Ramdas Pophale) SiO2 
 PCOD8152689
Probable space group: C 2/C
;
_chemical_formula_sum "Si O2"
_cell_formula_units_Z 36
_cell_length_a 7.220937
_cell_length_b 15.572588
_cell_length_c 17.292899
_cell_angle_alpha 90.000000
_cell_angle_beta 122.992881
_cell_angle_gamma 90.000000
_cell_volume 1630.979848
_symmetry_space_group_name_H-M "C 2/C"
_symmetry_group_IT_number 15
_symmetry_cell_setting 'monoclinic'
loop_
_space_group_symop_operation_xyz
x,y,z
-x,y,1/2-z
-x,-y,-z
x,-y,1/2+z
1/2+x,1/2+y,z
1/2-x,1/2+y,1/2-z
1/2-x,1/2-y,-z
1/2+x,1/2-y,1/2+z
loop_
_atom_site_type_symbol
_atom_site_label
_atom_site_fract_x
_atom_site_fract_y
_atom_site_fract_z
Si Si1 0.500000 0.867254 0.750000
Si Si2 0.206498 0.668458 0.542467
Si Si3 0.246995 0.526992 0.429323
Si Si4 0.658478 0.713134 0.688973
Si Si5 0.559141 0.157797 0.876480
O O1 0.308639 0.922325 0.663366
O O2 0.626657 0.809294 0.714686
O O3 0.250000 0.750000 0.500000
O O4 0.164321 0.583954 0.482557
O O5 0.430976 0.659515 0.644006
O O6 0.998236 0.690242 0.550165
O O7 0.500000 0.500000 0.500000
O O8 0.106919 0.441852 0.394993
O O9 0.744652 0.714037 0.618467
O O10 0.838535 0.660564 0.776086
#
# Coordination Sequence:
#
# PCOD8152689 Si02
#       5
#     4   8   8   8   8
#     4  12  24  50  72 106 146 186 242 298 362 430
#     4  12  23  46  70 103 145 186 240 294 350 430
#     4  12  26  45  73 108 146 192 237 298 360 430
#     4  11  22  44  73 100 139 186 236 297 347 428
#     4  11  24  44  70 104 140 185 236 289 366 410
#
# _framework density 22.072621000000002
#
# number of rings (size 3 to 8) (size 9 to 14) (size 15 to 20)
#    0.000    0.444    6.667    2.000    0.000    0.889 
#    8.000    0.000    0.000    0.000    0.000    0.000 
#    0.000    0.000    0.000    0.000    0.000    0.000 
#
# Total GULP energy -223057.900345 kJ/mol
# GULP energy per Si atom -12392.105575 kJ/mol
# Density = 2.202238 g / cm^3
# Si number density = 22.072621 Si / 1000 Ang^3
#
#
#
# Elastic Constant Matrix: (Units=GPa)
#
#
# Indices 1 2 3 4 5 6 
#
# 1 168.5658 66.9615 41.2754 0.0000 -39.9409 0.0000
# 2 66.9615 127.7430 57.6344 0.0000 -13.1651 0.0000
# 3 41.2754 57.6344 108.4770 0.0000 5.2883 0.0000
# 4 0.0000 0.0000 0.0000 59.4807 0.0000 -4.4647
# 5 -39.9409 -13.1651 5.2883 0.0000 48.3142 0.0000
# 6 0.0000 0.0000 0.0000 -4.4647 0.0000 27.7894
#
#
#
# Elastic Compliance Matrix: (Units=1/GPa)
#
#
# Indices 1 2 3 4 5 6 
#
# 1 0.009460 -0.003203 -0.002248 0.000000 0.007194 0.000000
# 2 -0.003203 0.011976 -0.005202 0.000000 0.001185 0.000000
# 3 -0.002248 -0.005202 0.013067 0.000000 -0.004707 0.000000
# 4 0.000000 0.000000 0.000000 0.017017 0.000000 0.002734
# 5 0.007194 0.001185 -0.004707 0.000000 0.027483 0.000000
# 6 0.000000 0.000000 0.000000 0.002734 0.000000 0.036424
#
#
# Mechanical properties :
#
#
# Convention : Reuss Voigt Hill
#
# Bulk Modulus (GPa) = 75.77701 81.83647 78.80674
# Shear Modulus (GPa) = 35.42735 43.04451 39.23593
#
# Velocity S-wave (km/s) = 4.01064 4.42082 4.22071
# Velocity P-wave (km/s) = 7.47344 7.95077 7.71579
#
# Compressibility (1/GPa) = 0.01319661
#
# Stress axis : x y z
#
# Youngs Moduli (GPa) = 105.71053 83.49777 76.52612
#
# Poissons Ratio (x) = 0.26744 0.17206
# Poissons Ratio (y) = 0.33858 0.39810
# Poissons Ratio (z) = 0.23768 0.43437
#
# Static dielectric constant tensor:
#      x y z
#    x 5.435090 0.000000 0.719360 
#    y 0.000000 3.930710 0.000000 
#    z 0.719360 0.000000 5.272750 
# 
# 
# High freq. dielectric constant tensor:
#      x y z
#    x 1.870360 0.000000 -0.001300 
#    y 0.000000 1.856860 0.000000 
#    z -0.001300 0.000000 1.893580 
# 
# From -- ./inp_files/189100.got.cif
#   From: 2010.06.25/outbox.cif.g09.slc.cpg/sg15_95_cif.got.tgz:189100.got - 2010.06.28 07:06:18.
