data_PCOD8152302
_publ_section_title
;
Structure prediction by ZEFSAII (Michael W. Deem and Ramdas Pophale) SiO2 
 PCOD8152302
Probable space group: C 2/C
;
_chemical_formula_sum "Si O2"
_cell_formula_units_Z 56
_cell_length_a 16.232709
_cell_length_b 10.383071
_cell_length_c 18.405797
_cell_angle_alpha 90.000000
_cell_angle_beta 120.101475
_cell_angle_gamma 90.000000
_cell_volume 2683.842951
_symmetry_space_group_name_H-M "C 2/C"
_symmetry_group_IT_number 15
_symmetry_cell_setting 'monoclinic'
loop_
_space_group_symop_operation_xyz
x,y,z
-x,y,1/2-z
-x,-y,-z
x,-y,1/2+z
1/2+x,1/2+y,z
1/2-x,1/2+y,1/2-z
1/2-x,1/2-y,-z
1/2+x,1/2-y,1/2+z
loop_
_atom_site_type_symbol
_atom_site_label
_atom_site_fract_x
_atom_site_fract_y
_atom_site_fract_z
Si Si1 0.526110 0.567087 0.938005
Si Si2 0.156622 0.028897 0.740715
Si Si3 0.806872 0.258898 0.275546
Si Si4 0.401446 0.157497 0.673556
Si Si5 0.847630 0.074323 0.108995
Si Si6 0.055166 0.314653 0.033483
Si Si7 0.868253 0.562091 0.508103
O O1 0.439716 0.551767 0.844789
O O2 0.622065 0.503670 0.948895
O O3 0.500000 0.500000 0.000000
O O4 0.550897 0.713158 0.966721
O O5 0.211847 0.895731 0.741119
O O6 0.127501 0.013797 0.811280
O O7 0.217123 0.160165 0.763278
O O8 0.828109 0.326277 0.207435
O O9 0.893308 0.270438 0.370208
O O10 0.500000 0.109487 0.750000
O O11 0.410625 0.296013 0.638367
O O12 0.372885 0.054738 0.598481
O O13 0.736327 0.113041 0.058458
O O14 0.947346 0.344633 0.008978
O O15 0.115740 0.426243 0.022820
#
# Coordination Sequence:
#
# PCOD8152302 Si02
#       7
#     8   8   8   8   8   8   8
#     4  12  25  42  70  99 132 177 227 278 345 411
#     4  11  25  45  70  99 137 181 227 282 343 408
#     4  11  23  44  69  99 134 181 227 283 338 405
#     4  11  22  40  66  94 133 177 232 277 334 403
#     4  11  24  43  69  95 133 179 229 285 340 410
#     4  11  24  44  66  97 139 175 219 289 350 397
#     4  11  24  42  66  99 134 177 226 284 342 408
#
# _framework density 20.865604000000001
#
# number of rings (size 3 to 8) (size 9 to 14) (size 15 to 20)
#    0.000    0.857    4.286    3.429    6.000    0.571 
#    2.571    0.000    0.000    0.000    0.000    0.000 
#    0.000    0.000    0.000    0.000    0.000    0.000 
#
# Total GULP energy -347128.796143 kJ/mol
# GULP energy per Si atom -12397.457005 kJ/mol
# Density = 2.081811 g / cm^3
# Si number density = 20.865604 Si / 1000 Ang^3
#
#
#
# Elastic Constant Matrix: (Units=GPa)
#
#
# Indices 1 2 3 4 5 6 
#
# 1 77.8789 25.4456 34.1671 0.0000 -3.9825 0.0000
# 2 25.4456 66.8270 13.3491 0.0000 -11.8504 0.0000
# 3 34.1671 13.3491 124.8649 0.0000 -8.1966 0.0000
# 4 0.0000 0.0000 0.0000 40.3482 0.0000 -7.7267
# 5 -3.9825 -11.8504 -8.1966 0.0000 39.1469 0.0000
# 6 0.0000 0.0000 0.0000 -7.7267 0.0000 29.0013
#
#
#
# Elastic Compliance Matrix: (Units=1/GPa)
#
#
# Indices 1 2 3 4 5 6 
#
# 1 0.016348 -0.005591 -0.003932 0.000000 -0.000852 0.000000
# 2 -0.005591 0.017968 -0.000072 0.000000 0.004855 0.000000
# 3 -0.003932 -0.000072 0.009191 0.000000 0.001502 0.000000
# 4 0.000000 0.000000 0.000000 0.026117 0.000000 0.006958
# 5 -0.000852 0.004855 0.001502 0.000000 0.027242 0.000000
# 6 0.000000 0.000000 0.000000 0.006958 0.000000 0.036335
#
#
# Mechanical properties :
#
#
# Convention : Reuss Voigt Hill
#
# Bulk Modulus (GPa) = 41.12216 46.16603 43.64410
# Shear Modulus (GPa) = 31.15314 34.80656 32.97985
#
# Velocity S-wave (km/s) = 3.86818 4.08871 3.97997
# Velocity P-wave (km/s) = 6.30090 6.66810 6.48709
#
# Compressibility (1/GPa) = 0.02431779
#
# Stress axis : x y z
#
# Youngs Moduli (GPa) = 61.16784 55.65374 108.80356
#
# Poissons Ratio (x) = 0.31115 0.42779
# Poissons Ratio (y) = 0.34197 0.00788
# Poissons Ratio (z) = 0.24050 0.00403
#
# Static dielectric constant tensor:
#      x y z
#    x 3.635040 0.000000 0.070700 
#    y 0.000000 4.118840 0.000000 
#    z 0.070700 0.000000 3.217620 
# 
# 
# High freq. dielectric constant tensor:
#      x y z
#    x 1.815040 0.000000 -0.006690 
#    y 0.000000 1.806060 0.000000 
#    z -0.006690 0.000000 1.838210 
# 
# From -- ./inp_files/204533.got.cif
#   From: 2010.06.25/outbox.cif.g09.slc.cpg/sg15_103_cif.got.tgz:204533.got - 2010.06.28 07:06:18.
