data_PCOD8152390
_publ_section_title
;
Structure prediction by ZEFSAII (Michael W. Deem and Ramdas Pophale) SiO2 
 PCOD8152390
Probable space group: C 2/C
;
_chemical_formula_sum "Si O2"
_cell_formula_units_Z 32
_cell_length_a 16.103826
_cell_length_b 7.511062
_cell_length_c 25.987115
_cell_angle_alpha 90.000000
_cell_angle_beta 154.620597
_cell_angle_gamma 90.000000
_cell_volume 1347.259202
_symmetry_space_group_name_H-M "C 2/C"
_symmetry_group_IT_number 15
_symmetry_cell_setting 'monoclinic'
loop_
_space_group_symop_operation_xyz
x,y,z
-x,y,1/2-z
-x,-y,-z
x,-y,1/2+z
1/2+x,1/2+y,z
1/2-x,1/2+y,1/2-z
1/2-x,1/2-y,-z
1/2+x,1/2-y,1/2+z
loop_
_atom_site_type_symbol
_atom_site_label
_atom_site_fract_x
_atom_site_fract_y
_atom_site_fract_z
Si Si1 0.671282 0.116706 0.571643
Si Si2 0.929270 0.114719 0.883287
Si Si3 0.245198 0.039392 0.491254
Si Si4 0.126951 0.657155 0.236381
O O1 0.578789 0.306919 0.507361
O O2 0.844779 0.178353 0.707443
O O3 0.500000 0.000000 0.500000
O O4 0.753262 0.012673 0.568081
O O5 0.820774 0.274012 0.791910
O O6 0.779288 0.999523 0.831991
O O7 0.040762 0.013166 0.900206
O O8 0.250000 0.250000 0.500000
O O9 0.411269 0.929211 0.615841
#
# Coordination Sequence:
#
# PCOD8152390 Si02
#       4
#     8   8   8   8
#     4  11  23  41  66  97 128 169 221 270 326 398
#     4  11  23  42  65  92 129 169 214 272 329 394
#     4  11  25  44  65  95 133 173 220 272 327 398
#     4  11  22  41  67  95 129 172 214 273 336 385
#
# _framework density 23.751926000000001
#
# number of rings (size 3 to 8) (size 9 to 14) (size 15 to 20)
#    0.000    1.000    0.000    9.750    0.000    4.000 
#    0.000    2.500    0.000    0.000    0.000    0.000 
#    0.000    0.000    0.000    0.000    0.000    0.000 
#
# Total GULP energy -198261.318004 kJ/mol
# GULP energy per Si atom -12391.332375 kJ/mol
# Density = 2.369787 g / cm^3
# Si number density = 23.751926 Si / 1000 Ang^3
#
#
#
# Elastic Constant Matrix: (Units=GPa)
#
#
# Indices 1 2 3 4 5 6 
#
# 1 60.2490 18.0993 27.9065 -0.0005 6.2146 -0.0003
# 2 18.0993 112.8243 40.9988 -0.0007 -5.2879 0.0007
# 3 27.9065 40.9988 98.2869 -0.0017 -11.7405 0.0010
# 4 -0.0005 -0.0007 -0.0017 36.6749 -0.0006 10.4389
# 5 6.2146 -5.2879 -11.7405 -0.0006 35.3867 0.0001
# 6 -0.0003 0.0007 0.0010 10.4389 0.0001 43.7769
#
#
#
# Elastic Compliance Matrix: (Units=1/GPa)
#
#
# Indices 1 2 3 4 5 6 
#
# 1 0.020328 -0.001395 -0.005874 0.000000 -0.005727 0.000000
# 2 -0.001395 0.010543 -0.003941 0.000000 0.000513 0.000000
# 3 -0.005874 -0.003941 0.014097 0.000001 0.005120 0.000000
# 4 0.000000 0.000000 0.000001 0.029252 0.000001 -0.006975
# 5 -0.005727 0.000513 0.005120 0.000001 0.031040 0.000000
# 6 0.000000 0.000000 0.000000 -0.006975 0.000000 0.024506
#
#
# Mechanical properties :
#
#
# Convention : Reuss Voigt Hill
#
# Bulk Modulus (GPa) = 44.34628 49.48548 46.91588
# Shear Modulus (GPa) = 31.30801 35.45807 33.38304
#
# Velocity S-wave (km/s) = 3.63454 3.86793 3.75305
# Velocity P-wave (km/s) = 6.02696 6.38963 6.21095
#
# Compressibility (1/GPa) = 0.02254981
#
# Stress axis : x y z
#
# Youngs Moduli (GPa) = 49.19219 94.84880 70.93486
#
# Poissons Ratio (x) = 0.13231 0.41668
# Poissons Ratio (y) = 0.06862 0.27952
# Poissons Ratio (z) = 0.28896 0.37375
#
# Static dielectric constant tensor:
#      x y z
#    x 5.344230 0.051530 2.461320 
#    y 0.051530 250.157290 0.115410 
#    z 2.461320 0.115410 9.742350 
# 
# 
# High freq. dielectric constant tensor:
#      x y z
#    x 1.933870 0.000000 -0.004810 
#    y 0.000000 1.951530 0.000000 
#    z -0.004810 0.000000 1.951660 
# 
# From -- ./inp_files/158952.got.cif
#   From: 2010.06.25/outbox.cif.g09.slc.cpg/sg15_80_cif.got.tgz:158952.got - 2010.06.28 07:06:18.
