data_PCOD8152236
_publ_section_title
;
Structure prediction by ZEFSAII (Michael W. Deem and Ramdas Pophale) SiO2 
 PCOD8152236
Probable space group: C 2/C
;
_chemical_formula_sum "Si O2"
_cell_formula_units_Z 48
_cell_length_a 8.855690
_cell_length_b 10.805722
_cell_length_c 21.811313
_cell_angle_alpha 90.000000
_cell_angle_beta 92.724130
_cell_angle_gamma 90.000000
_cell_volume 2084.812261
_symmetry_space_group_name_H-M "C 2/C"
_symmetry_group_IT_number 15
_symmetry_cell_setting 'monoclinic'
loop_
_space_group_symop_operation_xyz
x,y,z
-x,y,1/2-z
-x,-y,-z
x,-y,1/2+z
1/2+x,1/2+y,z
1/2-x,1/2+y,1/2-z
1/2-x,1/2-y,-z
1/2+x,1/2-y,1/2+z
loop_
_atom_site_type_symbol
_atom_site_label
_atom_site_fract_x
_atom_site_fract_y
_atom_site_fract_z
Si Si1 0.617331 0.028821 0.138550
Si Si2 0.306592 0.903949 0.117262
Si Si3 0.137998 0.909913 0.534939
Si Si4 0.926618 0.223485 0.812604
Si Si5 0.813625 0.166277 0.053051
Si Si6 0.794861 0.812279 0.097820
O O1 0.642942 0.135707 0.190900
O O2 0.673024 0.086527 0.075097
O O3 0.440854 0.996327 0.136330
O O4 0.717022 0.903826 0.146979
O O5 0.372612 0.767827 0.103453
O O6 0.195988 0.882920 0.173751
O O7 0.213855 0.960405 0.057218
O O8 0.188381 0.877827 0.467501
O O9 0.191260 0.807662 0.585336
O O10 0.954459 0.921654 0.536421
O O11 0.045513 0.227797 0.871044
O O12 0.000000 0.186472 0.750000
O O13 0.750000 0.250000 0.000000
#
# Coordination Sequence:
#
# PCOD8152236 Si02
#       6
#     8   8   8   8   8   8
#     4  11  23  42  66  95 129 170 218 266 327 385
#     4  11  23  41  67  95 130 168 218 273 329 389
#     4  11  22  39  67 100 137 170 213 266 329 400
#     4  11  26  47  67  91 127 173 225 274 328 390
#     4  11  23  36  60  97 135 174 210 257 325 395
#     4  11  23  40  67  99 133 175 214 266 330 387
#
# _framework density 23.023655000000002
#
# number of rings (size 3 to 8) (size 9 to 14) (size 15 to 20)
#    0.000    1.000    3.333    4.000    2.333    4.667 
#    0.000    0.000    0.000    0.000    0.000    0.000 
#    0.000    0.000    0.000    0.000    0.000    0.000 
#
# Total GULP energy -297464.578555 kJ/mol
# GULP energy per Si atom -12394.357440 kJ/mol
# Density = 2.297125 g / cm^3
# Si number density = 23.023655 Si / 1000 Ang^3
#
#
#
# Elastic Constant Matrix: (Units=GPa)
#
#
# Indices 1 2 3 4 5 6 
#
# 1 121.4162 44.8608 26.9801 0.0000 -31.2678 0.0000
# 2 44.8608 119.9584 22.4780 0.0000 -14.6179 0.0000
# 3 26.9801 22.4780 75.9717 0.0000 -25.4358 0.0000
# 4 0.0000 0.0000 0.0000 26.5917 0.0000 -11.1006
# 5 -31.2678 -14.6179 -25.4358 0.0000 27.7874 0.0000
# 6 0.0000 0.0000 0.0000 -11.1006 0.0000 48.7831
#
#
#
# Elastic Compliance Matrix: (Units=1/GPa)
#
#
# Indices 1 2 3 4 5 6 
#
# 1 0.012700 -0.003292 0.000964 0.000000 0.013441 0.000000
# 2 -0.003292 0.009887 -0.001810 0.000000 -0.000160 0.000000
# 3 0.000964 -0.001810 0.019322 0.000000 0.017820 0.000000
# 4 0.000000 0.000000 0.000000 0.041553 0.000000 0.009455
# 5 0.013441 -0.000160 0.017820 0.000000 0.067339 0.000000
# 6 0.000000 0.000000 0.000000 0.009455 0.000000 0.022650
#
#
# Mechanical properties :
#
#
# Convention : Reuss Voigt Hill
#
# Bulk Modulus (GPa) = 29.73244 56.22046 42.97645
# Shear Modulus (GPa) = 25.91514 35.50094 30.70804
#
# Velocity S-wave (km/s) = 3.35862 3.93101 3.65603
# Velocity P-wave (km/s) = 5.28983 6.71382 6.04391
#
# Compressibility (1/GPa) = 0.03363329
#
# Stress axis : x y z
#
# Youngs Moduli (GPa) = 78.74251 101.14319 51.75461
#
# Poissons Ratio (x) = 0.33297 -0.04989
# Poissons Ratio (y) = 0.25922 0.09366
# Poissons Ratio (z) = -0.07591 0.18303
#
# Static dielectric constant tensor:
#      x y z
#    x 4.089200 0.000000 -0.293700 
#    y 0.000000 5.060500 0.000000 
#    z -0.293700 0.000000 3.788130 
# 
# 
# High freq. dielectric constant tensor:
#      x y z
#    x 1.907270 0.000000 -0.026360 
#    y 0.000000 1.948480 0.000000 
#    z -0.026360 0.000000 1.865790 
# 
# From -- ./inp_files/263061.got.cif
#   From: 2010.06.25/outbox.cif.g09.slc.cpg/sg15_132_cif.got.tgz:263061.got - 2010.06.28 07:06:18.
