data_PCOD8152326
_publ_section_title
;
Structure prediction by ZEFSAII (Michael W. Deem and Ramdas Pophale) SiO2 
 PCOD8152326
Probable space group: C 2/C
;
_chemical_formula_sum "Si O2"
_cell_formula_units_Z 56
_cell_length_a 22.360156
_cell_length_b 14.256594
_cell_length_c 15.117446
_cell_angle_alpha 90.000000
_cell_angle_beta 36.462409
_cell_angle_gamma 90.000000
_cell_volume 2863.988717
_symmetry_space_group_name_H-M "C 2/C"
_symmetry_group_IT_number 15
_symmetry_cell_setting 'monoclinic'
loop_
_space_group_symop_operation_xyz
x,y,z
-x,y,1/2-z
-x,-y,-z
x,-y,1/2+z
1/2+x,1/2+y,z
1/2-x,1/2+y,1/2-z
1/2-x,1/2-y,-z
1/2+x,1/2-y,1/2+z
loop_
_atom_site_type_symbol
_atom_site_label
_atom_site_fract_x
_atom_site_fract_y
_atom_site_fract_z
Si Si1 0.801209 0.483502 0.387360
Si Si2 0.786110 0.892880 0.175600
Si Si3 0.213097 0.303920 0.628829
Si Si4 0.777020 0.454990 0.613591
Si Si5 0.490514 0.932206 0.427602
Si Si6 0.549299 0.730061 0.948608
Si Si7 0.828452 0.790867 0.663652
O O1 0.723416 0.449820 0.404417
O O2 0.823651 0.593298 0.352931
O O3 0.750495 0.460640 0.541583
O O4 0.908782 0.432709 0.250471
O O5 0.894478 0.841809 0.051756
O O6 0.695080 0.817755 0.287090
O O7 0.779280 0.962858 0.266712
O O8 0.250000 0.250000 0.500000
O O9 0.119943 0.246412 0.779836
O O10 0.304067 0.311470 0.590492
O O11 0.896606 0.468286 0.482089
O O12 0.741628 0.354283 0.690830
O O13 0.469160 0.826416 0.479834
O O14 0.500000 0.000000 0.500000
O O15 0.444749 0.685080 0.041563
#
# Coordination Sequence:
#
# PCOD8152326 Si02
#       7
#     8   8   8   8   8   8   8
#     4  12  23  40  69  95 131 171 220 274 326 395
#     4  11  22  43  66  92 135 170 216 275 327 389
#     4  11  23  43  66 100 131 167 221 272 330 392
#     4  12  24  42  64  98 128 175 216 268 340 386
#     4  12  19  41  66  95 131 164 216 276 328 380
#     4  11  22  40  68  94 127 177 214 265 332 388
#     4  11  22  43  67  89 134 174 212 273 327 386
#
# _framework density 19.553149999999999
#
# number of rings (size 3 to 8) (size 9 to 14) (size 15 to 20)
#    0.000    0.571    8.571    2.143    0.000    1.714 
#    2.571    0.714    0.000    0.000    0.000    0.000 
#    0.000    0.000    0.000    0.000    0.000    0.000 
#
# Total GULP energy -347316.736589 kJ/mol
# GULP energy per Si atom -12404.169164 kJ/mol
# Density = 1.950865 g / cm^3
# Si number density = 19.553150 Si / 1000 Ang^3
#
#
#
# Elastic Constant Matrix: (Units=GPa)
#
#
# Indices 1 2 3 4 5 6 
#
# 1 123.3647 28.3063 76.9847 0.0000 6.0022 0.0000
# 2 28.3063 90.1577 43.1601 0.0000 14.7642 0.0000
# 3 76.9847 43.1601 84.8700 0.0000 2.9473 0.0000
# 4 0.0000 0.0000 0.0000 36.6137 0.0000 1.8343
# 5 6.0022 14.7642 2.9473 0.0000 47.9299 0.0000
# 6 0.0000 0.0000 0.0000 1.8343 0.0000 34.0822
#
#
#
# Elastic Compliance Matrix: (Units=1/GPa)
#
#
# Indices 1 2 3 4 5 6 
#
# 1 0.019548 0.003565 -0.019463 0.000000 -0.002349 0.000000
# 2 0.003565 0.016147 -0.011281 0.000000 -0.004727 0.000000
# 3 -0.019463 -0.011281 0.035044 0.000000 0.003757 0.000000
# 4 0.000000 0.000000 0.000000 0.027386 0.000000 -0.001474
# 5 -0.002349 -0.004727 0.003757 0.000000 0.022383 0.000000
# 6 0.000000 0.000000 0.000000 -0.001474 0.000000 0.029420
#
#
# Mechanical properties :
#
#
# Convention : Reuss Voigt Hill
#
# Bulk Modulus (GPa) = 61.04854 66.14385 63.59619
# Shear Modulus (GPa) = 23.83829 33.72124 28.77976
#
# Velocity S-wave (km/s) = 3.49543 4.15733 3.84066
# Velocity P-wave (km/s) = 6.89785 7.54623 7.22931
#
# Compressibility (1/GPa) = 0.01638041
#
# Stress axis : x y z
#
# Youngs Moduli (GPa) = 51.15535 61.93195 28.53568
#
# Poissons Ratio (x) = -0.22076 0.55540
# Poissons Ratio (y) = -0.18235 0.32190
# Poissons Ratio (z) = 0.99565 0.69863
#
# Static dielectric constant tensor:
#      x y z
#    x 3.820490 0.000000 -0.253470 
#    y 0.000000 3.712520 0.000000 
#    z -0.253470 0.000000 3.772440 
# 
# 
# High freq. dielectric constant tensor:
#      x y z
#    x 1.765180 0.000000 -0.002590 
#    y 0.000000 1.773580 0.000000 
#    z -0.002590 0.000000 1.746400 
# 
# From -- ./inp_files/168434.got.cif
#   From: 2010.06.25/outbox.cif.g09.slc.cpg/sg15_85_cif.got.tgz:168434.got - 2010.06.28 07:06:18.
