data_PCOD8152444
_publ_section_title
;
Structure prediction by ZEFSAII (Michael W. Deem and Ramdas Pophale) SiO2 
 PCOD8152444
Probable space group: C 2/C
;
_chemical_formula_sum "Si O2"
_cell_formula_units_Z 48
_cell_length_a 13.899609
_cell_length_b 13.130548
_cell_length_c 19.653689
_cell_angle_alpha 90.000000
_cell_angle_beta 44.993290
_cell_angle_gamma 90.000000
_cell_volume 2536.084093
_symmetry_space_group_name_H-M "C 2/C"
_symmetry_group_IT_number 15
_symmetry_cell_setting 'monoclinic'
loop_
_space_group_symop_operation_xyz
x,y,z
-x,y,1/2-z
-x,-y,-z
x,-y,1/2+z
1/2+x,1/2+y,z
1/2-x,1/2+y,1/2-z
1/2-x,1/2-y,-z
1/2+x,1/2-y,1/2+z
loop_
_atom_site_type_symbol
_atom_site_label
_atom_site_fract_x
_atom_site_fract_y
_atom_site_fract_z
Si Si1 0.284360 0.004587 0.824689
Si Si2 0.433472 0.005062 0.891052
Si Si3 0.652741 0.705789 0.361081
Si Si4 0.869052 0.714615 0.988800
Si Si5 0.631556 0.792503 0.513210
Si Si6 0.341151 0.716346 0.648045
O O1 0.188838 0.906860 0.867323
O O2 0.332883 0.017205 0.877741
O O3 0.412090 0.993275 0.710821
O O4 0.192651 0.099509 0.849447
O O5 0.420273 0.102294 0.945689
O O6 0.394816 0.909411 0.956302
O O7 0.495182 0.707307 0.416929
O O8 0.674801 0.784113 0.412647
O O9 0.744826 0.739310 0.253221
O O10 0.750000 0.750000 0.000000
O O11 0.817110 0.715967 0.092461
O O12 0.750000 0.750000 0.500000
O O13 0.497144 0.724687 0.594395
#
# Coordination Sequence:
#
# PCOD8152444 Si02
#       6
#     8   8   8   8   8   8
#     4  11  22  41  71  94 130 183 218 259 337 398
#     4  11  22  41  71  94 130 183 218 259 337 398
#     4  11  24  41  66  99 132 168 219 274 321 386
#     4  11  24  41  66  99 132 168 219 274 321 386
#     4  11  24  41  66  99 132 168 219 274 321 386
#     4  11  24  41  66  99 132 168 219 274 321 386
#
# _framework density 18.926818000000001
#
# number of rings (size 3 to 8) (size 9 to 14) (size 15 to 20)
#    0.000    1.000    6.667    0.000    0.000    9.333 
#    0.000    0.000    0.000    4.000    0.000    0.000 
#    0.000    0.000    0.000    0.000    0.000    0.000 
#
# Total GULP energy -297693.060645 kJ/mol
# GULP energy per Si atom -12403.877527 kJ/mol
# Density = 1.888374 g / cm^3
# Si number density = 18.926818 Si / 1000 Ang^3
#
#
#
# Elastic Constant Matrix: (Units=GPa)
#
#
# Indices 1 2 3 4 5 6 
#
# 1 118.3331 12.7249 42.8295 0.0000 -15.5276 0.0000
# 2 12.7249 77.3556 8.9312 0.0000 -0.8545 0.0000
# 3 42.8295 8.9312 112.0687 0.0000 14.5939 0.0000
# 4 0.0000 0.0000 0.0000 38.4071 0.0000 0.0966
# 5 -15.5276 -0.8545 14.5939 0.0000 33.5722 0.0000
# 6 0.0000 0.0000 0.0000 0.0966 0.0000 36.9427
#
#
#
# Elastic Compliance Matrix: (Units=1/GPa)
#
#
# Indices 1 2 3 4 5 6 
#
# 1 0.011485 -0.001196 -0.005281 0.000000 0.007577 0.000000
# 2 -0.001196 0.013194 -0.000600 0.000000 0.000044 0.000000
# 3 -0.005281 -0.000600 0.011988 0.000000 -0.007669 0.000000
# 4 0.000000 0.000000 0.000000 0.026037 0.000000 -0.000068
# 5 0.007577 0.000044 -0.007669 0.000000 0.036626 0.000000
# 6 0.000000 0.000000 0.000000 -0.000068 0.000000 0.027069
#
#
# Mechanical properties :
#
#
# Convention : Reuss Voigt Hill
#
# Bulk Modulus (GPa) = 44.41845 48.52540 46.47192
# Shear Modulus (GPa) = 33.77112 38.00252 35.88682
#
# Velocity S-wave (km/s) = 4.22868 4.48578 4.35913
# Velocity P-wave (km/s) = 6.88199 7.24733 7.06702
#
# Compressibility (1/GPa) = 0.02251317
#
# Stress axis : x y z
#
# Youngs Moduli (GPa) = 87.07165 75.79321 83.41933
#
# Poissons Ratio (x) = 0.09064 0.44050
# Poissons Ratio (y) = 0.10413 0.05006
# Poissons Ratio (z) = 0.45979 0.04548
#
# Static dielectric constant tensor:
#      x y z
#    x 3.653040 0.000000 0.003030 
#    y 0.000000 3.563270 0.000000 
#    z 0.003030 0.000000 3.652130 
# 
# 
# High freq. dielectric constant tensor:
#      x y z
#    x 1.746860 0.000000 -0.000050 
#    y 0.000000 1.738210 0.000000 
#    z -0.000050 0.000000 1.746740 
# 
# From -- ./inp_files/152036.got.cif
#   From: 2010.06.25/outbox.cif.g09.slc.cpg/sg15_77_cif.got.tgz:152036.got - 2010.06.28 07:06:18.
