data_PCOD8152540
_publ_section_title
;
Structure prediction by ZEFSAII (Michael W. Deem and Ramdas Pophale) SiO2 
 PCOD8152540
Probable space group: C 2/C
;
_chemical_formula_sum "Si O2"
_cell_formula_units_Z 52
_cell_length_a 7.679761
_cell_length_b 17.258401
_cell_length_c 18.488535
_cell_angle_alpha 90.000000
_cell_angle_beta 87.319939
_cell_angle_gamma 90.000000
_cell_volume 2447.797416
_symmetry_space_group_name_H-M "C 2/C"
_symmetry_group_IT_number 15
_symmetry_cell_setting 'monoclinic'
loop_
_space_group_symop_operation_xyz
x,y,z
-x,y,1/2-z
-x,-y,-z
x,-y,1/2+z
1/2+x,1/2+y,z
1/2-x,1/2+y,1/2-z
1/2-x,1/2-y,-z
1/2+x,1/2-y,1/2+z
loop_
_atom_site_type_symbol
_atom_site_label
_atom_site_fract_x
_atom_site_fract_y
_atom_site_fract_z
Si Si1 0.321338 0.240161 0.784683
Si Si2 0.697204 0.585703 0.718562
Si Si3 0.819764 0.979862 0.036695
Si Si4 0.000000 0.344838 0.750000
Si Si5 0.328711 0.184641 0.946487
Si Si6 0.854700 0.481257 0.830133
Si Si7 0.880073 0.573155 0.574941
O O1 0.500000 0.278239 0.750000
O O2 0.293257 0.162414 0.741127
O O3 0.159668 0.295889 0.775559
O O4 0.333276 0.223346 0.868470
O O5 0.500000 0.583924 0.750000
O O6 0.805032 0.513962 0.751578
O O7 0.710108 0.585456 0.630340
O O8 0.803674 0.887456 0.044818
O O9 0.816278 0.022362 0.115388
O O10 0.667032 0.015360 0.989014
O O11 0.000000 0.000000 0.000000
O O12 0.062356 0.397129 0.681378
O O13 0.527482 0.152146 0.958477
O O14 0.250000 0.250000 0.000000
O O15 0.975854 0.538526 0.873947
#
# Coordination Sequence:
#
# PCOD8152540 Si02
#       7
#     8   8   8   4   8   8   8
#     4  12  25  46  68  98 142 180 231 285 351 407
#     4  12  21  41  72  98 130 184 232 274 341 416
#     4  11  25  43  66 101 135 174 225 278 342 414
#     4  12  28  40  70 102 136 172 234 296 340 396
#     4  11  25  42  69  95 133 180 223 276 345 410
#     4  11  22  45  64  97 133 178 223 282 337 407
#     4  11  22  42  72  94 135 181 223 279 342 409
#
# _framework density 21.243587999999999
#
# number of rings (size 3 to 8) (size 9 to 14) (size 15 to 20)
#    0.000    0.615    6.923    2.769    4.308    1.846 
#    0.000    0.769    0.000    0.000    0.000    0.000 
#    0.000    0.000    0.000    0.000    0.000    0.000 
#
# Total GULP energy -322247.068935 kJ/mol
# GULP energy per Si atom -12394.118036 kJ/mol
# Density = 2.119524 g / cm^3
# Si number density = 21.243588 Si / 1000 Ang^3
#
#
#
# Elastic Constant Matrix: (Units=GPa)
#
#
# Indices 1 2 3 4 5 6 
#
# 1 111.2049 63.6334 19.4218 0.0000 -21.1690 0.0000
# 2 63.6334 105.6258 63.7697 0.0000 -17.2257 0.0000
# 3 19.4218 63.7697 116.2550 0.0000 -25.1042 0.0000
# 4 0.0000 0.0000 0.0000 22.0122 0.0000 -11.8265
# 5 -21.1690 -17.2257 -25.1042 0.0000 38.5554 0.0000
# 6 0.0000 0.0000 0.0000 -11.8265 0.0000 38.3138
#
#
#
# Elastic Compliance Matrix: (Units=1/GPa)
#
#
# Indices 1 2 3 4 5 6 
#
# 1 0.016141 -0.011760 0.005275 0.000000 0.007043 0.000000
# 2 -0.011760 0.022796 -0.011327 0.000000 -0.003648 0.000000
# 3 0.005275 -0.011327 0.015670 0.000000 0.008038 0.000000
# 4 0.000000 0.000000 0.000000 0.054461 0.000000 0.016811
# 5 0.007043 -0.003648 0.008038 0.000000 0.033408 0.000000
# 6 0.000000 0.000000 0.000000 0.016811 0.000000 0.031289
#
#
# Mechanical properties :
#
#
# Convention : Reuss Voigt Hill
#
# Bulk Modulus (GPa) = 52.68140 69.63729 61.15935
# Shear Modulus (GPa) = 23.17835 32.19368 27.68601
#
# Velocity S-wave (km/s) = 3.30673 3.89711 3.61399
# Velocity P-wave (km/s) = 6.27948 7.28708 6.80196
#
# Compressibility (1/GPa) = 0.01898203
#
# Stress axis : x y z
#
# Youngs Moduli (GPa) = 61.95267 43.86686 63.81697
#
# Poissons Ratio (x) = 0.51590 -0.33665
# Poissons Ratio (y) = 0.72859 0.72289
# Poissons Ratio (z) = -0.32682 0.49690
#
# Static dielectric constant tensor:
#      x y z
#    x 4.179680 0.000000 -0.478620 
#    y 0.000000 3.890470 0.000000 
#    z -0.478620 0.000000 4.545250 
# 
# 
# High freq. dielectric constant tensor:
#      x y z
#    x 1.843830 0.000000 -0.028300 
#    y 0.000000 1.819210 0.000000 
#    z -0.028300 0.000000 1.846870 
# 
# From -- ./inp_files/190451.got.cif
#   From: 2010.06.25/outbox.cif.g09.slc.cpg/sg15_96_cif.got.tgz:190451.got - 2010.06.28 07:06:18.
