data_PCOD8152519
_publ_section_title
;
Structure prediction by ZEFSAII (Michael W. Deem and Ramdas Pophale) SiO2 
 PCOD8152519
Probable space group: C 2/C
;
_chemical_formula_sum "Si O2"
_cell_formula_units_Z 32
_cell_length_a 7.325941
_cell_length_b 13.202485
_cell_length_c 13.505290
_cell_angle_alpha 90.000000
_cell_angle_beta 102.153543
_cell_angle_gamma 90.000000
_cell_volume 1276.963243
_symmetry_space_group_name_H-M "C 2/C"
_symmetry_group_IT_number 15
_symmetry_cell_setting 'monoclinic'
loop_
_space_group_symop_operation_xyz
x,y,z
-x,y,1/2-z
-x,-y,-z
x,-y,1/2+z
1/2+x,1/2+y,z
1/2-x,1/2+y,1/2-z
1/2-x,1/2-y,-z
1/2+x,1/2-y,1/2+z
loop_
_atom_site_type_symbol
_atom_site_label
_atom_site_fract_x
_atom_site_fract_y
_atom_site_fract_z
Si Si1 0.921742 0.185629 0.344869
Si Si2 0.769632 0.073899 0.993546
Si Si3 0.304624 0.523400 0.781871
Si Si4 0.856024 0.390485 0.419197
O O1 0.096246 0.143785 0.427506
O O2 0.000000 0.230679 0.250000
O O3 0.809407 0.271799 0.394102
O O4 0.778517 0.095024 0.305347
O O5 0.805830 0.089640 0.881687
O O6 0.558169 0.105624 0.993690
O O7 0.791295 0.953358 0.028017
O O8 0.500000 0.544179 0.750000
O O9 0.139404 0.554465 0.688064
#
# Coordination Sequence:
#
# PCOD8152519 Si02
#       4
#     8   8   8   8
#     4  11  22  42  70  97 140 183 220 286 352 392
#     4  11  23  44  68  97 140 178 236 284 341 415
#     4  11  23  44  64  96 144 177 226 293 338 407
#     4  11  24  42  71 100 131 187 230 285 344 414
#
# _framework density 25.059450999999999
#
# number of rings (size 3 to 8) (size 9 to 14) (size 15 to 20)
#    0.000    1.000    5.000    3.750    0.000    1.000 
#    0.000    0.000    0.000    0.000    0.000    0.000 
#    0.000    0.000    0.000    0.000    0.000    0.000 
#
# Total GULP energy -198306.242721 kJ/mol
# GULP energy per Si atom -12394.140170 kJ/mol
# Density = 2.500241 g / cm^3
# Si number density = 25.059451 Si / 1000 Ang^3
#
#
#
# Elastic Constant Matrix: (Units=GPa)
#
#
# Indices 1 2 3 4 5 6 
#
# 1 7.8908 8.1291 28.1136 0.0000 1.3044 0.0000
# 2 8.1291 114.4935 36.7069 0.0000 22.7918 0.0000
# 3 28.1136 36.7069 152.2390 0.0000 9.5522 0.0000
# 4 0.0000 0.0000 0.0000 35.0212 0.0000 1.3183
# 5 1.3044 22.7918 9.5522 0.0000 46.5870 0.0000
# 6 0.0000 0.0000 0.0000 1.3183 0.0000 34.5279
#
#
#
# Elastic Compliance Matrix: (Units=1/GPa)
#
#
# Indices 1 2 3 4 5 6 
#
# 1 0.374601 -0.006037 -0.068125 0.000000 0.006433 0.000000
# 2 -0.006037 0.010458 -0.001111 0.000000 -0.004720 0.000000
# 3 -0.068125 -0.001111 0.019514 0.000000 -0.001550 0.000000
# 4 0.000000 0.000000 0.000000 0.028595 0.000000 -0.001092
# 5 0.006433 -0.004720 -0.001550 0.000000 0.023912 0.000000
# 6 0.000000 0.000000 0.000000 -0.001092 0.000000 0.029004
#
#
# Mechanical properties :
#
#
# Convention : Reuss Voigt Hill
#
# Bulk Modulus (GPa) = 3.93654 46.72470 25.33062
# Shear Modulus (GPa) = 6.93187 36.67214 21.80201
#
# Velocity S-wave (km/s) = 1.66499 3.82960 2.95280
# Velocity P-wave (km/s) = 2.29576 6.18389 4.66428
#
# Compressibility (1/GPa) = 0.25402991
#
# Stress axis : x y z
#
# Youngs Moduli (GPa) = 2.66950 95.61709 51.24494
#
# Poissons Ratio (x) = 0.57719 3.49105
# Poissons Ratio (y) = 0.01611 0.05692
# Poissons Ratio (z) = 0.18186 0.10621
#
# Static dielectric constant tensor:
#      x y z
#    x 4.078380 0.000000 0.028660 
#    y 0.000000 4.649260 0.000000 
#    z 0.028660 0.000000 5.055620 
# 
# 
# High freq. dielectric constant tensor:
#      x y z
#    x 1.965080 0.000000 0.003940 
#    y 0.000000 1.987500 0.000000 
#    z 0.003940 0.000000 2.030280 
# 
# From -- ./inp_files/132059.got.cif
#   From: 2010.06.25/outbox.cif.g09.slc.cpg/sg15_67_cif.got.tgz:132059.got - 2010.06.28 07:06:18.
