data_PCOD8152518
_publ_section_title
;
Structure prediction by ZEFSAII (Michael W. Deem and Ramdas Pophale) SiO2 
 PCOD8152518
Probable space group: C 2/C
;
_chemical_formula_sum "Si O2"
_cell_formula_units_Z 48
_cell_length_a 16.246140
_cell_length_b 14.597123
_cell_length_c 9.897572
_cell_angle_alpha 90.000000
_cell_angle_beta 89.610455
_cell_angle_gamma 90.000000
_cell_volume 2347.124307
_symmetry_space_group_name_H-M "C 2/C"
_symmetry_group_IT_number 15
_symmetry_cell_setting 'monoclinic'
loop_
_space_group_symop_operation_xyz
x,y,z
-x,y,1/2-z
-x,-y,-z
x,-y,1/2+z
1/2+x,1/2+y,z
1/2-x,1/2+y,1/2-z
1/2-x,1/2-y,-z
1/2+x,1/2-y,1/2+z
loop_
_atom_site_type_symbol
_atom_site_label
_atom_site_fract_x
_atom_site_fract_y
_atom_site_fract_z
Si Si1 0.941473 0.838209 0.627070
Si Si2 0.335768 0.196519 0.001445
Si Si3 0.182695 0.011241 0.381964
Si Si4 0.207352 0.508915 0.369306
Si Si5 0.589915 0.857877 0.285876
Si Si6 0.448514 0.350590 0.117660
O O1 0.856606 0.891001 0.649578
O O2 0.921499 0.730710 0.618446
O O3 0.000000 0.860898 0.750000
O O4 0.984843 0.879361 0.494548
O O5 0.330513 0.107110 0.094918
O O6 0.404955 0.258699 0.067801
O O7 0.250000 0.250000 0.000000
O O8 0.359985 0.170289 0.848784
O O9 0.260532 0.002454 0.283641
O O10 0.216141 0.011289 0.533689
O O11 0.117455 0.930434 0.358499
O O12 0.136348 0.432197 0.377662
O O13 0.500000 0.897813 0.250000
O O14 0.500000 0.329054 0.250000
#
# Coordination Sequence:
#
# PCOD8152518 Si02
#       6
#     8   8   8   8   8   8
#     4  11  22  42  70  94 139 183 218 286 346 394
#     4  12  23  47  70  97 142 182 224 281 343 407
#     4  12  24  42  67 105 136 173 232 279 349 410
#     4  12  25  42  70  97 137 184 220 285 340 401
#     4  11  24  46  68  97 136 180 238 275 334 410
#     4  12  24  42  69 105 136 175 230 283 341 410
#
# _framework density 20.450557
#
# number of rings (size 3 to 8) (size 9 to 14) (size 15 to 20)
#    0.000    0.333    6.667    4.000    0.000    3.333 
#    0.000    0.000    0.000    0.000    0.000    0.000 
#    0.000    0.000    0.000    0.000    0.000    0.000 
#
# Total GULP energy -297712.512482 kJ/mol
# GULP energy per Si atom -12404.688020 kJ/mol
# Density = 2.040401 g / cm^3
# Si number density = 20.450557 Si / 1000 Ang^3
#
#
#
# Elastic Constant Matrix: (Units=GPa)
#
#
# Indices 1 2 3 4 5 6 
#
# 1 90.3119 39.7445 18.2769 0.0000 9.8873 0.0000
# 2 39.7445 99.1411 17.9594 0.0000 17.4521 0.0000
# 3 18.2769 17.9594 86.8214 0.0000 0.2641 0.0000
# 4 0.0000 0.0000 0.0000 34.2339 0.0000 13.8366
# 5 9.8873 17.4521 0.2641 0.0000 49.5250 0.0000
# 6 0.0000 0.0000 0.0000 13.8366 0.0000 65.9624
#
#
#
# Elastic Compliance Matrix: (Units=1/GPa)
#
#
# Indices 1 2 3 4 5 6 
#
# 1 0.013759 -0.005008 -0.001858 0.000000 -0.000972 0.000000
# 2 -0.005008 0.013019 -0.001628 0.000000 -0.003579 0.000000
# 3 -0.001858 -0.001628 0.012243 0.000000 0.000879 0.000000
# 4 0.000000 0.000000 0.000000 0.031917 0.000000 -0.006695
# 5 -0.000972 -0.003579 0.000879 0.000000 0.021643 0.000000
# 6 0.000000 0.000000 0.000000 -0.006695 0.000000 0.016565
#
#
# Mechanical properties :
#
#
# Convention : Reuss Voigt Hill
#
# Bulk Modulus (GPa) = 45.38423 47.58177 46.48300
# Shear Modulus (GPa) = 37.45953 43.29718 40.37835
#
# Velocity S-wave (km/s) = 4.28449 4.60626 4.44829
# Velocity P-wave (km/s) = 6.83492 7.18383 7.01155
#
# Compressibility (1/GPa) = 0.02203408
#
# Stress axis : x y z
#
# Youngs Moduli (GPa) = 72.67904 76.80867 81.67939
#
# Poissons Ratio (x) = 0.38468 0.15172
# Poissons Ratio (y) = 0.36400 0.13297
# Poissons Ratio (z) = 0.13500 0.12504
#
# Static dielectric constant tensor:
#      x y z
#    x 3.863960 0.000000 -0.078880 
#    y 0.000000 3.828430 0.000000 
#    z -0.078880 0.000000 3.608580 
# 
# 
# High freq. dielectric constant tensor:
#      x y z
#    x 1.813640 0.000000 -0.005980 
#    y 0.000000 1.807600 0.000000 
#    z -0.005980 0.000000 1.800930 
# 
# From -- ./inp_files/47448.got.cif
#   From: 2010.06.25/outbox.cif.g09.slc.cpg/sg15_24_cif.got.tgz:47448.got - 2010.06.28 07:06:18.
