data_PCOD8152697
_publ_section_title
;
Structure prediction by ZEFSAII (Michael W. Deem and Ramdas Pophale) SiO2 
 PCOD8152697
Probable space group: C 2/C
;
_chemical_formula_sum "Si O2"
_cell_formula_units_Z 64
_cell_length_a 13.812259
_cell_length_b 14.736469
_cell_length_c 17.750853
_cell_angle_alpha 90.000000
_cell_angle_beta 51.689281
_cell_angle_gamma 90.000000
_cell_volume 2835.039506
_symmetry_space_group_name_H-M "C 2/C"
_symmetry_group_IT_number 15
_symmetry_cell_setting 'monoclinic'
loop_
_space_group_symop_operation_xyz
x,y,z
-x,y,1/2-z
-x,-y,-z
x,-y,1/2+z
1/2+x,1/2+y,z
1/2-x,1/2+y,1/2-z
1/2-x,1/2-y,-z
1/2+x,1/2-y,1/2+z
loop_
_atom_site_type_symbol
_atom_site_label
_atom_site_fract_x
_atom_site_fract_y
_atom_site_fract_z
Si Si1 0.232649 0.854168 0.521539
Si Si2 0.310204 0.764124 0.155902
Si Si3 0.049335 0.468071 0.148371
Si Si4 0.613913 0.172413 0.144616
Si Si5 0.780454 0.546682 0.734768
Si Si6 0.741216 0.638388 0.187748
Si Si7 0.401451 0.421083 0.052461
Si Si8 0.997782 0.735845 0.055103
O O1 0.250000 0.750000 0.500000
O O2 0.360152 0.905293 0.442886
O O3 0.189471 0.861747 0.628402
O O4 0.124980 0.891453 0.520105
O O5 0.234388 0.705279 0.131330
O O6 0.248144 0.860422 0.206165
O O7 0.331890 0.707519 0.222297
O O8 0.442640 0.784445 0.055046
O O9 0.116368 0.563989 0.132157
O O10 0.000000 0.422621 0.250000
O O11 0.924775 0.478009 0.160194
O O12 0.500000 0.203225 0.250000
O O13 0.600515 0.221377 0.070432
O O14 0.713255 0.463342 0.727348
O O15 0.727909 0.550036 0.845869
O O16 0.885122 0.666835 0.121929
O O17 0.454519 0.339854 0.077703
O O18 0.500000 0.500000 0.000000
#
# Coordination Sequence:
#
# PCOD8152697 Si02
#       8
#     8   8   8   8   8   8   8   8
#     4  12  26  46  70 103 147 197 246 310 368 449
#     4  12  26  44  72 109 147 191 237 310 375 437
#     4  11  23  41  75 103 134 186 245 297 364 439
#     4  11  22  44  74 106 143 182 237 300 371 440
#     4  12  24  47  74 106 144 190 242 309 368 441
#     4  12  25  48  70 106 149 187 249 306 360 447
#     4  12  27  48  72 104 149 194 243 302 380 445
#     4  12  24  45  72 105 142 192 236 303 369 437
#
# _framework density 22.574641
#
# number of rings (size 3 to 8) (size 9 to 14) (size 15 to 20)
#    0.000    0.250    6.250    2.625    3.500    2.000 
#    0.000    3.750    0.000    0.000    0.000    0.000 
#    0.000    0.000    0.000    0.000    0.000    0.000 
#
# Total GULP energy -396819.226373 kJ/mol
# GULP energy per Si atom -12400.600824 kJ/mol
# Density = 2.252326 g / cm^3
# Si number density = 22.574641 Si / 1000 Ang^3
#
#
#
# Elastic Constant Matrix: (Units=GPa)
#
#
# Indices 1 2 3 4 5 6 
#
# 1 83.1541 39.3235 20.9851 0.0000 25.8236 0.0000
# 2 39.3235 161.0602 45.2036 0.0000 15.8334 0.0000
# 3 20.9851 45.2036 126.6709 0.0000 23.9192 0.0000
# 4 0.0000 0.0000 0.0000 39.7631 0.0000 3.4780
# 5 25.8236 15.8334 23.9192 0.0000 43.4137 0.0000
# 6 0.0000 0.0000 0.0000 3.4780 0.0000 38.6096
#
#
#
# Elastic Compliance Matrix: (Units=1/GPa)
#
#
# Indices 1 2 3 4 5 6 
#
# 1 0.016120 -0.003114 0.000041 0.000000 -0.008476 0.000000
# 2 -0.003114 0.007567 -0.002247 0.000000 0.000330 0.000000
# 3 0.000041 -0.002247 0.009531 0.000000 -0.004456 0.000000
# 4 0.000000 0.000000 0.000000 0.025349 0.000000 -0.002283
# 5 -0.008476 0.000330 -0.004456 0.000000 0.030410 0.000000
# 6 0.000000 0.000000 0.000000 -0.002283 0.000000 0.026106
#
#
# Mechanical properties :
#
#
# Convention : Reuss Voigt Hill
#
# Bulk Modulus (GPa) = 44.28953 64.65662 54.47308
# Shear Modulus (GPa) = 37.52352 42.04882 39.78617
#
# Velocity S-wave (km/s) = 4.08143 4.32053 4.20268
# Velocity P-wave (km/s) = 6.47090 7.32071 6.90888
#
# Compressibility (1/GPa) = 0.02257870
#
# Stress axis : x y z
#
# Youngs Moduli (GPa) = 62.03359 132.14672 104.92124
#
# Poissons Ratio (x) = 0.41153 -0.00432
# Poissons Ratio (y) = 0.19318 0.23575
# Poissons Ratio (z) = -0.00256 0.29693
#
# Static dielectric constant tensor:
#      x y z
#    x 3.907810 0.000000 0.028140 
#    y 0.000000 4.057180 0.000000 
#    z 0.028140 0.000000 4.280150 
# 
# 
# High freq. dielectric constant tensor:
#      x y z
#    x 1.877280 0.000000 0.008730 
#    y 0.000000 1.898790 0.000000 
#    z 0.008730 0.000000 1.900450 
# 
# From -- ./inp_files/205723.got.cif
#   From: 2010.06.25/outbox.cif.g09.slc.cpg/sg15_103_cif.got.tgz:205723.got - 2010.06.28 07:06:18.
