data_PCOD8152298
_publ_section_title
;
Structure prediction by ZEFSAII (Michael W. Deem and Ramdas Pophale) SiO2 
 PCOD8152298
Probable space group: C 2/C
;
_chemical_formula_sum "Si O2"
_cell_formula_units_Z 52
_cell_length_a 7.465502
_cell_length_b 29.192969
_cell_length_c 11.079783
_cell_angle_alpha 90.000000
_cell_angle_beta 107.203470
_cell_angle_gamma 90.000000
_cell_volume 2306.695853
_symmetry_space_group_name_H-M "C 2/C"
_symmetry_group_IT_number 15
_symmetry_cell_setting 'monoclinic'
loop_
_space_group_symop_operation_xyz
x,y,z
-x,y,1/2-z
-x,-y,-z
x,-y,1/2+z
1/2+x,1/2+y,z
1/2-x,1/2+y,1/2-z
1/2-x,1/2-y,-z
1/2+x,1/2-y,1/2+z
loop_
_atom_site_type_symbol
_atom_site_label
_atom_site_fract_x
_atom_site_fract_y
_atom_site_fract_z
Si Si1 0.205443 0.488287 0.775802
Si Si2 0.803056 0.473689 0.466329
Si Si3 0.712589 0.774041 0.323329
Si Si4 0.798152 0.890344 0.749985
Si Si5 0.118883 0.316176 0.547969
Si Si6 0.749269 0.130741 0.507570
Si Si7 0.000000 0.831434 0.250000
O O1 0.307848 0.513578 0.681555
O O2 0.171400 0.435410 0.732670
O O3 0.000000 0.510851 0.750000
O O4 0.304022 0.490217 0.929622
O O5 0.833654 0.419198 0.477211
O O6 0.000000 0.500000 0.500000
O O7 0.500000 0.758253 0.250000
O O8 0.845787 0.730505 0.372017
O O9 0.706394 0.808916 0.433979
O O10 0.814764 0.801478 0.238235
O O11 0.721287 0.857716 0.632326
O O12 0.804368 0.864136 0.878636
O O13 0.000000 0.907902 0.750000
O O14 0.900353 0.329099 0.495053
O O15 0.938218 0.137878 0.623556
#
# Coordination Sequence:
#
# PCOD8152298 Si02
#       7
#     8   8   8   8   8   8   4
#     4   9  18  37  60  92 128 171 225 275 341 408
#     4   9  18  38  63  97 129 174 226 280 339 416
#     4  11  25  46  67 102 141 174 231 284 351 419
#     4  11  22  40  65  99 133 176 235 286 338 414
#     4  11  23  44  70  97 130 181 230 283 342 414
#     4  11  24  44  70  99 139 181 232 281 349 414
#     4  12  26  46  66 102 144 180 224 288 346 412
#
# _framework density 22.543067000000001
#
# number of rings (size 3 to 8) (size 9 to 14) (size 15 to 20)
#    0.000    1.538    1.538    4.615    2.154    1.846 
#   15.231    1.538    0.000    0.000    0.000    0.000 
#    0.000    0.000    0.000    0.000    0.000    0.000 
#
# Total GULP energy -322135.903869 kJ/mol
# GULP energy per Si atom -12389.842456 kJ/mol
# Density = 2.249176 g / cm^3
# Si number density = 22.543067 Si / 1000 Ang^3
#
#
#
# Elastic Constant Matrix: (Units=GPa)
#
#
# Indices 1 2 3 4 5 6 
#
# 1 66.2743 35.7619 33.1214 0.0000 7.7400 0.0000
# 2 35.7619 87.9140 56.6371 0.0000 -7.4608 0.0000
# 3 33.1214 56.6371 153.7904 0.0000 -12.8141 0.0000
# 4 0.0000 0.0000 0.0000 -21.1341 0.0000 -53.1506
# 5 7.7400 -7.4608 -12.8141 0.0000 38.2181 0.0000
# 6 0.0000 0.0000 0.0000 -53.1506 0.0000 -19.5211
#
#
#
# Elastic Compliance Matrix: (Units=1/GPa)
#
#
# Indices 1 2 3 4 5 6 
#
# 1 0.021136 -0.007695 -0.002263 0.000000 -0.006541 0.000000
# 2 -0.007695 0.017759 -0.004593 0.000000 0.003485 0.000000
# 3 -0.002263 -0.004593 0.008893 0.000000 0.002544 0.000000
# 4 0.000000 0.000000 0.000000 0.008092 0.000000 -0.022032
# 5 -0.006541 0.003485 0.002544 0.000000 0.029024 0.000000
# 6 0.000000 0.000000 0.000000 -0.022032 0.000000 0.008761
#
#
# Mechanical properties :
#
#
# Convention : Reuss Voigt Hill
#
# Bulk Modulus (GPa) = 53.51331 62.11330 57.81330
# Shear Modulus (GPa) = 38.76113 11.67647 25.21880
#
# Velocity S-wave (km/s) = 4.15109 2.27835 3.34832
# Velocity P-wave (km/s) = 6.83851 5.87658 6.37571
#
# Compressibility (1/GPa) = 0.01868694
#
# Stress axis : x y z
#
# Youngs Moduli (GPa) = 47.31264 56.30806 112.44670
#
# Poissons Ratio (x) = 0.43328 0.25449
# Poissons Ratio (y) = 0.36406 0.51644
# Poissons Ratio (z) = 0.10708 0.25861
#
# Static dielectric constant tensor:
#      x y z
#    x 3.993780 0.000000 -0.307390 
#    y 0.000000 3.861200 0.000000 
#    z -0.307390 0.000000 4.748940 
# 
# 
# High freq. dielectric constant tensor:
#      x y z
#    x 1.871040 0.000000 -0.011610 
#    y 0.000000 1.876660 0.000000 
#    z -0.011610 0.000000 1.913040 
# 
# From -- ./inp_files/80878.got.cif
#   From: 2010.06.25/outbox.cif.g09.slc.cpg/sg15_41_cif.got.tgz:80878.got - 2010.06.28 07:06:18.
