data_PCOD8152750
_publ_section_title
;
Structure prediction by ZEFSAII (Michael W. Deem and Ramdas Pophale) SiO2 
 PCOD8152750
Probable space group: C 2/C
;
_chemical_formula_sum "Si O2"
_cell_formula_units_Z 40
_cell_length_a 11.511867
_cell_length_b 14.590396
_cell_length_c 11.008116
_cell_angle_alpha 90.000000
_cell_angle_beta 114.840073
_cell_angle_gamma 90.000000
_cell_volume 1677.894938
_symmetry_space_group_name_H-M "C 2/C"
_symmetry_group_IT_number 15
_symmetry_cell_setting 'monoclinic'
loop_
_space_group_symop_operation_xyz
x,y,z
-x,y,1/2-z
-x,-y,-z
x,-y,1/2+z
1/2+x,1/2+y,z
1/2-x,1/2+y,1/2-z
1/2-x,1/2-y,-z
1/2+x,1/2-y,1/2+z
loop_
_atom_site_type_symbol
_atom_site_label
_atom_site_fract_x
_atom_site_fract_y
_atom_site_fract_z
Si Si1 0.177262 0.838069 0.754427
Si Si2 0.089345 0.216675 0.465224
Si Si3 0.282491 0.019449 0.885600
Si Si4 0.362961 0.694847 0.748142
Si Si5 0.459417 0.913820 0.101973
O O1 0.191232 0.792645 0.897462
O O2 0.202246 0.946120 0.773701
O O3 0.274416 0.785698 0.705675
O O4 0.036925 0.832272 0.639078
O O5 0.127429 0.164112 0.606171
O O6 0.061952 0.322936 0.489133
O O7 0.203737 0.113745 0.859675
O O8 0.418398 0.027573 0.880696
O O9 0.328978 0.976407 0.037071
O O10 0.500000 0.717610 0.750000
O O11 0.500000 0.874221 0.250000
#
# Coordination Sequence:
#
# PCOD8152750 Si02
#       5
#     8   8   8   8   8
#     4  11  24  46  75 101 136 189 249 292 342 424
#     4  11  23  46  77 101 135 194 248 288 345 420
#     4  11  26  42  67 111 137 180 240 288 364 417
#     4  12  27  45  66 108 157 181 224 300 372 423
#     4  11  22  45  76 101 133 187 251 295 335 425
#
# _framework density 23.839396000000001
#
# number of rings (size 3 to 8) (size 9 to 14) (size 15 to 20)
#    0.000    0.800    6.000    0.600    5.600    4.000 
#    0.000    0.000    0.000    0.000    0.000    0.000 
#    0.000    0.000    0.000    0.000    0.000    0.000 
#
# Total GULP energy -247881.095455 kJ/mol
# GULP energy per Si atom -12394.054773 kJ/mol
# Density = 2.378514 g / cm^3
# Si number density = 23.839396 Si / 1000 Ang^3
#
#
#
# Elastic Constant Matrix: (Units=GPa)
#
#
# Indices 1 2 3 4 5 6 
#
# 1 103.5385 28.1765 11.6280 0.0000 -3.6749 0.0000
# 2 28.1765 87.1282 18.6767 0.0000 -0.5566 0.0000
# 3 11.6280 18.6767 77.9335 0.0000 13.2737 0.0000
# 4 0.0000 0.0000 0.0000 38.7492 0.0000 15.5025
# 5 -3.6749 -0.5566 13.2737 0.0000 19.8377 0.0000
# 6 0.0000 0.0000 0.0000 15.5025 0.0000 29.0584
#
#
#
# Elastic Compliance Matrix: (Units=1/GPa)
#
#
# Indices 1 2 3 4 5 6 
#
# 1 0.010772 -0.003183 -0.001319 0.000000 0.002789 0.000000
# 2 -0.003183 0.013157 -0.002980 0.000000 0.001774 0.000000
# 3 -0.001319 -0.002980 0.015573 0.000000 -0.010748 0.000000
# 4 0.000000 0.000000 0.000000 0.032810 0.000000 -0.017504
# 5 0.002789 0.001774 -0.010748 0.000000 0.058167 0.000000
# 6 0.000000 0.000000 0.000000 -0.017504 0.000000 0.043752
#
#
# Mechanical properties :
#
#
# Convention : Reuss Voigt Hill
#
# Bulk Modulus (GPa) = 40.75532 42.84029 41.79781
# Shear Modulus (GPa) = 25.33262 31.53699 28.43481
#
# Velocity S-wave (km/s) = 3.26335 3.64111 3.45739
# Velocity P-wave (km/s) = 5.59751 5.97380 5.78871
#
# Compressibility (1/GPa) = 0.02453667
#
# Stress axis : x y z
#
# Youngs Moduli (GPa) = 92.83703 76.00640 64.21298
#
# Poissons Ratio (x) = 0.24191 0.08472
# Poissons Ratio (y) = 0.29548 0.19137
# Poissons Ratio (z) = 0.12249 0.22651
#
# Static dielectric constant tensor:
#      x y z
#    x 4.280130 0.000000 0.304630 
#    y 0.000000 4.056220 0.000000 
#    z 0.304630 0.000000 5.068300 
# 
# 
# High freq. dielectric constant tensor:
#      x y z
#    x 1.944030 0.000000 0.039830 
#    y 0.000000 1.939390 0.000000 
#    z 0.039830 0.000000 1.949370 
# 
# From -- ./inp_files/86236.got.cif
#   From: 2010.06.25/outbox.cif.g09.slc.cpg/sg15_44_cif.got.tgz:86236.got - 2010.06.28 07:06:18.
