data_PCOD8152375
_publ_section_title
;
Structure prediction by ZEFSAII (Michael W. Deem and Ramdas Pophale) SiO2 
 PCOD8152375
Probable space group: C 2/C
;
_chemical_formula_sum "Si O2"
_cell_formula_units_Z 60
_cell_length_a 17.243668
_cell_length_b 16.605166
_cell_length_c 17.701470
_cell_angle_alpha 90.000000
_cell_angle_beta 35.121787
_cell_angle_gamma 90.000000
_cell_volume 2916.009257
_symmetry_space_group_name_H-M "C 2/C"
_symmetry_group_IT_number 15
_symmetry_cell_setting 'monoclinic'
loop_
_space_group_symop_operation_xyz
x,y,z
-x,y,1/2-z
-x,-y,-z
x,-y,1/2+z
1/2+x,1/2+y,z
1/2-x,1/2+y,1/2-z
1/2-x,1/2-y,-z
1/2+x,1/2-y,1/2+z
loop_
_atom_site_type_symbol
_atom_site_label
_atom_site_fract_x
_atom_site_fract_y
_atom_site_fract_z
Si Si1 0.857646 0.763371 0.763410
Si Si2 0.499351 0.398826 0.087012
Si Si3 0.128318 0.594407 0.687874
Si Si4 0.411669 0.077206 0.055777
Si Si5 0.043203 0.752025 0.477479
Si Si6 0.783585 0.909893 0.918171
Si Si7 0.000000 0.044751 0.750000
Si Si8 0.785198 0.991341 0.677193
O O1 0.920357 0.682269 0.746965
O O2 0.702439 0.744985 0.866788
O O3 0.866608 0.834758 0.817733
O O4 0.952049 0.788382 0.617664
O O5 0.489784 0.305962 0.069250
O O6 0.510418 0.398314 0.168615
O O7 0.370763 0.446763 0.158678
O O8 0.631537 0.442276 0.950397
O O9 0.253488 0.604526 0.530389
O O10 0.169515 0.541573 0.726948
O O11 0.000000 0.552381 0.750000
O O12 0.496121 0.158520 0.006604
O O13 0.358976 0.079409 0.011667
O O14 0.280842 0.073919 0.214149
O O15 0.500000 0.000000 0.000000
O O16 0.869040 0.990463 0.842171
#
# Coordination Sequence:
#
# PCOD8152375 Si02
#       8
#     8   8   8   8   8   8   4   8
#     4  11  24  40  63  99 139 175 213 272 345 420
#     4  11  23  42  69  92 130 173 230 278 323 394
#     4  12  23  39  61  98 136 175 212 276 344 409
#     4  11  23  43  67  93 130 172 218 274 337 405
#     4  11  24  42  69  99 130 174 225 276 332 403
#     4  11  24  38  59  97 132 170 216 271 336 400
#     4  12  24  40  66  94 130 172 226 280 324 380
#     4  11  22  41  66  94 127 180 224 269 331 401
#
# _framework density 20.576066000000001
#
# number of rings (size 3 to 8) (size 9 to 14) (size 15 to 20)
#    0.000    0.800    4.000    5.200    4.667    0.000 
#    0.000    0.000    4.400    2.400    0.000    0.000 
#    0.000    0.000    0.000    0.000    0.000    0.000 
#
# Total GULP energy -372122.253905 kJ/mol
# GULP energy per Si atom -12404.075130 kJ/mol
# Density = 2.052923 g / cm^3
# Si number density = 20.576066 Si / 1000 Ang^3
#
#
#
# Elastic Constant Matrix: (Units=GPa)
#
#
# Indices 1 2 3 4 5 6 
#
# 1 79.9103 26.8223 14.2585 -0.0004 9.3836 0.0003
# 2 26.8223 97.8539 6.4469 -0.0003 7.4182 0.0002
# 3 14.2585 6.4469 80.3531 -0.0007 12.7370 0.0006
# 4 -0.0004 -0.0003 -0.0007 33.7774 0.0007 3.8502
# 5 9.3836 7.4182 12.7370 0.0007 40.3067 -0.0006
# 6 0.0003 0.0002 0.0006 3.8502 -0.0006 35.5040
#
#
#
# Elastic Compliance Matrix: (Units=1/GPa)
#
#
# Indices 1 2 3 4 5 6 
#
# 1 0.014321 -0.003643 -0.001923 0.000000 -0.002056 0.000000
# 2 -0.003643 0.011314 -0.000069 0.000000 -0.001212 0.000000
# 3 -0.001923 -0.000069 0.013390 0.000000 -0.003771 0.000000
# 4 0.000000 0.000000 0.000000 0.029976 -0.000001 -0.003251
# 5 -0.002056 -0.001212 -0.003771 -0.000001 0.026703 0.000001
# 6 0.000000 0.000000 0.000000 -0.003251 0.000001 0.028518
#
#
# Mechanical properties :
#
#
# Convention : Reuss Voigt Hill
#
# Bulk Modulus (GPa) = 36.02990 39.24142 37.63566
# Shear Modulus (GPa) = 34.54348 35.95692 35.25020
#
# Velocity S-wave (km/s) = 4.10178 4.18486 4.14353
# Velocity P-wave (km/s) = 6.32309 6.51640 6.42047
#
# Compressibility (1/GPa) = 0.02775473
#
# Stress axis : x y z
#
# Youngs Moduli (GPa) = 69.82556 88.38326 74.68493
#
# Poissons Ratio (x) = 0.32198 0.14363
# Poissons Ratio (y) = 0.25438 0.00517
# Poissons Ratio (z) = 0.13428 0.00611
#
# Static dielectric constant tensor:
#      x y z
#    x 3.605310 0.000000 0.127770 
#    y 0.000000 3.762740 0.000000 
#    z 0.127770 0.000000 3.942290 
# 
# 
# High freq. dielectric constant tensor:
#      x y z
#    x 1.793190 0.000000 0.002820 
#    y 0.000000 1.794150 0.000000 
#    z 0.002820 0.000000 1.825320 
# 
# From -- ./inp_files/211728.got.cif
#   From: 2010.06.25/outbox.cif.g09.slc.cpg/sg15_106_cif.got.tgz:211728.got - 2010.06.28 07:06:18.
