data_PCOD8152896
_publ_section_title
;
Structure prediction by ZEFSAII (Michael W. Deem and Ramdas Pophale) SiO2 
 PCOD8152896
Probable space group: C 2/C
;
_chemical_formula_sum "Si O2"
_cell_formula_units_Z 52
_cell_length_a 21.578926
_cell_length_b 20.880757
_cell_length_c 11.964457
_cell_angle_alpha 90.000000
_cell_angle_beta 27.432258
_cell_angle_gamma 90.000000
_cell_volume 2483.629759
_symmetry_space_group_name_H-M "C 2/C"
_symmetry_group_IT_number 15
_symmetry_cell_setting 'monoclinic'
loop_
_space_group_symop_operation_xyz
x,y,z
-x,y,1/2-z
-x,-y,-z
x,-y,1/2+z
1/2+x,1/2+y,z
1/2-x,1/2+y,1/2-z
1/2-x,1/2-y,-z
1/2+x,1/2-y,1/2+z
loop_
_atom_site_type_symbol
_atom_site_label
_atom_site_fract_x
_atom_site_fract_y
_atom_site_fract_z
Si Si1 0.568389 0.524638 0.783322
Si Si2 0.258077 0.779352 0.865047
Si Si3 0.655201 0.062034 0.076712
Si Si4 0.500000 0.947973 0.250000
Si Si5 0.739520 0.844220 0.252578
Si Si6 0.000000 0.867176 0.250000
Si Si7 0.000000 0.911877 0.750000
Si Si8 0.501366 0.873996 0.482029
O O1 0.709534 0.558387 0.571677
O O2 0.473195 0.582237 0.892992
O O3 0.591009 0.460648 0.675394
O O4 0.500000 0.500000 0.000000
O O5 0.253121 0.728494 0.772476
O O6 0.399517 0.815330 0.633744
O O7 0.250000 0.750000 0.000000
O O8 0.132262 0.825547 0.050091
O O9 0.542267 0.076565 0.350776
O O10 0.627946 0.995700 0.054599
O O11 0.663596 0.118055 0.972528
O O12 0.501709 0.905969 0.359307
O O13 0.649342 0.847965 0.283302
O O14 0.892132 0.869063 0.989408
#
# Coordination Sequence:
#
# PCOD8152896 Si02
#       8
#     8   8   8   4   8   4   4   8
#     4  11  23  40  67 103 141 173 223 284 356 415
#     4  12  25  45  73 100 138 185 247 286 338 415
#     4  12  23  42  71 104 141 183 230 286 347 422
#     4  12  28  40  72 104 148 174 226 290 360 422
#     4  12  25  47  71 102 140 190 230 295 344 416
#     4  11  24  41  68 105 130 179 232 288 338 419
#     4  11  26  43  68 103 148 179 228 286 368 415
#     4  12  26  48  70 107 139 186 239 287 355 414
#
# _framework density 20.937097999999999
#
# number of rings (size 3 to 8) (size 9 to 14) (size 15 to 20)
#    0.000    0.308    6.154    2.308    4.308    0.615 
#    0.000    1.538    0.000    0.000    0.000    0.000 
#    0.000    0.000    0.000    0.000    0.000    0.000 
#
# Total GULP energy -322205.756659 kJ/mol
# GULP energy per Si atom -12392.529102 kJ/mol
# Density = 2.088944 g / cm^3
# Si number density = 20.937098 Si / 1000 Ang^3
#
#
#
# Elastic Constant Matrix: (Units=GPa)
#
#
# Indices 1 2 3 4 5 6 
#
# 1 140.3184 69.8884 45.8095 0.0006 -6.1541 -0.0010
# 2 69.8884 146.4194 47.2461 -0.0017 -1.2552 0.0002
# 3 45.8095 47.2461 78.8937 -0.0016 -2.7352 -0.0002
# 4 0.0006 -0.0017 -0.0016 30.1893 0.0037 -9.1881
# 5 -6.1541 -1.2552 -2.7352 0.0037 38.4807 -0.0008
# 6 -0.0010 0.0002 -0.0002 -9.1881 -0.0008 36.4685
#
#
#
# Elastic Compliance Matrix: (Units=1/GPa)
#
#
# Indices 1 2 3 4 5 6 
#
# 1 0.010216 -0.003676 -0.003687 -0.000001 0.001252 0.000000
# 2 -0.003676 0.009788 -0.003746 0.000000 -0.000535 0.000000
# 3 -0.003687 -0.003746 0.017077 0.000001 0.000502 0.000000
# 4 -0.000001 0.000000 0.000001 0.035875 -0.000003 0.009039
# 5 0.001252 -0.000535 0.000502 -0.000003 0.026206 0.000000
# 6 0.000000 0.000000 0.000000 0.009039 0.000000 0.029698
#
#
# Mechanical properties :
#
#
# Convention : Reuss Voigt Hill
#
# Bulk Modulus (GPa) = 67.27983 76.83549 72.05766
# Shear Modulus (GPa) = 32.04445 34.54019 33.29232
#
# Velocity S-wave (km/s) = 3.91642 4.06607 3.99195
# Velocity P-wave (km/s) = 7.25639 7.66954 7.46582
#
# Compressibility (1/GPa) = 0.01486330
#
# Stress axis : x y z
#
# Youngs Moduli (GPa) = 97.88429 102.16180 58.55800
#
# Poissons Ratio (x) = 0.37553 0.21592
# Poissons Ratio (y) = 0.35980 0.21936
# Poissons Ratio (z) = 0.36093 0.38270
#
# Static dielectric constant tensor:
#      x y z
#    x 11.174490 0.000840 -10.188600 
#    y 0.000840 4.074390 -0.001200 
#    z -10.188600 -0.001200 17.964680 
# 
# 
# High freq. dielectric constant tensor:
#      x y z
#    x 1.844380 0.000000 -0.012230 
#    y 0.000000 1.831130 0.000000 
#    z -0.012230 0.000000 1.805390 
# 
# From -- ./inp_files/114381.got.cif
#   From: 2010.06.25/outbox.cif.g09.slc.cpg/sg15_58_cif.got.tgz:114381.got - 2010.06.28 07:06:18.
