data_PCOD8152210
_publ_section_title
;
Structure prediction by ZEFSAII (Michael W. Deem and Ramdas Pophale) SiO2 
 PCOD8152210
Probable space group: C 2/C
;
_chemical_formula_sum "Si O2"
_cell_formula_units_Z 64
_cell_length_a 15.299849
_cell_length_b 8.487541
_cell_length_c 23.720893
_cell_angle_alpha 90.000000
_cell_angle_beta 92.484790
_cell_angle_gamma 90.000000
_cell_volume 3077.453742
_symmetry_space_group_name_H-M "C 2/C"
_symmetry_group_IT_number 15
_symmetry_cell_setting 'monoclinic'
loop_
_space_group_symop_operation_xyz
x,y,z
-x,y,1/2-z
-x,-y,-z
x,-y,1/2+z
1/2+x,1/2+y,z
1/2-x,1/2+y,1/2-z
1/2-x,1/2-y,-z
1/2+x,1/2-y,1/2+z
loop_
_atom_site_type_symbol
_atom_site_label
_atom_site_fract_x
_atom_site_fract_y
_atom_site_fract_z
Si Si1 0.097582 0.686834 0.002989
Si Si2 0.995875 0.817039 0.814905
Si Si3 0.156796 0.684123 0.884888
Si Si4 0.336845 0.815718 0.874978
Si Si5 0.836845 0.315718 0.374978
Si Si6 0.504125 0.682961 0.685095
Si Si7 0.597582 0.813166 0.002988
Si Si8 0.843204 0.684122 0.115112
O O1 0.146304 0.744035 0.060672
O O2 0.091632 0.500000 0.000550
O O3 0.148144 0.747546 0.948924
O O4 1.000000 0.758847 0.000000
O O5 0.899269 0.777541 0.834353
O O6 0.000000 0.769097 0.750000
O O7 0.066855 0.714792 0.849998
O O8 0.016734 0.000000 0.824538
O O9 0.236421 0.776199 0.857219
O O10 0.177556 0.500000 0.883794
O O11 0.399269 0.722459 0.834353
O O12 0.355462 0.000000 0.868616
O O13 0.853696 0.255965 0.439328
O O14 0.736421 0.276199 0.357219
O O15 0.500000 0.730903 0.750000
O O16 0.433145 0.785209 0.650002
O O17 0.648144 0.752454 0.948924
#
# Coordination Sequence:
#
# PCOD8152210 Si02
#       8
#     8   8   8   8   8   8   8   8
#     4   9  17  34  60  91 124 158 194 239 296 357
#     4  11  25  44  63  86 118 157 206 257 302 353
#     4  11  22  39  64  92 125 160 198 244 298 359
#     4  11  22  39  64  92 125 160 198 244 298 359
#     4  11  22  39  64  92 125 160 198 244 298 359
#     4  11  25  44  63  86 118 157 206 257 302 353
#     4   9  17  34  60  91 124 158 194 239 296 357
#     4  11  22  39  64  92 125 160 198 244 298 359
#
# _framework density 20.796413000000001
#
# number of rings (size 3 to 8) (size 9 to 14) (size 15 to 20)
#    0.000    1.500    2.500    3.000    0.000    3.000 
#    0.000    5.000    0.000    0.000    0.000    0.000 
#    0.000    0.000    0.000    0.000    0.000    0.000 
#
# Total GULP energy -396944.910642 kJ/mol
# GULP energy per Si atom -12404.528458 kJ/mol
# Density = 2.074908 g / cm^3
# Si number density = 20.796413 Si / 1000 Ang^3
#
#
#
# Elastic Constant Matrix: (Units=GPa)
#
#
# Indices 1 2 3 4 5 6 
#
# 1 122.2208 8.7017 32.8592 0.0000 -28.1493 0.0000
# 2 8.7017 39.7545 29.5764 0.0000 -1.2350 0.0000
# 3 32.8592 29.5764 122.6822 0.0000 -26.4934 0.0000
# 4 0.0000 0.0000 0.0000 25.4070 0.0000 0.9814
# 5 -28.1493 -1.2350 -26.4934 0.0000 19.9958 0.0000
# 6 0.0000 0.0000 0.0000 0.9814 0.0000 33.9510
#
#
#
# Elastic Compliance Matrix: (Units=1/GPa)
#
#
# Indices 1 2 3 4 5 6 
#
# 1 0.012486 -0.003401 0.001717 0.000000 0.019643 0.000000
# 2 -0.003401 0.033431 -0.010838 0.000000 -0.017082 0.000000
# 3 0.001717 -0.010838 0.014963 0.000000 0.021573 0.000000
# 4 0.000000 0.000000 0.000000 0.039403 0.000000 -0.001139
# 5 0.019643 -0.017082 0.021573 0.000000 0.105192 0.000000
# 6 0.000000 0.000000 0.000000 -0.001139 0.000000 0.029487
#
#
# Mechanical properties :
#
#
# Convention : Reuss Voigt Hill
#
# Bulk Modulus (GPa) = 27.90288 47.43689 37.66988
# Shear Modulus (GPa) = 18.38574 30.10545 24.24560
#
# Velocity S-wave (km/s) = 2.97658 3.80890 3.41817
# Velocity P-wave (km/s) = 5.02590 6.49640 5.80788
#
# Compressibility (1/GPa) = 0.03583860
#
# Stress axis : x y z
#
# Youngs Moduli (GPa) = 80.08674 29.91232 66.83329
#
# Poissons Ratio (x) = 0.10172 -0.11479
# Poissons Ratio (y) = 0.27235 0.72431
# Poissons Ratio (z) = -0.13755 0.32418
#
# Static dielectric constant tensor:
#      x y z
#    x 3.730830 0.000000 -0.110730 
#    y 0.000000 3.423500 0.000000 
#    z -0.110730 0.000000 3.849080 
# 
# 
# High freq. dielectric constant tensor:
#      x y z
#    x 1.827010 0.000000 -0.007800 
#    y 0.000000 1.796410 0.000000 
#    z -0.007800 0.000000 1.810740 
# 
# From -- ./inp_files/273187.got.cif
#   From: 2010.06.25/outbox.cif.g09.slc.cpg/sg15_137_cif.got.tgz:273187.got - 2010.06.28 07:06:18.
