data_PCOD8152960
_publ_section_title
;
Structure prediction by ZEFSAII (Michael W. Deem and Ramdas Pophale) SiO2 
 PCOD8152960
Probable space group: C 2/C
;
_chemical_formula_sum "Si O2"
_cell_formula_units_Z 52
_cell_length_a 26.070736
_cell_length_b 9.705440
_cell_length_c 11.743730
_cell_angle_alpha 90.000000
_cell_angle_beta 54.396265
_cell_angle_gamma 90.000000
_cell_volume 2416.009716
_symmetry_space_group_name_H-M "C 2/C"
_symmetry_group_IT_number 15
_symmetry_cell_setting 'monoclinic'
loop_
_space_group_symop_operation_xyz
x,y,z
-x,y,1/2-z
-x,-y,-z
x,-y,1/2+z
1/2+x,1/2+y,z
1/2-x,1/2+y,1/2-z
1/2-x,1/2-y,-z
1/2+x,1/2-y,1/2+z
loop_
_atom_site_type_symbol
_atom_site_label
_atom_site_fract_x
_atom_site_fract_y
_atom_site_fract_z
Si Si1 0.611909 0.349431 0.315645
Si Si2 0.058777 0.583980 0.470419
Si Si3 0.194507 0.923667 0.421105
Si Si4 0.688973 0.276891 0.005149
Si Si5 0.333979 0.128446 0.684705
Si Si6 0.103745 0.854596 0.746032
Si Si7 0.000000 0.302274 0.250000
O O1 0.558881 0.240571 0.422479
O O2 0.666506 0.358899 0.341417
O O3 0.633401 0.291640 0.166663
O O4 0.584721 0.501632 0.330118
O O5 0.125063 0.511104 0.355455
O O6 0.048139 0.598885 0.619541
O O7 0.000000 0.500000 0.500000
O O8 0.267772 0.882199 0.336062
O O9 0.156913 0.869347 0.579708
O O10 0.193595 0.088784 0.419027
O O11 0.750000 0.250000 0.000000
O O12 0.676230 0.149645 0.937234
O O13 0.371792 0.255109 0.687573
O O14 0.039069 0.795639 0.782155
#
# Coordination Sequence:
#
# PCOD8152960 Si02
#       7
#     8   8   8   8   8   8   4
#     4  11  24  47  70 100 142 182 239 296 358 422
#     4  12  28  48  70 101 144 192 238 297 358 431
#     4  11  23  43  73 105 141 187 234 297 362 423
#     4  11  23  41  67 105 142 180 234 287 358 434
#     4  12  25  43  74 105 146 186 237 296 362 429
#     4  11  25  47  73 104 137 189 242 292 354 429
#     4  12  26  50  72 102 144 188 244 288 362 426
#
# _framework density 21.523092999999999
#
# number of rings (size 3 to 8) (size 9 to 14) (size 15 to 20)
#    0.000    0.615    6.154    1.385    2.154    1.846 
#    5.538    0.000    0.000    0.000    0.000    0.000 
#    0.000    0.000    0.000    0.000    0.000    0.000 
#
# Total GULP energy -322410.200977 kJ/mol
# GULP energy per Si atom -12400.392345 kJ/mol
# Density = 2.147411 g / cm^3
# Si number density = 21.523093 Si / 1000 Ang^3
#
#
#
# Elastic Constant Matrix: (Units=GPa)
#
#
# Indices 1 2 3 4 5 6 
#
# 1 120.6385 45.0098 30.4944 0.0000 -0.1168 0.0000
# 2 45.0098 113.4896 50.8589 0.0000 -0.4863 0.0000
# 3 30.4944 50.8589 92.3110 0.0000 2.5069 0.0000
# 4 0.0000 0.0000 0.0000 39.2648 0.0000 -1.9785
# 5 -0.1168 -0.4863 2.5069 0.0000 32.4438 0.0000
# 6 0.0000 0.0000 0.0000 -1.9785 0.0000 33.3164
#
#
#
# Elastic Compliance Matrix: (Units=1/GPa)
#
#
# Indices 1 2 3 4 5 6 
#
# 1 0.009876 -0.003258 -0.001471 0.000000 0.000100 0.000000
# 2 -0.003258 0.012789 -0.005988 0.000000 0.000643 0.000000
# 3 -0.001471 -0.005988 0.014651 0.000000 -0.001227 0.000000
# 4 0.000000 0.000000 0.000000 0.025545 0.000000 0.001517
# 5 0.000100 0.000643 -0.001227 0.000000 0.030927 0.000000
# 6 0.000000 0.000000 0.000000 0.001517 0.000000 0.030105
#
#
# Mechanical properties :
#
#
# Convention : Reuss Voigt Hill
#
# Bulk Modulus (GPa) = 62.95170 64.35168 63.65169
# Shear Modulus (GPa) = 33.19601 34.34343 33.76972
#
# Velocity S-wave (km/s) = 3.93153 3.99890 3.96536
# Velocity P-wave (km/s) = 7.06549 7.16138 7.11360
#
# Compressibility (1/GPa) = 0.01588519
#
# Stress axis : x y z
#
# Youngs Moduli (GPa) = 101.25129 78.19014 68.25479
#
# Poissons Ratio (x) = 0.25470 0.10038
# Poissons Ratio (y) = 0.32983 0.40869
# Poissons Ratio (z) = 0.14890 0.46818
#
# Static dielectric constant tensor:
#      x y z
#    x 3.785880 0.000000 0.107250 
#    y 0.000000 4.052750 0.000000 
#    z 0.107250 0.000000 4.087660 
# 
# 
# High freq. dielectric constant tensor:
#      x y z
#    x 1.839110 0.000000 0.005960 
#    y 0.000000 1.853090 0.000000 
#    z 0.005960 0.000000 1.857080 
# 
# From -- ./inp_files/121837.got.cif
#   From: 2010.06.25/outbox.cif.g09.slc.cpg/sg15_61_cif.got.tgz:121837.got - 2010.06.28 07:06:18.
