data_PCOD8152645
_publ_section_title
;
Structure prediction by ZEFSAII (Michael W. Deem and Ramdas Pophale) SiO2 
 PCOD8152645
Probable space group: C 2/C
;
_chemical_formula_sum "Si O2"
_cell_formula_units_Z 64
_cell_length_a 11.686500
_cell_length_b 14.833897
_cell_length_c 17.653443
_cell_angle_alpha 90.000000
_cell_angle_beta 88.650388
_cell_angle_gamma 90.000000
_cell_volume 3059.487250
_symmetry_space_group_name_H-M "C 2/C"
_symmetry_group_IT_number 15
_symmetry_cell_setting 'monoclinic'
loop_
_space_group_symop_operation_xyz
x,y,z
-x,y,1/2-z
-x,-y,-z
x,-y,1/2+z
1/2+x,1/2+y,z
1/2-x,1/2+y,1/2-z
1/2-x,1/2-y,-z
1/2+x,1/2-y,1/2+z
loop_
_atom_site_type_symbol
_atom_site_label
_atom_site_fract_x
_atom_site_fract_y
_atom_site_fract_z
Si Si1 0.043347 0.955058 0.576398
Si Si2 0.678691 0.408770 0.832156
Si Si3 0.680266 0.666488 0.973882
Si Si4 0.910384 0.517994 0.095879
Si Si5 0.841449 0.514746 0.930772
Si Si6 0.678774 0.748223 0.714373
Si Si7 0.797786 0.960530 0.307215
Si Si8 0.954796 0.280476 0.631833
O O1 0.136037 0.880639 0.551137
O O2 0.940480 0.906050 0.621372
O O3 0.106545 0.027110 0.629192
O O4 0.000000 0.000000 0.500000
O O5 0.781719 0.434307 0.886624
O O6 0.707661 0.308482 0.801355
O O7 0.665707 0.480542 0.765099
O O8 0.761946 0.602414 0.922700
O O9 0.575112 0.697893 0.923402
O O10 0.750000 0.750000 0.000000
O O11 0.828459 0.491982 0.166024
O O12 0.933987 0.624826 0.090293
O O13 0.032049 0.467411 0.105532
O O14 0.852145 0.486180 0.018582
O O15 0.710923 0.643524 0.715401
O O16 0.586851 0.768270 0.650404
O O17 0.627110 0.777646 0.794777
#
# Coordination Sequence:
#
# PCOD8152645 Si02
#       8
#     8   8   8   8   8   8   8   8
#     4  12  25  45  69 100 137 183 230 283 349 411
#     4  12  25  45  69 101 143 178 232 289 344 417
#     4  12  23  41  68  99 132 178 229 279 337 407
#     4  11  22  44  70  95 140 176 228 285 345 398
#     4  11  23  41  68 102 130 178 226 281 342 400
#     4  11  26  41  70 101 134 177 231 278 348 414
#     4  12  25  46  70  99 140 184 225 288 347 412
#     4  11  22  44  67  99 130 181 229 276 336 424
#
# _framework density 20.918536
#
# number of rings (size 3 to 8) (size 9 to 14) (size 15 to 20)
#    0.000    0.500    6.250    1.875    3.500    1.500 
#    0.000    1.875    2.750    0.000    0.000    0.000 
#    0.000    0.000    0.000    0.000    0.000    0.000 
#
# Total GULP energy -396926.732165 kJ/mol
# GULP energy per Si atom -12403.960380 kJ/mol
# Density = 2.087092 g / cm^3
# Si number density = 20.918536 Si / 1000 Ang^3
#
#
#
# Elastic Constant Matrix: (Units=GPa)
#
#
# Indices 1 2 3 4 5 6 
#
# 1 100.4199 40.4323 33.5044 0.0000 -18.9189 0.0000
# 2 40.4323 126.0219 37.3636 0.0000 -2.0795 0.0000
# 3 33.5044 37.3636 80.9036 0.0000 2.3052 0.0000
# 4 0.0000 0.0000 0.0000 28.9930 0.0000 2.8835
# 5 -18.9189 -2.0795 2.3052 0.0000 35.2806 0.0000
# 6 0.0000 0.0000 0.0000 2.8835 0.0000 32.8176
#
#
#
# Elastic Compliance Matrix: (Units=1/GPa)
#
#
# Indices 1 2 3 4 5 6 
#
# 1 0.014210 -0.003037 -0.004703 0.000000 0.007748 0.000000
# 2 -0.003037 0.009867 -0.003275 0.000000 -0.000833 0.000000
# 3 -0.004703 -0.003275 0.015928 0.000000 -0.003756 0.000000
# 4 0.000000 0.000000 0.000000 0.034795 0.000000 -0.003057
# 5 0.007748 -0.000833 -0.003756 0.000000 0.032695 0.000000
# 6 0.000000 0.000000 0.000000 -0.003057 0.000000 0.030740
#
#
# Mechanical properties :
#
#
# Convention : Reuss Voigt Hill
#
# Bulk Modulus (GPa) = 55.63607 58.88287 57.25947
# Shear Modulus (GPa) = 30.07406 32.48793 31.28100
#
# Velocity S-wave (km/s) = 3.79578 3.94518 3.87120
# Velocity P-wave (km/s) = 6.77236 6.99731 6.88575
#
# Compressibility (1/GPa) = 0.01797395
#
# Stress axis : x y z
#
# Youngs Moduli (GPa) = 70.37445 101.34994 62.78370
#
# Poissons Ratio (x) = 0.30778 0.29527
# Poissons Ratio (y) = 0.21371 0.20564
# Poissons Ratio (z) = 0.33097 0.33197
#
# Static dielectric constant tensor:
#      x y z
#    x 3.994000 0.000000 0.326900 
#    y 0.000000 4.162910 0.000000 
#    z 0.326900 0.000000 3.635140 
# 
# 
# High freq. dielectric constant tensor:
#      x y z
#    x 1.830590 0.000000 0.003800 
#    y 0.000000 1.813500 0.000000 
#    z 0.003800 0.000000 1.824560 
# 
# From -- ./inp_files/198323.got.cif
#   From: 2010.06.25/outbox.cif.g09.slc.cpg/sg15_100_cif.got.tgz:198323.got - 2010.06.28 07:06:18.
