data_PCOD8152146
_publ_section_title
;
Structure prediction by ZEFSAII (Michael W. Deem and Ramdas Pophale) SiO2 
 PCOD8152146
Probable space group: C 2/C
;
_chemical_formula_sum "Si O2"
_cell_formula_units_Z 48
_cell_length_a 21.557850
_cell_length_b 12.353608
_cell_length_c 15.809246
_cell_angle_alpha 90.000000
_cell_angle_beta 145.014992
_cell_angle_gamma 90.000000
_cell_volume 2414.011778
_symmetry_space_group_name_H-M "C 2/C"
_symmetry_group_IT_number 15
_symmetry_cell_setting 'monoclinic'
loop_
_space_group_symop_operation_xyz
x,y,z
-x,y,1/2-z
-x,-y,-z
x,-y,1/2+z
1/2+x,1/2+y,z
1/2-x,1/2+y,1/2-z
1/2-x,1/2-y,-z
1/2+x,1/2-y,1/2+z
loop_
_atom_site_type_symbol
_atom_site_label
_atom_site_fract_x
_atom_site_fract_y
_atom_site_fract_z
Si Si1 0.792462 0.395001 0.988928
Si Si2 0.625494 0.872901 0.893176
Si Si3 0.649542 0.405185 0.670410
Si Si4 0.236016 0.295214 0.850379
Si Si5 0.910434 0.145462 0.922361
Si Si6 0.884755 0.168604 0.088099
O O1 0.734755 0.368480 0.835846
O O2 0.704023 0.405176 0.964352
O O3 0.861832 0.504115 0.061197
O O4 0.871562 0.294986 0.097277
O O5 0.500000 0.841668 0.750000
O O6 0.678846 0.861016 0.861007
O O7 0.682051 0.794504 0.023309
O O8 0.696802 0.380382 0.630584
O O9 0.625359 0.531411 0.656863
O O10 0.539307 0.337726 0.560498
O O11 0.143292 0.240468 0.690981
O O12 0.870746 0.149720 0.973687
O O13 0.000000 0.127574 0.250000
#
# Coordination Sequence:
#
# PCOD8152146 Si02
#       6
#     8   8   8   8   8   8
#     4  11  22  39  61  88 128 158 196 252 294 351
#     4  11  24  44  62  88 120 157 202 244 304 353
#     4  11  22  39  61  93 120 155 203 245 296 349
#     4  11  23  42  65  87 118 159 199 250 293 356
#     4  11  22  39  63  88 123 157 200 248 293 352
#     4  11  22  38  62  91 123 164 199 241 300 354
#
# _framework density 19.883914000000001
#
# number of rings (size 3 to 8) (size 9 to 14) (size 15 to 20)
#    0.000    1.000    5.000    2.500    0.000    0.000 
#    0.000    1.667    0.000    0.000    0.000    0.000 
#    0.000    0.000    0.000    0.000    0.000    0.000 
#
# Total GULP energy -297764.426132 kJ/mol
# GULP energy per Si atom -12406.851089 kJ/mol
# Density = 1.983866 g / cm^3
# Si number density = 19.883914 Si / 1000 Ang^3
#
#
#
# Elastic Constant Matrix: (Units=GPa)
#
#
# Indices 1 2 3 4 5 6 
#
# 1 99.1640 2.2168 18.1102 0.0000 -5.2663 0.0000
# 2 2.2168 51.5311 5.7456 0.0000 4.8538 0.0000
# 3 18.1102 5.7456 82.6054 0.0000 -4.0793 0.0000
# 4 0.0000 0.0000 0.0000 16.4956 0.0000 -4.0731
# 5 -5.2663 4.8538 -4.0793 0.0000 35.1263 0.0000
# 6 0.0000 0.0000 0.0000 -4.0731 0.0000 25.0128
#
#
#
# Elastic Compliance Matrix: (Units=1/GPa)
#
#
# Indices 1 2 3 4 5 6 
#
# 1 0.010571 -0.000336 -0.002226 0.000000 0.001373 0.000000
# 2 -0.000336 0.019861 -0.001454 0.000000 -0.002964 0.000000
# 3 -0.002226 -0.001454 0.012762 0.000000 0.001349 0.000000
# 4 0.000000 0.000000 0.000000 0.063162 0.000000 0.010285
# 5 0.001373 -0.002964 0.001349 0.000000 0.029241 0.000000
# 6 0.000000 0.000000 0.000000 0.010285 0.000000 0.041654
#
#
# Mechanical properties :
#
#
# Convention : Reuss Voigt Hill
#
# Bulk Modulus (GPa) = 28.44021 31.71619 30.07820
# Shear Modulus (GPa) = 25.38009 29.14214 27.26111
#
# Velocity S-wave (km/s) = 3.57657 3.83249 3.70674
# Velocity P-wave (km/s) = 5.60267 5.96400 5.78616
#
# Compressibility (1/GPa) = 0.03516148
#
# Stress axis : x y z
#
# Youngs Moduli (GPa) = 94.59542 50.34867 78.35979
#
# Poissons Ratio (x) = 0.01691 0.17447
# Poissons Ratio (y) = 0.03177 0.11395
# Poissons Ratio (z) = 0.21062 0.07322
#
# Static dielectric constant tensor:
#      x y z
#    x 3.672320 0.000000 -0.001210 
#    y 0.000000 3.428010 0.000000 
#    z -0.001210 0.000000 3.596020 
# 
# 
# High freq. dielectric constant tensor:
#      x y z
#    x 1.785100 0.000000 -0.002200 
#    y 0.000000 1.770220 0.000000 
#    z -0.002200 0.000000 1.783580 
# 
# From -- ./inp_files/104192.got.cif
#   From: 2010.06.25/outbox.cif.g09.slc.cpg/sg15_53_cif.got.tgz:104192.got - 2010.06.28 07:06:18.
