data_PCOD8152822
_publ_section_title
;
Structure prediction by ZEFSAII (Michael W. Deem and Ramdas Pophale) SiO2 
 PCOD8152822
Probable space group: C 2/C
;
_chemical_formula_sum "Si O2"
_cell_formula_units_Z 48
_cell_length_a 9.215431
_cell_length_b 19.121624
_cell_length_c 11.818046
_cell_angle_alpha 90.000000
_cell_angle_beta 104.228305
_cell_angle_gamma 90.000000
_cell_volume 2018.622401
_symmetry_space_group_name_H-M "C 2/C"
_symmetry_group_IT_number 15
_symmetry_cell_setting 'monoclinic'
loop_
_space_group_symop_operation_xyz
x,y,z
-x,y,1/2-z
-x,-y,-z
x,-y,1/2+z
1/2+x,1/2+y,z
1/2-x,1/2+y,1/2-z
1/2-x,1/2-y,-z
1/2+x,1/2-y,1/2+z
loop_
_atom_site_type_symbol
_atom_site_label
_atom_site_fract_x
_atom_site_fract_y
_atom_site_fract_z
Si Si1 0.608719 0.405195 0.981203
Si Si2 0.660827 0.482366 0.305442
Si Si3 0.835535 0.200062 0.186266
Si Si4 0.221982 0.897235 0.639720
Si Si5 0.369381 0.860511 0.145910
Si Si6 0.424504 0.924752 0.475016
O O1 0.636887 0.476311 0.919778
O O2 0.693377 0.338668 0.937952
O O3 0.432135 0.390844 0.964688
O O4 0.712246 0.406273 0.116810
O O5 0.500000 0.446458 0.250000
O O6 0.709133 0.535543 0.217043
O O7 0.790047 0.425957 0.355279
O O8 0.740536 0.170559 0.274458
O O9 0.825518 0.282632 0.173546
O O10 0.000000 0.172391 0.250000
O O11 0.637318 0.901820 0.915501
O O12 0.500000 0.892626 0.250000
O O13 0.450738 0.867914 0.038186
O O14 0.500000 0.000000 0.500000
#
# Coordination Sequence:
#
# PCOD8152822 Si02
#       6
#     8   8   8   8   8   8
#     4   9  17  39  64  88 120 171 219 262 316 381
#     4   9  20  38  63  92 128 175 212 256 320 399
#     4   8  17  39  65  89 116 168 225 259 317 377
#     4   9  21  40  68  88 126 172 219 261 312 395
#     4  11  23  37  60  92 131 171 208 273 325 367
#     4  12  25  38  58 100 139 163 206 269 332 381
#
# _framework density 23.778593000000001
#
# number of rings (size 3 to 8) (size 9 to 14) (size 15 to 20)
#    0.000    2.333    1.667    2.500    2.333    4.000 
#    0.000    7.500    0.000    6.000    0.000    0.000 
#    0.000    0.000    0.000    0.000    0.000    0.000 
#
# Total GULP energy -297367.921302 kJ/mol
# GULP energy per Si atom -12390.330054 kJ/mol
# Density = 2.372447 g / cm^3
# Si number density = 23.778593 Si / 1000 Ang^3
#
#
#
# Elastic Constant Matrix: (Units=GPa)
#
#
# Indices 1 2 3 4 5 6 
#
# 1 125.1753 42.1931 12.5320 0.0000 -11.0981 0.0000
# 2 42.1931 83.0114 12.6008 0.0000 0.2071 0.0000
# 3 12.5320 12.6008 68.1912 0.0000 13.5561 0.0000
# 4 0.0000 0.0000 0.0000 23.1859 0.0000 -0.7211
# 5 -11.0981 0.2071 13.5561 0.0000 31.3395 0.0000
# 6 0.0000 0.0000 0.0000 -0.7211 0.0000 29.9844
#
#
#
# Elastic Compliance Matrix: (Units=1/GPa)
#
#
# Indices 1 2 3 4 5 6 
#
# 1 0.010232 -0.004930 -0.001856 0.000000 0.004459 0.000000
# 2 -0.004930 0.014798 -0.001599 0.000000 -0.001152 0.000000
# 3 -0.001856 -0.001599 0.016881 0.000000 -0.007949 0.000000
# 4 0.000000 0.000000 0.000000 0.043162 0.000000 0.001038
# 5 0.004459 -0.001152 -0.007949 0.000000 0.036933 0.000000
# 6 0.000000 0.000000 0.000000 0.001038 0.000000 0.033376
#
#
# Mechanical properties :
#
#
# Convention : Reuss Voigt Hill
#
# Bulk Modulus (GPa) = 39.77604 45.66995 42.72299
# Shear Modulus (GPa) = 27.69585 30.83878 29.26731
#
# Velocity S-wave (km/s) = 3.41653 3.60518 3.51212
# Velocity P-wave (km/s) = 5.68573 6.04795 5.86964
#
# Compressibility (1/GPa) = 0.02514076
#
# Stress axis : x y z
#
# Youngs Moduli (GPa) = 97.73616 67.57662 59.23671
#
# Poissons Ratio (x) = 0.33315 0.10992
# Poissons Ratio (y) = 0.48184 0.09475
# Poissons Ratio (z) = 0.18137 0.10809
#
# Static dielectric constant tensor:
#      x y z
#    x 4.386850 0.000000 0.154060 
#    y 0.000000 3.769630 0.000000 
#    z 0.154060 0.000000 4.883160 
# 
# 
# High freq. dielectric constant tensor:
#      x y z
#    x 1.936910 0.000000 0.011390 
#    y 0.000000 1.903620 0.000000 
#    z 0.011390 0.000000 1.968700 
# 
# From -- ./inp_files/200040.got.cif
#   From: 2010.06.25/outbox.cif.g09.slc.cpg/sg15_101_cif.got.tgz:200040.got - 2010.06.28 07:06:18.
