data_PCOD8152472
_publ_section_title
;
Structure prediction by ZEFSAII (Michael W. Deem and Ramdas Pophale) SiO2 
 PCOD8152472
Probable space group: C 2/C
;
_chemical_formula_sum "Si O2"
_cell_formula_units_Z 64
_cell_length_a 29.468239
_cell_length_b 8.746556
_cell_length_c 16.403245
_cell_angle_alpha 90.000000
_cell_angle_beta 134.312652
_cell_angle_gamma 90.000000
_cell_volume 3025.199626
_symmetry_space_group_name_H-M "C 2/C"
_symmetry_group_IT_number 15
_symmetry_cell_setting 'monoclinic'
loop_
_space_group_symop_operation_xyz
x,y,z
-x,y,1/2-z
-x,-y,-z
x,-y,1/2+z
1/2+x,1/2+y,z
1/2-x,1/2+y,1/2-z
1/2-x,1/2-y,-z
1/2+x,1/2-y,1/2+z
loop_
_atom_site_type_symbol
_atom_site_label
_atom_site_fract_x
_atom_site_fract_y
_atom_site_fract_z
Si Si1 0.858815 0.172841 0.449336
Si Si2 0.218685 0.686844 0.785952
Si Si3 0.638497 0.679890 0.588151
Si Si4 0.428629 0.145069 0.165605
Si Si5 0.633210 0.298019 0.267041
Si Si6 0.746227 0.091036 0.410523
Si Si7 0.424153 0.192759 0.642890
Si Si8 0.327248 0.611931 0.128022
O O1 0.838390 0.270306 0.345558
O O2 0.915983 0.253868 0.568795
O O3 0.804082 0.186571 0.447810
O O4 0.874271 0.000321 0.442315
O O5 0.287857 0.722020 0.834914
O O6 0.212315 0.506017 0.795591
O O7 0.210496 0.778503 0.859259
O O8 0.620221 0.735846 0.656015
O O9 0.591433 0.771909 0.470718
O O10 0.500000 0.096051 0.250000
O O11 0.420590 0.236746 0.240185
O O12 0.396201 0.977135 0.126544
O O13 0.696906 0.215518 0.382869
O O14 0.638132 0.479724 0.277932
O O15 0.772391 0.963774 0.504905
O O16 0.500000 0.217008 0.750000
O O17 0.382612 0.306361 0.646419
#
# Coordination Sequence:
#
# PCOD8152472 Si02
#       8
#     8   8   8   8   8   8   8   8
#     4  11  22  42  65  96 136 174 214 272 330 394
#     4  11  23  38  64 101 140 166 218 270 333 392
#     4  11  24  42  66 101 136 173 218 272 333 391
#     4  11  27  48  68  93 128 180 228 272 329 390
#     4  12  24  41  69 100 137 169 219 275 328 395
#     4  11  23  38  62 102 133 177 210 264 338 391
#     4  11  26  49  69  93 130 180 226 271 326 390
#     4  12  23  42  66  99 135 176 218 269 326 401
#
# _framework density 21.155629000000001
#
# number of rings (size 3 to 8) (size 9 to 14) (size 15 to 20)
#    0.000    0.750    6.250    1.500    3.500    2.000 
#    2.250    2.500    0.000    0.000    0.000    0.000 
#    0.000    0.000    0.000    0.000    0.000    0.000 
#
# Total GULP energy -396702.485162 kJ/mol
# GULP energy per Si atom -12396.952661 kJ/mol
# Density = 2.110748 g / cm^3
# Si number density = 21.155629 Si / 1000 Ang^3
#
#
#
# Elastic Constant Matrix: (Units=GPa)
#
#
# Indices 1 2 3 4 5 6 
#
# 1 66.3374 22.5025 39.6113 0.0000 -16.1636 0.0000
# 2 22.5025 92.3540 35.9200 0.0000 0.4176 0.0000
# 3 39.6113 35.9200 82.4118 0.0000 -14.5841 0.0000
# 4 0.0000 0.0000 0.0000 29.8655 0.0000 -2.3892
# 5 -16.1636 0.4176 -14.5841 0.0000 27.2717 0.0000
# 6 0.0000 0.0000 0.0000 -2.3892 0.0000 32.5199
#
#
#
# Elastic Compliance Matrix: (Units=1/GPa)
#
#
# Indices 1 2 3 4 5 6 
#
# 1 0.023201 -0.002402 -0.008466 0.000000 0.009260 0.000000
# 2 -0.002402 0.013611 -0.005596 0.000000 -0.004625 0.000000
# 3 -0.008466 -0.005596 0.019627 0.000000 0.005564 0.000000
# 4 0.000000 0.000000 0.000000 0.033681 0.000000 0.002475
# 5 0.009260 -0.004625 0.005564 0.000000 0.045203 0.000000
# 6 0.000000 0.000000 0.000000 0.002475 0.000000 0.030932
#
#
# Mechanical properties :
#
#
# Convention : Reuss Voigt Hill
#
# Bulk Modulus (GPa) = 42.53448 48.57456 45.55452
# Shear Modulus (GPa) = 24.15229 27.46938 25.81083
#
# Velocity S-wave (km/s) = 3.38249 3.60730 3.49670
# Velocity P-wave (km/s) = 5.95014 6.35300 6.15487
#
# Compressibility (1/GPa) = 0.02351034
#
# Stress axis : x y z
#
# Youngs Moduli (GPa) = 43.10226 73.47164 50.95024
#
# Poissons Ratio (x) = 0.17650 0.43132
# Poissons Ratio (y) = 0.10354 0.28513
# Poissons Ratio (z) = 0.36489 0.41116
#
# Static dielectric constant tensor:
#      x y z
#    x 3.694130 0.000000 -0.235930 
#    y 0.000000 4.013580 0.000000 
#    z -0.235930 0.000000 3.792920 
# 
# 
# High freq. dielectric constant tensor:
#      x y z
#    x 1.819820 0.000000 -0.020760 
#    y 0.000000 1.849390 0.000000 
#    z -0.020760 0.000000 1.821860 
# 
# From -- ./inp_files/224640.got.cif
#   From: 2010.06.25/outbox.cif.g09.slc.cpg/sg15_113_cif.got.tgz:224640.got - 2010.06.28 07:06:18.
