data_PCOD8152370
_publ_section_title
;
Structure prediction by ZEFSAII (Michael W. Deem and Ramdas Pophale) SiO2 
 PCOD8152370
Probable space group: C 2/C
;
_chemical_formula_sum "Si O2"
_cell_formula_units_Z 40
_cell_length_a 9.637425
_cell_length_b 27.067868
_cell_length_c 14.504173
_cell_angle_alpha 90.000000
_cell_angle_beta 154.077029
_cell_angle_gamma 90.000000
_cell_volume 1654.058394
_symmetry_space_group_name_H-M "C 2/C"
_symmetry_group_IT_number 15
_symmetry_cell_setting 'monoclinic'
loop_
_space_group_symop_operation_xyz
x,y,z
-x,y,1/2-z
-x,-y,-z
x,-y,1/2+z
1/2+x,1/2+y,z
1/2-x,1/2+y,1/2-z
1/2-x,1/2-y,-z
1/2+x,1/2-y,1/2+z
loop_
_atom_site_type_symbol
_atom_site_label
_atom_site_fract_x
_atom_site_fract_y
_atom_site_fract_z
Si Si1 0.346292 0.586034 0.419633
Si Si2 0.766948 0.543963 0.334897
Si Si3 0.741342 0.803404 0.813853
Si Si4 0.628079 0.791517 0.547579
Si Si5 0.747788 0.619719 0.818393
O O1 0.398230 0.547069 0.366151
O O2 0.391061 0.643211 0.419682
O O3 0.600997 0.580857 0.655432
O O4 0.000000 0.574383 0.250000
O O5 0.500000 0.541551 0.250000
O O6 0.000000 0.500000 0.500000
O O7 0.957772 0.594625 0.454668
O O8 0.500000 0.787250 0.750000
O O9 0.540421 0.804024 0.600680
O O10 0.027403 0.764504 0.966463
O O11 0.393885 0.830876 0.355737
O O12 0.000000 0.799550 0.750000
O O13 0.500000 0.633703 0.750000
#
# Coordination Sequence:
#
# PCOD8152370 Si02
#       5
#     8   8   8   8   8
#     4  11  24  46  77 107 143 192 245 296 365 435
#     4  12  28  52  77 110 145 182 241 303 370 440
#     4  11  22  41  65 101 143 197 248 291 355 426
#     4  12  24  41  66 105 154 195 248 303 352 422
#     4  12  23  46  76 106 151 196 241 305 357 430
#
# _framework density 24.182943999999999
#
# number of rings (size 3 to 8) (size 9 to 14) (size 15 to 20)
#    0.000    0.400    4.000    5.400    0.000    1.600 
#    0.000    0.000    0.000    0.000    0.000    0.000 
#    0.000    0.000    0.000    0.000    0.000    0.000 
#
# Total GULP energy -247882.672630 kJ/mol
# GULP energy per Si atom -12394.133631 kJ/mol
# Density = 2.412790 g / cm^3
# Si number density = 24.182944 Si / 1000 Ang^3
#
#
#
# Elastic Constant Matrix: (Units=GPa)
#
#
# Indices 1 2 3 4 5 6 
#
# 1 135.9396 36.9508 59.9020 0.0000 5.7627 -0.0001
# 2 36.9508 74.0451 17.6753 0.0000 21.4111 0.0000
# 3 59.9020 17.6753 107.1604 0.0004 11.1227 -0.0001
# 4 0.0000 0.0000 0.0004 35.9184 0.0001 -14.0829
# 5 5.7627 21.4111 11.1227 0.0001 50.7645 0.0000
# 6 -0.0001 0.0000 -0.0001 -14.0829 0.0000 11.5338
#
#
#
# Elastic Compliance Matrix: (Units=1/GPa)
#
#
# Indices 1 2 3 4 5 6 
#
# 1 0.011021 -0.004736 -0.005584 0.000000 0.001970 0.000000
# 2 -0.004736 0.017807 0.000444 0.000000 -0.007070 0.000000
# 3 -0.005584 0.000444 0.012620 0.000000 -0.002319 0.000000
# 4 0.000000 0.000000 0.000000 0.053410 0.000000 0.065215
# 5 0.001970 -0.007070 -0.002319 0.000000 0.022965 0.000000
# 6 0.000000 0.000000 0.000000 0.065215 0.000000 0.166329
#
#
# Mechanical properties :
#
#
# Convention : Reuss Voigt Hill
#
# Bulk Modulus (GPa) = 46.08983 60.68904 53.38943
# Shear Modulus (GPa) = 16.07008 33.15115 24.61062
#
# Velocity S-wave (km/s) = 2.58063 3.70651 3.19358
# Velocity P-wave (km/s) = 5.28958 6.59302 5.97694
#
# Compressibility (1/GPa) = 0.02169676
#
# Stress axis : x y z
#
# Youngs Moduli (GPa) = 90.73921 56.15672 79.23655
#
# Poissons Ratio (x) = 0.26598 0.44243
# Poissons Ratio (y) = 0.42978 -0.03520
# Poissons Ratio (z) = 0.50666 -0.02495
#
# Static dielectric constant tensor:
#      x y z
#    x 4.474790 0.000000 -0.358100 
#    y 0.000000 4.343220 0.000000 
#    z -0.358100 0.000000 4.270220 
# 
# 
# High freq. dielectric constant tensor:
#      x y z
#    x 1.959110 0.000000 -0.010140 
#    y 0.000000 1.957780 0.000000 
#    z -0.010140 0.000000 1.967290 
# 
# From -- ./inp_files/139948.got.cif
#   From: 2010.06.25/outbox.cif.g09.slc.cpg/sg15_70_cif.got.tgz:139948.got - 2010.06.28 07:06:18.
