data_PCOD8152224
_publ_section_title
;
Structure prediction by ZEFSAII (Michael W. Deem and Ramdas Pophale) SiO2 
 PCOD8152224
Probable space group: C 2/C
;
_chemical_formula_sum "Si O2"
_cell_formula_units_Z 48
_cell_length_a 15.127036
_cell_length_b 19.414039
_cell_length_c 10.893253
_cell_angle_alpha 90.000000
_cell_angle_beta 37.811891
_cell_angle_gamma 90.000000
_cell_volume 1961.273322
_symmetry_space_group_name_H-M "C 2/C"
_symmetry_group_IT_number 15
_symmetry_cell_setting 'monoclinic'
loop_
_space_group_symop_operation_xyz
x,y,z
-x,y,1/2-z
-x,-y,-z
x,-y,1/2+z
1/2+x,1/2+y,z
1/2-x,1/2+y,1/2-z
1/2-x,1/2-y,-z
1/2+x,1/2-y,1/2+z
loop_
_atom_site_type_symbol
_atom_site_label
_atom_site_fract_x
_atom_site_fract_y
_atom_site_fract_z
Si Si1 0.057352 0.868700 0.998057
Si Si2 0.227338 0.657740 0.635224
Si Si3 0.467086 0.240831 0.971947
Si Si4 0.634917 0.548155 0.187288
Si Si5 0.753998 0.591536 0.628568
Si Si6 0.695147 0.818831 0.623989
O O1 0.069105 0.931451 0.890065
O O2 0.179470 0.869880 0.965820
O O3 0.077094 0.796390 0.906272
O O4 0.900897 0.873485 0.230357
O O5 0.343135 0.719522 0.531372
O O6 0.279324 0.613224 0.462609
O O7 0.210737 0.604560 0.767234
O O8 0.070913 0.691193 0.776560
O O9 0.410437 0.195860 0.148224
O O10 0.500000 0.524450 0.250000
O O11 0.749324 0.487967 0.091586
O O12 0.868816 0.633862 0.417325
O O13 0.750000 0.750000 0.500000
#
# Coordination Sequence:
#
# PCOD8152224 Si02
#       6
#     8   8   8   8   8   8
#     4  11  22  39  66 101 129 176 227 290 339 393
#     4  11  25  45  68 104 133 184 225 289 344 411
#     4  11  22  43  68  99 136 168 235 279 350 399
#     4  12  24  43  67  99 140 184 230 278 342 419
#     4  11  24  39  70  99 135 172 229 285 339 410
#     4  12  22  39  67 101 132 174 225 291 344 395
#
# _framework density 24.473896
#
# number of rings (size 3 to 8) (size 9 to 14) (size 15 to 20)
#    0.000    0.667    8.333    2.000    2.333    2.667 
#    3.000    0.833    3.667    0.000    0.000    0.000 
#    0.000    0.000    0.000    0.000    0.000    0.000 
#
# Total GULP energy -297421.857995 kJ/mol
# GULP energy per Si atom -12392.577416 kJ/mol
# Density = 2.441819 g / cm^3
# Si number density = 24.473896 Si / 1000 Ang^3
#
#
#
# Elastic Constant Matrix: (Units=GPa)
#
#
# Indices 1 2 3 4 5 6 
#
# 1 67.6773 25.9886 18.7610 -0.0034 9.2429 0.0016
# 2 25.9886 125.2819 53.5073 -0.0022 1.9852 0.0017
# 3 18.7610 53.5073 75.8752 -0.0066 -1.9430 0.0036
# 4 -0.0034 -0.0022 -0.0066 41.3582 0.0045 4.6674
# 5 9.2429 1.9852 -1.9430 0.0045 23.8997 -0.0023
# 6 0.0016 0.0017 0.0036 4.6674 -0.0023 7.6155
#
#
#
# Elastic Compliance Matrix: (Units=1/GPa)
#
#
# Indices 1 2 3 4 5 6 
#
# 1 0.017366 -0.002272 -0.002865 0.000002 -0.006760 -0.000005
# 2 -0.002272 0.011781 -0.007765 -0.000001 -0.000731 0.000002
# 3 -0.002865 -0.007765 0.019449 0.000003 0.003334 -0.000008
# 4 0.000002 -0.000001 0.000003 0.025976 -0.000007 -0.015920
# 5 -0.006760 -0.000731 0.003334 -0.000007 0.044788 0.000018
# 6 -0.000005 0.000002 -0.000008 -0.015920 0.000018 0.141068
#
#
# Mechanical properties :
#
#
# Convention : Reuss Voigt Hill
#
# Bulk Modulus (GPa) = 43.87372 51.70537 47.78954
# Shear Modulus (GPa) = 17.01670 25.94652 21.48161
#
# Velocity S-wave (km/s) = 2.63971 3.25956 2.96587
# Velocity P-wave (km/s) = 5.22077 5.94465 5.59443
#
# Compressibility (1/GPa) = 0.02279269
#
# Stress axis : x y z
#
# Youngs Moduli (GPa) = 57.58437 84.88024 51.41547
#
# Poissons Ratio (x) = 0.19281 0.14731
# Poissons Ratio (y) = 0.13081 0.39925
# Poissons Ratio (z) = 0.16498 0.65912
#
# Static dielectric constant tensor:
#      x y z
#    x 4.253450 -0.000010 0.298730 
#    y -0.000010 4.434790 0.000000 
#    z 0.298730 0.000000 4.595540 
# 
# 
# High freq. dielectric constant tensor:
#      x y z
#    x 1.956420 0.000000 0.024790 
#    y 0.000000 1.967920 0.000000 
#    z 0.024790 0.000000 1.980110 
# 
# From -- ./inp_files/107251.got.cif
#   From: 2010.06.25/outbox.cif.g09.slc.cpg/sg15_54_cif.got.tgz:107251.got - 2010.06.28 07:06:18.
