data_PCOD8152157
_publ_section_title
;
Structure prediction by ZEFSAII (Michael W. Deem and Ramdas Pophale) SiO2 
 PCOD8152157
Probable space group: C 2/C
;
_chemical_formula_sum "Si O2"
_cell_formula_units_Z 64
_cell_length_a 30.138706
_cell_length_b 12.359795
_cell_length_c 18.116230
_cell_angle_alpha 90.000000
_cell_angle_beta 151.891901
_cell_angle_gamma 90.000000
_cell_volume 3179.439095
_symmetry_space_group_name_H-M "C 2/C"
_symmetry_group_IT_number 15
_symmetry_cell_setting 'monoclinic'
loop_
_space_group_symop_operation_xyz
x,y,z
-x,y,1/2-z
-x,-y,-z
x,-y,1/2+z
1/2+x,1/2+y,z
1/2-x,1/2+y,1/2-z
1/2-x,1/2-y,-z
1/2+x,1/2-y,1/2+z
loop_
_atom_site_type_symbol
_atom_site_label
_atom_site_fract_x
_atom_site_fract_y
_atom_site_fract_z
Si Si1 0.508068 0.676736 0.349021
Si Si2 0.518012 0.437840 0.190192
Si Si3 0.355336 0.277888 0.939732
Si Si4 0.665981 0.163263 0.083136
Si Si5 0.166528 0.681312 0.909328
Si Si6 0.127510 0.488771 0.753653
Si Si7 0.920339 0.552933 0.976154
Si Si8 0.793290 0.832755 0.006674
O O1 0.500000 0.665437 0.250000
O O2 0.498607 0.556719 0.370654
O O3 0.606291 0.730360 0.518966
O O4 0.426857 0.757910 0.255622
O O5 0.500000 0.447494 0.250000
O O6 0.625672 0.402127 0.333129
O O7 0.445247 0.351201 0.049239
O O8 0.267613 0.329961 0.768798
O O9 0.370703 0.154585 0.940247
O O10 0.339539 0.274017 0.004382
O O11 0.612532 0.055591 0.030972
O O12 0.674836 0.163316 0.008360
O O13 0.170534 0.563973 0.879472
O O14 0.250000 0.750000 0.000000
O O15 0.106531 0.555322 0.649047
O O16 0.207308 0.403206 0.850014
O O17 0.033155 0.433874 0.647701
O O18 0.750000 0.750000 0.000000
#
# Coordination Sequence:
#
# PCOD8152157 Si02
#       8
#     8   8   8   8   8   8   8   8
#     4   9  19  38  61  88 124 161 206 256 314 383
#     4   9  20  39  62  88 122 166 212 258 317 384
#     4  11  24  41  64  91 126 171 216 261 326 386
#     4  11  23  41  64  95 126 167 212 262 329 383
#     4  11  22  38  65  99 125 162 208 266 323 383
#     4  11  23  42  67  93 132 168 219 268 325 382
#     4  11  24  42  65  94 131 173 214 271 322 389
#     4  11  23  41  63  93 127 172 220 266 319 383
#
# _framework density 20.129335999999999
#
# number of rings (size 3 to 8) (size 9 to 14) (size 15 to 20)
#    0.000    1.500    2.500    2.250    3.500    2.000 
#    0.000    0.000    0.000    3.000    0.000    0.000 
#    0.000    0.000    0.000    0.000    0.000    0.000 
#
# Total GULP energy -396845.641855 kJ/mol
# GULP energy per Si atom -12401.426308 kJ/mol
# Density = 2.008352 g / cm^3
# Si number density = 20.129336 Si / 1000 Ang^3
#
#
#
# Elastic Constant Matrix: (Units=GPa)
#
#
# Indices 1 2 3 4 5 6 
#
# 1 86.4526 31.7895 24.9361 0.0000 8.9095 0.0000
# 2 31.7895 111.8899 30.6491 0.0000 8.0779 0.0000
# 3 24.9361 30.6491 111.0952 0.0000 18.9400 0.0000
# 4 0.0000 0.0000 0.0000 29.3559 0.0000 6.9027
# 5 8.9095 8.0779 18.9400 0.0000 32.2323 0.0000
# 6 0.0000 0.0000 0.0000 6.9027 0.0000 36.3183
#
#
#
# Elastic Compliance Matrix: (Units=1/GPa)
#
#
# Indices 1 2 3 4 5 6 
#
# 1 0.013457 -0.003190 -0.001825 0.000000 -0.001848 0.000000
# 2 -0.003190 0.010450 -0.002079 0.000000 -0.000516 0.000000
# 3 -0.001825 -0.002079 0.010902 0.000000 -0.005380 0.000000
# 4 0.000000 0.000000 0.000000 0.035658 0.000000 -0.006777
# 5 -0.001848 -0.000516 -0.005380 0.000000 0.034826 0.000000
# 6 0.000000 0.000000 0.000000 -0.006777 0.000000 0.028822
#
#
# Mechanical properties :
#
#
# Convention : Reuss Voigt Hill
#
# Bulk Modulus (GPa) = 48.49629 53.79857 51.14743
# Shear Modulus (GPa) = 32.22091 34.38550 33.30320
#
# Velocity S-wave (km/s) = 4.00521 4.13756 4.07192
# Velocity P-wave (km/s) = 6.74786 7.04346 6.89724
#
# Compressibility (1/GPa) = 0.02062013
#
# Stress axis : x y z
#
# Youngs Moduli (GPa) = 74.31125 95.69010 91.72699
#
# Poissons Ratio (x) = 0.30524 0.16745
# Poissons Ratio (y) = 0.23704 0.19072
# Poissons Ratio (z) = 0.13565 0.19896
#
# Static dielectric constant tensor:
#      x y z
#    x 3.596960 0.000000 0.284460 
#    y 0.000000 3.756260 0.000000 
#    z 0.284460 0.000000 3.998590 
# 
# 
# High freq. dielectric constant tensor:
#      x y z
#    x 1.778330 0.000000 0.017970 
#    y 0.000000 1.792480 0.000000 
#    z 0.017970 0.000000 1.792850 
# 
# From -- ./inp_files/225212.got.cif
#   From: 2010.06.25/outbox.cif.g09.slc.cpg/sg15_113_cif.got.tgz:225212.got - 2010.06.28 07:06:18.
