data_PCOD8152656
_publ_section_title
;
Structure prediction by ZEFSAII (Michael W. Deem and Ramdas Pophale) SiO2 
 PCOD8152656
Probable space group: C 2/C
;
_chemical_formula_sum "Si O2"
_cell_formula_units_Z 48
_cell_length_a 26.445916
_cell_length_b 8.896048
_cell_length_c 14.344020
_cell_angle_alpha 90.000000
_cell_angle_beta 40.863481
_cell_angle_gamma 90.000000
_cell_volume 2207.884062
_symmetry_space_group_name_H-M "C 2/C"
_symmetry_group_IT_number 15
_symmetry_cell_setting 'monoclinic'
loop_
_space_group_symop_operation_xyz
x,y,z
-x,y,1/2-z
-x,-y,-z
x,-y,1/2+z
1/2+x,1/2+y,z
1/2-x,1/2+y,1/2-z
1/2-x,1/2-y,-z
1/2+x,1/2-y,1/2+z
loop_
_atom_site_type_symbol
_atom_site_label
_atom_site_fract_x
_atom_site_fract_y
_atom_site_fract_z
Si Si1 0.313766 0.532478 0.649321
Si Si2 0.576922 0.672056 0.859521
Si Si3 0.078925 0.013721 0.175672
Si Si4 0.007213 0.588872 0.131016
Si Si5 0.659760 0.797701 0.328211
Si Si6 0.046282 0.269955 0.337921
O O1 0.355472 0.657217 0.657084
O O2 0.354434 0.505958 0.493024
O O3 0.310062 0.371713 0.703471
O O4 0.227385 0.585027 0.751667
O O5 0.599686 0.554153 0.747338
O O6 0.564908 0.831944 0.823000
O O7 0.496965 0.651495 0.030394
O O8 0.061094 0.190082 0.218771
O O9 0.000000 0.933492 0.250000
O O10 0.000000 0.606293 0.250000
O O11 0.007949 0.414988 0.099535
O O12 0.088805 0.666064 0.995533
O O13 0.628949 0.816817 0.265639
#
# Coordination Sequence:
#
# PCOD8152656 Si02
#       6
#     8   8   8   8   8   8
#     4  12  27  43  72  98 143 183 225 290 344 410
#     4  11  22  44  68  98 135 178 227 284 338 400
#     4  12  22  41  72 103 127 177 237 277 342 411
#     4  11  25  44  72 103 134 180 233 283 334 417
#     4  11  26  46  64 102 138 184 223 283 355 393
#     4  11  23  43  72  98 134 177 233 286 332 409
#
# _framework density 21.740272000000001
#
# number of rings (size 3 to 8) (size 9 to 14) (size 15 to 20)
#    0.000    0.667    3.333    6.500    4.667    0.667 
#    3.000    1.667    0.000    0.000    0.000    0.000 
#    0.000    0.000    0.000    0.000    0.000    0.000 
#
# Total GULP energy -297427.287930 kJ/mol
# GULP energy per Si atom -12392.803664 kJ/mol
# Density = 2.169079 g / cm^3
# Si number density = 21.740272 Si / 1000 Ang^3
#
#
#
# Elastic Constant Matrix: (Units=GPa)
#
#
# Indices 1 2 3 4 5 6 
#
# 1 85.1754 11.3606 38.9613 -0.0009 -17.7693 0.0004
# 2 11.3606 84.8099 28.2380 -0.0001 -12.6228 0.0001
# 3 38.9613 28.2380 77.0815 0.0011 -0.6289 -0.0003
# 4 -0.0009 -0.0001 0.0011 28.6955 -0.0006 -2.3528
# 5 -17.7693 -12.6228 -0.6289 -0.0006 37.3118 0.0002
# 6 0.0004 0.0001 -0.0003 -2.3528 0.0002 39.1267
#
#
#
# Elastic Compliance Matrix: (Units=1/GPa)
#
#
# Indices 1 2 3 4 5 6 
#
# 1 0.017781 0.002201 -0.009720 0.000001 0.009049 0.000000
# 2 0.002201 0.014487 -0.006372 0.000000 0.005842 0.000000
# 3 -0.009720 -0.006372 0.020168 -0.000001 -0.006445 0.000000
# 4 0.000001 0.000000 -0.000001 0.035021 0.000001 0.002106
# 5 0.009049 0.005842 -0.006445 0.000001 0.032978 0.000000
# 6 0.000000 0.000000 0.000000 0.002106 0.000000 0.025685
#
#
# Mechanical properties :
#
#
# Convention : Reuss Voigt Hill
#
# Bulk Modulus (GPa) = 40.56075 44.90961 42.73518
# Shear Modulus (GPa) = 27.45429 32.26058 29.85743
#
# Velocity S-wave (km/s) = 3.55749 3.85633 3.70992
# Velocity P-wave (km/s) = 5.96421 6.36636 6.16856
#
# Compressibility (1/GPa) = 0.02465437
#
# Stress axis : x y z
#
# Youngs Moduli (GPa) = 56.24047 69.02529 49.58305
#
# Poissons Ratio (x) = -0.15195 0.48195
# Poissons Ratio (y) = -0.12380 0.31596
# Poissons Ratio (z) = 0.54666 0.43985
#
# Static dielectric constant tensor:
#      x y z
#    x 4.122580 0.000000 0.209840 
#    y 0.000000 4.078640 0.000000 
#    z 0.209840 0.000000 3.638260 
# 
# 
# High freq. dielectric constant tensor:
#      x y z
#    x 1.865040 0.000000 0.022630 
#    y 0.000000 1.863530 0.000000 
#    z 0.022630 0.000000 1.830260 
# 
# From -- ./inp_files/176843.got.cif
#   From: 2010.06.25/outbox.cif.g09.slc.cpg/sg15_89_cif.got.tgz:176843.got - 2010.06.28 07:06:18.
