data_PCOD8152712
_publ_section_title
;
Structure prediction by ZEFSAII (Michael W. Deem and Ramdas Pophale) SiO2 
 PCOD8152712
Probable space group: C 2/C
;
_chemical_formula_sum "Si O2"
_cell_formula_units_Z 56
_cell_length_a 8.214139
_cell_length_b 21.367756
_cell_length_c 20.564423
_cell_angle_alpha 90.000000
_cell_angle_beta 133.929806
_cell_angle_gamma 90.000000
_cell_volume 2599.469693
_symmetry_space_group_name_H-M "C 2/C"
_symmetry_group_IT_number 15
_symmetry_cell_setting 'monoclinic'
loop_
_space_group_symop_operation_xyz
x,y,z
-x,y,1/2-z
-x,-y,-z
x,-y,1/2+z
1/2+x,1/2+y,z
1/2-x,1/2+y,1/2-z
1/2-x,1/2-y,-z
1/2+x,1/2-y,1/2+z
loop_
_atom_site_type_symbol
_atom_site_label
_atom_site_fract_x
_atom_site_fract_y
_atom_site_fract_z
Si Si1 0.559656 0.005918 0.874351
Si Si2 0.849310 0.022229 0.827120
Si Si3 0.959904 0.377398 0.566748
Si Si4 0.285387 0.419377 0.545718
Si Si5 0.921487 0.200476 0.014474
Si Si6 0.938373 0.722827 0.161000
Si Si7 0.982756 0.160154 0.891334
O O1 0.723016 0.011556 0.859076
O O2 0.300461 0.007166 0.778191
O O3 0.626525 0.941162 0.925768
O O4 0.606672 0.059530 0.940801
O O5 0.068942 0.978013 0.887828
O O6 0.901967 0.095349 0.838374
O O7 0.155489 0.390330 0.570132
O O8 0.048818 0.331325 0.647316
O O9 0.750069 0.342899 0.476099
O O10 0.439241 0.363793 0.560314
O O11 0.168603 0.230414 0.079798
O O12 0.750000 0.250000 0.000000
O O13 0.851198 0.180982 0.921111
O O14 0.059645 0.787502 0.175030
O O15 0.000000 0.703524 0.250000
#
# Coordination Sequence:
#
# PCOD8152712 Si02
#       7
#     8   8   8   8   8   8   8
#     4  11  24  42  67 100 137 178 223 280 341 407
#     4  11  24  41  68 100 136 180 225 279 347 406
#     4  11  24  43  71  96 138 176 229 273 342 412
#     4  12  23  44  68 104 136 179 226 283 340 411
#     4  11  23  43  72  96 130 181 233 275 344 411
#     4  11  26  46  67  99 136 182 225 289 342 402
#     4  11  22  45  67  95 137 181 223 278 346 405
#
# _framework density 21.542856
#
# number of rings (size 3 to 8) (size 9 to 14) (size 15 to 20)
#    0.000    0.857    2.857    6.000    4.000    2.857 
#    0.000    1.429    0.000    0.000    0.000    0.000 
#    0.000    0.000    0.000    0.000    0.000    0.000 
#
# Total GULP energy -347238.880862 kJ/mol
# GULP energy per Si atom -12401.388602 kJ/mol
# Density = 2.149382 g / cm^3
# Si number density = 21.542856 Si / 1000 Ang^3
#
#
#
# Elastic Constant Matrix: (Units=GPa)
#
#
# Indices 1 2 3 4 5 6 
#
# 1 113.4424 46.6848 36.9334 0.0000 -11.7656 0.0000
# 2 46.6848 105.5777 11.0764 0.0000 -14.2666 0.0000
# 3 36.9334 11.0764 90.9389 0.0000 -11.9436 0.0000
# 4 0.0000 0.0000 0.0000 19.2006 0.0000 -0.1657
# 5 -11.7656 -14.2666 -11.9436 0.0000 24.0393 0.0000
# 6 0.0000 0.0000 0.0000 -0.1657 0.0000 44.6598
#
#
#
# Elastic Compliance Matrix: (Units=1/GPa)
#
#
# Indices 1 2 3 4 5 6 
#
# 1 0.012312 -0.004858 -0.004275 0.000000 0.001019 0.000000
# 2 -0.004858 0.012234 0.001203 0.000000 0.005481 0.000000
# 3 -0.004275 0.001203 0.013271 0.000000 0.005215 0.000000
# 4 0.000000 0.000000 0.000000 0.052083 0.000000 0.000193
# 5 0.001019 0.005481 0.005215 0.000000 0.047941 0.000000
# 6 0.000000 0.000000 0.000000 0.000193 0.000000 0.022392
#
#
# Mechanical properties :
#
#
# Convention : Reuss Voigt Hill
#
# Bulk Modulus (GPa) = 45.54379 55.48312 50.51346
# Shear Modulus (GPa) = 27.26110 31.93091 29.59601
#
# Velocity S-wave (km/s) = 3.56116 3.85412 3.71053
# Velocity P-wave (km/s) = 6.17220 6.75398 6.46963
#
# Compressibility (1/GPa) = 0.02195689
#
# Stress axis : x y z
#
# Youngs Moduli (GPa) = 81.22459 81.73842 75.35277
#
# Poissons Ratio (x) = 0.39707 0.32211
# Poissons Ratio (y) = 0.39457 -0.09062
# Poissons Ratio (z) = 0.34720 -0.09830
#
# Static dielectric constant tensor:
#      x y z
#    x 3.838510 0.000000 -0.147830 
#    y 0.000000 3.896980 0.000000 
#    z -0.147830 0.000000 3.834880 
# 
# 
# High freq. dielectric constant tensor:
#      x y z
#    x 1.848010 0.000000 -0.016530 
#    y 0.000000 1.867380 0.000000 
#    z -0.016530 0.000000 1.832540 
# 
# From -- ./inp_files/233917.got.cif
#   From: 2010.06.25/outbox.cif.g09.slc.cpg/sg15_117_cif.got.tgz:233917.got - 2010.06.28 07:06:18.
