data_PCOD8152441
_publ_section_title
;
Structure prediction by ZEFSAII (Michael W. Deem and Ramdas Pophale) SiO2 
 PCOD8152441
Probable space group: C 2/C
;
_chemical_formula_sum "Si O2"
_cell_formula_units_Z 64
_cell_length_a 22.823991
_cell_length_b 15.457321
_cell_length_c 17.309231
_cell_angle_alpha 90.000000
_cell_angle_beta 29.205434
_cell_angle_gamma 90.000000
_cell_volume 2979.697565
_symmetry_space_group_name_H-M "C 2/C"
_symmetry_group_IT_number 15
_symmetry_cell_setting 'monoclinic'
loop_
_space_group_symop_operation_xyz
x,y,z
-x,y,1/2-z
-x,-y,-z
x,-y,1/2+z
1/2+x,1/2+y,z
1/2-x,1/2+y,1/2-z
1/2-x,1/2-y,-z
1/2+x,1/2-y,1/2+z
loop_
_atom_site_type_symbol
_atom_site_label
_atom_site_fract_x
_atom_site_fract_y
_atom_site_fract_z
Si Si1 0.226358 0.984489 0.446595
Si Si2 0.461368 0.375852 0.917398
Si Si3 0.923962 0.138367 0.915216
Si Si4 0.067377 0.586477 0.899347
Si Si5 0.863200 0.693162 0.054493
Si Si6 0.781464 0.932806 0.876143
Si Si7 0.609793 0.589843 0.827601
Si Si8 0.302016 0.215908 0.640766
O O1 0.100994 0.936308 0.574144
O O2 0.332041 0.940423 0.277352
O O3 0.261788 0.978419 0.495505
O O4 0.199918 0.084886 0.455891
O O5 0.603015 0.373404 0.739541
O O6 0.409206 0.280997 0.963445
O O7 0.438077 0.413083 0.030086
O O8 0.000000 0.144999 0.750000
O O9 0.001144 0.090322 0.892119
O O10 0.890236 0.235109 0.980725
O O11 0.130611 0.634512 0.898002
O O12 0.000000 0.500000 0.000000
O O13 0.972779 0.654349 0.975924
O O14 0.825821 0.627010 0.030667
O O15 0.746666 0.713874 0.241355
O O16 0.810011 0.005024 0.779002
O O17 0.689360 0.676259 0.723806
#
# Coordination Sequence:
#
# PCOD8152441 Si02
#       8
#     8   8   8   8   8   8   8   8
#     4  12  25  46  67 100 142 175 226 295 350 413
#     4  11  23  42  69 100 133 176 240 283 337 414
#     4  12  24  44  70 104 143 180 229 298 351 407
#     4  12  25  47  70  98 138 185 231 287 347 419
#     4  11  24  42  68 100 135 183 234 283 341 412
#     4  12  24  43  68 101 137 183 229 284 357 415
#     4  11  22  41  70  98 132 180 235 275 340 420
#     4  11  24  45  69 106 136 182 244 286 341 417
#
# _framework density 21.47869
#
# number of rings (size 3 to 8) (size 9 to 14) (size 15 to 20)
#    0.000    0.500    5.000    5.250    1.750    1.500 
#    4.500    0.000    0.000    0.000    0.000    0.000 
#    0.000    0.000    0.000    0.000    0.000    0.000 
#
# Total GULP energy -396957.613251 kJ/mol
# GULP energy per Si atom -12404.925414 kJ/mol
# Density = 2.142980 g / cm^3
# Si number density = 21.478690 Si / 1000 Ang^3
#
#
#
# Elastic Constant Matrix: (Units=GPa)
#
#
# Indices 1 2 3 4 5 6 
#
# 1 94.3670 33.6429 20.9730 0.0000 5.9583 0.0000
# 2 33.6429 101.6838 37.4573 0.0000 12.0283 0.0000
# 3 20.9730 37.4573 57.8256 0.0000 -1.1162 0.0000
# 4 0.0000 0.0000 0.0000 37.3521 0.0000 -12.5681
# 5 5.9583 12.0283 -1.1162 0.0000 26.1247 0.0000
# 6 0.0000 0.0000 0.0000 -12.5681 0.0000 37.2940
#
#
#
# Elastic Compliance Matrix: (Units=1/GPa)
#
#
# Indices 1 2 3 4 5 6 
#
# 1 0.012319 -0.002933 -0.002599 0.000000 -0.001570 0.000000
# 2 -0.002933 0.014745 -0.008613 0.000000 -0.006488 0.000000
# 3 -0.002599 -0.008613 0.023923 0.000000 0.005580 0.000000
# 4 0.000000 0.000000 0.000000 0.030196 0.000000 0.010176
# 5 -0.001570 -0.006488 0.005580 0.000000 0.041862 0.000000
# 6 0.000000 0.000000 0.000000 0.010176 0.000000 0.030243
#
#
# Mechanical properties :
#
#
# Convention : Reuss Voigt Hill
#
# Bulk Modulus (GPa) = 44.05615 48.66921 46.36268
# Shear Modulus (GPa) = 26.43511 30.94105 28.68808
#
# Velocity S-wave (km/s) = 3.51202 3.79957 3.65862
# Velocity P-wave (km/s) = 6.08291 6.47746 6.28328
#
# Compressibility (1/GPa) = 0.02269831
#
# Stress axis : x y z
#
# Youngs Moduli (GPa) = 81.17393 67.82001 41.80159
#
# Poissons Ratio (x) = 0.19891 0.10862
# Poissons Ratio (y) = 0.23808 0.36002
# Poissons Ratio (z) = 0.21094 0.58411
#
# Static dielectric constant tensor:
#      x y z
#    x 3.948920 0.000000 -0.123590 
#    y 0.000000 3.145480 0.000000 
#    z -0.123590 0.000000 3.744940 
# 
# 
# High freq. dielectric constant tensor:
#      x y z
#    x 1.844150 0.000000 -0.006430 
#    y 0.000000 1.855030 0.000000 
#    z -0.006430 0.000000 1.836960 
# 
# From -- ./inp_files/219722.got.cif
#   From: 2010.06.25/outbox.cif.g09.slc.cpg/sg15_110_cif.got.tgz:219722.got - 2010.06.28 07:06:18.
