data_PCOD8152651
_publ_section_title
;
Structure prediction by ZEFSAII (Michael W. Deem and Ramdas Pophale) SiO2 
 PCOD8152651
Probable space group: C 2/C
;
_chemical_formula_sum "Si O2"
_cell_formula_units_Z 40
_cell_length_a 10.188429
_cell_length_b 9.872953
_cell_length_c 20.429598
_cell_angle_alpha 90.000000
_cell_angle_beta 68.334804
_cell_angle_gamma 90.000000
_cell_volume 1909.838697
_symmetry_space_group_name_H-M "C 2/C"
_symmetry_group_IT_number 15
_symmetry_cell_setting 'monoclinic'
loop_
_space_group_symop_operation_xyz
x,y,z
-x,y,1/2-z
-x,-y,-z
x,-y,1/2+z
1/2+x,1/2+y,z
1/2-x,1/2+y,1/2-z
1/2-x,1/2-y,-z
1/2+x,1/2-y,1/2+z
loop_
_atom_site_type_symbol
_atom_site_label
_atom_site_fract_x
_atom_site_fract_y
_atom_site_fract_z
Si Si1 0.619188 0.152128 0.530011
Si Si2 0.354849 0.895528 0.617874
Si Si3 0.341745 0.184616 0.783819
Si Si4 0.680888 0.191699 0.859975
Si Si5 0.362603 0.063113 0.370410
O O1 0.750000 0.250000 0.500000
O O2 0.565929 0.123466 0.466145
O O3 0.487654 0.212402 0.596216
O O4 0.676681 0.018241 0.556294
O O5 0.242898 0.777396 0.649805
O O6 0.471483 0.897083 0.654490
O O7 0.274911 0.039985 0.627136
O O8 0.500000 0.239470 0.750000
O O9 0.276410 0.200100 0.724015
O O10 0.337465 0.030081 0.810951
O O11 0.768166 0.302559 0.884147
#
# Coordination Sequence:
#
# PCOD8152651 Si02
#       5
#     8   8   8   8   8
#     4  11  22  44  68  95 133 173 213 270 325 382
#     4  11  24  44  67  95 131 171 216 267 325 382
#     4  12  22  45  67  91 135 173 210 270 328 380
#     4  11  24  40  68  97 128 172 218 265 325 380
#     4  11  24  44  67  93 137 167 217 275 316 386
#
# _framework density 20.944178000000001
#
# number of rings (size 3 to 8) (size 9 to 14) (size 15 to 20)
#    0.000    0.800    6.000    3.600    0.000    4.000 
#   10.800    0.000    0.000    0.000    0.000    0.000 
#    0.000    0.000    0.000    0.000    0.000    0.000 
#
# Total GULP energy -247932.008915 kJ/mol
# GULP energy per Si atom -12396.600446 kJ/mol
# Density = 2.089651 g / cm^3
# Si number density = 20.944178 Si / 1000 Ang^3
#
#
#
# Elastic Constant Matrix: (Units=GPa)
#
#
# Indices 1 2 3 4 5 6 
#
# 1 74.8499 67.0347 24.0419 0.0000 5.3016 0.0000
# 2 67.0347 126.4550 33.6815 0.0000 -0.4873 0.0000
# 3 24.0419 33.6815 120.4043 0.0000 4.8496 0.0000
# 4 0.0000 0.0000 0.0000 37.3932 0.0000 5.3025
# 5 5.3016 -0.4873 4.8496 0.0000 29.0841 0.0000
# 6 0.0000 0.0000 0.0000 5.3025 0.0000 44.2015
#
#
#
# Elastic Compliance Matrix: (Units=1/GPa)
#
#
# Indices 1 2 3 4 5 6 
#
# 1 0.026313 -0.013636 -0.001246 0.000000 -0.004817 0.000000
# 2 -0.013636 0.015619 -0.001769 0.000000 0.003042 0.000000
# 3 -0.001246 -0.001769 0.009102 0.000000 -0.001320 0.000000
# 4 0.000000 0.000000 0.000000 0.027206 0.000000 -0.003264
# 5 -0.004817 0.003042 -0.001320 0.000000 0.035532 0.000000
# 6 0.000000 0.000000 0.000000 -0.003264 0.000000 0.023015
#
#
# Mechanical properties :
#
#
# Convention : Reuss Voigt Hill
#
# Bulk Modulus (GPa) = 56.38955 63.46951 59.92953
# Shear Modulus (GPa) = 28.40905 35.26583 31.83744
#
# Velocity S-wave (km/s) = 3.68695 4.10787 3.90309
# Velocity P-wave (km/s) = 6.71618 7.27113 6.99916
#
# Compressibility (1/GPa) = 0.01773378
#
# Stress axis : x y z
#
# Youngs Moduli (GPa) = 38.00344 64.02352 109.86415
#
# Poissons Ratio (x) = 0.87301 0.13686
# Poissons Ratio (y) = 0.51820 0.19436
# Poissons Ratio (z) = 0.04734 0.11326
#
# Static dielectric constant tensor:
#      x y z
#    x 3.580390 0.000000 0.214680 
#    y 0.000000 3.764380 0.000000 
#    z 0.214680 0.000000 4.206530 
# 
# 
# High freq. dielectric constant tensor:
#      x y z
#    x 1.801720 0.000000 0.010890 
#    y 0.000000 1.816640 0.000000 
#    z 0.010890 0.000000 1.842500 
# 
# From -- ./inp_files/195248.got.cif
#   From: 2010.06.25/outbox.cif.g09.slc.cpg/sg15_98_cif.got.tgz:195248.got - 2010.06.28 07:06:18.
