data_PCOD8152530
_publ_section_title
;
Structure prediction by ZEFSAII (Michael W. Deem and Ramdas Pophale) SiO2 
 PCOD8152530
Probable space group: C 2/C
;
_chemical_formula_sum "Si O2"
_cell_formula_units_Z 52
_cell_length_a 16.586097
_cell_length_b 16.630790
_cell_length_c 16.004435
_cell_angle_alpha 90.000000
_cell_angle_beta 32.114027
_cell_angle_gamma 90.000000
_cell_volume 2346.860437
_symmetry_space_group_name_H-M "C 2/C"
_symmetry_group_IT_number 15
_symmetry_cell_setting 'monoclinic'
loop_
_space_group_symop_operation_xyz
x,y,z
-x,y,1/2-z
-x,-y,-z
x,-y,1/2+z
1/2+x,1/2+y,z
1/2-x,1/2+y,1/2-z
1/2-x,1/2-y,-z
1/2+x,1/2-y,1/2+z
loop_
_atom_site_type_symbol
_atom_site_label
_atom_site_fract_x
_atom_site_fract_y
_atom_site_fract_z
Si Si1 0.608278 0.487170 0.826273
Si Si2 0.902951 0.579050 0.591846
Si Si3 0.000000 0.051419 0.750000
Si Si4 0.209103 0.811998 0.703247
Si Si5 0.325495 0.315719 0.489923
Si Si6 0.918343 0.707962 0.163324
Si Si7 0.511821 0.822682 0.144681
O O1 0.730060 0.558200 0.725913
O O2 0.535699 0.494871 0.797914
O O3 0.675834 0.397987 0.774195
O O4 0.500000 0.500000 0.000000
O O5 0.920347 0.613099 0.670041
O O6 0.000000 0.500000 0.500000
O O7 0.957951 0.643394 0.475237
O O8 0.858785 0.106173 0.904604
O O9 0.313310 0.762397 0.678165
O O10 0.309645 0.822548 0.532028
O O11 0.056891 0.765775 0.812563
O O12 0.250000 0.250000 0.500000
O O13 0.197270 0.335014 0.671017
O O14 0.487198 0.284182 0.384811
O O15 0.500000 0.849638 0.250000
#
# Coordination Sequence:
#
# PCOD8152530 Si02
#       7
#     8   8   4   8   8   8   8
#     4  12  28  49  71 103 148 189 237 294 363 420
#     4  11  24  48  69 103 141 182 237 290 355 429
#     4  12  28  42  76 106 146 188 240 298 360 428
#     4  11  25  46  69 104 135 189 237 287 347 429
#     4  12  23  43  66 110 141 182 234 292 355 432
#     4  11  22  42  71  97 146 185 231 286 358 426
#     4  11  25  44  74 102 139 183 240 293 351 413
#
# _framework density 22.157260999999998
#
# number of rings (size 3 to 8) (size 9 to 14) (size 15 to 20)
#    0.000    0.615    4.615    4.154    5.385    1.231 
#    0.000    0.000    0.000    0.000    0.000    0.000 
#    0.000    0.000    0.000    0.000    0.000    0.000 
#
# Total GULP energy -322402.252950 kJ/mol
# GULP energy per Si atom -12400.086652 kJ/mol
# Density = 2.210683 g / cm^3
# Si number density = 22.157261 Si / 1000 Ang^3
#
#
#
# Elastic Constant Matrix: (Units=GPa)
#
#
# Indices 1 2 3 4 5 6 
#
# 1 115.6874 37.2838 51.4822 -0.0006 19.0922 0.0002
# 2 37.2838 73.1185 27.3060 -0.0013 1.8830 0.0007
# 3 51.4822 27.3060 168.7982 -0.0026 16.4039 0.0010
# 4 -0.0006 -0.0013 -0.0026 31.1817 0.0016 -5.9490
# 5 19.0922 1.8830 16.4039 0.0016 42.1981 -0.0003
# 6 0.0002 0.0007 0.0010 -5.9490 -0.0003 34.7525
#
#
#
# Elastic Compliance Matrix: (Units=1/GPa)
#
#
# Indices 1 2 3 4 5 6 
#
# 1 0.012097 -0.005147 -0.002440 0.000000 -0.004295 0.000000
# 2 -0.005147 0.016749 -0.001344 0.000000 0.002104 0.000000
# 3 -0.002440 -0.001344 0.007039 0.000001 -0.001572 0.000000
# 4 0.000000 0.000000 0.000001 0.033153 -0.000001 0.005675
# 5 -0.004295 0.002104 -0.001572 -0.000001 0.026158 0.000000
# 6 0.000000 0.000000 0.000000 0.005675 0.000000 0.029746
#
#
# Mechanical properties :
#
#
# Convention : Reuss Voigt Hill
#
# Bulk Modulus (GPa) = 55.48335 65.52757 60.50546
# Shear Modulus (GPa) = 33.59972 37.72859 35.66416
#
# Velocity S-wave (km/s) = 3.89835 4.13093 4.01633
# Velocity P-wave (km/s) = 6.73483 7.23815 6.99102
#
# Compressibility (1/GPa) = 0.01802342
#
# Stress axis : x y z
#
# Youngs Moduli (GPa) = 82.66386 59.70649 142.07546
#
# Poissons Ratio (x) = 0.30730 0.34660
# Poissons Ratio (y) = 0.42545 0.19096
# Poissons Ratio (z) = 0.20166 0.08025
#
# Static dielectric constant tensor:
#      x y z
#    x 4.052150 0.000000 0.186640 
#    y 0.000000 4.180620 0.000010 
#    z 0.186640 0.000010 3.694540 
# 
# 
# High freq. dielectric constant tensor:
#      x y z
#    x 1.875760 0.000000 0.004980 
#    y 0.000000 1.861460 0.000000 
#    z 0.004980 0.000000 1.892320 
# 
# From -- ./inp_files/155440.got.cif
#   From: 2010.06.25/outbox.cif.g09.slc.cpg/sg15_78_cif.got.tgz:155440.got - 2010.06.28 07:06:18.
