data_PCOD8152001
_publ_section_title
;
Structure prediction by ZEFSAII (Michael W. Deem and Ramdas Pophale) SiO2 
 PCOD8152001
Probable space group: C 2/C
;
_chemical_formula_sum "Si O2"
_cell_formula_units_Z 32
_cell_length_a 10.335991
_cell_length_b 14.253315
_cell_length_c 8.682671
_cell_angle_alpha 90.000000
_cell_angle_beta 92.495530
_cell_angle_gamma 90.000000
_cell_volume 1277.936516
_symmetry_space_group_name_H-M "C 2/C"
_symmetry_group_IT_number 15
_symmetry_cell_setting 'monoclinic'
loop_
_space_group_symop_operation_xyz
x,y,z
-x,y,1/2-z
-x,-y,-z
x,-y,1/2+z
1/2+x,1/2+y,z
1/2-x,1/2+y,1/2-z
1/2-x,1/2-y,-z
1/2+x,1/2-y,1/2+z
loop_
_atom_site_type_symbol
_atom_site_label
_atom_site_fract_x
_atom_site_fract_y
_atom_site_fract_z
Si Si1 0.762765 0.943583 0.647203
Si Si2 0.129871 0.149635 0.853642
Si Si3 0.871340 0.770189 0.809835
Si Si4 0.908420 0.539605 0.625591
O O1 0.842081 0.039610 0.621827
O O2 0.655201 0.956319 0.775598
O O3 0.857105 0.862766 0.705571
O O4 0.703424 0.908483 0.478883
O O5 0.255215 0.195583 0.776759
O O6 0.000000 0.165335 0.750000
O O7 0.110648 0.203351 0.011963
O O8 0.000000 0.721137 0.750000
O O9 0.000000 0.599223 0.750000
O O10 0.000000 0.500000 0.500000
#
# Coordination Sequence:
#
# PCOD8152001 Si02
#       4
#     8   8   8   8
#     4  11  21  44  72 105 138 191 239 294 350 427
#     4  11  27  49  71 106 145 187 241 295 356 432
#     4  11  27  49  72 106 144 189 238 297 358 426
#     4   9  20  36  63 106 145 181 231 286 353 420
#
# _framework density 25.040367
#
# number of rings (size 3 to 8) (size 9 to 14) (size 15 to 20)
#    0.000    1.500    2.500    0.750    3.500    9.000 
#    4.500    0.000    0.000    0.000    0.000    0.000 
#    0.000    0.000    0.000    0.000    0.000    0.000 
#
# Total GULP energy -198222.968736 kJ/mol
# GULP energy per Si atom -12388.935546 kJ/mol
# Density = 2.498337 g / cm^3
# Si number density = 25.040367 Si / 1000 Ang^3
#
#
#
# Elastic Constant Matrix: (Units=GPa)
#
#
# Indices 1 2 3 4 5 6 
#
# 1 188.1499 38.0688 72.8283 0.0000 21.1017 0.0000
# 2 38.0688 107.7267 22.6583 0.0000 14.4413 0.0000
# 3 72.8283 22.6583 162.2005 0.0000 35.7454 0.0000
# 4 0.0000 0.0000 0.0000 17.4615 0.0000 -7.3979
# 5 21.1017 14.4413 35.7454 0.0000 64.9287 0.0000
# 6 0.0000 0.0000 0.0000 -7.3979 0.0000 -13.8247
#
#
#
# Elastic Compliance Matrix: (Units=1/GPa)
#
#
# Indices 1 2 3 4 5 6 
#
# 1 0.006762 -0.001776 -0.002721 0.000000 -0.000305 0.000000
# 2 -0.001776 0.010176 -0.000287 0.000000 -0.001528 0.000000
# 3 -0.002721 -0.000287 0.008215 0.000000 -0.003574 0.000000
# 4 0.000000 0.000000 0.000000 0.046685 0.000000 -0.024982
# 5 -0.000305 -0.001528 -0.003574 0.000000 0.017808 0.000000
# 6 0.000000 0.000000 0.000000 -0.024982 0.000000 -0.058966
#
#
# Mechanical properties :
#
#
# Convention : Reuss Voigt Hill
#
# Bulk Modulus (GPa) = 64.17070 80.57644 72.37357
# Shear Modulus (GPa) = 110.03032 35.34787 72.68910
#
# Velocity S-wave (km/s) = 6.63601 3.76125 5.39368
# Velocity P-wave (km/s) = 9.18684 7.14921 8.23132
#
# Compressibility (1/GPa) = 0.01558344
#
# Stress axis : x y z
#
# Youngs Moduli (GPa) = 147.89390 98.27333 121.73401
#
# Poissons Ratio (x) = 0.17457 0.33120
# Poissons Ratio (y) = 0.26271 0.03496
# Poissons Ratio (z) = 0.40238 0.02822
#
# Static dielectric constant tensor:
#      x y z
#    x 4.860970 0.000000 -0.040080 
#    y 0.000000 4.255250 0.000000 
#    z -0.040080 0.000000 4.486090 
# 
# 
# High freq. dielectric constant tensor:
#      x y z
#    x 2.012440 0.000000 0.004960 
#    y 0.000000 1.990720 0.000000 
#    z 0.004960 0.000000 2.021050 
# 
# From -- ./inp_files/27974.got.cif
#   From: 2010.06.25/outbox.cif.g09.slc.cpg/sg15_14_cif.got.tgz:27974.got - 2010.06.28 07:06:18.
