data_PCOD8152067
_publ_section_title
;
Structure prediction by ZEFSAII (Michael W. Deem and Ramdas Pophale) SiO2 
 PCOD8152067
Probable space group: C 2/C
;
_chemical_formula_sum "Si O2"
_cell_formula_units_Z 64
_cell_length_a 15.576782
_cell_length_b 12.297674
_cell_length_c 19.665932
_cell_angle_alpha 90.000000
_cell_angle_beta 109.371858
_cell_angle_gamma 90.000000
_cell_volume 3553.894541
_symmetry_space_group_name_H-M "C 2/C"
_symmetry_group_IT_number 15
_symmetry_cell_setting 'monoclinic'
loop_
_space_group_symop_operation_xyz
x,y,z
-x,y,1/2-z
-x,-y,-z
x,-y,1/2+z
1/2+x,1/2+y,z
1/2-x,1/2+y,1/2-z
1/2-x,1/2-y,-z
1/2+x,1/2-y,1/2+z
loop_
_atom_site_type_symbol
_atom_site_label
_atom_site_fract_x
_atom_site_fract_y
_atom_site_fract_z
Si Si1 0.629523 0.243254 0.332627
Si Si2 0.376295 0.757569 0.965552
Si Si3 0.569090 0.769671 0.667537
Si Si4 0.748386 0.585602 0.509271
Si Si5 0.259786 0.144456 0.958575
Si Si6 0.864053 0.507715 0.661114
Si Si7 0.546653 0.109290 0.538289
Si Si8 0.572375 0.981270 0.182221
O O1 0.536890 0.262863 0.351334
O O2 0.618555 0.266346 0.249644
O O3 0.706639 0.329290 0.374918
O O4 0.661352 0.119161 0.354392
O O5 0.383428 0.721109 0.887880
O O6 0.342995 0.653500 0.999772
O O7 0.306847 0.857246 0.964285
O O8 0.477110 0.790384 0.016583
O O9 0.582421 0.896825 0.658182
O O10 0.717410 0.465806 0.478327
O O11 0.805224 0.581245 0.594891
O O12 0.367793 0.130030 0.986463
O O13 0.250000 0.250000 0.000000
O O14 0.854269 0.542109 0.738281
O O15 0.968821 0.531692 0.676643
O O16 0.589059 0.100631 0.624775
O O17 0.500000 0.000000 0.500000
#
# Coordination Sequence:
#
# PCOD8152067 Si02
#       8
#     8   8   8   8   8   8   8   8
#     4   9  19  33  58  84 112 142 192 240 289 333
#     4  11  22  35  56  83 118 153 186 235 293 345
#     4   9  17  35  55  84 112 149 187 235 289 346
#     4  11  22  36  54  85 118 152 191 234 288 351
#     4  12  22  35  59  86 113 144 191 248 283 331
#     4   9  16  32  52  82 113 140 184 237 284 328
#     4  12  20  35  57  85 113 148 201 237 279 341
#     4   9  16  28  56  81 106 143 189 238 275 325
#
# _framework density 18.008412
#
# number of rings (size 3 to 8) (size 9 to 14) (size 15 to 20)
#    0.000    1.750    5.000    2.250    0.000    1.000 
#    0.000    2.500    0.000    0.000   13.000    0.000 
#    0.000    0.000    0.000    0.000    0.000    0.000 
#
# Total GULP energy -396523.307311 kJ/mol
# GULP energy per Si atom -12391.353353 kJ/mol
# Density = 1.796742 g / cm^3
# Si number density = 18.008412 Si / 1000 Ang^3
#
#
#
# Elastic Constant Matrix: (Units=GPa)
#
#
# Indices 1 2 3 4 5 6 
#
# 1 86.3107 43.4754 44.8120 0.0000 -6.4304 0.0000
# 2 43.4754 91.5862 43.2228 0.0000 1.1987 0.0000
# 3 44.8120 43.2228 107.1312 0.0000 -3.4884 0.0000
# 4 0.0000 0.0000 0.0000 35.1172 0.0000 1.2032
# 5 -6.4304 1.1987 -3.4884 0.0000 30.8123 0.0000
# 6 0.0000 0.0000 0.0000 1.2032 0.0000 25.8533
#
#
#
# Elastic Compliance Matrix: (Units=1/GPa)
#
#
# Indices 1 2 3 4 5 6 
#
# 1 0.017318 -0.006048 -0.004696 0.000000 0.003318 0.000000
# 2 -0.006048 0.015639 -0.003855 0.000000 -0.002307 0.000000
# 3 -0.004696 -0.003855 0.012874 0.000000 0.000628 0.000000
# 4 0.000000 0.000000 0.000000 0.028522 0.000000 -0.001327
# 5 0.003318 -0.002307 0.000628 0.000000 0.033308 0.000000
# 6 0.000000 0.000000 0.000000 -0.001327 0.000000 0.038742
#
#
# Mechanical properties :
#
#
# Convention : Reuss Voigt Hill
#
# Bulk Modulus (GPa) = 60.11886 60.89426 60.50656
# Shear Modulus (GPa) = 27.60240 28.59109 28.09675
#
# Velocity S-wave (km/s) = 3.91928 3.98886 3.95422
# Velocity P-wave (km/s) = 7.34420 7.42310 7.38375
#
# Compressibility (1/GPa) = 0.01663372
#
# Stress axis : x y z
#
# Youngs Moduli (GPa) = 57.74480 63.94236 77.67430
#
# Poissons Ratio (x) = 0.38672 0.36473
# Poissons Ratio (y) = 0.34923 0.29944
# Poissons Ratio (z) = 0.27115 0.24650
#
# Static dielectric constant tensor:
#      x y z
#    x 2.709280 0.000000 -0.897800 
#    y 0.000000 3.085510 0.000000 
#    z -0.897800 0.000000 2.162400 
# 
# 
# High freq. dielectric constant tensor:
#      x y z
#    x 1.681400 0.000000 -0.011150 
#    y 0.000000 1.665820 0.000000 
#    z -0.011150 0.000000 1.711980 
# 
# From -- ./inp_files/243730.got.cif
#   From: 2010.06.25/outbox.cif.g09.slc.cpg/sg15_122_cif.got.tgz:243730.got - 2010.06.28 07:06:18.
