data_PCOD8152992
_publ_section_title
;
Structure prediction by ZEFSAII (Michael W. Deem and Ramdas Pophale) SiO2 
 PCOD8152992
Probable space group: C 2/C
;
_chemical_formula_sum "Si O2"
_cell_formula_units_Z 36
_cell_length_a 22.034134
_cell_length_b 14.247426
_cell_length_c 17.937090
_cell_angle_alpha 90.000000
_cell_angle_beta 17.848731
_cell_angle_gamma 90.000000
_cell_volume 1725.925086
_symmetry_space_group_name_H-M "C 2/C"
_symmetry_group_IT_number 15
_symmetry_cell_setting 'monoclinic'
loop_
_space_group_symop_operation_xyz
x,y,z
-x,y,1/2-z
-x,-y,-z
x,-y,1/2+z
1/2+x,1/2+y,z
1/2-x,1/2+y,1/2-z
1/2-x,1/2-y,-z
1/2+x,1/2-y,1/2+z
loop_
_atom_site_type_symbol
_atom_site_label
_atom_site_fract_x
_atom_site_fract_y
_atom_site_fract_z
Si Si1 0.500000 0.496033 0.250000
Si Si2 0.433236 0.554594 0.483062
Si Si3 0.664694 0.852752 0.617164
Si Si4 0.541136 0.160054 0.985605
Si Si5 0.177466 0.868534 0.817463
O O1 0.428985 0.565843 0.398944
O O2 0.331447 0.430695 0.412576
O O3 0.243126 0.602599 0.743531
O O4 0.433196 0.443995 0.501065
O O5 0.632782 0.602356 0.283795
O O6 0.500000 0.877959 0.750000
O O7 0.750000 0.750000 0.500000
O O8 0.580452 0.866302 0.798712
O O9 0.580113 0.269411 0.948045
O O10 0.410561 0.135536 0.064767
#
# Coordination Sequence:
#
# PCOD8152992 Si02
#       5
#     4   8   8   8   8
#     4  12  26  44  60 100 134 172 222 278 324 382
#     4  11  26  43  68  96 134 174 225 273 325 395
#     4  12  25  38  66 101 136 166 207 276 344 402
#     4  12  23  44  70 100 130 180 220 264 340 399
#     4  11  23  41  71  97 128 173 222 272 325 398
#
# _framework density 20.858377999999998
#
# number of rings (size 3 to 8) (size 9 to 14) (size 15 to 20)
#    0.000    0.444    5.556    3.333    6.222    0.000 
#    0.000    1.111    0.000    0.000    0.000    0.000 
#    0.000    0.000    0.000    0.000    0.000    0.000 
#
# Total GULP energy -223206.122928 kJ/mol
# GULP energy per Si atom -12400.340163 kJ/mol
# Density = 2.081090 g / cm^3
# Si number density = 20.858378 Si / 1000 Ang^3
#
#
#
# Elastic Constant Matrix: (Units=GPa)
#
#
# Indices 1 2 3 4 5 6 
#
# 1 124.3350 27.9377 64.9309 -0.0288 -19.8968 -0.0069
# 2 27.9377 83.3680 36.8719 -0.0026 -1.3527 -0.0557
# 3 64.9309 36.8719 92.8205 0.0507 -12.0206 -0.0095
# 4 -0.0288 -0.0026 0.0507 6.5272 -0.0098 -13.0824
# 5 -19.8968 -1.3527 -12.0206 -0.0098 53.5715 0.0159
# 6 -0.0069 -0.0557 -0.0095 -13.0824 0.0159 33.8386
#
#
#
# Elastic Compliance Matrix: (Units=1/GPa)
#
#
# Indices 1 2 3 4 5 6 
#
# 1 0.013115 -0.000555 -0.008574 0.000554 0.002933 0.000212
# 2 -0.000555 0.014623 -0.005561 0.000404 -0.001085 0.000179
# 3 -0.008574 -0.005561 0.019106 -0.000885 0.000962 -0.000348
# 4 0.000554 0.000404 -0.000885 0.680620 0.000065 0.263136
# 5 0.002933 -0.001085 0.000962 0.000065 0.019944 0.000015
# 6 0.000212 0.000179 -0.000348 0.263136 0.000015 0.131284
#
#
# Mechanical properties :
#
#
# Convention : Reuss Voigt Hill
#
# Bulk Modulus (GPa) = 57.26555 62.22274 59.74415
# Shear Modulus (GPa) = 5.47110 30.17298 17.82204
#
# Velocity S-wave (km/s) = 1.62132 3.80750 2.92624
# Velocity P-wave (km/s) = 5.56947 7.01607 6.33420
#
# Compressibility (1/GPa) = 0.01746251
#
# Stress axis : x y z
#
# Youngs Moduli (GPa) = 76.25095 68.38454 52.34086
#
# Poissons Ratio (x) = 0.03795 0.44877
# Poissons Ratio (y) = 0.04232 0.29109
# Poissons Ratio (z) = 0.65378 0.38031
#
# Static dielectric constant tensor:
#      x y z
#    x 4.054300 0.000000 -0.348500 
#    y 0.000000 3.796870 0.000020 
#    z -0.348500 0.000020 3.696100 
# 
# 
# High freq. dielectric constant tensor:
#      x y z
#    x 1.828730 0.000000 -0.026720 
#    y 0.000000 1.814920 0.000010 
#    z -0.026720 0.000010 1.806010 
# 
# From -- ./inp_files/37529.got.cif
#   From: 2010.06.25/outbox.cif.g09.slc.cpg/sg15_19_cif.got.tgz:37529.got - 2010.06.28 07:06:18.
