data_PCOD8152029
_publ_section_title
;
Structure prediction by ZEFSAII (Michael W. Deem and Ramdas Pophale) SiO2 
 PCOD8152029
Probable space group: C 2/C
;
_chemical_formula_sum "Si O2"
_cell_formula_units_Z 48
_cell_length_a 11.327279
_cell_length_b 9.370025
_cell_length_c 22.709840
_cell_angle_alpha 90.000000
_cell_angle_beta 68.239762
_cell_angle_gamma 90.000000
_cell_volume 2238.598080
_symmetry_space_group_name_H-M "C 2/C"
_symmetry_group_IT_number 15
_symmetry_cell_setting 'monoclinic'
loop_
_space_group_symop_operation_xyz
x,y,z
-x,y,1/2-z
-x,-y,-z
x,-y,1/2+z
1/2+x,1/2+y,z
1/2-x,1/2+y,1/2-z
1/2-x,1/2-y,-z
1/2+x,1/2-y,1/2+z
loop_
_atom_site_type_symbol
_atom_site_label
_atom_site_fract_x
_atom_site_fract_y
_atom_site_fract_z
Si Si1 0.286072 0.008771 0.696525
Si Si2 0.016251 0.880985 0.449301
Si Si3 0.453060 0.184716 0.861592
Si Si4 0.349638 0.522177 0.394564
Si Si5 0.228701 0.173155 0.818964
Si Si6 0.095909 0.382668 0.001148
O O1 0.195607 0.046143 0.658319
O O2 0.308680 0.836623 0.692959
O O3 0.413773 0.103219 0.668904
O O4 0.212470 0.064550 0.767644
O O5 0.142197 0.886545 0.386910
O O6 0.014413 0.745293 0.490318
O O7 0.000000 0.000000 0.500000
O O8 0.897436 0.891562 0.425926
O O9 0.461777 0.358353 0.866224
O O10 0.371834 0.160319 0.817278
O O11 0.383645 0.123906 0.932623
O O12 0.232795 0.605706 0.446040
O O13 0.000000 0.500000 0.000000
#
# Coordination Sequence:
#
# PCOD8152029 Si02
#       6
#     8   8   8   8   8   8
#     4  11  25  48  69 102 140 187 236 289 349 424
#     4  12  24  43  72 107 137 183 235 289 356 419
#     4  11  21  45  74  95 138 184 225 287 356 405
#     4  11  24  43  71 103 140 183 230 290 352 413
#     4  11  26  47  70 103 141 184 240 288 351 424
#     4  12  22  45  70 101 143 177 231 292 344 419
#
# _framework density 21.441991000000002
#
# number of rings (size 3 to 8) (size 9 to 14) (size 15 to 20)
#    0.000    0.667    6.667    2.000    2.333    1.333 
#    9.000    0.000    0.000    0.000    0.000    0.000 
#    0.000    0.000    0.000    0.000    0.000    0.000 
#
# Total GULP energy -297383.249926 kJ/mol
# GULP energy per Si atom -12390.968747 kJ/mol
# Density = 2.139319 g / cm^3
# Si number density = 21.441991 Si / 1000 Ang^3
#
#
#
# Elastic Constant Matrix: (Units=GPa)
#
#
# Indices 1 2 3 4 5 6 
#
# 1 100.7902 56.9301 21.6552 0.0000 12.1707 0.0000
# 2 56.9301 106.7566 45.9723 0.0000 -11.8163 0.0000
# 3 21.6552 45.9723 113.5257 0.0000 7.9667 0.0000
# 4 0.0000 0.0000 0.0000 33.8180 0.0000 1.2497
# 5 12.1707 -11.8163 7.9667 0.0000 30.3593 0.0000
# 6 0.0000 0.0000 0.0000 1.2497 0.0000 47.3567
#
#
#
# Elastic Compliance Matrix: (Units=1/GPa)
#
#
# Indices 1 2 3 4 5 6 
#
# 1 0.017462 -0.011606 0.002218 0.000000 -0.012100 0.000000
# 2 -0.011606 0.020129 -0.006942 0.000000 0.014309 0.000000
# 3 0.002218 -0.006942 0.011663 0.000000 -0.006652 0.000000
# 4 0.000000 0.000000 0.000000 0.029599 0.000000 -0.000781
# 5 -0.012100 0.014309 -0.006652 0.000000 0.045104 0.000000
# 6 0.000000 0.000000 0.000000 -0.000781 0.000000 0.021137
#
#
# Mechanical properties :
#
#
# Convention : Reuss Voigt Hill
#
# Bulk Modulus (GPa) = 60.25918 63.35419 61.80668
# Shear Modulus (GPa) = 27.27978 35.40777 31.34377
#
# Velocity S-wave (km/s) = 3.57074 4.06806 3.82749
# Velocity P-wave (km/s) = 6.72046 7.18863 6.95849
#
# Compressibility (1/GPa) = 0.01659498
#
# Stress axis : x y z
#
# Youngs Moduli (GPa) = 57.26797 49.67837 85.73932
#
# Poissons Ratio (x) = 0.57658 -0.19019
# Poissons Ratio (y) = 0.66467 0.59517
# Poissons Ratio (z) = -0.12703 0.34485
#
# Static dielectric constant tensor:
#      x y z
#    x 3.956920 0.000000 0.422650 
#    y 0.000000 3.911270 0.000000 
#    z 0.422650 0.000000 4.094380 
# 
# 
# High freq. dielectric constant tensor:
#      x y z
#    x 1.838740 0.000000 0.015690 
#    y 0.000000 1.839540 0.000000 
#    z 0.015690 0.000000 1.862010 
# 
# From -- ./inp_files/267815.got.cif
#   From: 2010.06.25/outbox.cif.g09.slc.cpg/sg15_134_cif.got.tgz:267815.got - 2010.06.28 07:06:18.
