data_PCOD8152349
_publ_section_title
;
Structure prediction by ZEFSAII (Michael W. Deem and Ramdas Pophale) SiO2 
 PCOD8152349
Probable space group: C 2/C
;
_chemical_formula_sum "Si O2"
_cell_formula_units_Z 44
_cell_length_a 9.614460
_cell_length_b 17.222041
_cell_length_c 13.362898
_cell_angle_alpha 90.000000
_cell_angle_beta 117.040267
_cell_angle_gamma 90.000000
_cell_volume 1970.767544
_symmetry_space_group_name_H-M "C 2/C"
_symmetry_group_IT_number 15
_symmetry_cell_setting 'monoclinic'
loop_
_space_group_symop_operation_xyz
x,y,z
-x,y,1/2-z
-x,-y,-z
x,-y,1/2+z
1/2+x,1/2+y,z
1/2-x,1/2+y,1/2-z
1/2-x,1/2-y,-z
1/2+x,1/2-y,1/2+z
loop_
_atom_site_type_symbol
_atom_site_label
_atom_site_fract_x
_atom_site_fract_y
_atom_site_fract_z
Si Si1 0.500000 0.090640 0.750000
Si Si2 0.356108 0.185623 0.265452
Si Si3 0.728497 0.698612 0.589583
Si Si4 0.419047 0.516100 0.629800
Si Si5 0.084536 0.108650 0.057856
Si Si6 0.611349 0.973776 0.624065
O O1 0.377884 0.143041 0.649095
O O2 0.601197 0.037401 0.708562
O O3 0.500000 0.222003 0.250000
O O4 0.287922 0.248912 0.317931
O O5 0.213408 0.165359 0.144921
O O6 0.428283 0.110816 0.345285
O O7 0.750000 0.750000 0.500000
O O8 0.574133 0.649816 0.523276
O O9 0.500000 0.561146 0.750000
O O10 0.348178 0.574074 0.524135
O O11 0.550237 0.459992 0.624902
O O12 0.281507 0.465054 0.631398
O O13 0.500000 0.000000 0.500000
#
# Coordination Sequence:
#
# PCOD8152349 Si02
#       6
#     4   8   8   8   8   8
#     4  12  26  46  72 106 142 182 252 294 350 442
#     4  12  26  46  71 102 149 191 240 305 371 434
#     4  12  27  45  70 102 147 196 235 296 370 443
#     4  11  22  40  72 101 139 182 232 304 357 421
#     4  11  25  43  68 106 140 185 248 291 365 442
#     4  12  24  42  71 103 139 184 240 297 355 417
#
# _framework density 22.326325000000001
#
# number of rings (size 3 to 8) (size 9 to 14) (size 15 to 20)
#    0.000    0.364    2.727    6.545    2.545    2.909 
#    0.000    0.000    0.000    0.000    0.000    0.000 
#    0.000    0.000    0.000    0.000    0.000    0.000 
#
# Total GULP energy -272864.541262 kJ/mol
# GULP energy per Si atom -12402.933694 kJ/mol
# Density = 2.227551 g / cm^3
# Si number density = 22.326325 Si / 1000 Ang^3
#
#
#
# Elastic Constant Matrix: (Units=GPa)
#
#
# Indices 1 2 3 4 5 6 
#
# 1 106.7882 14.2981 25.8244 0.0000 -17.1915 0.0000
# 2 14.2981 71.6855 18.1816 0.0000 -12.1966 0.0000
# 3 25.8244 18.1816 128.8703 0.0000 -5.7751 0.0000
# 4 0.0000 0.0000 0.0000 32.2304 0.0000 8.0614
# 5 -17.1915 -12.1966 -5.7751 0.0000 45.2979 0.0000
# 6 0.0000 0.0000 0.0000 8.0614 0.0000 20.4440
#
#
#
# Elastic Compliance Matrix: (Units=1/GPa)
#
#
# Indices 1 2 3 4 5 6 
#
# 1 0.010499 -0.001046 -0.001801 0.000000 0.003473 0.000000
# 2 -0.001046 0.015200 -0.001779 0.000000 0.003469 0.000000
# 3 -0.001801 -0.001779 0.008367 0.000000 -0.000096 0.000000
# 4 0.000000 0.000000 0.000000 0.034421 0.000000 -0.013573
# 5 0.003473 0.003469 -0.000096 0.000000 0.024316 0.000000
# 6 0.000000 0.000000 0.000000 -0.013573 0.000000 0.054266
#
#
# Mechanical properties :
#
#
# Convention : Reuss Voigt Hill
#
# Bulk Modulus (GPa) = 40.30065 47.10582 43.70324
# Shear Modulus (GPa) = 30.37779 36.19713 33.28746
#
# Velocity S-wave (km/s) = 3.69267 4.03088 3.86547
# Velocity P-wave (km/s) = 6.02254 6.54282 6.28806
#
# Compressibility (1/GPa) = 0.02481349
#
# Stress axis : x y z
#
# Youngs Moduli (GPa) = 95.24681 65.78953 119.51265
#
# Poissons Ratio (x) = 0.06885 0.21520
# Poissons Ratio (y) = 0.09967 0.21265
# Poissons Ratio (z) = 0.17150 0.11706
#
# Static dielectric constant tensor:
#      x y z
#    x 2.568290 0.000000 -0.992770 
#    y 0.000000 3.917480 0.000000 
#    z -0.992770 0.000000 3.725830 
# 
# 
# High freq. dielectric constant tensor:
#      x y z
#    x 1.895050 0.000000 -0.006680 
#    y 0.000000 1.864820 0.000000 
#    z -0.006680 0.000000 1.905260 
# 
# From -- ./inp_files/134969.got.cif
#   From: 2010.06.25/outbox.cif.g09.slc.cpg/sg15_68_cif.got.tgz:134969.got - 2010.06.28 07:06:18.
