data_PCOD8152596
_publ_section_title
;
Structure prediction by ZEFSAII (Michael W. Deem and Ramdas Pophale) SiO2 
 PCOD8152596
Probable space group: C 2/C
;
_chemical_formula_sum "Si O2"
_cell_formula_units_Z 40
_cell_length_a 17.977058
_cell_length_b 6.775248
_cell_length_c 20.494682
_cell_angle_alpha 90.000000
_cell_angle_beta 44.937296
_cell_angle_gamma 90.000000
_cell_volume 1763.170025
_symmetry_space_group_name_H-M "C 2/C"
_symmetry_group_IT_number 15
_symmetry_cell_setting 'monoclinic'
loop_
_space_group_symop_operation_xyz
x,y,z
-x,y,1/2-z
-x,-y,-z
x,-y,1/2+z
1/2+x,1/2+y,z
1/2-x,1/2+y,1/2-z
1/2-x,1/2-y,-z
1/2+x,1/2-y,1/2+z
loop_
_atom_site_type_symbol
_atom_site_label
_atom_site_fract_x
_atom_site_fract_y
_atom_site_fract_z
Si Si1 0.823652 0.574785 0.125782
Si Si2 0.909814 0.585193 0.254359
Si Si3 0.283416 0.766692 0.054010
Si Si4 0.522780 0.659591 0.908225
Si Si5 0.379671 0.261956 0.683798
O O1 0.783857 0.498033 0.078846
O O2 0.912833 0.747793 0.069309
O O3 0.730872 0.638925 0.231127
O O4 0.873518 0.378772 0.125688
O O5 0.795263 0.630717 0.355191
O O6 0.929134 0.734585 0.184173
O O7 0.916725 0.359853 0.224825
O O8 0.000000 0.623181 0.250000
O O9 0.250000 0.750000 0.000000
O O10 0.399323 0.683740 0.992167
O O11 0.538378 0.427239 0.889679
#
# Coordination Sequence:
#
# PCOD8152596 Si02
#       5
#     8   8   8   8   8
#     4  11  22  43  70 102 135 177 233 282 339 414
#     4  11  24  45  68 100 141 180 232 283 343 417
#     4  12  25  44  71 102 142 184 224 285 350 414
#     4  11  24  45  71  98 138 183 229 286 344 407
#     4  11  22  43  75  96 131 186 228 283 342 399
#
# _framework density 22.686412000000001
#
# number of rings (size 3 to 8) (size 9 to 14) (size 15 to 20)
#    0.000    0.800    6.000    1.800    0.000    3.200 
#    7.200    2.000    0.000    0.000    0.000    0.000 
#    0.000    0.000    0.000    0.000    0.000    0.000 
#
# Total GULP energy -247946.413841 kJ/mol
# GULP energy per Si atom -12397.320692 kJ/mol
# Density = 2.263478 g / cm^3
# Si number density = 22.686412 Si / 1000 Ang^3
#
#
#
# Elastic Constant Matrix: (Units=GPa)
#
#
# Indices 1 2 3 4 5 6 
#
# 1 93.1722 24.2622 31.9306 0.0000 7.1738 0.0008
# 2 24.2622 116.2055 33.3169 -0.0002 8.2131 0.0029
# 3 31.9306 33.3169 113.8138 0.0002 -16.8428 0.0001
# 4 0.0000 -0.0002 0.0002 8.2505 -0.0001 -16.3850
# 5 7.1738 8.2131 -16.8428 -0.0001 45.4303 -0.0003
# 6 0.0008 0.0029 0.0001 -16.3850 -0.0003 -3.6410
#
#
#
# Elastic Compliance Matrix: (Units=1/GPa)
#
#
# Indices 1 2 3 4 5 6 
#
# 1 0.012551 -0.001381 -0.003569 0.000000 -0.003055 0.000000
# 2 -0.001381 0.009915 -0.002907 0.000002 -0.002652 0.000001
# 3 -0.003569 -0.002907 0.011427 -0.000001 0.005326 0.000000
# 4 0.000000 0.000002 -0.000001 0.012197 -0.000001 -0.054890
# 5 -0.003055 -0.002652 0.005326 -0.000001 0.024948 -0.000001
# 6 0.000000 0.000001 0.000000 -0.054890 -0.000001 -0.027639
#
#
# Mechanical properties :
#
#
# Convention : Reuss Voigt Hill
#
# Bulk Modulus (GPa) = 55.01383 55.80122 55.40753
# Shear Modulus (GPa) = 76.71891 25.58674 51.15283
#
# Velocity S-wave (km/s) = 5.82156 3.36198 4.75360
# Velocity P-wave (km/s) = 8.33605 6.30244 7.38953
#
# Compressibility (1/GPa) = 0.01817725
#
# Stress axis : x y z
#
# Youngs Moduli (GPa) = 79.67590 100.85878 87.51403
#
# Poissons Ratio (x) = 0.13931 0.31233
# Poissons Ratio (y) = 0.11005 0.25444
# Poissons Ratio (z) = 0.28436 0.29323
#
# Static dielectric constant tensor:
#      x y z
#    x 4.382710 0.000000 0.040320 
#    y 0.000000 4.454270 0.000000 
#    z 0.040320 0.000000 4.247860 
# 
# 
# High freq. dielectric constant tensor:
#      x y z
#    x 1.889870 0.000000 -0.004970 
#    y 0.000000 1.896420 0.000000 
#    z -0.004970 0.000000 1.914370 
# 
# From -- ./inp_files/278790.got.cif
#   From: 2010.06.25/outbox.cif.g09.slc.cpg/sg15_140_cif.got.tgz:278790.got - 2010.06.28 07:06:18.
