data_PCOD8152194
_publ_section_title
;
Structure prediction by ZEFSAII (Michael W. Deem and Ramdas Pophale) SiO2 
 PCOD8152194
Probable space group: C 2/C
;
_chemical_formula_sum "Si O2"
_cell_formula_units_Z 56
_cell_length_a 26.336107
_cell_length_b 12.389655
_cell_length_c 9.543800
_cell_angle_alpha 90.000000
_cell_angle_beta 65.089229
_cell_angle_gamma 90.000000
_cell_volume 2824.376413
_symmetry_space_group_name_H-M "C 2/C"
_symmetry_group_IT_number 15
_symmetry_cell_setting 'monoclinic'
loop_
_space_group_symop_operation_xyz
x,y,z
-x,y,1/2-z
-x,-y,-z
x,-y,1/2+z
1/2+x,1/2+y,z
1/2-x,1/2+y,1/2-z
1/2-x,1/2-y,-z
1/2+x,1/2-y,1/2+z
loop_
_atom_site_type_symbol
_atom_site_label
_atom_site_fract_x
_atom_site_fract_y
_atom_site_fract_z
Si Si1 0.462725 0.034266 0.170850
Si Si2 0.653463 0.273528 0.804438
Si Si3 0.065554 0.695477 0.708090
Si Si4 0.704638 0.040952 0.706132
Si Si5 0.722871 0.520074 0.134683
Si Si6 0.811794 0.802720 0.426312
Si Si7 0.627617 0.159958 0.356486
O O1 0.500000 0.081493 0.250000
O O2 0.427816 0.930206 0.260563
O O3 0.426465 0.136226 0.172803
O O4 0.500000 0.000000 0.000000
O O5 0.591063 0.269012 0.805352
O O6 0.682063 0.160183 0.744632
O O7 0.689329 0.368187 0.689596
O O8 0.652249 0.284713 0.974121
O O9 0.107559 0.707465 0.528280
O O10 0.000000 0.724765 0.750000
O O11 0.720541 0.030536 0.524103
O O12 0.760793 0.025962 0.732251
O O13 0.662300 0.951584 0.817027
O O14 0.685924 0.430729 0.099051
O O15 0.750000 0.750000 0.500000
O O16 0.839257 0.753695 0.257015
#
# Coordination Sequence:
#
# PCOD8152194 Si02
#       7
#     8   8   8   8   8   8   8
#     4  11  22  39  62  95 137 171 215 276 338 388
#     4  12  25  41  69  91 130 183 217 271 336 380
#     4  11  25  42  64 100 132 176 226 276 326 390
#     4  12  23  38  63  97 132 170 216 258 327 408
#     4  12  25  43  60  92 139 171 219 264 318 400
#     4  12  25  43  63  96 136 175 218 267 321 405
#     4  12  24  39  66  97 138 173 212 270 332 390
#
# _framework density 19.827385
#
# number of rings (size 3 to 8) (size 9 to 14) (size 15 to 20)
#    0.000    0.286    8.571    1.286    6.000    0.000 
#    0.000    0.000    0.000    4.286    0.000    0.000 
#    0.000    0.000    0.000    0.000    0.000    0.000 
#
# Total GULP energy -347013.900265 kJ/mol
# GULP energy per Si atom -12393.353581 kJ/mol
# Density = 1.978226 g / cm^3
# Si number density = 19.827385 Si / 1000 Ang^3
#
#
#
# Elastic Constant Matrix: (Units=GPa)
#
#
# Indices 1 2 3 4 5 6 
#
# 1 105.5396 34.3114 31.7321 0.0000 18.1003 0.0000
# 2 34.3114 112.2740 34.1492 0.0000 -2.0711 0.0000
# 3 31.7321 34.1492 117.4816 0.0000 0.4136 0.0000
# 4 0.0000 0.0000 0.0000 33.6865 0.0000 -2.9807
# 5 18.1003 -2.0711 0.4136 0.0000 37.7929 0.0000
# 6 0.0000 0.0000 0.0000 -2.9807 0.0000 22.1153
#
#
#
# Elastic Compliance Matrix: (Units=1/GPa)
#
#
# Indices 1 2 3 4 5 6 
#
# 1 0.012236 -0.003128 -0.002375 0.000000 -0.006006 0.000000
# 2 -0.003128 0.010582 -0.002239 0.000000 0.002102 0.000000
# 3 -0.002375 -0.002239 0.009801 0.000000 0.000907 0.000000
# 4 0.000000 0.000000 0.000000 0.030044 0.000000 0.004049
# 5 -0.006006 0.002102 0.000907 0.000000 0.029442 0.000000
# 6 0.000000 0.000000 0.000000 0.004049 0.000000 0.045763
#
#
# Mechanical properties :
#
#
# Convention : Reuss Voigt Hill
#
# Bulk Modulus (GPa) = 58.35331 59.52005 58.93668
# Shear Modulus (GPa) = 31.43423 34.39246 32.91334
#
# Velocity S-wave (km/s) = 3.98602 4.16936 4.07872
# Velocity P-wave (km/s) = 7.11892 7.29811 7.20907
#
# Compressibility (1/GPa) = 0.01713699
#
# Stress axis : x y z
#
# Youngs Moduli (GPa) = 81.72642 94.49700 102.03167
#
# Poissons Ratio (x) = 0.29557 0.24229
# Poissons Ratio (y) = 0.25563 0.22841
# Poissons Ratio (z) = 0.19407 0.21154
#
# Static dielectric constant tensor:
#      x y z
#    x 3.852120 0.000000 0.295340 
#    y 0.000000 3.265850 0.000000 
#    z 0.295340 0.000000 4.066370 
# 
# 
# High freq. dielectric constant tensor:
#      x y z
#    x 1.770910 0.000000 0.019330 
#    y 0.000000 1.756010 0.000000 
#    z 0.019330 0.000000 1.788700 
# 
# From -- ./inp_files/65440.got.cif
#   From: 2010.06.25/outbox.cif.g09.slc.cpg/sg15_33_cif.got.tgz:65440.got - 2010.06.28 07:06:18.
