data_PCOD8152953
_publ_section_title
;
Structure prediction by ZEFSAII (Michael W. Deem and Ramdas Pophale) SiO2 
 PCOD8152953
Probable space group: C 2/C
;
_chemical_formula_sum "Si O2"
_cell_formula_units_Z 44
_cell_length_a 19.424980
_cell_length_b 21.423912
_cell_length_c 4.806326
_cell_angle_alpha 90.000000
_cell_angle_beta 65.814975
_cell_angle_gamma 90.000000
_cell_volume 1824.633354
_symmetry_space_group_name_H-M "C 2/C"
_symmetry_group_IT_number 15
_symmetry_cell_setting 'monoclinic'
loop_
_space_group_symop_operation_xyz
x,y,z
-x,y,1/2-z
-x,-y,-z
x,-y,1/2+z
1/2+x,1/2+y,z
1/2-x,1/2+y,1/2-z
1/2-x,1/2-y,-z
1/2+x,1/2-y,1/2+z
loop_
_atom_site_type_symbol
_atom_site_label
_atom_site_fract_x
_atom_site_fract_y
_atom_site_fract_z
Si Si1 0.000000 0.953406 0.250000
Si Si2 0.162098 0.643643 0.921587
Si Si3 0.119746 0.126840 0.265783
Si Si4 0.282612 0.457113 0.275457
Si Si5 0.500000 0.186293 0.250000
Si Si6 0.000000 0.776839 0.750000
Si Si7 0.237272 0.694059 0.308262
O O1 0.927875 0.910037 0.422891
O O2 0.000000 0.000000 0.500000
O O3 0.201325 0.577195 0.914352
O O4 0.173335 0.655210 0.576294
O O5 0.202844 0.699404 0.049583
O O6 0.072284 0.641163 0.104520
O O7 0.185964 0.155048 0.345081
O O8 0.071845 0.180973 0.200245
O O9 0.150836 0.086956 0.952650
O O10 0.289875 0.479070 0.582890
O O11 0.520173 0.231968 0.465910
O O12 0.250000 0.750000 0.500000
#
# Coordination Sequence:
#
# PCOD8152953 Si02
#       7
#     4   8   8   8   4   4   8
#     4  12  26  42  64  96 134 182 224 266 322 378
#     4  11  24  42  67  97 127 171 220 271 335 393
#     4  11  25  43  65  98 136 176 223 269 319 398
#     4  11  24  44  68  95 130 175 224 278 326 379
#     4  12  25  46  68  98 138 170 213 280 336 400
#     4  12  27  42  66 100 138 180 215 262 336 398
#     4  11  23  41  66  95 129 171 219 269 326 392
#
# _framework density 24.114433999999999
#
# number of rings (size 3 to 8) (size 9 to 14) (size 15 to 20)
#    0.000    0.727    0.000    8.182    0.000   13.091 
#    0.000    0.909    0.000    0.000    0.000    0.000 
#    0.000    0.000    0.000    0.000    0.000    0.000 
#
# Total GULP energy -272583.175221 kJ/mol
# GULP energy per Si atom -12390.144328 kJ/mol
# Density = 2.405955 g / cm^3
# Si number density = 24.114434 Si / 1000 Ang^3
#
#
#
# Elastic Constant Matrix: (Units=GPa)
#
#
# Indices 1 2 3 4 5 6 
#
# 1 109.4302 13.1982 66.6340 0.0000 -28.6585 0.0000
# 2 13.1982 66.5490 43.7947 0.0000 -21.5388 0.0000
# 3 66.6340 43.7947 147.3904 0.0000 -15.7155 0.0000
# 4 0.0000 0.0000 0.0000 12.1428 0.0000 0.1854
# 5 -28.6585 -21.5388 -15.7155 0.0000 62.4253 0.0000
# 6 0.0000 0.0000 0.0000 0.1854 0.0000 22.4024
#
#
#
# Elastic Compliance Matrix: (Units=1/GPa)
#
#
# Indices 1 2 3 4 5 6 
#
# 1 0.014617 0.003766 -0.007063 0.000000 0.006232 0.000000
# 2 0.003766 0.021440 -0.007296 0.000000 0.007290 0.000000
# 3 -0.007063 -0.007296 0.011849 0.000000 -0.002777 0.000000
# 4 0.000000 0.000000 0.000000 0.082364 0.000000 -0.000682
# 5 0.006232 0.007290 -0.002777 0.000000 0.020696 0.000000
# 6 0.000000 0.000000 0.000000 -0.000682 0.000000 0.044644
#
#
# Mechanical properties :
#
#
# Convention : Reuss Voigt Hill
#
# Bulk Modulus (GPa) = 37.42369 63.40260 50.41314
# Shear Modulus (GPa) = 22.15311 32.71028 27.43169
#
# Velocity S-wave (km/s) = 3.03424 3.68701 3.37644
# Velocity P-wave (km/s) = 5.27526 6.66895 6.01262
#
# Compressibility (1/GPa) = 0.02672104
#
# Stress axis : x y z
#
# Youngs Moduli (GPa) = 68.41571 46.64118 84.39244
#
# Poissons Ratio (x) = -0.17564 0.59602
# Poissons Ratio (y) = -0.25764 0.61571
# Poissons Ratio (z) = 0.48319 0.34029
#
# Static dielectric constant tensor:
#      x y z
#    x 3.750660 0.000000 0.021350 
#    y 0.000000 4.420690 0.000000 
#    z 0.021350 0.000000 4.283240 
# 
# 
# High freq. dielectric constant tensor:
#      x y z
#    x 1.953590 0.000000 0.009540 
#    y 0.000000 1.946660 0.000000 
#    z 0.009540 0.000000 1.986720 
# 
# From -- ./inp_files/15595.got.cif
#   From: 2010.06.25/outbox.cif.g09.slc.cpg/sg15_8_cif.got.tgz:15595.got - 2010.06.28 07:06:18.
