data_PCOD8152448
_publ_section_title
;
Structure prediction by ZEFSAII (Michael W. Deem and Ramdas Pophale) SiO2 
 PCOD8152448
Probable space group: C 2/C
;
_chemical_formula_sum "Si O2"
_cell_formula_units_Z 56
_cell_length_a 25.794283
_cell_length_b 16.789158
_cell_length_c 9.291635
_cell_angle_alpha 90.000000
_cell_angle_beta 38.225498
_cell_angle_gamma 90.000000
_cell_volume 2489.805296
_symmetry_space_group_name_H-M "C 2/C"
_symmetry_group_IT_number 15
_symmetry_cell_setting 'monoclinic'
loop_
_space_group_symop_operation_xyz
x,y,z
-x,y,1/2-z
-x,-y,-z
x,-y,1/2+z
1/2+x,1/2+y,z
1/2-x,1/2+y,1/2-z
1/2-x,1/2-y,-z
1/2+x,1/2-y,1/2+z
loop_
_atom_site_type_symbol
_atom_site_label
_atom_site_fract_x
_atom_site_fract_y
_atom_site_fract_z
Si Si1 0.327816 0.972739 0.373500
Si Si2 0.992576 0.264625 0.595412
Si Si3 0.749637 0.410275 0.257660
Si Si4 0.081120 0.820531 0.664644
Si Si5 0.307893 0.749693 0.011672
Si Si6 0.042443 0.583421 0.502032
Si Si7 0.169242 0.658777 0.409987
O O1 0.289864 0.956689 0.301804
O O2 0.345441 0.890143 0.413819
O O3 0.261322 0.029209 0.599714
O O4 0.426521 0.004237 0.152856
O O5 0.003880 0.351389 0.495855
O O6 0.000000 0.273039 0.750000
O O7 0.056450 0.200618 0.385094
O O8 0.901229 0.228597 0.762939
O O9 0.652002 0.389348 0.501432
O O10 0.804346 0.331547 0.109448
O O11 0.115830 0.739755 0.521654
O O12 0.000000 0.847999 0.750000
O O13 0.268587 0.678197 0.192541
O O14 0.250000 0.750000 0.000000
O O15 0.137696 0.613958 0.334542
O O16 0.000000 0.569102 0.750000
#
# Coordination Sequence:
#
# PCOD8152448 Si02
#       7
#     8   8   8   8   8   8   8
#     4  12  26  46  67 106 142 183 232 282 350 421
#     4  12  24  39  70 110 140 170 237 300 346 397
#     4  11  26  44  75 101 138 185 236 288 345 422
#     4  11  23  47  71  99 135 183 232 290 351 408
#     4  11  22  43  73  99 132 193 238 276 345 413
#     4  12  23  46  66 100 142 192 217 273 356 424
#     4  11  22  41  72  94 135 183 237 275 328 423
#
# _framework density 22.491717999999999
#
# number of rings (size 3 to 8) (size 9 to 14) (size 15 to 20)
#    0.000    0.571    7.143    0.857    4.000    1.714 
#    2.571    1.429    0.000    0.000    0.000    0.000 
#    0.000    0.000    0.000    0.000    0.000    0.000 
#
# Total GULP energy -347098.450507 kJ/mol
# GULP energy per Si atom -12396.373232 kJ/mol
# Density = 2.244053 g / cm^3
# Si number density = 22.491718 Si / 1000 Ang^3
#
#
#
# Elastic Constant Matrix: (Units=GPa)
#
#
# Indices 1 2 3 4 5 6 
#
# 1 56.4143 17.2065 51.3585 0.0000 15.6159 0.0000
# 2 17.2065 69.1498 48.0227 0.0000 3.5875 0.0000
# 3 51.3585 48.0227 152.0068 0.0000 1.4904 0.0000
# 4 0.0000 0.0000 0.0000 45.5438 0.0000 5.1180
# 5 15.6159 3.5875 1.4904 0.0000 49.2599 0.0000
# 6 0.0000 0.0000 0.0000 5.1180 0.0000 21.0266
#
#
#
# Elastic Compliance Matrix: (Units=1/GPa)
#
#
# Indices 1 2 3 4 5 6 
#
# 1 0.029049 -0.000013 -0.009723 0.000000 -0.008914 0.000000
# 2 -0.000013 0.018594 -0.005858 0.000000 -0.001173 0.000000
# 3 -0.009723 -0.005858 0.011684 0.000000 0.003156 0.000000
# 4 0.000000 0.000000 0.000000 0.022574 0.000000 -0.005495
# 5 -0.008914 -0.001173 0.003156 0.000000 0.023116 0.000000
# 6 0.000000 0.000000 0.000000 -0.005495 0.000000 0.048896
#
#
# Mechanical properties :
#
#
# Convention : Reuss Voigt Hill
#
# Bulk Modulus (GPa) = 35.54011 56.74958 46.14484
# Shear Modulus (GPa) = 25.70924 33.89827 29.80375
#
# Velocity S-wave (km/s) = 3.38458 3.88641 3.64414
# Velocity P-wave (km/s) = 5.57759 6.73981 6.18605
#
# Compressibility (1/GPa) = 0.02813722
#
# Stress axis : x y z
#
# Youngs Moduli (GPa) = 34.42416 53.78100 85.58936
#
# Poissons Ratio (x) = 0.00072 0.83221
# Poissons Ratio (y) = 0.00046 0.50141
# Poissons Ratio (z) = 0.33472 0.31506
#
# Static dielectric constant tensor:
#      x y z
#    x 4.257020 0.000000 -0.551600 
#    y 0.000000 4.278450 0.000000 
#    z -0.551600 0.000000 5.290540 
# 
# 
# High freq. dielectric constant tensor:
#      x y z
#    x 1.881150 0.000000 0.003310 
#    y 0.000000 1.866690 0.000000 
#    z 0.003310 0.000000 1.916830 
# 
# From -- ./inp_files/67131.got.cif
#   From: 2010.06.25/outbox.cif.g09.slc.cpg/sg15_34_cif.got.tgz:67131.got - 2010.06.28 07:06:18.
