data_PCOD8152951
_publ_section_title
;
Structure prediction by ZEFSAII (Michael W. Deem and Ramdas Pophale) SiO2 
 PCOD8152951
Probable space group: C 2/C
;
_chemical_formula_sum "Si O2"
_cell_formula_units_Z 40
_cell_length_a 12.378013
_cell_length_b 18.189281
_cell_length_c 8.616602
_cell_angle_alpha 90.000000
_cell_angle_beta 100.201209
_cell_angle_gamma 90.000000
_cell_volume 1909.335616
_symmetry_space_group_name_H-M "C 2/C"
_symmetry_group_IT_number 15
_symmetry_cell_setting 'monoclinic'
loop_
_space_group_symop_operation_xyz
x,y,z
-x,y,1/2-z
-x,-y,-z
x,-y,1/2+z
1/2+x,1/2+y,z
1/2-x,1/2+y,1/2-z
1/2-x,1/2-y,-z
1/2+x,1/2-y,1/2+z
loop_
_atom_site_type_symbol
_atom_site_label
_atom_site_fract_x
_atom_site_fract_y
_atom_site_fract_z
Si Si1 0.884001 0.112639 0.659582
Si Si2 0.769462 0.291076 0.168165
Si Si3 0.742671 0.976144 0.670263
Si Si4 0.887864 0.842465 0.814395
Si Si5 0.886938 0.436481 0.138032
O O1 0.835234 0.170819 0.773982
O O2 0.909202 0.148248 0.500700
O O3 0.000000 0.083119 0.750000
O O4 0.807366 0.042910 0.604932
O O5 0.816178 0.231124 0.296507
O O6 0.862626 0.352097 0.167811
O O7 0.750000 0.250000 0.000000
O O8 0.822358 0.907375 0.711985
O O9 0.630511 0.951849 0.549644
O O10 0.705263 0.007641 0.824333
O O11 0.000000 0.831128 0.750000
O O12 0.000000 0.457494 0.250000
#
# Coordination Sequence:
#
# PCOD8152951 Si02
#       5
#     8   8   8   8   8
#     4  11  25  42  66  99 131 170 219 269 328 389
#     4  11  23  43  67  94 133 171 216 268 324 392
#     4  11  23  41  66  94 133 168 220 274 320 390
#     4  12  24  41  68  95 132 174 215 269 332 384
#     4  11  23  42  65  93 128 175 218 267 330 388
#
# _framework density 20.949694999999998
#
# number of rings (size 3 to 8) (size 9 to 14) (size 15 to 20)
#    0.000    0.800    4.000    3.600    2.800    1.600 
#    0.000    1.000    0.000    0.000    0.000    0.000 
#    0.000    0.000    0.000    0.000    0.000    0.000 
#
# Total GULP energy -247838.036982 kJ/mol
# GULP energy per Si atom -12391.901849 kJ/mol
# Density = 2.090201 g / cm^3
# Si number density = 20.949695 Si / 1000 Ang^3
#
#
#
# Elastic Constant Matrix: (Units=GPa)
#
#
# Indices 1 2 3 4 5 6 
#
# 1 89.4931 33.4804 29.3008 0.0000 9.0245 0.0000
# 2 33.4804 111.2967 24.4207 0.0000 -0.7154 0.0000
# 3 29.3008 24.4207 114.9907 0.0000 8.0290 0.0000
# 4 0.0000 0.0000 0.0000 35.3579 0.0000 10.5188
# 5 9.0245 -0.7154 8.0290 0.0000 41.4131 0.0000
# 6 0.0000 0.0000 0.0000 10.5188 0.0000 15.2210
#
#
#
# Elastic Compliance Matrix: (Units=1/GPa)
#
#
# Indices 1 2 3 4 5 6 
#
# 1 0.013585 -0.003548 -0.002532 0.000000 -0.002531 0.000000
# 2 -0.003548 0.010363 -0.001382 0.000000 0.001220 0.000000
# 3 -0.002532 -0.001382 0.009730 0.000000 -0.001359 0.000000
# 4 0.000000 0.000000 0.000000 0.035602 0.000000 -0.024603
# 5 -0.002531 0.001220 -0.001359 0.000000 0.024983 0.000000
# 6 0.000000 0.000000 0.000000 -0.024603 0.000000 0.082702
#
#
# Mechanical properties :
#
#
# Convention : Reuss Voigt Hill
#
# Bulk Modulus (GPa) = 53.31638 54.46495 53.89066
# Shear Modulus (GPa) = 25.23481 33.63696 29.43588
#
# Velocity S-wave (km/s) = 3.47442 4.01135 3.75250
# Velocity P-wave (km/s) = 6.44984 6.89267 6.67493
#
# Compressibility (1/GPa) = 0.01875596
#
# Stress axis : x y z
#
# Youngs Moduli (GPa) = 73.60894 96.49461 102.77704
#
# Poissons Ratio (x) = 0.34232 0.26019
# Poissons Ratio (y) = 0.26113 0.14205
# Poissons Ratio (z) = 0.18635 0.13337
#
# Static dielectric constant tensor:
#      x y z
#    x 3.662090 0.000000 -0.017650 
#    y 0.000000 3.919160 0.000000 
#    z -0.017650 0.000000 3.771300 
# 
# 
# High freq. dielectric constant tensor:
#      x y z
#    x 1.811190 0.000000 0.005950 
#    y 0.000000 1.832370 0.000000 
#    z 0.005950 0.000000 1.836690 
# 
# From -- ./inp_files/29048.got.cif
#   From: 2010.06.25/outbox.cif.g09.slc.cpg/sg15_15_cif.got.tgz:29048.got - 2010.06.28 07:06:18.
