data_PCOD8152963
_publ_section_title
;
Structure prediction by ZEFSAII (Michael W. Deem and Ramdas Pophale) SiO2 
 PCOD8152963
Probable space group: C 2/C
;
_chemical_formula_sum "Si O2"
_cell_formula_units_Z 52
_cell_length_a 13.993593
_cell_length_b 19.913905
_cell_length_c 9.269883
_cell_angle_alpha 90.000000
_cell_angle_beta 76.721440
_cell_angle_gamma 90.000000
_cell_volume 2514.148803
_symmetry_space_group_name_H-M "C 2/C"
_symmetry_group_IT_number 15
_symmetry_cell_setting 'monoclinic'
loop_
_space_group_symop_operation_xyz
x,y,z
-x,y,1/2-z
-x,-y,-z
x,-y,1/2+z
1/2+x,1/2+y,z
1/2-x,1/2+y,1/2-z
1/2-x,1/2-y,-z
1/2+x,1/2-y,1/2+z
loop_
_atom_site_type_symbol
_atom_site_label
_atom_site_fract_x
_atom_site_fract_y
_atom_site_fract_z
Si Si1 0.179163 0.960575 0.112996
Si Si2 0.896639 0.203842 0.553520
Si Si3 0.500000 0.455349 0.750000
Si Si4 0.889754 0.319961 0.325664
Si Si5 0.739396 0.421886 0.406391
Si Si6 0.256397 0.248259 0.669379
Si Si7 0.898689 0.856107 0.565610
O O1 0.228943 0.948585 0.248047
O O2 0.073550 0.995123 0.146283
O O3 0.162043 0.888296 0.045248
O O4 0.245916 0.012005 0.001348
O O5 0.876819 0.254711 0.429539
O O6 0.848392 0.131633 0.531625
O O7 0.849241 0.238870 0.713790
O O8 0.013964 0.191797 0.528136
O O9 0.442925 0.411614 0.653822
O O10 0.842603 0.386471 0.410721
O O11 0.825881 0.311707 0.201307
O O12 0.000000 0.335765 0.250000
O O13 0.250000 0.250000 0.500000
O O14 0.318279 0.315431 0.687998
#
# Coordination Sequence:
#
# PCOD8152963 Si02
#       7
#     8   8   4   8   8   8   8
#     4  12  24  40  61  95 131 167 211 267 329 383
#     4  11  23  41  67  94 129 174 217 262 328 391
#     4  12  22  36  58  96 124 170 208 254 324 394
#     4  11  23  45  66  92 127 178 224 262 322 393
#     4  11  24  40  64  92 128 171 217 263 324 391
#     4  11  24  39  62  98 130 169 213 273 329 377
#     4  12  22  39  64  94 136 164 214 266 328 394
#
# _framework density 20.682945
#
# number of rings (size 3 to 8) (size 9 to 14) (size 15 to 20)
#    0.000    0.615    4.615    6.000    2.154    1.846 
#    0.000    0.769    0.000    0.000    0.000    0.000 
#    0.000    0.000    0.000    0.000    0.000    0.000 
#
# Total GULP energy -322233.533563 kJ/mol
# GULP energy per Si atom -12393.597445 kJ/mol
# Density = 2.063587 g / cm^3
# Si number density = 20.682945 Si / 1000 Ang^3
#
#
#
# Elastic Constant Matrix: (Units=GPa)
#
#
# Indices 1 2 3 4 5 6 
#
# 1 63.9073 48.6629 31.1387 0.0000 -10.8617 0.0000
# 2 48.6629 107.2355 43.8356 0.0000 -11.8844 0.0000
# 3 31.1387 43.8356 78.3414 0.0000 -0.2005 0.0000
# 4 0.0000 0.0000 0.0000 44.1482 0.0000 -0.9638
# 5 -10.8617 -11.8844 -0.2005 0.0000 31.1375 0.0000
# 6 0.0000 0.0000 0.0000 -0.9638 0.0000 44.9632
#
#
#
# Elastic Compliance Matrix: (Units=1/GPa)
#
#
# Indices 1 2 3 4 5 6 
#
# 1 0.026063 -0.009046 -0.005283 0.000000 0.005605 0.000000
# 2 -0.009046 0.015918 -0.005304 0.000000 0.002886 0.000000
# 3 -0.005283 -0.005304 0.017823 0.000000 -0.003753 0.000000
# 4 0.000000 0.000000 0.000000 0.022662 0.000000 0.000486
# 5 0.005605 0.002886 -0.003753 0.000000 0.035148 0.000000
# 6 0.000000 0.000000 0.000000 0.000486 0.000000 0.022251
#
#
# Mechanical properties :
#
#
# Convention : Reuss Voigt Hill
#
# Bulk Modulus (GPa) = 48.69241 55.19539 51.94390
# Shear Modulus (GPa) = 26.88500 32.43961 29.66231
#
# Velocity S-wave (km/s) = 3.60927 3.96463 3.79112
# Velocity P-wave (km/s) = 6.40020 6.90667 6.65825
#
# Compressibility (1/GPa) = 0.02053708
#
# Stress axis : x y z
#
# Youngs Moduli (GPa) = 38.36868 62.81999 56.10809
#
# Poissons Ratio (x) = 0.56830 0.29642
# Poissons Ratio (y) = 0.34710 0.29760
# Poissons Ratio (z) = 0.20270 0.33320
#
# Static dielectric constant tensor:
#      x y z
#    x 3.823760 0.000000 -0.182660 
#    y 0.000000 4.095290 0.000000 
#    z -0.182660 0.000000 3.861550 
# 
# 
# High freq. dielectric constant tensor:
#      x y z
#    x 1.793090 0.000000 -0.000970 
#    y 0.000000 1.816900 0.000000 
#    z -0.000970 0.000000 1.814130 
# 
# From -- ./inp_files/40776.got.cif
#   From: 2010.06.25/outbox.cif.g09.slc.cpg/sg15_21_cif.got.tgz:40776.got - 2010.06.28 07:06:18.
