data_PCOD8152667
_publ_section_title
;
Structure prediction by ZEFSAII (Michael W. Deem and Ramdas Pophale) SiO2 
 PCOD8152667
Probable space group: C 2/C
;
_chemical_formula_sum "Si O2"
_cell_formula_units_Z 56
_cell_length_a 15.352978
_cell_length_b 11.145876
_cell_length_c 17.410375
_cell_angle_alpha 90.000000
_cell_angle_beta 123.508553
_cell_angle_gamma 90.000000
_cell_volume 2484.154670
_symmetry_space_group_name_H-M "C 2/C"
_symmetry_group_IT_number 15
_symmetry_cell_setting 'monoclinic'
loop_
_space_group_symop_operation_xyz
x,y,z
-x,y,1/2-z
-x,-y,-z
x,-y,1/2+z
1/2+x,1/2+y,z
1/2-x,1/2+y,1/2-z
1/2-x,1/2-y,-z
1/2+x,1/2-y,1/2+z
loop_
_atom_site_type_symbol
_atom_site_label
_atom_site_fract_x
_atom_site_fract_y
_atom_site_fract_z
Si Si1 0.943213 0.632255 0.384878
Si Si2 0.675445 0.163740 0.916329
Si Si3 0.000000 0.817958 0.750000
Si Si4 0.643321 0.026248 0.530474
Si Si5 0.500000 0.815148 0.750000
Si Si6 0.166555 0.163032 0.917485
Si Si7 0.993753 0.030723 0.104940
Si Si8 0.133841 0.127467 0.582924
O O1 0.882798 0.525852 0.398335
O O2 0.952182 0.607718 0.297331
O O3 0.882635 0.754424 0.373695
O O4 0.063283 0.636081 0.474426
O O5 0.589327 0.235073 0.827389
O O6 0.746555 0.104545 0.883997
O O7 0.750000 0.250000 0.000000
O O8 0.627090 0.068018 0.952185
O O9 0.037495 0.910826 0.703416
O O10 0.762309 0.068492 0.594442
O O11 0.596473 0.735447 0.824429
O O12 0.087467 0.082403 0.929924
O O13 0.250000 0.250000 0.000000
O O14 0.937362 0.135834 0.028757
O O15 0.098483 0.987792 0.113847
#
# Coordination Sequence:
#
# PCOD8152667 Si02
#       8
#     8   8   4   8   4   8   8   8
#     4  11  24  44  71 103 145 180 244 299 358 438
#     4  12  23  46  74 102 146 186 242 302 360 427
#     4  12  25  45  74 106 140 196 251 301 348 438
#     4  11  23  46  76  99 141 203 229 295 382 421
#     4  12  25  45  70 106 146 180 243 309 344 438
#     4  12  23  46  76 105 145 192 239 304 365 427
#     4  11  23  41  76 103 143 194 242 294 366 432
#     4  11  22  44  70 103 145 187 235 298 360 439
#
# _framework density 22.54288
#
# number of rings (size 3 to 8) (size 9 to 14) (size 15 to 20)
#    0.000    0.571    7.143    0.429    0.000    0.571 
#    0.000   12.857    0.000    0.000    0.000    0.000 
#    0.000    0.000    0.000    0.000    0.000    0.000 
#
# Total GULP energy -347016.059795 kJ/mol
# GULP energy per Si atom -12393.430707 kJ/mol
# Density = 2.249157 g / cm^3
# Si number density = 22.542880 Si / 1000 Ang^3
#
#
#
# Elastic Constant Matrix: (Units=GPa)
#
#
# Indices 1 2 3 4 5 6 
#
# 1 148.2219 34.9066 65.9930 0.0000 -20.2555 0.0000
# 2 34.9066 63.4292 49.7753 0.0000 -1.9579 0.0000
# 3 65.9930 49.7753 141.8195 0.0000 -8.8257 0.0000
# 4 0.0000 0.0000 0.0000 33.3058 0.0000 2.2319
# 5 -20.2555 -1.9579 -8.8257 0.0000 47.4855 0.0000
# 6 0.0000 0.0000 0.0000 2.2319 0.0000 26.0531
#
#
#
# Elastic Compliance Matrix: (Units=1/GPa)
#
#
# Indices 1 2 3 4 5 6 
#
# 1 0.009195 -0.002430 -0.003226 0.000000 0.003223 0.000000
# 2 -0.002430 0.022414 -0.006822 0.000000 -0.001380 0.000000
# 3 -0.003226 -0.006822 0.010970 0.000000 0.000382 0.000000
# 4 0.000000 0.000000 0.000000 0.030198 0.000000 -0.002587
# 5 0.003223 -0.001380 0.000382 0.000000 0.022448 0.000000
# 6 0.000000 0.000000 0.000000 -0.002587 0.000000 0.038605
#
#
# Mechanical properties :
#
#
# Convention : Reuss Voigt Hill
#
# Bulk Modulus (GPa) = 56.73822 72.75782 64.74802
# Shear Modulus (GPa) = 30.36577 34.88861 32.62719
#
# Velocity S-wave (km/s) = 3.67416 3.93829 3.80852
# Velocity P-wave (km/s) = 6.57442 7.28187 6.93717
#
# Compressibility (1/GPa) = 0.01762480
#
# Stress axis : x y z
#
# Youngs Moduli (GPa) = 108.75039 44.61584 91.15571
#
# Poissons Ratio (x) = 0.10841 0.29403
# Poissons Ratio (y) = 0.26424 0.62185
# Poissons Ratio (z) = 0.35078 0.30436
#
# Static dielectric constant tensor:
#      x y z
#    x 4.786590 0.000000 -0.057170 
#    y 0.000000 4.121750 0.000000 
#    z -0.057170 0.000000 3.960460 
# 
# 
# High freq. dielectric constant tensor:
#      x y z
#    x 1.911860 0.000000 -0.009230 
#    y 0.000000 1.884730 0.000000 
#    z -0.009230 0.000000 1.871410 
# 
# From -- ./inp_files/204586.got.cif
#   From: 2010.06.25/outbox.cif.g09.slc.cpg/sg15_103_cif.got.tgz:204586.got - 2010.06.28 07:06:18.
