data_PCOD8152170
_publ_section_title
;
Structure prediction by ZEFSAII (Michael W. Deem and Ramdas Pophale) SiO2 
 PCOD8152170
Probable space group: C 2/C
;
_chemical_formula_sum "Si O2"
_cell_formula_units_Z 44
_cell_length_a 11.528265
_cell_length_b 9.259829
_cell_length_c 22.109754
_cell_angle_alpha 90.000000
_cell_angle_beta 53.640010
_cell_angle_gamma 90.000000
_cell_volume 1900.696766
_symmetry_space_group_name_H-M "C 2/C"
_symmetry_group_IT_number 15
_symmetry_cell_setting 'monoclinic'
loop_
_space_group_symop_operation_xyz
x,y,z
-x,y,1/2-z
-x,-y,-z
x,-y,1/2+z
1/2+x,1/2+y,z
1/2-x,1/2+y,1/2-z
1/2-x,1/2-y,-z
1/2+x,1/2-y,1/2+z
loop_
_atom_site_type_symbol
_atom_site_label
_atom_site_fract_x
_atom_site_fract_y
_atom_site_fract_z
Si Si1 0.897177 0.246652 0.880392
Si Si2 0.627022 0.353638 0.513427
Si Si3 0.065930 0.016619 0.328406
Si Si4 0.000000 0.764287 0.750000
Si Si5 0.077275 0.349301 0.493090
Si Si6 0.796209 0.478838 0.354360
O O1 0.948240 0.308589 0.929429
O O2 0.894196 0.382034 0.836042
O O3 0.747522 0.155999 0.927420
O O4 0.021080 0.140285 0.816374
O O5 0.750000 0.250000 0.500000
O O6 0.567895 0.447995 0.586410
O O7 0.493018 0.268690 0.528135
O O8 0.687648 0.463153 0.444295
O O9 0.086793 0.134656 0.269688
O O10 0.216646 0.004537 0.315879
O O11 0.109953 0.666204 0.678391
O O12 0.000000 0.500000 0.500000
#
# Coordination Sequence:
#
# PCOD8152170 Si02
#       6
#     8   8   8   4   8   8
#     4  11  24  41  72 108 140 182 234 298 358 424
#     4  12  21  44  78 108 141 184 238 311 355 424
#     4  12  26  49  74 105 145 188 244 299 364 425
#     4  12  32  48  68 102 144 204 240 288 362 444
#     4  11  22  38  69 117 147 173 230 301 367 417
#     4  12  26  49  74 105 145 188 244 299 364 425
#
# _framework density 23.149405000000002
#
# number of rings (size 3 to 8) (size 9 to 14) (size 15 to 20)
#    0.000    0.364    5.455    4.909    0.000    3.636 
#    0.000    0.000    0.000    0.000    0.000    0.000 
#    0.000    0.000    0.000    0.000    0.000    0.000 
#
# Total GULP energy -272898.634654 kJ/mol
# GULP energy per Si atom -12404.483393 kJ/mol
# Density = 2.309672 g / cm^3
# Si number density = 23.149405 Si / 1000 Ang^3
#
#
#
# Elastic Constant Matrix: (Units=GPa)
#
#
# Indices 1 2 3 4 5 6 
#
# 1 135.2685 54.6405 -4.8001 0.0000 8.8973 0.0000
# 2 54.6405 152.4187 16.1685 0.0000 10.8324 0.0000
# 3 -4.8001 16.1685 37.7629 0.0000 9.3503 0.0000
# 4 0.0000 0.0000 0.0000 29.8196 0.0000 4.7651
# 5 8.8973 10.8324 9.3503 0.0000 17.7908 0.0000
# 6 0.0000 0.0000 0.0000 4.7651 0.0000 58.4753
#
#
#
# Elastic Compliance Matrix: (Units=1/GPa)
#
#
# Indices 1 2 3 4 5 6 
#
# 1 0.009180 -0.003366 0.003722 0.000000 -0.004498 0.000000
# 2 -0.003366 0.008253 -0.003603 0.000000 -0.001448 0.000000
# 3 0.003722 -0.003603 0.032665 0.000000 -0.016836 0.000000
# 4 0.000000 0.000000 0.000000 0.033977 0.000000 -0.002769
# 5 -0.004498 -0.001448 -0.016836 0.000000 0.068188 0.000000
# 6 0.000000 0.000000 0.000000 -0.002769 0.000000 0.017327
#
#
# Mechanical properties :
#
#
# Convention : Reuss Voigt Hill
#
# Bulk Modulus (GPa) = 22.93370 50.82975 36.88173
# Shear Modulus (GPa) = 26.23023 38.51322 32.37172
#
# Velocity S-wave (km/s) = 3.36978 4.08325 3.74355
# Velocity P-wave (km/s) = 5.00689 6.65098 5.88661
#
# Compressibility (1/GPa) = 0.04360395
#
# Stress axis : x y z
#
# Youngs Moduli (GPa) = 108.92813 121.17213 30.61350
#
# Poissons Ratio (x) = 0.40789 -0.11394
# Poissons Ratio (y) = 0.36668 0.11030
# Poissons Ratio (z) = -0.40542 0.43657
#
# Static dielectric constant tensor:
#      x y z
#    x 4.342310 0.000000 0.066880 
#    y 0.000000 4.305700 0.000000 
#    z 0.066880 0.000000 3.724730 
# 
# 
# High freq. dielectric constant tensor:
#      x y z
#    x 1.936170 0.000000 0.004200 
#    y 0.000000 1.937990 0.000000 
#    z 0.004200 0.000000 1.883090 
# 
# From -- ./inp_files/230123.got.cif
#   From: 2010.06.25/outbox.cif.g09.slc.cpg/sg15_116_cif.got.tgz:230123.got - 2010.06.28 07:06:18.
