data_PCOD8152605
_publ_section_title
;
Structure prediction by ZEFSAII (Michael W. Deem and Ramdas Pophale) SiO2 
 PCOD8152605
Probable space group: C 2/C
;
_chemical_formula_sum "Si O2"
_cell_formula_units_Z 40
_cell_length_a 8.744864
_cell_length_b 14.224848
_cell_length_c 15.478541
_cell_angle_alpha 90.000000
_cell_angle_beta 113.426736
_cell_angle_gamma 90.000000
_cell_volume 1766.727403
_symmetry_space_group_name_H-M "C 2/C"
_symmetry_group_IT_number 15
_symmetry_cell_setting 'monoclinic'
loop_
_space_group_symop_operation_xyz
x,y,z
-x,y,1/2-z
-x,-y,-z
x,-y,1/2+z
1/2+x,1/2+y,z
1/2-x,1/2+y,1/2-z
1/2-x,1/2-y,-z
1/2+x,1/2-y,1/2+z
loop_
_atom_site_type_symbol
_atom_site_label
_atom_site_fract_x
_atom_site_fract_y
_atom_site_fract_z
Si Si1 0.320958 0.213731 0.254158
Si Si2 0.888278 0.225612 0.463193
Si Si3 0.170893 0.121838 0.609063
Si Si4 0.021173 0.588345 0.943580
Si Si5 0.330433 0.994164 0.765030
O O1 0.500000 0.233678 0.250000
O O2 0.181595 0.210787 0.148004
O O3 0.281655 0.287683 0.321115
O O4 0.302827 0.110961 0.294986
O O5 0.750000 0.250000 0.500000
O O6 0.993550 0.135841 0.521653
O O7 0.009084 0.315245 0.493059
O O8 0.304871 0.096723 0.566465
O O9 0.172684 0.030814 0.672918
O O10 0.862306 0.573810 0.844476
O O11 0.000000 0.500000 0.000000
O O12 0.500000 0.987798 0.750000
#
# Coordination Sequence:
#
# PCOD8152605 Si02
#       5
#     8   8   8   8   8
#     4  11  22  43  70  99 141 189 227 293 367 418
#     4  12  25  40  69 101 139 184 236 295 356 418
#     4  11  23  44  70 100 141 187 241 290 353 429
#     4  11  24  45  70  99 136 188 240 289 352 426
#     4   9  21  40  66  92 135 184 228 283 352 417
#
# _framework density 22.640730999999999
#
# number of rings (size 3 to 8) (size 9 to 14) (size 15 to 20)
#    0.000    1.200    4.000    1.800    5.600    0.800 
#    0.000    0.000    4.400    0.000    0.000    0.000 
#    0.000    0.000    0.000    0.000    0.000    0.000 
#
# Total GULP energy -247789.372536 kJ/mol
# GULP energy per Si atom -12389.468627 kJ/mol
# Density = 2.258920 g / cm^3
# Si number density = 22.640731 Si / 1000 Ang^3
#
#
#
# Elastic Constant Matrix: (Units=GPa)
#
#
# Indices 1 2 3 4 5 6 
#
# 1 89.8716 29.0513 41.6600 0.0000 0.8708 0.0000
# 2 29.0513 86.3629 12.3560 0.0000 -1.7599 0.0000
# 3 41.6600 12.3560 101.1466 0.0000 18.3332 0.0000
# 4 0.0000 0.0000 0.0000 49.3213 0.0000 -5.0791
# 5 0.8708 -1.7599 18.3332 0.0000 37.3285 0.0000
# 6 0.0000 0.0000 0.0000 -5.0791 0.0000 34.6222
#
#
#
# Elastic Compliance Matrix: (Units=1/GPa)
#
#
# Indices 1 2 3 4 5 6 
#
# 1 0.015376 -0.004223 -0.006275 0.000000 0.002524 0.000000
# 2 -0.004223 0.013011 0.000023 0.000000 0.000701 0.000000
# 3 -0.006275 0.000023 0.013657 0.000000 -0.006560 0.000000
# 4 0.000000 0.000000 0.000000 0.020586 0.000000 0.003020
# 5 0.002524 0.000701 -0.006560 0.000000 0.029985 0.000000
# 6 0.000000 0.000000 0.000000 0.003020 0.000000 0.029326
#
#
# Mechanical properties :
#
#
# Convention : Reuss Voigt Hill
#
# Bulk Modulus (GPa) = 47.40561 49.27952 48.34256
# Shear Modulus (GPa) = 33.35040 37.20865 35.27953
#
# Velocity S-wave (km/s) = 3.84217 4.05833 3.95173
# Velocity P-wave (km/s) = 6.37704 6.61613 6.49769
#
# Compressibility (1/GPa) = 0.02109455
#
# Stress axis : x y z
#
# Youngs Moduli (GPa) = 65.03484 76.86011 73.22101
#
# Poissons Ratio (x) = 0.32460 0.45944
# Poissons Ratio (y) = 0.27466 -0.00169
# Poissons Ratio (z) = 0.40808 -0.00178
#
# Static dielectric constant tensor:
#      x y z
#    x 3.706950 0.000000 0.082510 
#    y 0.000000 4.473260 0.000000 
#    z 0.082510 0.000000 4.627790 
# 
# 
# High freq. dielectric constant tensor:
#      x y z
#    x 1.859920 0.000000 0.001350 
#    y 0.000000 1.904860 0.000000 
#    z 0.001350 0.000000 1.912720 
# 
# From -- ./inp_files/133255.got.cif
#   From: 2010.06.25/outbox.cif.g09.slc.cpg/sg15_67_cif.got.tgz:133255.got - 2010.06.28 07:06:18.
