data_PCOD8152535
_publ_section_title
;
Structure prediction by ZEFSAII (Michael W. Deem and Ramdas Pophale) SiO2 
 PCOD8152535
Probable space group: C 2/C
;
_chemical_formula_sum "Si O2"
_cell_formula_units_Z 48
_cell_length_a 23.185543
_cell_length_b 11.502651
_cell_length_c 14.036436
_cell_angle_alpha 90.000000
_cell_angle_beta 145.481493
_cell_angle_gamma 90.000000
_cell_volume 2121.309956
_symmetry_space_group_name_H-M "C 2/C"
_symmetry_group_IT_number 15
_symmetry_cell_setting 'monoclinic'
loop_
_space_group_symop_operation_xyz
x,y,z
-x,y,1/2-z
-x,-y,-z
x,-y,1/2+z
1/2+x,1/2+y,z
1/2-x,1/2+y,1/2-z
1/2-x,1/2-y,-z
1/2+x,1/2-y,1/2+z
loop_
_atom_site_type_symbol
_atom_site_label
_atom_site_fract_x
_atom_site_fract_y
_atom_site_fract_z
Si Si1 0.131357 0.368312 0.687451
Si Si2 0.877781 0.951370 0.723662
Si Si3 0.524565 0.775275 0.177418
Si Si4 0.025876 0.198311 0.673809
Si Si5 0.291368 0.104548 0.650965
Si Si6 0.306953 0.309049 0.796255
O O1 0.105046 0.298962 0.749140
O O2 0.131200 0.505266 0.707207
O O3 0.246195 0.341702 0.808515
O O4 0.053333 0.339636 0.497466
O O5 0.973151 0.863517 0.838065
O O6 0.804941 0.950888 0.532310
O O7 0.811314 0.916803 0.726850
O O8 0.926543 0.077899 0.797794
O O9 0.500000 0.810662 0.250000
O O10 0.641755 0.813248 0.325683
O O11 0.000000 0.201342 0.750000
O O12 0.922817 0.223407 0.477056
O O13 0.253600 0.191378 0.683279
#
# Coordination Sequence:
#
# PCOD8152535 Si02
#       6
#     8   8   8   8   8   8
#     4  12  26  44  70 104 145 185 229 291 361 418
#     4  11  23  45  73 100 137 180 238 291 339 412
#     4  11  22  42  72 102 134 180 236 289 348 409
#     4  12  27  46  70 103 147 189 234 286 353 422
#     4  11  24  44  67 102 140 176 230 288 348 421
#     4  11  25  45  72 101 138 182 241 289 346 415
#
# _framework density 22.627528999999999
#
# number of rings (size 3 to 8) (size 9 to 14) (size 15 to 20)
#    0.000    0.667    3.333    6.500    2.333    3.333 
#    0.000    0.000    0.000    0.000    0.000    0.000 
#    0.000    0.000    0.000    0.000    0.000    0.000 
#
# Total GULP energy -297619.137067 kJ/mol
# GULP energy per Si atom -12400.797378 kJ/mol
# Density = 2.257603 g / cm^3
# Si number density = 22.627529 Si / 1000 Ang^3
#
#
#
# Elastic Constant Matrix: (Units=GPa)
#
#
# Indices 1 2 3 4 5 6 
#
# 1 130.8735 47.1256 8.5134 0.0000 -6.9389 0.0000
# 2 47.1256 100.6174 6.9814 0.0000 -8.8465 0.0000
# 3 8.5134 6.9814 70.6770 0.0000 -1.9638 0.0000
# 4 0.0000 0.0000 0.0000 34.6147 0.0000 4.0382
# 5 -6.9389 -8.8465 -1.9638 0.0000 30.8714 0.0000
# 6 0.0000 0.0000 0.0000 4.0382 0.0000 18.0816
#
#
#
# Elastic Compliance Matrix: (Units=1/GPa)
#
#
# Indices 1 2 3 4 5 6 
#
# 1 0.009245 -0.004210 -0.000675 0.000000 0.000829 0.000000
# 2 -0.004210 0.012174 -0.000626 0.000000 0.002502 0.000000
# 3 -0.000675 -0.000626 0.014308 0.000000 0.000579 0.000000
# 4 0.000000 0.000000 0.000000 0.029662 0.000000 -0.006624
# 5 0.000829 0.002502 0.000579 0.000000 0.033333 0.000000
# 6 0.000000 0.000000 0.000000 -0.006624 0.000000 0.056784
#
#
# Mechanical properties :
#
#
# Convention : Reuss Voigt Hill
#
# Bulk Modulus (GPa) = 40.47720 47.48986 43.98353
# Shear Modulus (GPa) = 28.61016 32.68335 30.64675
#
# Velocity S-wave (km/s) = 3.55969 3.80466 3.68421
# Velocity P-wave (km/s) = 5.90106 6.35089 6.13010
#
# Compressibility (1/GPa) = 0.02470527
#
# Stress axis : x y z
#
# Youngs Moduli (GPa) = 108.16836 82.14201 69.89070
#
# Poissons Ratio (x) = 0.34584 0.04715
# Poissons Ratio (y) = 0.45542 0.04374
# Poissons Ratio (z) = 0.07298 0.05141
#
# Static dielectric constant tensor:
#      x y z
#    x 4.277460 0.000000 -0.056150 
#    y 0.000000 4.125870 0.000000 
#    z -0.056150 0.000000 3.956350 
# 
# 
# High freq. dielectric constant tensor:
#      x y z
#    x 1.899020 0.000000 0.001690 
#    y 0.000000 1.893740 0.000000 
#    z 0.001690 0.000000 1.893860 
# 
# From -- ./inp_files/177876.got.cif
#   From: 2010.06.25/outbox.cif.g09.slc.cpg/sg15_89_cif.got.tgz:177876.got - 2010.06.28 07:06:18.
