data_PCOD8152690
_publ_section_title
;
Structure prediction by ZEFSAII (Michael W. Deem and Ramdas Pophale) SiO2 
 PCOD8152690
Probable space group: C 2/C
;
_chemical_formula_sum "Si O2"
_cell_formula_units_Z 60
_cell_length_a 25.464489
_cell_length_b 8.412125
_cell_length_c 22.827347
_cell_angle_alpha 90.000000
_cell_angle_beta 34.730016
_cell_angle_gamma 90.000000
_cell_volume 2785.800932
_symmetry_space_group_name_H-M "C 2/C"
_symmetry_group_IT_number 15
_symmetry_cell_setting 'monoclinic'
loop_
_space_group_symop_operation_xyz
x,y,z
-x,y,1/2-z
-x,-y,-z
x,-y,1/2+z
1/2+x,1/2+y,z
1/2-x,1/2+y,1/2-z
1/2-x,1/2-y,-z
1/2+x,1/2-y,1/2+z
loop_
_atom_site_type_symbol
_atom_site_label
_atom_site_fract_x
_atom_site_fract_y
_atom_site_fract_z
Si Si1 0.109793 0.041149 0.731710
Si Si2 0.398971 0.095595 0.247847
Si Si3 0.937098 0.893424 0.950735
Si Si4 0.348650 0.326952 0.919245
Si Si5 0.237574 0.419680 0.824023
Si Si6 0.500000 0.097938 0.750000
Si Si7 0.732818 0.454595 0.331596
Si Si8 0.467564 0.047545 0.965459
O O1 0.107297 0.227015 0.722142
O O2 0.126463 0.950385 0.655197
O O3 0.188422 0.009761 0.705906
O O4 0.014718 0.998462 0.850132
O O5 0.428200 0.998329 0.277508
O O6 0.299095 0.038669 0.317914
O O7 0.477572 0.072411 0.126806
O O8 0.851498 0.891996 0.982425
O O9 0.985192 0.731893 0.931022
O O10 0.878011 0.979448 0.056651
O O11 0.432757 0.203565 0.850930
O O12 0.250000 0.250000 0.000000
O O13 0.242728 0.470836 0.752577
O O14 0.253783 0.232484 0.813259
O O15 0.141414 0.477556 0.939731
O O16 0.500000 0.000000 0.000000
#
# Coordination Sequence:
#
# PCOD8152690 Si02
#       8
#     8   8   8   8   8   4   8   8
#     4  12  27  43  70 104 144 178 235 290 351 418
#     4  12  26  45  67 107 142 184 230 296 350 422
#     4  11  24  45  70 100 138 187 229 290 354 418
#     4  12  23  47  75 101 134 187 238 284 346 427
#     4  11  24  41  72  99 138 187 232 291 350 418
#     4  12  24  44  76  94 142 182 230 284 348 408
#     4  11  24  46  68 101 139 181 237 287 354 423
#     4  11  22  44  73 101 141 184 237 286 353 423
#
# _framework density 21.537790999999999
#
# number of rings (size 3 to 8) (size 9 to 14) (size 15 to 20)
#    0.000    0.533    4.000    4.800    3.733    2.667 
#    0.000    1.333    0.000    0.000    0.000    0.000 
#    0.000    0.000    0.000    0.000    0.000    0.000 
#
# Total GULP energy -371853.850984 kJ/mol
# GULP energy per Si atom -12395.128366 kJ/mol
# Density = 2.148877 g / cm^3
# Si number density = 21.537791 Si / 1000 Ang^3
#
#
#
# Elastic Constant Matrix: (Units=GPa)
#
#
# Indices 1 2 3 4 5 6 
#
# 1 89.1325 29.3093 -5.5192 -0.0016 -5.7621 0.0006
# 2 29.3093 113.9175 41.2248 -0.0041 -6.3749 0.0048
# 3 -5.5192 41.2248 97.7995 -0.0022 -12.1957 0.0022
# 4 -0.0016 -0.0041 -0.0022 31.5013 0.0010 -3.5679
# 5 -5.7621 -6.3749 -12.1957 0.0010 38.4032 -0.0012
# 6 0.0006 0.0048 0.0022 -3.5679 -0.0012 26.2684
#
#
#
# Elastic Compliance Matrix: (Units=1/GPa)
#
#
# Indices 1 2 3 4 5 6 
#
# 1 0.012909 -0.004203 0.002764 0.000000 0.002117 0.000000
# 2 -0.004203 0.011731 -0.005225 0.000001 -0.000343 -0.000002
# 3 0.002764 -0.005225 0.013044 0.000000 0.003690 0.000000
# 4 0.000000 0.000001 0.000000 0.032241 0.000000 0.004379
# 5 0.002117 -0.000343 0.003690 0.000000 0.027472 0.000001
# 6 0.000000 -0.000002 0.000000 0.004379 0.000001 0.038663
#
#
# Mechanical properties :
#
#
# Convention : Reuss Voigt Hill
#
# Bulk Modulus (GPa) = 41.05686 47.87547 44.46617
# Shear Modulus (GPa) = 31.74461 34.95691 33.35076
#
# Velocity S-wave (km/s) = 3.84331 4.03308 3.93934
# Velocity P-wave (km/s) = 6.22887 6.63057 6.43286
#
# Compressibility (1/GPa) = 0.02435647
#
# Stress axis : x y z
#
# Youngs Moduli (GPa) = 77.46272 85.24141 76.66625
#
# Poissons Ratio (x) = 0.35829 -0.21193
# Poissons Ratio (y) = 0.32560 0.40058
# Poissons Ratio (z) = -0.21413 0.44538
#
# Static dielectric constant tensor:
#      x y z
#    x 4.066240 -0.000010 0.050350 
#    y -0.000010 3.857230 0.000050 
#    z 0.050350 0.000050 4.076170 
# 
# 
# High freq. dielectric constant tensor:
#      x y z
#    x 1.862410 0.000000 -0.000910 
#    y 0.000000 1.833590 0.000000 
#    z -0.000910 0.000000 1.869040 
# 
# From -- ./inp_files/255152.got.cif
#   From: 2010.06.25/outbox.cif.g09.slc.cpg/sg15_128_cif.got.tgz:255152.got - 2010.06.28 07:06:18.
