data_PCOD8152372
_publ_section_title
;
Structure prediction by ZEFSAII (Michael W. Deem and Ramdas Pophale) SiO2 
 PCOD8152372
Probable space group: C 2/C
;
_chemical_formula_sum "Si O2"
_cell_formula_units_Z 48
_cell_length_a 11.032879
_cell_length_b 9.359000
_cell_length_c 24.448920
_cell_angle_alpha 90.000000
_cell_angle_beta 117.412754
_cell_angle_gamma 90.000000
_cell_volume 2241.044726
_symmetry_space_group_name_H-M "C 2/C"
_symmetry_group_IT_number 15
_symmetry_cell_setting 'monoclinic'
loop_
_space_group_symop_operation_xyz
x,y,z
-x,y,1/2-z
-x,-y,-z
x,-y,1/2+z
1/2+x,1/2+y,z
1/2-x,1/2+y,1/2-z
1/2-x,1/2-y,-z
1/2+x,1/2-y,1/2+z
loop_
_atom_site_type_symbol
_atom_site_label
_atom_site_fract_x
_atom_site_fract_y
_atom_site_fract_z
Si Si1 0.606714 0.945114 0.232095
Si Si2 0.030657 0.143666 0.315416
Si Si3 0.223581 0.758514 0.584403
Si Si4 0.680263 0.036709 0.132025
Si Si5 0.654274 0.518638 0.641151
Si Si6 0.472542 0.247295 0.054279
O O1 0.500000 0.028156 0.250000
O O2 0.529522 0.803298 0.194947
O O3 0.649868 0.044769 0.190745
O O4 0.741180 0.905533 0.295200
O O5 0.193985 0.140717 0.357124
O O6 0.000000 0.072051 0.250000
O O7 0.967240 0.054042 0.350877
O O8 0.211579 0.625403 0.622545
O O9 0.234759 0.902105 0.621960
O O10 0.358582 0.740940 0.576981
O O11 0.090078 0.766821 0.518551
O O12 0.546636 0.093407 0.072611
O O13 0.588107 0.633818 0.587270
#
# Coordination Sequence:
#
# PCOD8152372 Si02
#       6
#     8   8   8   8   8   8
#     4  11  24  41  66  98 129 164 213 263 326 393
#     4  11  22  41  65  96 132 170 205 261 334 391
#     4  11  25  45  65  96 129 175 228 263 320 387
#     4  12  23  44  69  95 135 171 213 269 329 385
#     4  12  23  43  68  94 135 170 213 274 324 382
#     4  11  25  43  67  94 131 176 220 273 319 377
#
# _framework density 21.418582000000001
#
# number of rings (size 3 to 8) (size 9 to 14) (size 15 to 20)
#    0.000    0.667    5.000    4.000    0.000    0.000 
#    0.000    0.833    0.000    0.000    0.000    0.000 
#    0.000    0.000    0.000    0.000    0.000    0.000 
#
# Total GULP energy -297658.313715 kJ/mol
# GULP energy per Si atom -12402.429738 kJ/mol
# Density = 2.136983 g / cm^3
# Si number density = 21.418582 Si / 1000 Ang^3
#
#
#
# Elastic Constant Matrix: (Units=GPa)
#
#
# Indices 1 2 3 4 5 6 
#
# 1 101.0664 23.7561 26.8176 0.0000 4.6154 0.0000
# 2 23.7561 87.0498 22.0763 0.0000 9.4141 0.0000
# 3 26.8176 22.0763 87.5415 0.0000 14.6883 0.0000
# 4 0.0000 0.0000 0.0000 33.8098 0.0000 5.8709
# 5 4.6154 9.4141 14.6883 0.0000 39.9532 0.0000
# 6 0.0000 0.0000 0.0000 5.8709 0.0000 23.5665
#
#
#
# Elastic Compliance Matrix: (Units=1/GPa)
#
#
# Indices 1 2 3 4 5 6 
#
# 1 0.011201 -0.002359 -0.002891 0.000000 0.000325 0.000000
# 2 -0.002359 0.012902 -0.002202 0.000000 -0.001958 0.000000
# 3 -0.002891 -0.002202 0.013557 0.000000 -0.004131 0.000000
# 4 0.000000 0.000000 0.000000 0.030915 0.000000 -0.007701
# 5 0.000325 -0.001958 -0.004131 0.000000 0.026972 0.000000
# 6 0.000000 0.000000 0.000000 -0.007701 0.000000 0.044352
#
#
# Mechanical properties :
#
#
# Convention : Reuss Voigt Hill
#
# Bulk Modulus (GPa) = 43.94500 46.77309 45.35904
# Shear Modulus (GPa) = 30.79040 32.99974 31.89507
#
# Velocity S-wave (km/s) = 3.79562 3.92944 3.86311
# Velocity P-wave (km/s) = 6.30641 6.51708 6.41261
#
# Compressibility (1/GPa) = 0.02275572
#
# Stress axis : x y z
#
# Youngs Moduli (GPa) = 89.27599 77.50933 73.76053
#
# Poissons Ratio (x) = 0.18283 0.21324
# Poissons Ratio (y) = 0.21058 0.16246
# Poissons Ratio (z) = 0.25810 0.17071
#
# Static dielectric constant tensor:
#      x y z
#    x 4.126850 0.000000 0.030090 
#    y 0.000000 3.663830 0.000000 
#    z 0.030090 0.000000 3.860410 
# 
# 
# High freq. dielectric constant tensor:
#      x y z
#    x 1.858980 0.000000 0.005340 
#    y 0.000000 1.829240 0.000000 
#    z 0.005340 0.000000 1.839890 
# 
# From -- ./inp_files/267628.got.cif
#   From: 2010.06.25/outbox.cif.g09.slc.cpg/sg15_134_cif.got.tgz:267628.got - 2010.06.28 07:06:18.
