data_PCOD8152401
_publ_section_title
;
Structure prediction by ZEFSAII (Michael W. Deem and Ramdas Pophale) SiO2 
 PCOD8152401
Probable space group: C 2/C
;
_chemical_formula_sum "Si O2"
_cell_formula_units_Z 44
_cell_length_a 16.658937
_cell_length_b 11.701549
_cell_length_c 10.760895
_cell_angle_alpha 90.000000
_cell_angle_beta 99.679671
_cell_angle_gamma 90.000000
_cell_volume 2067.814761
_symmetry_space_group_name_H-M "C 2/C"
_symmetry_group_IT_number 15
_symmetry_cell_setting 'monoclinic'
loop_
_space_group_symop_operation_xyz
x,y,z
-x,y,1/2-z
-x,-y,-z
x,-y,1/2+z
1/2+x,1/2+y,z
1/2-x,1/2+y,1/2-z
1/2-x,1/2-y,-z
1/2+x,1/2-y,1/2+z
loop_
_atom_site_type_symbol
_atom_site_label
_atom_site_fract_x
_atom_site_fract_y
_atom_site_fract_z
Si Si1 0.418834 0.791486 0.654468
Si Si2 0.141136 0.827479 0.904465
Si Si3 0.084449 0.546339 0.567380
Si Si4 0.812674 0.677985 0.354291
Si Si5 0.453491 0.537580 0.610174
Si Si6 0.000000 0.311933 0.250000
O O1 0.500000 0.836208 0.750000
O O2 0.386347 0.872908 0.537044
O O3 0.344457 0.780440 0.730147
O O4 0.435737 0.671067 0.594600
O O5 0.214589 0.818280 0.824629
O O6 0.056377 0.768291 0.847285
O O7 0.128852 0.963494 0.912916
O O8 0.162086 0.774001 0.041781
O O9 0.151436 0.447421 0.603848
O O10 0.000000 0.500000 0.500000
O O11 0.065174 0.612541 0.689983
O O12 0.500000 0.510333 0.750000
O O13 0.500000 0.500000 0.500000
#
# Coordination Sequence:
#
# PCOD8152401 Si02
#       6
#     8   8   8   8   8   4
#     4  11  22  41  67  99 133 173 222 273 340 405
#     4  11  24  44  67  97 135 179 224 278 346 405
#     4  12  22  39  69  99 129 171 228 277 333 404
#     4  11  25  44  65 101 139 173 219 293 343 396
#     4  11  23  42  69  98 132 179 231 280 340 416
#     4  12  22  42  70  98 128 180 230 266 336 424
#
# _framework density 21.278503000000001
#
# number of rings (size 3 to 8) (size 9 to 14) (size 15 to 20)
#    0.000    0.727    4.545    4.364    0.000    1.455 
#    6.545    1.818    0.000    0.000    0.000    0.000 
#    0.000    0.000    0.000    0.000    0.000    0.000 
#
# Total GULP energy -272727.994075 kJ/mol
# GULP energy per Si atom -12396.727003 kJ/mol
# Density = 2.123007 g / cm^3
# Si number density = 21.278503 Si / 1000 Ang^3
#
#
#
# Elastic Constant Matrix: (Units=GPa)
#
#
# Indices 1 2 3 4 5 6 
#
# 1 103.9941 26.4899 32.9444 0.0000 -19.1415 0.0000
# 2 26.4899 98.9091 30.9541 0.0000 -3.3660 0.0000
# 3 32.9444 30.9541 93.6207 0.0000 -34.0456 0.0000
# 4 0.0000 0.0000 0.0000 22.1922 0.0000 -15.2074
# 5 -19.1415 -3.3660 -34.0456 0.0000 41.0686 0.0000
# 6 0.0000 0.0000 0.0000 -15.2074 0.0000 24.0360
#
#
#
# Elastic Compliance Matrix: (Units=1/GPa)
#
#
# Indices 1 2 3 4 5 6 
#
# 1 0.011488 -0.002333 -0.001995 0.000000 0.003509 0.000000
# 2 -0.002333 0.012034 -0.004573 0.000000 -0.003892 0.000000
# 3 -0.001995 -0.004573 0.017782 0.000000 0.013436 0.000000
# 4 0.000000 0.000000 0.000000 0.079551 0.000000 0.050332
# 5 0.003509 -0.003892 0.013436 0.000000 0.036805 0.000000
# 6 0.000000 0.000000 0.000000 0.050332 0.000000 0.073449
#
#
# Mechanical properties :
#
#
# Convention : Reuss Voigt Hill
#
# Bulk Modulus (GPa) = 42.55116 53.03339 47.79228
# Shear Modulus (GPa) = 19.47460 31.20172 25.33816
#
# Velocity S-wave (km/s) = 3.02855 3.83345 3.45452
# Velocity P-wave (km/s) = 5.68068 6.67618 6.19845
#
# Compressibility (1/GPa) = 0.02350112
#
# Stress axis : x y z
#
# Youngs Moduli (GPa) = 87.04611 83.09868 56.23769
#
# Poissons Ratio (x) = 0.19387 0.11220
# Poissons Ratio (y) = 0.20308 0.25719
# Poissons Ratio (z) = 0.17366 0.38003
#
# Static dielectric constant tensor:
#      x y z
#    x 3.945570 0.000000 -0.074710 
#    y 0.000000 8.057550 0.000000 
#    z -0.074710 0.000000 3.403850 
# 
# 
# High freq. dielectric constant tensor:
#      x y z
#    x 1.826140 0.000000 -0.021540 
#    y 0.000000 1.851510 0.000000 
#    z -0.021540 0.000000 1.835320 
# 
# From -- ./inp_files/95081.got.cif
#   From: 2010.06.25/outbox.cif.g09.slc.cpg/sg15_48_cif.got.tgz:95081.got - 2010.06.28 07:06:18.
