data_PCOD8152890
_publ_section_title
;
Structure prediction by ZEFSAII (Michael W. Deem and Ramdas Pophale) SiO2 
 PCOD8152890
Probable space group: C 2/C
;
_chemical_formula_sum "Si O2"
_cell_formula_units_Z 40
_cell_length_a 24.317691
_cell_length_b 8.415282
_cell_length_c 9.868578
_cell_angle_alpha 90.000000
_cell_angle_beta 114.778096
_cell_angle_gamma 90.000000
_cell_volume 1833.587626
_symmetry_space_group_name_H-M "C 2/C"
_symmetry_group_IT_number 15
_symmetry_cell_setting 'monoclinic'
loop_
_space_group_symop_operation_xyz
x,y,z
-x,y,1/2-z
-x,-y,-z
x,-y,1/2+z
1/2+x,1/2+y,z
1/2-x,1/2+y,1/2-z
1/2-x,1/2-y,-z
1/2+x,1/2-y,1/2+z
loop_
_atom_site_type_symbol
_atom_site_label
_atom_site_fract_x
_atom_site_fract_y
_atom_site_fract_z
Si Si1 0.867339 0.379626 0.186700
Si Si2 0.271522 0.851196 0.647132
Si Si3 0.873725 0.196409 0.918886
Si Si4 0.934409 0.318404 0.735207
Si Si5 0.138436 0.155589 0.069988
O O1 0.806659 0.487187 0.140693
O O2 0.924269 0.493103 0.212718
O O3 0.880409 0.283734 0.337181
O O4 0.864789 0.256510 0.061956
O O5 0.250000 0.750000 0.500000
O O6 0.310576 0.737579 0.782485
O O7 0.209049 0.891727 0.658196
O O8 0.927572 0.277536 0.887533
O O9 0.893739 0.012754 0.940637
O O10 0.881715 0.227107 0.596191
O O11 0.000000 0.268459 0.750000
#
# Coordination Sequence:
#
# PCOD8152890 Si02
#       5
#     8   8   8   8   8
#     4  11  25  42  68  98 132 171 219 263 324 391
#     4  11  23  40  65  98 135 173 207 259 315 395
#     4  11  25  42  68 100 131 171 215 269 327 386
#     4  11  25  46  68  91 127 174 223 272 327 387
#     4  12  24  43  67  98 135 171 215 268 323 387
#
# _framework density 21.815156000000002
#
# number of rings (size 3 to 8) (size 9 to 14) (size 15 to 20)
#    0.000    0.800    4.000    4.800    2.800    5.600 
#    0.000    2.000    0.000    0.000    0.000    0.000 
#    0.000    0.000    0.000    0.000    0.000    0.000 
#
# Total GULP energy -247933.798505 kJ/mol
# GULP energy per Si atom -12396.689925 kJ/mol
# Density = 2.176550 g / cm^3
# Si number density = 21.815156 Si / 1000 Ang^3
#
#
#
# Elastic Constant Matrix: (Units=GPa)
#
#
# Indices 1 2 3 4 5 6 
#
# 1 97.4945 21.0426 9.9262 0.0000 -6.3908 0.0000
# 2 21.0426 142.8228 37.1373 0.0000 -2.4961 0.0000
# 3 9.9262 37.1373 86.8234 0.0000 -20.4076 0.0000
# 4 0.0000 0.0000 0.0000 34.6112 0.0000 -7.8468
# 5 -6.3908 -2.4961 -20.4076 0.0000 19.6369 0.0000
# 6 0.0000 0.0000 0.0000 -7.8468 0.0000 11.1902
#
#
#
# Elastic Compliance Matrix: (Units=1/GPa)
#
#
# Indices 1 2 3 4 5 6 
#
# 1 0.010811 -0.001609 0.000306 0.000000 0.003632 0.000000
# 2 -0.001609 0.008283 -0.004280 0.000000 -0.003919 0.000000
# 3 0.000306 -0.004280 0.017478 0.000000 0.017720 0.000000
# 4 0.000000 0.000000 0.000000 0.034354 0.000000 0.024090
# 5 0.003632 -0.003919 0.017720 0.000000 0.070024 0.000000
# 6 0.000000 0.000000 0.000000 0.024090 0.000000 0.106256
#
#
# Mechanical properties :
#
#
# Convention : Reuss Voigt Hill
#
# Bulk Modulus (GPa) = 39.36029 51.48367 45.42198
# Shear Modulus (GPa) = 18.73769 30.35665 24.54717
#
# Velocity S-wave (km/s) = 2.93393 3.73438 3.35809
# Velocity P-wave (km/s) = 5.43682 6.49964 5.99184
#
# Compressibility (1/GPa) = 0.02540632
#
# Stress axis : x y z
#
# Youngs Moduli (GPa) = 92.49689 120.72645 57.21327
#
# Poissons Ratio (x) = 0.19424 -0.01750
# Poissons Ratio (y) = 0.14882 0.24488
# Poissons Ratio (z) = -0.02829 0.51673
#
# Static dielectric constant tensor:
#      x y z
#    x 4.790680 0.000000 1.091610 
#    y 0.000000 3.902020 0.000000 
#    z 1.091610 0.000000 5.735760 
# 
# 
# High freq. dielectric constant tensor:
#      x y z
#    x 1.847020 0.000000 -0.018500 
#    y 0.000000 1.867470 0.000000 
#    z -0.018500 0.000000 1.859660 
# 
# From -- ./inp_files/60079.got.cif
#   From: 2010.06.25/outbox.cif.g09.slc.cpg/sg15_31_cif.got.tgz:60079.got - 2010.06.28 07:06:18.
