data_PCOD8152844
_publ_section_title
;
Structure prediction by ZEFSAII (Michael W. Deem and Ramdas Pophale) SiO2 
 PCOD8152844
Probable space group: C 2/C
;
_chemical_formula_sum "Si O2"
_cell_formula_units_Z 40
_cell_length_a 10.783454
_cell_length_b 13.389259
_cell_length_c 17.238558
_cell_angle_alpha 90.000000
_cell_angle_beta 125.039106
_cell_angle_gamma 90.000000
_cell_volume 2037.849848
_symmetry_space_group_name_H-M "C 2/C"
_symmetry_group_IT_number 15
_symmetry_cell_setting 'monoclinic'
loop_
_space_group_symop_operation_xyz
x,y,z
-x,y,1/2-z
-x,-y,-z
x,-y,1/2+z
1/2+x,1/2+y,z
1/2-x,1/2+y,1/2-z
1/2-x,1/2-y,-z
1/2+x,1/2-y,1/2+z
loop_
_atom_site_type_symbol
_atom_site_label
_atom_site_fract_x
_atom_site_fract_y
_atom_site_fract_z
Si Si1 0.356579 0.311171 0.597599
Si Si2 0.121197 0.983010 0.478845
Si Si3 0.646151 0.109558 0.334883
Si Si4 0.993947 0.184225 0.829764
Si Si5 0.805134 0.212615 0.254941
O O1 0.250000 0.250000 0.500000
O O2 0.370402 0.424761 0.575413
O O3 0.521637 0.257379 0.661489
O O4 0.290492 0.323271 0.660461
O O5 0.282577 0.963816 0.576575
O O6 0.077352 0.879890 0.423090
O O7 0.000000 0.000000 0.500000
O O8 0.500000 0.050471 0.250000
O O9 0.584258 0.211074 0.353324
O O10 0.759019 0.130124 0.302955
O O11 0.000000 0.126047 0.750000
O O12 0.815196 0.196956 0.784644
#
# Coordination Sequence:
#
# PCOD8152844 Si02
#       5
#     8   8   8   8   8
#     4  11  23  39  58  89 128 160 196 243 311 358
#     4  12  22  36  65  90 118 160 207 241 298 372
#     4   9  20  42  61  87 119 155 203 255 298 346
#     4   9  21  40  65  86 116 158 203 251 299 353
#     4   9  20  41  60  83 123 158 192 253 298 355
#
# _framework density 19.628530999999999
#
# number of rings (size 3 to 8) (size 9 to 14) (size 15 to 20)
#    0.000    2.400    2.000    1.800    2.800    0.000 
#   10.800    4.000    0.000    0.000    0.000    0.000 
#    0.000    0.000    0.000    0.000    0.000    0.000 
#
# Total GULP energy -247773.781520 kJ/mol
# GULP energy per Si atom -12388.689076 kJ/mol
# Density = 1.958386 g / cm^3
# Si number density = 19.628531 Si / 1000 Ang^3
#
#
#
# Elastic Constant Matrix: (Units=GPa)
#
#
# Indices 1 2 3 4 5 6 
#
# 1 126.5930 37.8318 64.6864 0.0000 -1.4290 0.0000
# 2 37.8318 65.4235 52.5394 0.0000 3.8006 0.0000
# 3 64.6864 52.5394 157.4313 0.0000 12.5816 0.0000
# 4 0.0000 0.0000 0.0000 15.1308 0.0000 -1.8349
# 5 -1.4290 3.8006 12.5816 0.0000 38.6340 0.0000
# 6 0.0000 0.0000 0.0000 -1.8349 0.0000 8.6822
#
#
#
# Elastic Compliance Matrix: (Units=1/GPa)
#
#
# Indices 1 2 3 4 5 6 
#
# 1 0.010707 -0.003617 -0.003340 0.000000 0.001839 0.000000
# 2 -0.003617 0.022105 -0.005859 0.000000 -0.000400 0.000000
# 3 -0.003340 -0.005859 0.009901 0.000000 -0.002771 0.000000
# 4 0.000000 0.000000 0.000000 0.067829 0.000000 0.014335
# 5 0.001839 -0.000400 -0.002771 0.000000 0.026894 0.000000
# 6 0.000000 0.000000 0.000000 0.014335 0.000000 0.118208
#
#
# Mechanical properties :
#
#
# Convention : Reuss Voigt Hill
#
# Bulk Modulus (GPa) = 58.53843 73.28478 65.91160
# Shear Modulus (GPa) = 17.42354 25.44876 21.43615
#
# Velocity S-wave (km/s) = 2.98260 3.60463 3.30827
# Velocity P-wave (km/s) = 6.46135 7.39874 6.94588
#
# Compressibility (1/GPa) = 0.01708280
#
# Stress axis : x y z
#
# Youngs Moduli (GPa) = 93.39398 45.23903 101.00029
#
# Poissons Ratio (x) = 0.16361 0.33729
# Poissons Ratio (y) = 0.33777 0.59176
# Poissons Ratio (z) = 0.31189 0.26506
#
# Static dielectric constant tensor:
#      x y z
#    x 4.425490 0.000000 -0.815430 
#    y 0.000000 2.913270 0.000000 
#    z -0.815430 0.000000 5.091100 
# 
# 
# High freq. dielectric constant tensor:
#      x y z
#    x 1.779980 0.000000 -0.001500 
#    y 0.000000 1.727650 0.000000 
#    z -0.001500 0.000000 1.788450 
# 
# From -- ./inp_files/141746.got.cif
#   From: 2010.06.25/outbox.cif.g09.slc.cpg/sg15_71_cif.got.tgz:141746.got - 2010.06.28 07:06:18.
