data_PCOD8152696
_publ_section_title
;
Structure prediction by ZEFSAII (Michael W. Deem and Ramdas Pophale) SiO2 
 PCOD8152696
Probable space group: C 2/C
;
_chemical_formula_sum "Si O2"
_cell_formula_units_Z 52
_cell_length_a 21.892013
_cell_length_b 10.657735
_cell_length_c 11.995751
_cell_angle_alpha 90.000000
_cell_angle_beta 51.975937
_cell_angle_gamma 90.000000
_cell_volume 2204.792067
_symmetry_space_group_name_H-M "C 2/C"
_symmetry_group_IT_number 15
_symmetry_cell_setting 'monoclinic'
loop_
_space_group_symop_operation_xyz
x,y,z
-x,y,1/2-z
-x,-y,-z
x,-y,1/2+z
1/2+x,1/2+y,z
1/2-x,1/2+y,1/2-z
1/2-x,1/2-y,-z
1/2+x,1/2-y,1/2+z
loop_
_atom_site_type_symbol
_atom_site_label
_atom_site_fract_x
_atom_site_fract_y
_atom_site_fract_z
Si Si1 0.723332 0.511175 0.366449
Si Si2 0.857290 0.581560 0.366940
Si Si3 0.454329 0.290023 0.185129
Si Si4 0.410589 0.535474 0.317239
Si Si5 0.201780 0.699026 0.849688
Si Si6 0.000000 0.582230 0.750000
Si Si7 0.563037 0.248296 0.865866
O O1 0.791623 0.499092 0.381344
O O2 0.641840 0.474850 0.514242
O O3 0.733859 0.402470 0.261405
O O4 0.724382 0.652826 0.313657
O O5 0.900572 0.668193 0.226075
O O6 0.817748 0.674202 0.500037
O O7 0.921141 0.495615 0.356088
O O8 0.500000 0.269991 0.250000
O O9 0.399003 0.410661 0.256879
O O10 0.510967 0.314823 0.018192
O O11 0.500000 0.550121 0.250000
O O12 0.389545 0.652857 0.263288
O O13 0.127496 0.667030 0.856508
O O14 0.007254 0.663276 0.853638
#
# Coordination Sequence:
#
# PCOD8152696 Si02
#       7
#     8   8   8   8   8   4   8
#     4  12  29  48  77 112 154 200 255 318 387 458
#     4  12  25  48  74 109 152 195 254 314 381 463
#     4  11  22  44  74 104 143 195 256 309 374 453
#     4  11  25  48  71 105 148 195 249 313 379 452
#     4  12  27  49  76 112 151 207 252 318 384 453
#     4  12  26  46  74 116 152 200 250 310 388 450
#     4  12  25  46  75 112 152 197 254 315 379 452
#
# _framework density 23.584992
#
# number of rings (size 3 to 8) (size 9 to 14) (size 15 to 20)
#    0.000    0.308    6.154    1.846    4.308    4.308 
#    0.000    0.000    0.000    0.000    0.000    0.000 
#    0.000    0.000    0.000    0.000    0.000    0.000 
#
# Total GULP energy -322399.601005 kJ/mol
# GULP energy per Si atom -12399.984654 kJ/mol
# Density = 2.353131 g / cm^3
# Si number density = 23.584992 Si / 1000 Ang^3
#
#
#
# Elastic Constant Matrix: (Units=GPa)
#
#
# Indices 1 2 3 4 5 6 
#
# 1 92.2322 13.0238 22.9147 0.0000 -6.0236 0.0000
# 2 13.0238 134.8699 67.8762 0.0000 -2.3138 0.0000
# 3 22.9147 67.8762 127.3198 0.0000 -6.9500 0.0000
# 4 0.0000 0.0000 0.0000 44.1715 0.0000 -2.6647
# 5 -6.0236 -2.3138 -6.9500 0.0000 32.4855 0.0000
# 6 0.0000 0.0000 0.0000 -2.6647 0.0000 12.9537
#
#
#
# Elastic Compliance Matrix: (Units=1/GPa)
#
#
# Indices 1 2 3 4 5 6 
#
# 1 0.011443 -0.000118 -0.001904 0.000000 0.001706 0.000000
# 2 -0.000118 0.010141 -0.005410 0.000000 -0.000457 0.000000
# 3 -0.001904 -0.005410 0.011171 0.000000 0.001652 0.000000
# 4 0.000000 0.000000 0.000000 0.022924 0.000000 0.004716
# 5 0.001706 -0.000457 0.001652 0.000000 0.031420 0.000000
# 6 0.000000 0.000000 0.000000 0.004716 0.000000 0.078168
#
#
# Mechanical properties :
#
#
# Convention : Reuss Voigt Hill
#
# Bulk Modulus (GPa) = 55.88928 62.45013 59.16971
# Shear Modulus (GPa) = 26.86816 34.62928 30.74872
#
# Velocity S-wave (km/s) = 3.37887 3.83597 3.61465
# Velocity P-wave (km/s) = 6.24266 6.79380 6.52405
#
# Compressibility (1/GPa) = 0.01789252
#
# Stress axis : x y z
#
# Youngs Moduli (GPa) = 87.38813 98.61190 89.51628
#
# Poissons Ratio (x) = 0.01161 0.17041
# Poissons Ratio (y) = 0.01029 0.48428
# Poissons Ratio (z) = 0.16635 0.53349
#
# Static dielectric constant tensor:
#      x y z
#    x 4.253250 0.000000 -0.070340 
#    y 0.000000 4.526240 0.000000 
#    z -0.070340 0.000000 4.090490 
# 
# 
# High freq. dielectric constant tensor:
#      x y z
#    x 1.935860 0.000000 -0.002440 
#    y 0.000000 1.941270 0.000000 
#    z -0.002440 0.000000 1.927420 
# 
# From -- ./inp_files/117926.got.cif
#   From: 2010.06.25/outbox.cif.g09.slc.cpg/sg15_59_cif.got.tgz:117926.got - 2010.06.28 07:06:18.
