data_PCOD8152217
_publ_section_title
;
Structure prediction by ZEFSAII (Michael W. Deem and Ramdas Pophale) SiO2 
 PCOD8152217
Probable space group: C 2/C
;
_chemical_formula_sum "Si O2"
_cell_formula_units_Z 40
_cell_length_a 8.048745
_cell_length_b 16.480570
_cell_length_c 21.820390
_cell_angle_alpha 90.000000
_cell_angle_beta 40.464881
_cell_angle_gamma 90.000000
_cell_volume 1878.431881
_symmetry_space_group_name_H-M "C 2/C"
_symmetry_group_IT_number 15
_symmetry_cell_setting 'monoclinic'
loop_
_space_group_symop_operation_xyz
x,y,z
-x,y,1/2-z
-x,-y,-z
x,-y,1/2+z
1/2+x,1/2+y,z
1/2-x,1/2+y,1/2-z
1/2-x,1/2-y,-z
1/2+x,1/2-y,1/2+z
loop_
_atom_site_type_symbol
_atom_site_label
_atom_site_fract_x
_atom_site_fract_y
_atom_site_fract_z
Si Si1 0.000000 0.721373 0.250000
Si Si2 0.200934 0.771196 0.321084
Si Si3 0.500000 0.499419 0.750000
Si Si4 0.492890 0.102109 0.085511
Si Si5 0.275866 0.067237 0.353820
Si Si6 0.964063 0.065168 0.887378
O O1 0.117408 0.773648 0.272555
O O2 0.237185 0.662226 0.162954
O O3 0.500000 0.759550 0.250000
O O4 0.051106 0.698182 0.396205
O O5 0.111070 0.856878 0.374814
O O6 0.277109 0.442143 0.838027
O O7 0.564180 0.555899 0.789615
O O8 0.664617 0.064433 0.091378
O O9 0.657571 0.083012 0.977930
O O10 0.500000 0.024630 0.250000
O O11 0.021170 0.016514 0.410386
#
# Coordination Sequence:
#
# PCOD8152217 Si02
#       6
#     4   8   4   8   8   8
#     4   8  19  40  61  86 124 174 196 246 317 364
#     4  11  22  39  65  90 128 168 201 254 314 364
#     4  12  23  42  61  90 130 156 198 262 313 362
#     4  11  23  41  64  88 122 167 203 249 311 376
#     4   9  18  39  64  82 120 159 202 250 304 356
#     4  12  23  38  64  95 119 157 212 256 304 364
#
# _framework density 21.294357000000002
#
# number of rings (size 3 to 8) (size 9 to 14) (size 15 to 20)
#    0.600    0.800    3.000    3.000    0.000    0.000 
#    0.000    0.000    0.000    4.800    0.000    0.000 
#    0.000    0.000    0.000    0.000    0.000    0.000 
#
# Total GULP energy -247807.805667 kJ/mol
# GULP energy per Si atom -12390.390283 kJ/mol
# Density = 2.124589 g / cm^3
# Si number density = 21.294357 Si / 1000 Ang^3
#
#
#
# Elastic Constant Matrix: (Units=GPa)
#
#
# Indices 1 2 3 4 5 6 
#
# 1 78.4058 29.3172 13.4725 0.0018 -6.6517 0.0007
# 2 29.3172 101.0998 26.5586 0.0002 -7.8254 0.0017
# 3 13.4725 26.5586 76.3327 0.0048 -14.6462 0.0063
# 4 0.0018 0.0002 0.0048 19.0580 -0.0040 -4.6635
# 5 -6.6517 -7.8254 -14.6462 -0.0040 26.0942 0.0011
# 6 0.0007 0.0017 0.0063 -4.6635 0.0011 21.8933
#
#
#
# Elastic Compliance Matrix: (Units=1/GPa)
#
#
# Indices 1 2 3 4 5 6 
#
# 1 0.014504 -0.003827 -0.000828 -0.000001 0.002085 0.000000
# 2 -0.003827 0.011934 -0.003337 0.000001 0.000731 0.000000
# 3 -0.000828 -0.003337 0.015886 -0.000004 0.007705 -0.000005
# 4 -0.000001 0.000001 -0.000004 0.055357 0.000006 0.011791
# 5 0.002085 0.000731 0.007705 0.000006 0.043398 -0.000003
# 6 0.000000 0.000000 -0.000005 0.011791 -0.000003 0.048188
#
#
# Mechanical properties :
#
#
# Convention : Reuss Voigt Hill
#
# Bulk Modulus (GPa) = 37.96464 43.83721 40.90092
# Shear Modulus (GPa) = 23.36110 25.84176 24.60143
#
# Velocity S-wave (km/s) = 3.31578 3.48738 3.40266
# Velocity P-wave (km/s) = 5.70319 6.07015 5.88953
#
# Compressibility (1/GPa) = 0.02634030
#
# Stress axis : x y z
#
# Youngs Moduli (GPa) = 68.94482 83.79386 62.94841
#
# Poissons Ratio (x) = 0.32068 0.05215
# Poissons Ratio (y) = 0.26385 0.21003
# Poissons Ratio (z) = 0.05712 0.27959
#
# Static dielectric constant tensor:
#      x y z
#    x 3.628960 -0.000020 0.093850 
#    y -0.000020 3.812210 0.000040 
#    z 0.093850 0.000040 3.742900 
# 
# 
# High freq. dielectric constant tensor:
#      x y z
#    x 1.816170 0.000000 0.004530 
#    y 0.000000 1.842020 0.000000 
#    z 0.004530 0.000000 1.820890 
# 
# From -- ./inp_files/264125.got.cif
#   From: 2010.06.25/outbox.cif.g09.slc.cpg/sg15_133_cif.got.tgz:264125.got - 2010.06.28 07:06:18.
