data_PCOD8152732
_publ_section_title
;
Structure prediction by ZEFSAII (Michael W. Deem and Ramdas Pophale) SiO2 
 PCOD8152732
Probable space group: C 2/C
;
_chemical_formula_sum "Si O2"
_cell_formula_units_Z 40
_cell_length_a 11.332307
_cell_length_b 10.582531
_cell_length_c 15.687502
_cell_angle_alpha 90.000000
_cell_angle_beta 115.567453
_cell_angle_gamma 90.000000
_cell_volume 1697.093162
_symmetry_space_group_name_H-M "C 2/C"
_symmetry_group_IT_number 15
_symmetry_cell_setting 'monoclinic'
loop_
_space_group_symop_operation_xyz
x,y,z
-x,y,1/2-z
-x,-y,-z
x,-y,1/2+z
1/2+x,1/2+y,z
1/2-x,1/2+y,1/2-z
1/2-x,1/2-y,-z
1/2+x,1/2-y,1/2+z
loop_
_atom_site_type_symbol
_atom_site_label
_atom_site_fract_x
_atom_site_fract_y
_atom_site_fract_z
Si Si1 0.008361 0.009045 0.603668
Si Si2 0.783206 0.812317 0.379891
Si Si3 0.101150 0.264757 0.175871
Si Si4 0.373980 0.096823 0.519495
Si Si5 0.748595 0.855577 0.070146
O O1 0.128746 0.104904 0.657078
O O2 0.882120 0.064402 0.612764
O O3 0.036663 0.872433 0.650595
O O4 0.000000 0.000000 0.500000
O O5 0.648814 0.780452 0.287993
O O6 0.752804 0.887052 0.458276
O O7 0.861114 0.686301 0.432254
O O8 0.225536 0.282172 0.151676
O O9 0.998864 0.372229 0.116376
O O10 0.373462 0.951586 0.487104
O O11 0.750000 0.750000 0.000000
#
# Coordination Sequence:
#
# PCOD8152732 Si02
#       5
#     8   8   8   8   8
#     4  12  22  48  71  95 149 186 230 307 363 424
#     4  11  24  43  71 104 136 189 240 292 359 437
#     4  12  26  43  72 108 138 185 248 293 355 442
#     4  11  22  45  70  98 144 187 229 297 368 423
#     4  12  24  44  74 101 137 192 237 295 374 425
#
# _framework density 23.569713
#
# number of rings (size 3 to 8) (size 9 to 14) (size 15 to 20)
#    0.000    0.400    6.000    2.400    2.800    0.800 
#    0.000    0.000    0.000    0.000    0.000    0.000 
#    0.000    0.000    0.000    0.000    0.000    0.000 
#
# Total GULP energy -248067.345689 kJ/mol
# GULP energy per Si atom -12403.367284 kJ/mol
# Density = 2.351607 g / cm^3
# Si number density = 23.569713 Si / 1000 Ang^3
#
#
#
# Elastic Constant Matrix: (Units=GPa)
#
#
# Indices 1 2 3 4 5 6 
#
# 1 78.1167 26.8989 4.0023 0.0000 -0.5149 0.0000
# 2 26.8989 134.9480 28.5253 0.0000 1.3876 0.0000
# 3 4.0023 28.5253 93.0637 0.0000 15.3628 0.0000
# 4 0.0000 0.0000 0.0000 25.1200 0.0000 4.2049
# 5 -0.5149 1.3876 15.3628 0.0000 41.6366 0.0000
# 6 0.0000 0.0000 0.0000 4.2049 0.0000 51.1838
#
#
#
# Elastic Compliance Matrix: (Units=1/GPa)
#
#
# Indices 1 2 3 4 5 6 
#
# 1 0.013752 -0.002793 0.000236 0.000000 0.000176 0.000000
# 2 -0.002793 0.008509 -0.002593 0.000000 0.000639 0.000000
# 3 0.000236 -0.002593 0.012262 0.000000 -0.004435 0.000000
# 4 0.000000 0.000000 0.000000 0.040364 0.000000 -0.003316
# 5 0.000176 0.000639 -0.004435 0.000000 0.025635 0.000000
# 6 0.000000 0.000000 0.000000 -0.003316 0.000000 0.019810
#
#
# Mechanical properties :
#
#
# Convention : Reuss Voigt Hill
#
# Bulk Modulus (GPa) = 41.28528 47.22015 44.25272
# Shear Modulus (GPa) = 36.04736 40.03489 38.04112
#
# Velocity S-wave (km/s) = 3.91499 4.12585 4.02180
# Velocity P-wave (km/s) = 6.16364 6.54023 6.35472
#
# Compressibility (1/GPa) = 0.02422171
#
# Stress axis : x y z
#
# Youngs Moduli (GPa) = 72.71605 117.52881 81.55120
#
# Poissons Ratio (x) = 0.32823 -0.01921
# Poissons Ratio (y) = 0.20308 0.21149
# Poissons Ratio (z) = -0.01712 0.30479
#
# Static dielectric constant tensor:
#      x y z
#    x 4.314240 0.000000 0.957780 
#    y 0.000000 4.595010 0.000000 
#    z 0.957780 0.000000 1.025580 
# 
# 
# High freq. dielectric constant tensor:
#      x y z
#    x 1.952290 0.000000 -0.004170 
#    y 0.000000 1.935660 0.000000 
#    z -0.004170 0.000000 1.920600 
# 
# From -- ./inp_files/141749.got.cif
#   From: 2010.06.25/outbox.cif.g09.slc.cpg/sg15_71_cif.got.tgz:141749.got - 2010.06.28 07:06:18.
