data_PCOD8152695
_publ_section_title
;
Structure prediction by ZEFSAII (Michael W. Deem and Ramdas Pophale) SiO2 
 PCOD8152695
Probable space group: C 2/C
;
_chemical_formula_sum "Si O2"
_cell_formula_units_Z 44
_cell_length_a 11.590019
_cell_length_b 15.179397
_cell_length_c 11.633472
_cell_angle_alpha 90.000000
_cell_angle_beta 108.364199
_cell_angle_gamma 90.000000
_cell_volume 1942.440218
_symmetry_space_group_name_H-M "C 2/C"
_symmetry_group_IT_number 15
_symmetry_cell_setting 'monoclinic'
loop_
_space_group_symop_operation_xyz
x,y,z
-x,y,1/2-z
-x,-y,-z
x,-y,1/2+z
1/2+x,1/2+y,z
1/2-x,1/2+y,1/2-z
1/2-x,1/2-y,-z
1/2+x,1/2-y,1/2+z
loop_
_atom_site_type_symbol
_atom_site_label
_atom_site_fract_x
_atom_site_fract_y
_atom_site_fract_z
Si Si1 0.437924 0.415479 0.925488
Si Si2 0.098051 0.191521 0.862744
Si Si3 0.846958 0.342950 0.318643
Si Si4 0.681595 0.031650 0.278639
Si Si5 0.500000 0.700791 0.250000
Si Si6 0.970810 0.381896 0.584854
O O1 0.321316 0.439647 0.811938
O O2 0.529267 0.361677 0.869806
O O3 0.500000 0.500000 0.000000
O O4 0.391231 0.353118 0.011288
O O5 0.230870 0.192922 0.850119
O O6 0.045672 0.288561 0.860503
O O7 0.000000 0.141214 0.750000
O O8 0.818176 0.426377 0.231599
O O9 0.950627 0.373446 0.442122
O O10 0.887527 0.263825 0.247888
O O11 0.626209 0.051870 0.386941
O O12 0.605742 0.080471 0.153536
#
# Coordination Sequence:
#
# PCOD8152695 Si02
#       6
#     8   8   8   8   4   8
#     4  12  28  50  72 111 153 198 249 312 381 451
#     4  12  24  47  76 104 145 204 248 302 381 454
#     4  12  25  47  73 111 153 191 248 314 377 443
#     4  11  24  44  74 108 146 195 250 302 366 451
#     4  12  28  46  78 112 146 190 258 310 374 448
#     4  11  22  44  74 104 141 194 250 298 374 438
#
# _framework density 22.65192
#
# number of rings (size 3 to 8) (size 9 to 14) (size 15 to 20)
#    0.000    0.364    5.455    4.364    3.818    0.000 
#    0.000    6.364    0.000    0.000    0.000    0.000 
#    0.000    0.000    0.000    0.000    0.000    0.000 
#
# Total GULP energy -272809.859985 kJ/mol
# GULP energy per Si atom -12400.448181 kJ/mol
# Density = 2.260036 g / cm^3
# Si number density = 22.651920 Si / 1000 Ang^3
#
#
#
# Elastic Constant Matrix: (Units=GPa)
#
#
# Indices 1 2 3 4 5 6 
#
# 1 120.1307 53.2312 61.1537 0.0000 -3.0776 0.0000
# 2 53.2312 160.1985 54.7451 0.0000 -12.8168 0.0000
# 3 61.1537 54.7451 106.3598 0.0000 -2.6593 0.0000
# 4 0.0000 0.0000 0.0000 38.0276 0.0000 1.0616
# 5 -3.0776 -12.8168 -2.6593 0.0000 43.4537 0.0000
# 6 0.0000 0.0000 0.0000 1.0616 0.0000 13.8248
#
#
#
# Elastic Compliance Matrix: (Units=1/GPa)
#
#
# Indices 1 2 3 4 5 6 
#
# 1 0.012288 -0.002033 -0.006021 0.000000 -0.000098 0.000000
# 2 -0.002033 0.008088 -0.002943 0.000000 0.002062 0.000000
# 3 -0.006021 -0.002943 0.014368 0.000000 -0.000415 0.000000
# 4 0.000000 0.000000 0.000000 0.026353 0.000000 -0.002024
# 5 -0.000098 0.002062 -0.000415 0.000000 0.023589 0.000000
# 6 0.000000 0.000000 0.000000 -0.002024 0.000000 0.072489
#
#
# Mechanical properties :
#
#
# Convention : Reuss Voigt Hill
#
# Bulk Modulus (GPa) = 78.42773 80.54988 79.48880
# Shear Modulus (GPa) = 27.25989 33.56515 30.41252
#
# Velocity S-wave (km/s) = 3.47281 3.85356 3.66813
# Velocity P-wave (km/s) = 7.12591 7.44560 7.28751
#
# Compressibility (1/GPa) = 0.01275059
#
# Stress axis : x y z
#
# Youngs Moduli (GPa) = 81.38169 123.63372 69.59826
#
# Poissons Ratio (x) = 0.25138 0.41905
# Poissons Ratio (y) = 0.16547 0.20480
# Poissons Ratio (z) = 0.49000 0.36381
#
# Static dielectric constant tensor:
#      x y z
#    x 3.947070 0.000000 0.059110 
#    y 0.000000 4.424390 0.000000 
#    z 0.059110 0.000000 4.178450 
# 
# 
# High freq. dielectric constant tensor:
#      x y z
#    x 1.880070 0.000000 -0.001310 
#    y 0.000000 1.912570 0.000000 
#    z -0.001310 0.000000 1.895140 
# 
# From -- ./inp_files/86145.got.cif
#   From: 2010.06.25/outbox.cif.g09.slc.cpg/sg15_44_cif.got.tgz:86145.got - 2010.06.28 07:06:18.
