data_PCOD8152770
_publ_section_title
;
Structure prediction by ZEFSAII (Michael W. Deem and Ramdas Pophale) SiO2 
 PCOD8152770
Probable space group: C 2/C
;
_chemical_formula_sum "Si O2"
_cell_formula_units_Z 60
_cell_length_a 18.387532
_cell_length_b 11.315761
_cell_length_c 22.201690
_cell_angle_alpha 90.000000
_cell_angle_beta 142.064361
_cell_angle_gamma 90.000000
_cell_volume 2839.945987
_symmetry_space_group_name_H-M "C 2/C"
_symmetry_group_IT_number 15
_symmetry_cell_setting 'monoclinic'
loop_
_space_group_symop_operation_xyz
x,y,z
-x,y,1/2-z
-x,-y,-z
x,-y,1/2+z
1/2+x,1/2+y,z
1/2-x,1/2+y,1/2-z
1/2-x,1/2-y,-z
1/2+x,1/2-y,1/2+z
loop_
_atom_site_type_symbol
_atom_site_label
_atom_site_fract_x
_atom_site_fract_y
_atom_site_fract_z
Si Si1 0.000000 0.052923 0.250000
Si Si2 0.303695 0.623561 0.584588
Si Si3 0.042437 0.130163 0.042877
Si Si4 0.385941 0.156398 0.428836
Si Si5 0.244153 0.867532 0.581473
Si Si6 0.950601 0.533560 0.059531
Si Si7 0.583719 0.059821 0.752976
Si Si8 0.120200 0.810295 0.727540
O O1 0.981089 0.135084 0.295814
O O2 0.885440 0.970858 0.170342
O O3 0.333615 0.756820 0.627452
O O4 0.320814 0.605259 0.524290
O O5 0.167883 0.609041 0.515180
O O6 0.145525 0.170143 0.065224
O O7 0.092313 0.147977 0.142261
O O8 0.924896 0.207931 0.957312
O O9 0.000000 0.000000 0.000000
O O10 0.451340 0.094264 0.416856
O O11 0.247395 0.139506 0.328636
O O12 0.421459 0.096814 0.515336
O O13 0.310150 0.984265 0.648718
O O14 0.004009 0.526996 0.160962
O O15 0.500000 0.113000 0.750000
O O16 0.628562 0.168348 0.741130
#
# Coordination Sequence:
#
# PCOD8152770 Si02
#       8
#     4   8   8   8   8   8   8   8
#     4  12  26  44  68 102 134 182 230 284 348 406
#     4  11  24  45  71  99 141 179 230 288 343 414
#     4  12  25  47  67 104 144 180 232 289 349 414
#     4  11  24  44  72  97 137 186 229 285 346 416
#     4  11  25  44  69 104 135 180 232 283 348 411
#     4  11  22  46  71  96 137 184 227 285 343 415
#     4  12  24  43  71 102 137 180 233 280 342 416
#     4  12  26  46  69 102 140 182 236 285 348 415
#
# _framework density 21.127162999999999
#
# number of rings (size 3 to 8) (size 9 to 14) (size 15 to 20)
#    0.000    0.533    6.000    2.400    0.933    0.000 
#    9.600    2.667    0.000    0.000    0.000    0.000 
#    0.000    0.000    0.000    0.000    0.000    0.000 
#
# Total GULP energy -372063.423061 kJ/mol
# GULP energy per Si atom -12402.114102 kJ/mol
# Density = 2.107908 g / cm^3
# Si number density = 21.127163 Si / 1000 Ang^3
#
#
#
# Elastic Constant Matrix: (Units=GPa)
#
#
# Indices 1 2 3 4 5 6 
#
# 1 104.4178 18.5249 33.6914 0.0000 -11.3271 0.0000
# 2 18.5249 124.0265 40.5193 0.0000 -10.5586 0.0000
# 3 33.6914 40.5193 93.0207 0.0000 -11.0911 0.0000
# 4 0.0000 0.0000 0.0000 34.3703 0.0000 -0.9627
# 5 -11.3271 -10.5586 -11.0911 0.0000 38.1544 0.0000
# 6 0.0000 0.0000 0.0000 -0.9627 0.0000 29.1337
#
#
#
# Elastic Compliance Matrix: (Units=1/GPa)
#
#
# Indices 1 2 3 4 5 6 
#
# 1 0.011026 -0.000284 -0.003614 0.000000 0.002144 0.000000
# 2 -0.000284 0.009487 -0.003861 0.000000 0.001419 0.000000
# 3 -0.003614 -0.003861 0.013970 0.000000 0.001920 0.000000
# 4 0.000000 0.000000 0.000000 0.029122 0.000000 0.000962
# 5 0.002144 0.001419 0.001920 0.000000 0.027797 0.000000
# 6 0.000000 0.000000 0.000000 0.000962 0.000000 0.034356
#
#
# Mechanical properties :
#
#
# Convention : Reuss Voigt Hill
#
# Bulk Modulus (GPa) = 52.72588 56.32623 54.52606
# Shear Modulus (GPa) = 33.87598 35.58029 34.72814
#
# Velocity S-wave (km/s) = 4.00863 4.10823 4.05874
# Velocity P-wave (km/s) = 6.81441 7.01583 6.91585
#
# Compressibility (1/GPa) = 0.01896602
#
# Stress axis : x y z
#
# Youngs Moduli (GPa) = 90.69444 105.40490 71.58211
#
# Poissons Ratio (x) = 0.02988 0.25873
# Poissons Ratio (y) = 0.02571 0.27636
# Poissons Ratio (z) = 0.32781 0.40694
#
# Static dielectric constant tensor:
#      x y z
#    x 3.942920 0.000000 -0.063920 
#    y 0.000000 3.825960 0.000000 
#    z -0.063920 0.000000 3.703330 
# 
# 
# High freq. dielectric constant tensor:
#      x y z
#    x 1.840770 0.000000 -0.005720 
#    y 0.000000 1.838460 0.000000 
#    z -0.005720 0.000000 1.824110 
# 
# From -- ./inp_files/248786.got.cif
#   From: 2010.06.25/outbox.cif.g09.slc.cpg/sg15_125_cif.got.tgz:248786.got - 2010.06.28 07:06:18.
