data_PCOD8152107
_publ_section_title
;
Structure prediction by ZEFSAII (Michael W. Deem and Ramdas Pophale) SiO2 
 PCOD8152107
Probable space group: C 2/C
;
_chemical_formula_sum "Si O2"
_cell_formula_units_Z 64
_cell_length_a 31.482236
_cell_length_b 22.429204
_cell_length_c 9.522824
_cell_angle_alpha 90.000000
_cell_angle_beta 152.943588
_cell_angle_gamma 90.000000
_cell_volume 3058.652491
_symmetry_space_group_name_H-M "C 2/C"
_symmetry_group_IT_number 15
_symmetry_cell_setting 'monoclinic'
loop_
_space_group_symop_operation_xyz
x,y,z
-x,y,1/2-z
-x,-y,-z
x,-y,1/2+z
1/2+x,1/2+y,z
1/2-x,1/2+y,1/2-z
1/2-x,1/2-y,-z
1/2+x,1/2-y,1/2+z
loop_
_atom_site_type_symbol
_atom_site_label
_atom_site_fract_x
_atom_site_fract_y
_atom_site_fract_z
Si Si1 0.854997 0.107237 0.825361
Si Si2 0.938583 0.057291 0.328597
Si Si3 0.101837 0.270353 0.907714
Si Si4 0.252956 0.496571 0.401811
Si Si5 0.791985 0.426611 0.975676
Si Si6 0.401321 0.365292 0.153730
Si Si7 0.608322 0.194809 0.737265
Si Si8 0.269898 0.279856 0.206086
O O1 0.782036 0.055769 0.571361
O O2 0.894454 0.139469 0.803174
O O3 0.811047 0.155365 0.801740
O O4 0.934021 0.077669 0.153310
O O5 0.999067 0.105570 0.594868
O O6 0.000000 0.000000 0.500000
O O7 0.840337 0.043878 0.111223
O O8 0.099496 0.199378 0.915622
O O9 0.002131 0.297042 0.569205
O O10 0.137457 0.292829 0.163065
O O11 0.173355 0.291291 0.001132
O O12 0.189717 0.454651 0.316053
O O13 0.193872 0.519570 0.094331
O O14 0.684593 0.404460 0.655716
O O15 0.863104 0.373540 0.147444
O O16 0.661731 0.238497 0.000621
O O17 0.250000 0.250000 0.000000
#
# Coordination Sequence:
#
# PCOD8152107 Si02
#       8
#     8   8   8   8   8   8   8   8
#     4  11  22  37  61  95 133 177 216 270 330 401
#     4  12  22  35  59  95 137 177 217 264 335 411
#     4  11  25  46  69 102 135 180 228 277 347 399
#     4  11  23  40  60  95 127 181 218 269 339 393
#     4  11  23  42  65  93 133 172 219 276 328 408
#     4  11  22  39  62  95 140 171 213 274 328 415
#     4  11  26  45  69  99 140 178 228 283 335 406
#     4  12  23  44  71 101 137 180 223 278 346 404
#
# _framework density 20.924247999999999
#
# number of rings (size 3 to 8) (size 9 to 14) (size 15 to 20)
#    0.000    0.750    6.250    2.250    1.750    4.000 
#    0.000    0.000    0.000    6.750    0.000    0.000 
#    0.000    0.000    0.000    0.000    0.000    0.000 
#
# Total GULP energy -396767.645534 kJ/mol
# GULP energy per Si atom -12398.988923 kJ/mol
# Density = 2.087662 g / cm^3
# Si number density = 20.924248 Si / 1000 Ang^3
#
#
#
# Elastic Constant Matrix: (Units=GPa)
#
#
# Indices 1 2 3 4 5 6 
#
# 1 108.6355 45.8094 51.7225 0.0000 -9.5820 0.0000
# 2 45.8094 98.7038 26.5117 0.0000 -0.0171 0.0000
# 3 51.7225 26.5117 87.9881 0.0000 -14.0147 0.0000
# 4 0.0000 0.0000 0.0000 36.3341 0.0000 -0.4524
# 5 -9.5820 -0.0171 -14.0147 0.0000 24.6564 0.0000
# 6 0.0000 0.0000 0.0000 -0.4524 0.0000 45.4478
#
#
#
# Elastic Compliance Matrix: (Units=1/GPa)
#
#
# Indices 1 2 3 4 5 6 
#
# 1 0.014745 -0.004997 -0.006872 0.000000 0.001821 0.000000
# 2 -0.004997 0.012814 -0.001354 0.000000 -0.002703 0.000000
# 3 -0.006872 -0.001354 0.016919 0.000000 0.006945 0.000000
# 4 0.000000 0.000000 0.000000 0.027526 0.000000 0.000274
# 5 0.001821 -0.002703 0.006945 0.000000 0.045211 0.000000
# 6 0.000000 0.000000 0.000000 0.000274 0.000000 0.022006
#
#
# Mechanical properties :
#
#
# Convention : Reuss Voigt Hill
#
# Bulk Modulus (GPa) = 55.45797 60.37940 57.91868
# Shear Modulus (GPa) = 29.12474 32.70658 30.91566
#
# Velocity S-wave (km/s) = 3.73488 3.95789 3.84800
# Velocity P-wave (km/s) = 6.72018 7.05729 6.89080
#
# Compressibility (1/GPa) = 0.01803167
#
# Stress axis : x y z
#
# Youngs Moduli (GPa) = 67.82183 78.04147 59.10589
#
# Poissons Ratio (x) = 0.38998 0.40616
# Poissons Ratio (y) = 0.33891 0.08003
# Poissons Ratio (z) = 0.46605 0.10566
#
# Static dielectric constant tensor:
#      x y z
#    x 3.470000 0.000000 -0.353140 
#    y 0.000000 5.569700 0.000000 
#    z -0.353140 0.000000 3.618950 
# 
# 
# High freq. dielectric constant tensor:
#      x y z
#    x 1.820730 0.000000 -0.022800 
#    y 0.000000 1.828750 0.000000 
#    z -0.022800 0.000000 1.804230 
# 
# From -- ./inp_files/70983.got.cif
#   From: 2010.06.25/outbox.cif.g09.slc.cpg/sg15_36_cif.got.tgz:70983.got - 2010.06.28 07:06:18.
