data_PCOD8152679
_publ_section_title
;
Structure prediction by ZEFSAII (Michael W. Deem and Ramdas Pophale) SiO2 
 PCOD8152679
Probable space group: C 2/C
;
_chemical_formula_sum "Si O2"
_cell_formula_units_Z 48
_cell_length_a 11.971528
_cell_length_b 9.515884
_cell_length_c 20.374568
_cell_angle_alpha 90.000000
_cell_angle_beta 47.643614
_cell_angle_gamma 90.000000
_cell_volume 1715.193049
_symmetry_space_group_name_H-M "C 2/C"
_symmetry_group_IT_number 15
_symmetry_cell_setting 'monoclinic'
loop_
_space_group_symop_operation_xyz
x,y,z
-x,y,1/2-z
-x,-y,-z
x,-y,1/2+z
1/2+x,1/2+y,z
1/2-x,1/2+y,1/2-z
1/2-x,1/2-y,-z
1/2+x,1/2-y,1/2+z
loop_
_atom_site_type_symbol
_atom_site_label
_atom_site_fract_x
_atom_site_fract_y
_atom_site_fract_z
Si Si1 0.438428 0.034877 0.126019
Si Si2 0.833810 0.639295 0.883255
Si Si3 0.651946 0.541727 0.159835
Si Si4 0.934024 0.025141 0.443734
Si Si5 0.850806 0.257046 0.022998
Si Si6 0.764792 0.611987 0.316113
O O1 0.292914 0.979536 0.144425
O O2 0.530340 0.118513 0.033199
O O3 0.376194 0.137275 0.209803
O O4 0.533620 0.904129 0.117215
O O5 0.860796 0.788791 0.839501
O O6 0.833063 0.521390 0.827240
O O7 0.671043 0.647280 0.983937
O O8 0.500000 0.481018 0.250000
O O9 0.661353 0.474808 0.083268
O O10 0.096055 0.080306 0.355550
O O11 0.944055 0.892903 0.490045
O O12 0.750000 0.250000 0.000000
O O13 0.748613 0.249448 0.130355
#
# Coordination Sequence:
#
# PCOD8152679 Si02
#       6
#     8   8   8   8   8   8
#     4  12  24  46  74 107 141 193 249 299 365 449
#     4  11  24  44  75  98 137 195 244 298 373 444
#     4  12  25  46  65 106 148 182 245 300 369 442
#     4  11  23  46  67 100 141 189 233 305 373 431
#     4  11  23  44  70 104 140 180 243 309 359 436
#     4  11  22  44  72 102 139 190 245 294 371 438
#
# _framework density 27.985188000000001
#
# number of rings (size 3 to 8) (size 9 to 14) (size 15 to 20)
#    0.000    0.667    5.000    6.000    0.000    0.667 
#    6.000    0.000    0.000    0.000    0.000    0.000 
#    0.000    0.000    0.000    0.000    0.000    0.000 
#
# Total GULP energy -297500.212927 kJ/mol
# GULP energy per Si atom -12395.842205 kJ/mol
# Density = 2.792149 g / cm^3
# Si number density = 27.985188 Si / 1000 Ang^3
#
#
#
# Elastic Constant Matrix: (Units=GPa)
#
#
# Indices 1 2 3 4 5 6 
#
# 1 152.8513 12.2977 4.5608 0.0000 -21.5500 0.0000
# 2 12.2977 91.2217 29.8394 0.0000 -8.4262 0.0000
# 3 4.5608 29.8394 115.6930 0.0000 -10.3204 0.0000
# 4 0.0000 0.0000 0.0000 24.1966 0.0000 4.6686
# 5 -21.5500 -8.4262 -10.3204 0.0000 48.0431 0.0000
# 6 0.0000 0.0000 0.0000 4.6686 0.0000 34.0751
#
#
#
# Elastic Compliance Matrix: (Units=1/GPa)
#
#
# Indices 1 2 3 4 5 6 
#
# 1 0.007027 -0.000724 0.000183 0.000000 0.003064 0.000000
# 2 -0.000724 0.012149 -0.003001 0.000000 0.001161 0.000000
# 3 0.000183 -0.003001 0.009554 0.000000 0.001608 0.000000
# 4 0.000000 0.000000 0.000000 0.042450 0.000000 -0.005816
# 5 0.003064 0.001161 0.001608 0.000000 0.022738 0.000000
# 6 0.000000 0.000000 0.000000 -0.005816 0.000000 0.030144
#
#
# Mechanical properties :
#
#
# Convention : Reuss Voigt Hill
#
# Bulk Modulus (GPa) = 46.19953 50.35133 48.27543
# Shear Modulus (GPa) = 36.13704 42.13416 39.13560
#
# Velocity S-wave (km/s) = 3.59735 3.88440 3.74363
# Velocity P-wave (km/s) = 5.81369 6.17651 5.99784
#
# Compressibility (1/GPa) = 0.02164524
#
# Stress axis : x y z
#
# Youngs Moduli (GPa) = 142.30529 82.31164 104.66943
#
# Poissons Ratio (x) = 0.05961 -0.01917
# Poissons Ratio (y) = 0.10305 0.31415
# Poissons Ratio (z) = -0.02606 0.24704
#
# Static dielectric constant tensor:
#      x y z
#    x 5.152780 0.000000 0.761490 
#    y 0.000000 6.342020 0.000000 
#    z 0.761490 0.000000 2.366770 
# 
# 
# High freq. dielectric constant tensor:
#      x y z
#    x 2.153720 0.000000 0.002190 
#    y 0.000000 2.114890 0.000000 
#    z 0.002190 0.000000 2.143960 
# 
# From -- ./inp_files/237431.got.cif
#   From: 2010.06.25/outbox.cif.g09.slc.cpg/sg15_119_cif.got.tgz:237431.got - 2010.06.28 07:06:18.
