data_PCOD8152266
_publ_section_title
;
Structure prediction by ZEFSAII (Michael W. Deem and Ramdas Pophale) SiO2 
 PCOD8152266
Probable space group: C 2/C
;
_chemical_formula_sum "Si O2"
_cell_formula_units_Z 48
_cell_length_a 20.074514
_cell_length_b 13.650784
_cell_length_c 19.016052
_cell_angle_alpha 90.000000
_cell_angle_beta 27.103122
_cell_angle_gamma 90.000000
_cell_volume 2374.107762
_symmetry_space_group_name_H-M "C 2/C"
_symmetry_group_IT_number 15
_symmetry_cell_setting 'monoclinic'
loop_
_space_group_symop_operation_xyz
x,y,z
-x,y,1/2-z
-x,-y,-z
x,-y,1/2+z
1/2+x,1/2+y,z
1/2-x,1/2+y,1/2-z
1/2-x,1/2-y,-z
1/2+x,1/2-y,1/2+z
loop_
_atom_site_type_symbol
_atom_site_label
_atom_site_fract_x
_atom_site_fract_y
_atom_site_fract_z
Si Si1 0.145383 0.258461 0.348904
Si Si2 0.386720 0.937758 0.452252
Si Si3 0.106738 0.088041 0.472893
Si Si4 0.786268 0.458512 0.393227
Si Si5 0.720219 0.540369 0.736546
Si Si6 0.638626 0.735093 0.968932
O O1 0.153036 0.200896 0.415766
O O2 0.168834 0.374068 0.340768
O O3 0.258014 0.218996 0.186668
O O4 0.002540 0.215906 0.444967
O O5 0.300958 0.967184 0.462914
O O6 0.556295 0.969256 0.292085
O O7 0.388082 0.819493 0.448947
O O8 0.306635 0.982274 0.595115
O O9 0.932334 0.083001 0.649392
O O10 0.186619 0.051578 0.467894
O O11 0.174554 0.024880 0.345390
O O12 0.700834 0.360810 0.448873
#
# Coordination Sequence:
#
# PCOD8152266 Si02
#       6
#     8   8   8   8   8   8
#     4  12  23  38  65  96 123 159 207 257 308 361
#     4  11  25  41  62  91 129 167 206 247 315 366
#     4  11  22  40  62  92 127 157 210 256 300 369
#     4  11  25  42  60  93 129 166 205 254 302 376
#     4  11  23  40  64  92 123 164 206 257 306 362
#     4  12  21  40  62  94 128 160 200 256 315 364
#
# _framework density 20.218121
#
# number of rings (size 3 to 8) (size 9 to 14) (size 15 to 20)
#    0.000    0.667    6.667    1.500    2.333    2.000 
#    0.000    0.833    0.000    0.000    0.000    0.000 
#    0.000    0.000    0.000    0.000    0.000    0.000 
#
# Total GULP energy -297373.343932 kJ/mol
# GULP energy per Si atom -12390.555997 kJ/mol
# Density = 2.017210 g / cm^3
# Si number density = 20.218121 Si / 1000 Ang^3
#
#
#
# Elastic Constant Matrix: (Units=GPa)
#
#
# Indices 1 2 3 4 5 6 
#
# 1 91.9244 23.3922 12.6218 0.0003 -16.3730 -0.0001
# 2 23.3922 66.1188 9.6529 -0.0007 -4.9511 0.0003
# 3 12.6218 9.6529 50.9295 0.0007 -14.0807 0.0000
# 4 0.0003 -0.0007 0.0007 24.3542 0.0004 -1.9916
# 5 -16.3730 -4.9511 -14.0807 0.0004 31.5665 -0.0002
# 6 -0.0001 0.0003 0.0000 -1.9916 -0.0002 34.7984
#
#
#
# Elastic Compliance Matrix: (Units=1/GPa)
#
#
# Indices 1 2 3 4 5 6 
#
# 1 0.013055 -0.004061 -0.000878 0.000000 0.005743 0.000000
# 2 -0.004061 0.016863 -0.002328 0.000001 -0.000500 0.000000
# 3 -0.000878 -0.002328 0.022890 -0.000001 0.009390 0.000000
# 4 0.000000 0.000001 -0.000001 0.041254 -0.000001 0.002361
# 5 0.005743 -0.000500 0.009390 -0.000001 0.038768 0.000000
# 6 0.000000 0.000000 0.000000 0.002361 0.000000 0.028872
#
#
# Mechanical properties :
#
#
# Convention : Reuss Voigt Hill
#
# Bulk Modulus (GPa) = 26.12659 33.36739 29.74699
# Shear Modulus (GPa) = 26.45587 29.03089 27.74338
#
# Velocity S-wave (km/s) = 3.62127 3.79342 3.70835
# Velocity P-wave (km/s) = 5.51682 5.97714 5.75159
#
# Compressibility (1/GPa) = 0.03827518
#
# Stress axis : x y z
#
# Youngs Moduli (GPa) = 76.59741 59.30022 43.68746
#
# Poissons Ratio (x) = 0.24079 0.03836
# Poissons Ratio (y) = 0.31103 0.10170
# Poissons Ratio (z) = 0.06726 0.13805
#
# Static dielectric constant tensor:
#      x y z
#    x 3.650290 0.000000 -0.141410 
#    y 0.000000 3.629050 0.000000 
#    z -0.141410 0.000000 3.799720 
# 
# 
# High freq. dielectric constant tensor:
#      x y z
#    x 1.781340 0.000000 -0.014060 
#    y 0.000000 1.781660 0.000000 
#    z -0.014060 0.000000 1.804080 
# 
# From -- ./inp_files/55438.got.cif
#   From: 2010.06.25/outbox.cif.g09.slc.cpg/sg15_28_cif.got.tgz:55438.got - 2010.06.28 07:06:18.
