data_PCOD8152907
_publ_section_title
;
Structure prediction by ZEFSAII (Michael W. Deem and Ramdas Pophale) SiO2 
 PCOD8152907
Probable space group: C 2/C
;
_chemical_formula_sum "Si O2"
_cell_formula_units_Z 56
_cell_length_a 26.700467
_cell_length_b 10.853396
_cell_length_c 8.681403
_cell_angle_alpha 90.000000
_cell_angle_beta 73.890636
_cell_angle_gamma 90.000000
_cell_volume 2417.004741
_symmetry_space_group_name_H-M "C 2/C"
_symmetry_group_IT_number 15
_symmetry_cell_setting 'monoclinic'
loop_
_space_group_symop_operation_xyz
x,y,z
-x,y,1/2-z
-x,-y,-z
x,-y,1/2+z
1/2+x,1/2+y,z
1/2-x,1/2+y,1/2-z
1/2-x,1/2-y,-z
1/2+x,1/2-y,1/2+z
loop_
_atom_site_type_symbol
_atom_site_label
_atom_site_fract_x
_atom_site_fract_y
_atom_site_fract_z
Si Si1 0.310314 0.580369 0.731540
Si Si2 0.363829 0.233819 0.964983
Si Si3 0.157282 0.150626 0.460722
Si Si4 0.446267 0.731283 0.867979
Si Si5 0.047900 0.675156 0.813883
Si Si6 0.104524 0.567867 0.302823
Si Si7 0.193205 0.374965 0.236815
O O1 0.351762 0.657424 0.593985
O O2 0.324958 0.437838 0.694316
O O3 0.252567 0.599110 0.720018
O O4 0.311431 0.617659 0.909407
O O5 0.403470 0.260016 0.787813
O O6 0.310263 0.191672 0.927728
O O7 0.394443 0.123504 0.026093
O O8 0.095634 0.126543 0.548795
O O9 0.168797 0.290942 0.395837
O O10 0.500000 0.678553 0.750000
O O11 0.408798 0.822041 0.802353
O O12 0.468489 0.794438 0.000171
O O13 0.059700 0.530454 0.811408
O O14 0.000000 0.707078 0.750000
O O15 0.161409 0.503033 0.240389
#
# Coordination Sequence:
#
# PCOD8152907 Si02
#       7
#     8   8   8   8   8   8   8
#     4  12  28  45  75  97 148 196 242 293 361 415
#     4  11  23  42  68 102 145 185 239 294 353 439
#     4  12  27  50  70 108 141 191 250 298 348 440
#     4  12  25  47  72 106 148 190 237 302 369 429
#     4  11  23  40  69 105 147 181 239 300 375 431
#     4  11  23  41  71 110 146 183 230 300 364 438
#     4  11  26  44  72 106 146 186 240 299 360 431
#
# _framework density 23.169172
#
# number of rings (size 3 to 8) (size 9 to 14) (size 15 to 20)
#    0.000    0.571    4.286    4.714    4.000    1.714 
#    0.000    1.429    0.000    0.000    0.000    0.000 
#    0.000    0.000    0.000    0.000    0.000    0.000 
#
# Total GULP energy -346962.623662 kJ/mol
# GULP energy per Si atom -12391.522274 kJ/mol
# Density = 2.311644 g / cm^3
# Si number density = 23.169172 Si / 1000 Ang^3
#
#
#
# Elastic Constant Matrix: (Units=GPa)
#
#
# Indices 1 2 3 4 5 6 
#
# 1 146.8243 33.8730 32.6553 0.0000 5.5346 0.0000
# 2 33.8730 45.7830 15.4204 0.0000 -6.7363 0.0000
# 3 32.6553 15.4204 94.2688 0.0000 9.5987 0.0000
# 4 0.0000 0.0000 0.0000 24.3584 0.0000 6.1656
# 5 5.5346 -6.7363 9.5987 0.0000 49.9228 0.0000
# 6 0.0000 0.0000 0.0000 6.1656 0.0000 19.2963
#
#
#
# Elastic Compliance Matrix: (Units=1/GPa)
#
#
# Indices 1 2 3 4 5 6 
#
# 1 0.008662 -0.005983 -0.001879 0.000000 -0.001406 0.000000
# 2 -0.005983 0.028027 -0.003024 0.000000 0.005026 0.000000
# 3 -0.001879 -0.003024 0.012009 0.000000 -0.002509 0.000000
# 4 0.000000 0.000000 0.000000 0.044666 0.000000 -0.014272
# 5 -0.001406 0.005026 -0.002509 0.000000 0.021347 0.000000
# 6 0.000000 0.000000 0.000000 -0.014272 0.000000 0.056384
#
#
# Mechanical properties :
#
#
# Convention : Reuss Voigt Hill
#
# Bulk Modulus (GPa) = 37.13792 50.08596 43.61194
# Shear Modulus (GPa) = 24.77198 32.37732 28.57465
#
# Velocity S-wave (km/s) = 3.27338 3.74228 3.51565
# Velocity P-wave (km/s) = 5.50913 6.35116 5.94507
#
# Compressibility (1/GPa) = 0.02692666
#
# Stress axis : x y z
#
# Youngs Moduli (GPa) = 115.44717 35.68034 83.27193
#
# Poissons Ratio (x) = 0.21347 0.15644
# Poissons Ratio (y) = 0.69070 0.25181
# Poissons Ratio (z) = 0.21689 0.10789
#
# Static dielectric constant tensor:
#      x y z
#    x 4.303880 0.000000 0.222620 
#    y 0.000000 3.927190 0.000000 
#    z 0.222620 0.000000 4.374500 
# 
# 
# High freq. dielectric constant tensor:
#      x y z
#    x 1.929210 0.000000 0.018290 
#    y 0.000000 1.883460 0.000000 
#    z 0.018290 0.000000 1.933890 
# 
# From -- ./inp_files/65414.got.cif
#   From: 2010.06.25/outbox.cif.g09.slc.cpg/sg15_33_cif.got.tgz:65414.got - 2010.06.28 07:06:18.
