data_PCOD8152023
_publ_section_title
;
Structure prediction by ZEFSAII (Michael W. Deem and Ramdas Pophale) SiO2 
 PCOD8152023
Probable space group: C 2/C
;
_chemical_formula_sum "Si O2"
_cell_formula_units_Z 60
_cell_length_a 10.681568
_cell_length_b 17.481419
_cell_length_c 14.868924
_cell_angle_alpha 90.000000
_cell_angle_beta 83.210461
_cell_angle_gamma 90.000000
_cell_volume 2756.987800
_symmetry_space_group_name_H-M "C 2/C"
_symmetry_group_IT_number 15
_symmetry_cell_setting 'monoclinic'
loop_
_space_group_symop_operation_xyz
x,y,z
-x,y,1/2-z
-x,-y,-z
x,-y,1/2+z
1/2+x,1/2+y,z
1/2-x,1/2+y,1/2-z
1/2-x,1/2-y,-z
1/2+x,1/2-y,1/2+z
loop_
_atom_site_type_symbol
_atom_site_label
_atom_site_fract_x
_atom_site_fract_y
_atom_site_fract_z
Si Si1 0.453593 0.187918 0.343220
Si Si2 0.681367 0.181961 0.608457
Si Si3 0.545994 0.340732 0.390409
Si Si4 0.000000 0.965525 0.250000
Si Si5 0.979814 0.183654 0.421487
Si Si6 0.687002 0.580686 0.163077
Si Si7 0.433226 0.079064 0.023724
Si Si8 0.202495 0.772406 0.780702
O O1 0.500000 0.141870 0.250000
O O2 0.548888 0.260933 0.336172
O O3 0.470972 0.134328 0.428619
O O4 0.314887 0.226306 0.344960
O O5 0.818528 0.148933 0.573664
O O6 0.644445 0.261382 0.562737
O O7 0.590395 0.117135 0.572632
O O8 0.686582 0.197358 0.717369
O O9 0.506691 0.413442 0.337487
O O10 0.455996 0.330060 0.486242
O O11 0.131955 0.011849 0.229391
O O12 0.935170 0.102247 0.386498
O O13 0.073031 0.225811 0.345952
O O14 0.806937 0.560255 0.091400
O O15 0.726167 0.651198 0.221825
O O16 0.500000 0.000000 0.000000
#
# Coordination Sequence:
#
# PCOD8152023 Si02
#       8
#     8   8   8   4   8   8   8   8
#     4  12  22  45  70 100 135 180 233 282 348 414
#     4  11  21  45  72  97 132 181 238 276 345 429
#     4  12  23  41  73  98 132 183 233 287 348 410
#     4  12  26  42  64 110 140 174 236 290 354 426
#     4  11  22  42  73 102 127 182 231 292 341 410
#     4  11  22  45  66  94 144 180 226 282 349 422
#     4  12  27  46  70 103 145 189 232 290 362 426
#     4  11  23  41  76 101 136 182 230 293 346 413
#
# _framework density 21.762882000000001
#
# number of rings (size 3 to 8) (size 9 to 14) (size 15 to 20)
#    0.000    0.533    7.333    2.400    0.000    3.200 
#    7.200    0.000    0.000    0.000    0.000    0.000 
#    0.000    0.000    0.000    0.000    0.000    0.000 
#
# Total GULP energy -371691.618737 kJ/mol
# GULP energy per Si atom -12389.720625 kJ/mol
# Density = 2.171335 g / cm^3
# Si number density = 21.762882 Si / 1000 Ang^3
#
#
#
# Elastic Constant Matrix: (Units=GPa)
#
#
# Indices 1 2 3 4 5 6 
#
# 1 86.8180 35.7154 49.1540 0.0000 11.5646 0.0000
# 2 35.7154 110.8642 41.0686 0.0000 7.7753 0.0000
# 3 49.1540 41.0686 115.6249 0.0000 8.4583 0.0000
# 4 0.0000 0.0000 0.0000 34.2877 0.0000 -0.1636
# 5 11.5646 7.7753 8.4583 0.0000 38.9617 0.0000
# 6 0.0000 0.0000 0.0000 -0.1636 0.0000 28.7954
#
#
#
# Elastic Compliance Matrix: (Units=1/GPa)
#
#
# Indices 1 2 3 4 5 6 
#
# 1 0.016353 -0.002951 -0.005682 0.000000 -0.003032 0.000000
# 2 -0.002951 0.010984 -0.002592 0.000000 -0.000753 0.000000
# 3 -0.005682 -0.002592 0.012014 0.000000 -0.000404 0.000000
# 4 0.000000 0.000000 0.000000 0.029166 0.000000 0.000166
# 5 -0.003032 -0.000753 -0.000404 0.000000 0.026804 0.000000
# 6 0.000000 0.000000 0.000000 0.000166 0.000000 0.034729
#
#
# Mechanical properties :
#
#
# Convention : Reuss Voigt Hill
#
# Bulk Modulus (GPa) = 59.16507 62.79813 60.98160
# Shear Modulus (GPa) = 31.61898 32.90023 32.25960
#
# Velocity S-wave (km/s) = 3.81581 3.89235 3.85427
# Velocity P-wave (km/s) = 6.83075 7.00848 6.92018
#
# Compressibility (1/GPa) = 0.01690186
#
# Stress axis : x y z
#
# Youngs Moduli (GPa) = 61.15045 91.04524 83.23375
#
# Poissons Ratio (x) = 0.26865 0.47295
# Poissons Ratio (y) = 0.18044 0.21572
# Poissons Ratio (z) = 0.34747 0.23596
#
# Static dielectric constant tensor:
#      x y z
#    x 3.919320 0.000000 0.172420 
#    y 0.000000 3.670350 0.000000 
#    z 0.172420 0.000000 4.173200 
# 
# 
# High freq. dielectric constant tensor:
#      x y z
#    x 1.852680 0.000000 0.008350 
#    y 0.000000 1.825590 0.000000 
#    z 0.008350 0.000000 1.870040 
# 
# From -- ./inp_files/145651.got.cif
#   From: 2010.06.25/outbox.cif.g09.slc.cpg/sg15_73_cif.got.tgz:145651.got - 2010.06.28 07:06:18.
