data_PCOD8152050
_publ_section_title
;
Structure prediction by ZEFSAII (Michael W. Deem and Ramdas Pophale) SiO2 
 PCOD8152050
Probable space group: C 2/C
;
_chemical_formula_sum "Si O2"
_cell_formula_units_Z 64
_cell_length_a 15.631961
_cell_length_b 10.699654
_cell_length_c 16.687227
_cell_angle_alpha 90.000000
_cell_angle_beta 93.579899
_cell_angle_gamma 90.000000
_cell_volume 2785.602234
_symmetry_space_group_name_H-M "C 2/C"
_symmetry_group_IT_number 15
_symmetry_cell_setting 'monoclinic'
loop_
_space_group_symop_operation_xyz
x,y,z
-x,y,1/2-z
-x,-y,-z
x,-y,1/2+z
1/2+x,1/2+y,z
1/2-x,1/2+y,1/2-z
1/2-x,1/2-y,-z
1/2+x,1/2-y,1/2+z
loop_
_atom_site_type_symbol
_atom_site_label
_atom_site_fract_x
_atom_site_fract_y
_atom_site_fract_z
Si Si1 0.199441 0.642129 0.857188
Si Si2 0.137005 0.912214 0.856556
Si Si3 0.963248 0.083957 0.428536
Si Si4 0.428315 0.163828 0.983857
Si Si5 0.295440 0.056238 0.468367
Si Si6 0.063285 0.669694 0.132368
Si Si7 0.872348 0.079479 0.796650
Si Si8 0.518425 0.932032 0.332455
O O1 0.177890 0.783290 0.827955
O O2 0.271382 0.598391 0.799926
O O3 0.120017 0.547744 0.842552
O O4 0.226459 0.632986 0.952139
O O5 0.203825 0.976271 0.922490
O O6 0.047880 0.865581 0.889065
O O7 0.112489 0.015257 0.788170
O O8 0.903121 0.195120 0.459028
O O9 0.900096 0.011361 0.368171
O O10 0.000000 0.000000 0.500000
O O11 0.490669 0.118823 0.916785
O O12 0.346378 0.073623 0.987846
O O13 0.482214 0.175213 0.068060
O O14 0.349472 0.147054 0.412710
O O15 0.074797 0.791566 0.188963
O O16 0.039439 0.555261 0.188735
O O17 0.500000 0.849410 0.250000
#
# Coordination Sequence:
#
# PCOD8152050 Si02
#       8
#     8   8   8   8   8   8   8   8
#     4  12  24  46  74 106 142 193 249 293 357 435
#     4  12  27  45  71 106 147 188 238 301 364 431
#     4  12  25  47  71 100 141 200 238 288 367 441
#     4  11  22  44  73 105 139 184 249 297 353 435
#     4  11  22  44  76 108 135 187 250 305 346 424
#     4  11  21  47  68 102 144 189 234 300 360 430
#     4  12  29  43  70 108 150 189 234 295 372 432
#     4  11  24  38  74 105 139 180 245 305 358 414
#
# _framework density 22.975283000000001
#
# number of rings (size 3 to 8) (size 9 to 14) (size 15 to 20)
#    0.000    0.500    6.250    2.250    5.250    1.000 
#    0.000    5.000    0.000    0.000    0.000    0.000 
#    0.000    0.000    0.000    0.000    0.000    0.000 
#
# Total GULP energy -396628.669384 kJ/mol
# GULP energy per Si atom -12394.645918 kJ/mol
# Density = 2.292299 g / cm^3
# Si number density = 22.975283 Si / 1000 Ang^3
#
#
#
# Elastic Constant Matrix: (Units=GPa)
#
#
# Indices 1 2 3 4 5 6 
#
# 1 48.5069 14.4028 3.6013 0.0000 2.3435 0.0000
# 2 14.4028 120.3033 16.8489 0.0000 9.3260 0.0000
# 3 3.6013 16.8489 94.4397 0.0000 17.1807 0.0000
# 4 0.0000 0.0000 0.0000 38.0511 0.0000 6.6630
# 5 2.3435 9.3260 17.1807 0.0000 34.9007 0.0000
# 6 0.0000 0.0000 0.0000 6.6630 0.0000 30.9081
#
#
#
# Elastic Compliance Matrix: (Units=1/GPa)
#
#
# Indices 1 2 3 4 5 6 
#
# 1 0.021401 -0.002476 -0.000256 0.000000 -0.000649 0.000000
# 2 -0.002476 0.008902 -0.001199 0.000000 -0.001623 0.000000
# 3 -0.000256 -0.001199 0.011809 0.000000 -0.005475 0.000000
# 4 0.000000 0.000000 0.000000 0.027311 0.000000 -0.005888
# 5 -0.000649 -0.001623 -0.005475 0.000000 0.031825 0.000000
# 6 0.000000 0.000000 0.000000 -0.005888 0.000000 0.033623
#
#
# Mechanical properties :
#
#
# Convention : Reuss Voigt Hill
#
# Bulk Modulus (GPa) = 29.19678 36.99511 33.09595
# Shear Modulus (GPa) = 32.43582 35.99843 34.21713
#
# Velocity S-wave (km/s) = 3.76143 3.96262 3.86333
# Velocity P-wave (km/s) = 5.62138 6.08881 5.85976
#
# Compressibility (1/GPa) = 0.03425035
#
# Stress axis : x y z
#
# Youngs Moduli (GPa) = 46.72640 112.32926 84.68472
#
# Poissons Ratio (x) = 0.27812 0.02170
# Poissons Ratio (y) = 0.11569 0.10151
# Poissons Ratio (z) = 0.01197 0.13465
#
# Static dielectric constant tensor:
#      x y z
#    x 4.242610 0.000000 -0.029800 
#    y 0.000000 4.383630 0.000000 
#    z -0.029800 0.000000 4.190170 
# 
# 
# High freq. dielectric constant tensor:
#      x y z
#    x 1.909280 0.000000 0.007570 
#    y 0.000000 1.907120 0.000000 
#    z 0.007570 0.000000 1.911740 
# 
# From -- ./inp_files/204456.got.cif
#   From: 2010.06.25/outbox.cif.g09.slc.cpg/sg15_103_cif.got.tgz:204456.got - 2010.06.28 07:06:18.
