data_PCOD8152931
_publ_section_title
;
Structure prediction by ZEFSAII (Michael W. Deem and Ramdas Pophale) SiO2 
 PCOD8152931
Probable space group: C 2/C
;
_chemical_formula_sum "Si O2"
_cell_formula_units_Z 40
_cell_length_a 32.604078
_cell_length_b 7.250851
_cell_length_c 9.602859
_cell_angle_alpha 90.000000
_cell_angle_beta 126.348686
_cell_angle_gamma 90.000000
_cell_volume 1828.464486
_symmetry_space_group_name_H-M "C 2/C"
_symmetry_group_IT_number 15
_symmetry_cell_setting 'monoclinic'
loop_
_space_group_symop_operation_xyz
x,y,z
-x,y,1/2-z
-x,-y,-z
x,-y,1/2+z
1/2+x,1/2+y,z
1/2-x,1/2+y,1/2-z
1/2-x,1/2-y,-z
1/2+x,1/2-y,1/2+z
loop_
_atom_site_type_symbol
_atom_site_label
_atom_site_fract_x
_atom_site_fract_y
_atom_site_fract_z
Si Si1 0.463909 0.445137 0.304806
Si Si2 0.775340 0.306312 0.908421
Si Si3 0.385634 0.224766 0.582901
Si Si4 0.605135 0.858352 0.720750
Si Si5 0.291719 0.218018 0.970684
O O1 0.500000 0.402285 0.250000
O O2 0.500000 0.500000 0.500000
O O3 0.422755 0.603807 0.186633
O O4 0.441397 0.249038 0.305369
O O5 0.728101 0.315538 0.707522
O O6 0.799117 0.505324 0.956065
O O7 0.750000 0.250000 0.000000
O O8 0.826891 0.192005 0.973884
O O9 0.396210 0.138306 0.450845
O O10 0.394870 0.067698 0.719875
O O11 0.652836 0.726978 0.863454
O O12 0.250000 0.250000 0.000000
#
# Coordination Sequence:
#
# PCOD8152931 Si02
#       5
#     8   8   8   8   8
#     4  12  28  50  75 107 137 185 248 300 359 416
#     4  11  25  39  66 102 140 186 230 281 347 419
#     4  11  27  47  71 106 144 187 239 293 359 426
#     4  11  27  46  72 104 147 186 236 297 357 427
#     4  11  23  41  64 100 139 185 230 275 346 419
#
# _framework density 21.876280000000001
#
# number of rings (size 3 to 8) (size 9 to 14) (size 15 to 20)
#    0.000    0.800    4.000    1.200   16.800    1.600 
#    0.000    0.000    0.000    0.000    0.000    0.000 
#    0.000    0.000    0.000    0.000    0.000    0.000 
#
# Total GULP energy -247790.693698 kJ/mol
# GULP energy per Si atom -12389.534685 kJ/mol
# Density = 2.182649 g / cm^3
# Si number density = 21.876280 Si / 1000 Ang^3
#
#
#
# Elastic Constant Matrix: (Units=GPa)
#
#
# Indices 1 2 3 4 5 6 
#
# 1 138.9673 11.5473 33.0773 0.0000 -14.6942 0.0000
# 2 11.5473 42.1712 1.6076 0.0000 1.0528 0.0000
# 3 33.0773 1.6076 115.9775 0.0000 -17.1932 0.0000
# 4 0.0000 0.0000 0.0000 4912.1453 0.0000-2459.9139
# 5 -14.6942 1.0528 -17.1932 0.0000 49.7154 0.0000
# 6 0.0000 0.0000 0.0000-2459.9139 0.0000 1281.0458
#
#
#
# Elastic Compliance Matrix: (Units=1/GPa)
#
#
# Indices 1 2 3 4 5 6 
#
# 1 0.008036 -0.002167 -0.002006 0.000000 0.001727 0.000000
# 2 -0.002167 0.024330 0.000115 0.000000 -0.001116 0.000000
# 3 -0.002006 0.000115 0.009597 0.000000 0.002724 0.000000
# 4 0.000000 0.000000 0.000000 0.005304 0.000000 0.010186
# 5 0.001727 -0.001116 0.002724 0.000000 0.021591 0.000000
# 6 0.000000 0.000000 0.000000 0.010186 0.000000 0.020340
#
#
# Mechanical properties :
#
#
# Convention : Reuss Voigt Hill
#
# Bulk Modulus (GPa) = 29.54438 43.28670 36.41554
# Shear Modulus (GPa) = 46.04293 1265.30691 655.67492
#
# Velocity S-wave (km/s) = 4.59267 24.07588 17.33119
# Velocity P-wave (km/s) = 6.45431 28.15482 20.42488
#
# Compressibility (1/GPa) = 0.03384739
#
# Stress axis : x y z
#
# Youngs Moduli (GPa) = 124.43865 41.10204 104.20386
#
# Poissons Ratio (x) = 0.08907 0.20901
# Poissons Ratio (y) = 0.26967 -0.01203
# Poissons Ratio (z) = 0.24960 -0.00474
#
# Static dielectric constant tensor:
#      x y z
#    x 4.170390 0.000000 -0.097500 
#    y 0.000000 -21.229790 0.000000 
#    z -0.097500 0.000000 2.646850 
# 
# 
# High freq. dielectric constant tensor:
#      x y z
#    x 1.877160 0.000000 0.002390 
#    y 0.000000 1.853080 0.000000 
#    z 0.002390 0.000000 1.878150 
# 
# From -- ./inp_files/59941.got.cif
#   From: 2010.06.25/outbox.cif.g09.slc.cpg/sg15_30_cif.got.tgz:59941.got - 2010.06.28 07:06:18.
