data_PCOD8152811
_publ_section_title
;
Structure prediction by ZEFSAII (Michael W. Deem and Ramdas Pophale) SiO2 
 PCOD8152811
Probable space group: C 2/C
;
_chemical_formula_sum "Si O2"
_cell_formula_units_Z 32
_cell_length_a 9.629210
_cell_length_b 10.245951
_cell_length_c 20.037153
_cell_angle_alpha 90.000000
_cell_angle_beta 52.565337
_cell_angle_gamma 90.000000
_cell_volume 1569.730761
_symmetry_space_group_name_H-M "C 2/C"
_symmetry_group_IT_number 15
_symmetry_cell_setting 'monoclinic'
loop_
_space_group_symop_operation_xyz
x,y,z
-x,y,1/2-z
-x,-y,-z
x,-y,1/2+z
1/2+x,1/2+y,z
1/2-x,1/2+y,1/2-z
1/2-x,1/2-y,-z
1/2+x,1/2-y,1/2+z
loop_
_atom_site_type_symbol
_atom_site_label
_atom_site_fract_x
_atom_site_fract_y
_atom_site_fract_z
Si Si1 0.743749 0.762399 0.894193
Si Si2 0.658051 0.983267 0.657172
Si Si3 0.442270 0.002867 0.093061
Si Si4 0.964100 0.218377 0.087114
O O1 0.795783 0.633247 0.837917
O O2 0.699250 0.881119 0.855952
O O3 0.901688 0.815496 0.893133
O O4 0.572026 0.726928 0.987052
O O5 0.500000 0.936463 0.750000
O O6 0.606804 0.971268 0.594046
O O7 0.823674 0.894607 0.623326
O O8 0.368774 0.857718 0.130600
O O9 0.500000 0.000000 0.000000
#
# Coordination Sequence:
#
# PCOD8152811 Si02
#       4
#     8   8   8   8
#     4   9  19  37  60  81 107 146 189 231 271 324
#     4  11  23  36  54  85 118 145 180 228 282 333
#     4   9  20  37  57  82 108 142 190 230 267 327
#     4   9  19  37  59  83 109 144 191 230 270 328
#
# _framework density 20.385662
#
# number of rings (size 3 to 8) (size 9 to 14) (size 15 to 20)
#    0.000    2.500    0.000    2.250    0.000   10.000 
#    0.000    1.250    0.000    0.000    0.000    0.000 
#    0.000    0.000    0.000    0.000    0.000    0.000 
#
# Total GULP energy -198307.119015 kJ/mol
# GULP energy per Si atom -12394.194938 kJ/mol
# Density = 2.033926 g / cm^3
# Si number density = 20.385662 Si / 1000 Ang^3
#
#
#
# Elastic Constant Matrix: (Units=GPa)
#
#
# Indices 1 2 3 4 5 6 
#
# 1 104.5544 81.3893 38.9688 0.0000 -16.0038 0.0000
# 2 81.3893 128.6312 23.8642 0.0000 -13.2888 0.0000
# 3 38.9688 23.8642 57.0081 0.0000 -11.8370 0.0000
# 4 0.0000 0.0000 0.0000 11.8784 0.0000 -11.0310
# 5 -16.0038 -13.2888 -11.8370 0.0000 18.2043 0.0000
# 6 0.0000 0.0000 0.0000 -11.0310 0.0000 47.0989
#
#
#
# Elastic Compliance Matrix: (Units=1/GPa)
#
#
# Indices 1 2 3 4 5 6 
#
# 1 0.024105 -0.012849 -0.009996 0.000000 0.005312 0.000000
# 2 -0.012849 0.015603 0.002625 0.000000 0.001801 0.000000
# 3 -0.009996 0.002625 0.025259 0.000000 0.009553 0.000000
# 4 0.000000 0.000000 0.000000 0.107586 0.000000 0.025198
# 5 0.005312 0.001801 0.009553 0.000000 0.067129 0.000000
# 6 0.000000 0.000000 0.000000 0.025198 0.000000 0.027133
#
#
# Mechanical properties :
#
#
# Convention : Reuss Voigt Hill
#
# Bulk Modulus (GPa) = 40.76872 64.29316 52.53094
# Shear Modulus (GPa) = 15.85136 25.16774 20.50955
#
# Velocity S-wave (km/s) = 2.79153 3.51747 3.17531
# Velocity P-wave (km/s) = 5.51655 6.93568 6.26642
#
# Compressibility (1/GPa) = 0.02452861
#
# Stress axis : x y z
#
# Youngs Moduli (GPa) = 41.48492 64.08993 39.59037
#
# Poissons Ratio (x) = 0.82348 0.39574
# Poissons Ratio (y) = 0.53303 -0.10394
# Poissons Ratio (z) = 0.41467 -0.16827
#
# Static dielectric constant tensor:
#      x y z
#    x 3.810730 0.000000 0.008850 
#    y 0.000000 4.314550 0.000000 
#    z 0.008850 0.000000 3.415200 
# 
# 
# High freq. dielectric constant tensor:
#      x y z
#    x 1.795630 0.000000 0.005120 
#    y 0.000000 1.813640 0.000000 
#    z 0.005120 0.000000 1.759400 
# 
# From -- ./inp_files/131732.got.cif
#   From: 2010.06.25/outbox.cif.g09.slc.cpg/sg15_66_cif.got.tgz:131732.got - 2010.06.28 07:06:18.
