data_PCOD8152934
_publ_section_title
;
Structure prediction by ZEFSAII (Michael W. Deem and Ramdas Pophale) SiO2 
 PCOD8152934
Probable space group: C 2/C
;
_chemical_formula_sum "Si O2"
_cell_formula_units_Z 32
_cell_length_a 4.853662
_cell_length_b 25.027773
_cell_length_c 12.201348
_cell_angle_alpha 90.000000
_cell_angle_beta 91.410844
_cell_angle_gamma 90.000000
_cell_volume 1481.725905
_symmetry_space_group_name_H-M "C 2/C"
_symmetry_group_IT_number 15
_symmetry_cell_setting 'monoclinic'
loop_
_space_group_symop_operation_xyz
x,y,z
-x,y,1/2-z
-x,-y,-z
x,-y,1/2+z
1/2+x,1/2+y,z
1/2-x,1/2+y,1/2-z
1/2-x,1/2-y,-z
1/2+x,1/2-y,1/2+z
loop_
_atom_site_type_symbol
_atom_site_label
_atom_site_fract_x
_atom_site_fract_y
_atom_site_fract_z
Si Si1 0.982838 0.562926 0.492226
Si Si2 0.993020 0.210660 0.506047
Si Si3 0.965203 0.108746 0.376205
Si Si4 0.747813 0.367394 0.319992
O O1 0.160649 0.586981 0.395354
O O2 0.094292 0.589169 0.604937
O O3 0.000000 0.500000 0.500000
O O4 0.669544 0.577933 0.461089
O O5 0.750000 0.250000 0.500000
O O6 0.996682 0.171658 0.401130
O O7 0.933538 0.176629 0.615786
O O8 0.250000 0.250000 0.500000
O O9 0.000000 0.096760 0.250000
O O10 0.500000 0.396339 0.250000
O O11 0.000000 0.342005 0.250000
#
# Coordination Sequence:
#
# PCOD8152934 Si02
#       4
#     8   8   8   8
#     4  11  24  43  65  93 128 164 207 259 312 372
#     4  11  23  41  64  92 127 166 210 259 312 372
#     4  11  24  43  64  93 127 164 209 259 309 372
#     4  11  23  41  64  94 129 166 210 261 311 372
#
# _framework density 21.596436000000001
#
# number of rings (size 3 to 8) (size 9 to 14) (size 15 to 20)
#    0.000    1.000    0.000    9.000    0.000    6.000 
#    0.000    0.000    0.000    0.000    0.000    0.000 
#    0.000    0.000    0.000    0.000    0.000    0.000 
#
# Total GULP energy -198226.518853 kJ/mol
# GULP energy per Si atom -12389.157428 kJ/mol
# Density = 2.154728 g / cm^3
# Si number density = 21.596436 Si / 1000 Ang^3
#
#
#
# Elastic Constant Matrix: (Units=GPa)
#
#
# Indices 1 2 3 4 5 6 
#
# 1 107.0992 30.6389 18.3537 0.0000 4.1820 0.0000
# 2 30.6389 148.6833 22.9695 0.0000 4.6146 0.0000
# 3 18.3537 22.9695 106.0337 0.0000 3.3495 0.0000
# 4 0.0000 0.0000 0.0000 8.2286 0.0000 4.1261
# 5 4.1820 4.6146 3.3495 0.0000 46.2015 0.0000
# 6 0.0000 0.0000 0.0000 4.1261 0.0000 37.3037
#
#
#
# Elastic Compliance Matrix: (Units=1/GPa)
#
#
# Indices 1 2 3 4 5 6 
#
# 1 0.010122 -0.001861 -0.001329 0.000000 -0.000634 0.000000
# 2 -0.001861 0.007317 -0.001248 0.000000 -0.000472 0.000000
# 3 -0.001329 -0.001248 0.009946 0.000000 -0.000476 0.000000
# 4 0.000000 0.000000 0.000000 0.128663 0.000000 -0.014231
# 5 -0.000634 -0.000472 -0.000476 0.000000 0.021783 0.000000
# 6 0.000000 0.000000 0.000000 -0.014231 0.000000 0.028381
#
#
# Mechanical properties :
#
#
# Convention : Reuss Voigt Hill
#
# Bulk Modulus (GPa) = 54.02621 56.19339 55.10980
# Shear Modulus (GPa) = 22.59811 37.67036 30.13423
#
# Velocity S-wave (km/s) = 3.23829 4.18100 3.73947
# Velocity P-wave (km/s) = 6.24921 7.02737 6.64968
#
# Compressibility (1/GPa) = 0.01850953
#
# Stress axis : x y z
#
# Youngs Moduli (GPa) = 98.79491 136.67544 100.53918
#
# Poissons Ratio (x) = 0.25433 0.13361
# Poissons Ratio (y) = 0.18384 0.12547
# Poissons Ratio (z) = 0.13129 0.17056
#
# Static dielectric constant tensor:
#      x y z
#    x 4.293910 0.000000 -0.034400 
#    y 0.000000 3.828620 0.000000 
#    z -0.034400 0.000000 4.124290 
# 
# 
# High freq. dielectric constant tensor:
#      x y z
#    x 1.881820 0.000000 -0.002180 
#    y 0.000000 1.839790 0.000000 
#    z -0.002180 0.000000 1.850700 
# 
# From -- ./inp_files/72755.got.cif
#   From: 2010.06.25/outbox.cif.g09.slc.cpg/sg15_37_cif.got.tgz:72755.got - 2010.06.28 07:06:18.
