data_PCOD8152878
_publ_section_title
;
Structure prediction by ZEFSAII (Michael W. Deem and Ramdas Pophale) SiO2 
 PCOD8152878
Probable space group: C 2/C
;
_chemical_formula_sum "Si O2"
_cell_formula_units_Z 40
_cell_length_a 13.570534
_cell_length_b 10.039026
_cell_length_c 15.630652
_cell_angle_alpha 90.000000
_cell_angle_beta 64.542292
_cell_angle_gamma 90.000000
_cell_volume 1922.678265
_symmetry_space_group_name_H-M "C 2/C"
_symmetry_group_IT_number 15
_symmetry_cell_setting 'monoclinic'
loop_
_space_group_symop_operation_xyz
x,y,z
-x,y,1/2-z
-x,-y,-z
x,-y,1/2+z
1/2+x,1/2+y,z
1/2-x,1/2+y,1/2-z
1/2-x,1/2-y,-z
1/2+x,1/2-y,1/2+z
loop_
_atom_site_type_symbol
_atom_site_label
_atom_site_fract_x
_atom_site_fract_y
_atom_site_fract_z
Si Si1 0.413572 0.220401 0.710334
Si Si2 0.097158 0.963123 0.902385
Si Si3 0.984302 0.453210 0.601716
Si Si4 0.331790 0.279012 0.210611
Si Si5 0.297119 0.161681 0.406510
O O1 0.500000 0.259062 0.750000
O O2 0.435725 0.321837 0.625118
O O3 0.288064 0.234559 0.787240
O O4 0.427580 0.069150 0.676119
O O5 0.208032 0.948497 0.914933
O O6 0.116780 0.075040 0.822768
O O7 0.000000 0.000000 0.000000
O O8 0.098737 0.419861 0.602143
O O9 0.000000 0.500000 0.500000
O O10 0.906370 0.325982 0.633062
O O11 0.327966 0.254628 0.314037
O O12 0.250000 0.250000 0.500000
#
# Coordination Sequence:
#
# PCOD8152878 Si02
#       5
#     8   8   8   8   8
#     4  11  23  40  62  91 123 163 208 260 318 375
#     4  11  24  41  63  95 128 163 213 265 316 378
#     4  12  24  42  66  93 127 171 215 260 318 386
#     4  11  23  43  64  90 127 169 210 261 317 381
#     4  11  24  42  67  95 129 172 216 260 321 386
#
# _framework density 20.804311999999999
#
# number of rings (size 3 to 8) (size 9 to 14) (size 15 to 20)
#    0.000    0.800    0.000   10.200    0.000    4.800 
#    0.000    4.000    0.000    0.000    0.000    0.000 
#    0.000    0.000    0.000    0.000    0.000    0.000 
#
# Total GULP energy -248098.743150 kJ/mol
# GULP energy per Si atom -12404.937157 kJ/mol
# Density = 2.075696 g / cm^3
# Si number density = 20.804312 Si / 1000 Ang^3
#
#
#
# Elastic Constant Matrix: (Units=GPa)
#
#
# Indices 1 2 3 4 5 6 
#
# 1 162.9039 47.0471 43.3624 0.0000 6.3910 0.0000
# 2 47.0471 121.0987 33.4664 0.0000 -3.3978 0.0000
# 3 43.3624 33.4664 110.3319 0.0000 -2.5053 0.0000
# 4 0.0000 0.0000 0.0000 48.6024 0.0000 -7.6411
# 5 6.3910 -3.3978 -2.5053 0.0000 30.8777 0.0000
# 6 0.0000 0.0000 0.0000 -7.6411 0.0000 39.0185
#
#
#
# Elastic Compliance Matrix: (Units=1/GPa)
#
#
# Indices 1 2 3 4 5 6 
#
# 1 0.007500 -0.002339 -0.002284 0.000000 -0.001995 0.000000
# 2 -0.002339 0.009761 -0.002010 0.000000 0.001395 0.000000
# 3 -0.002284 -0.002010 0.010596 0.000000 0.001111 0.000000
# 4 0.000000 0.000000 0.000000 0.021229 0.000000 0.004157
# 5 -0.001995 0.001395 0.001111 0.000000 0.033042 0.000000
# 6 0.000000 0.000000 0.000000 0.004157 0.000000 0.026443
#
#
# Mechanical properties :
#
#
# Convention : Reuss Voigt Hill
#
# Bulk Modulus (GPa) = 68.52797 71.34294 69.93546
# Shear Modulus (GPa) = 39.46337 41.73028 40.59683
#
# Velocity S-wave (km/s) = 4.36005 4.48353 4.42222
# Velocity P-wave (km/s) = 7.63921 7.82110 7.73069
#
# Compressibility (1/GPa) = 0.01459258
#
# Stress axis : x y z
#
# Youngs Moduli (GPa) = 133.33088 102.44949 94.37576
#
# Poissons Ratio (x) = 0.23960 0.21552
# Poissons Ratio (y) = 0.31182 0.18969
# Poissons Ratio (z) = 0.30447 0.20591
#
# Static dielectric constant tensor:
#      x y z
#    x 3.928770 0.000000 -0.094690 
#    y 0.000000 3.058380 0.000000 
#    z -0.094690 0.000000 3.803270 
# 
# 
# High freq. dielectric constant tensor:
#      x y z
#    x 1.832260 0.000000 -0.010220 
#    y 0.000000 1.828320 0.000000 
#    z -0.010220 0.000000 1.816880 
# 
# From -- ./inp_files/150574.got.cif
#   From: 2010.06.25/outbox.cif.g09.slc.cpg/sg15_76_cif.got.tgz:150574.got - 2010.06.28 07:06:18.
