data_PCOD8152175
_publ_section_title
;
Structure prediction by ZEFSAII (Michael W. Deem and Ramdas Pophale) SiO2 
 PCOD8152175
Probable space group: C 2/C
;
_chemical_formula_sum "Si O2"
_cell_formula_units_Z 48
_cell_length_a 16.221151
_cell_length_b 17.610064
_cell_length_c 18.479133
_cell_angle_alpha 90.000000
_cell_angle_beta 155.422296
_cell_angle_gamma 90.000000
_cell_volume 2195.539453
_symmetry_space_group_name_H-M "C 2/C"
_symmetry_group_IT_number 15
_symmetry_cell_setting 'monoclinic'
loop_
_space_group_symop_operation_xyz
x,y,z
-x,y,1/2-z
-x,-y,-z
x,-y,1/2+z
1/2+x,1/2+y,z
1/2-x,1/2+y,1/2-z
1/2-x,1/2-y,-z
1/2+x,1/2-y,1/2+z
loop_
_atom_site_type_symbol
_atom_site_label
_atom_site_fract_x
_atom_site_fract_y
_atom_site_fract_z
Si Si1 0.654848 0.175100 0.053269
Si Si2 0.531580 0.658468 0.441782
Si Si3 0.886741 0.422124 0.429027
Si Si4 0.974892 0.573975 0.303894
Si Si5 0.318022 0.086238 0.565381
Si Si6 0.017934 0.069647 0.962638
O O1 0.804406 0.164551 0.238251
O O2 0.639105 0.261581 0.015133
O O3 0.447775 0.140605 0.917796
O O4 0.741287 0.129066 0.054615
O O5 0.635699 0.591588 0.476943
O O6 0.528123 0.642998 0.524727
O O7 0.946551 0.392468 0.557489
O O8 0.648335 0.433141 0.233878
O O9 0.000000 0.500000 0.500000
O O10 0.104966 0.497735 0.394020
O O11 0.000000 0.624978 0.250000
O O12 0.739846 0.563541 0.112012
O O13 0.500000 0.129752 0.750000
O O14 0.000000 0.000000 0.000000
#
# Coordination Sequence:
#
# PCOD8152175 Si02
#       6
#     8   8   8   8   8   8
#     4  12  23  42  64  97 137 181 219 268 336 404
#     4  12  25  40  65  98 135 180 218 273 336 406
#     4  12  22  41  67  96 130 175 226 271 327 395
#     4  11  24  42  65  95 131 172 224 280 326 382
#     4  11  22  39  58  93 138 175 218 264 327 404
#     4  12  22  41  65  94 129 174 225 276 329 391
#
# _framework density 21.862508999999999
#
# number of rings (size 3 to 8) (size 9 to 14) (size 15 to 20)
#    0.000    0.333    5.000    6.000    0.000    0.667 
#    6.000    0.000    0.000    1.000    0.000    0.000 
#    0.000    0.000    0.000    0.000    0.000    0.000 
#
# Total GULP energy -297332.965393 kJ/mol
# GULP energy per Si atom -12388.873558 kJ/mol
# Density = 2.181275 g / cm^3
# Si number density = 21.862509 Si / 1000 Ang^3
#
#
#
# Elastic Constant Matrix: (Units=GPa)
#
#
# Indices 1 2 3 4 5 6 
#
# 1 113.0769 6.4440 20.6377 0.0097 -4.7227 0.0005
# 2 6.4440 44.3748 0.7789 -0.0087 8.2537 0.0060
# 3 20.6377 0.7789 142.5533 0.0152 -5.7024 0.0226
# 4 0.0097 -0.0087 0.0152 22.8066 0.0050 -1.8530
# 5 -4.7227 8.2537 -5.7024 0.0050 47.4794 0.0104
# 6 0.0005 0.0060 0.0226 -1.8530 0.0104 18.8667
#
#
#
# Elastic Compliance Matrix: (Units=1/GPa)
#
#
# Indices 1 2 3 4 5 6 
#
# 1 0.009206 -0.001505 -0.001284 -0.000004 0.001023 0.000001
# 2 -0.001505 0.023546 -0.000081 0.000010 -0.004253 -0.000004
# 3 -0.001284 -0.000081 0.007231 -0.000005 0.000755 -0.000010
# 4 -0.000004 0.000010 -0.000005 0.044200 -0.000008 0.004341
# 5 0.001023 -0.004253 0.000755 -0.000008 0.021993 -0.000013
# 6 0.000001 -0.000004 -0.000010 0.004341 -0.000013 0.053430
#
#
# Mechanical properties :
#
#
# Convention : Reuss Voigt Hill
#
# Bulk Modulus (GPa) = 29.20102 39.52513 34.36308
# Shear Modulus (GPa) = 28.28684 35.97348 32.13016
#
# Velocity S-wave (km/s) = 3.60092 4.06081 3.83776
# Velocity P-wave (km/s) = 5.53845 6.33286 5.94893
#
# Compressibility (1/GPa) = 0.03424538
#
# Stress axis : x y z
#
# Youngs Moduli (GPa) = 108.62125 42.46963 138.28579
#
# Poissons Ratio (x) = 0.06390 0.17751
# Poissons Ratio (y) = 0.16344 0.01119
# Poissons Ratio (z) = 0.13943 0.00344
#
# Static dielectric constant tensor:
#      x y z
#    x 4.105720 -0.000080 -0.186410 
#    y -0.000080 3.983250 -0.000070 
#    z -0.186410 -0.000070 4.081430 
# 
# 
# High freq. dielectric constant tensor:
#      x y z
#    x 1.867150 0.000000 -0.006900 
#    y 0.000000 1.814980 -0.000010 
#    z -0.006900 -0.000010 1.878710 
# 
# From -- ./inp_files/249764.got.cif
#   From: 2010.06.25/outbox.cif.g09.slc.cpg/sg15_125_cif.got.tgz:249764.got - 2010.06.28 07:06:18.
