data_PCOD8152355
_publ_section_title
;
Structure prediction by ZEFSAII (Michael W. Deem and Ramdas Pophale) SiO2 
 PCOD8152355
Probable space group: C 2/C
;
_chemical_formula_sum "Si O2"
_cell_formula_units_Z 48
_cell_length_a 9.820237
_cell_length_b 16.755229
_cell_length_c 16.266470
_cell_angle_alpha 90.000000
_cell_angle_beta 55.529656
_cell_angle_gamma 90.000000
_cell_volume 2206.550015
_symmetry_space_group_name_H-M "C 2/C"
_symmetry_group_IT_number 15
_symmetry_cell_setting 'monoclinic'
loop_
_space_group_symop_operation_xyz
x,y,z
-x,y,1/2-z
-x,-y,-z
x,-y,1/2+z
1/2+x,1/2+y,z
1/2-x,1/2+y,1/2-z
1/2-x,1/2-y,-z
1/2+x,1/2-y,1/2+z
loop_
_atom_site_type_symbol
_atom_site_label
_atom_site_fract_x
_atom_site_fract_y
_atom_site_fract_z
Si Si1 0.500000 0.968800 0.250000
Si Si2 0.297223 0.162378 0.733984
Si Si3 0.068248 0.323609 0.480127
Si Si4 0.215193 0.546295 0.042279
Si Si5 0.020233 0.845449 0.448721
Si Si6 0.000000 0.798111 0.750000
Si Si7 0.720813 0.377166 0.540365
O O1 0.631699 0.023113 0.157176
O O2 0.588214 0.913691 0.286981
O O3 0.290289 0.171039 0.637928
O O4 0.113556 0.146657 0.829899
O O5 0.365497 0.243957 0.750273
O O6 0.095044 0.391306 0.538628
O O7 0.080561 0.237051 0.517472
O O8 0.889910 0.330209 0.498229
O O9 0.392761 0.582739 0.003230
O O10 0.243609 0.471532 0.972239
O O11 0.158055 0.849375 0.472617
O O12 0.087907 0.856307 0.655153
#
# Coordination Sequence:
#
# PCOD8152355 Si02
#       7
#     4   8   8   8   8   4   8
#     4  11  24  42  72  97 144 184 222 287 364 394
#     4  11  22  41  74 102 134 186 232 284 342 398
#     4  12  25  46  71 102 140 183 232 281 340 418
#     4  12  28  45  67 108 147 177 218 296 360 401
#     4  12  25  46  71 102 140 183 232 281 340 418
#     4  11  22  40  74 109 130 178 248 281 322 406
#     4  12  23  43  72 103 131 179 240 280 324 406
#
# _framework density 21.753418
#
# number of rings (size 3 to 8) (size 9 to 14) (size 15 to 20)
#    0.000    0.333    6.667    3.000    0.000    4.667 
#    0.000    0.000    0.000    0.000    0.000    0.000 
#    0.000    0.000    0.000    0.000    0.000    0.000 
#
# Total GULP energy -297791.202600 kJ/mol
# GULP energy per Si atom -12407.966775 kJ/mol
# Density = 2.170391 g / cm^3
# Si number density = 21.753418 Si / 1000 Ang^3
#
#
#
# Elastic Constant Matrix: (Units=GPa)
#
#
# Indices 1 2 3 4 5 6 
#
# 1 39.6596 -2.5986 9.0483 0.0000 -9.6660 0.0000
# 2 -2.5986 106.2412 38.5455 0.0000 -6.2831 0.0000
# 3 9.0483 38.5455 163.6947 0.0000 -9.0998 0.0000
# 4 0.0000 0.0000 0.0000 44.1816 0.0000 -2.3521
# 5 -9.6660 -6.2831 -9.0998 0.0000 27.1008 0.0000
# 6 0.0000 0.0000 0.0000 -2.3521 0.0000 21.2025
#
#
#
# Elastic Compliance Matrix: (Units=1/GPa)
#
#
# Indices 1 2 3 4 5 6 
#
# 1 0.028082 0.001791 -0.001421 0.000000 0.009954 0.000000
# 2 0.001791 0.010475 -0.002441 0.000000 0.002248 0.000000
# 3 -0.001421 -0.002441 0.006830 0.000000 0.001221 0.000000
# 4 0.000000 0.000000 0.000000 0.022768 0.000000 0.002526
# 5 0.009954 0.002248 0.001221 0.000000 0.041381 0.000000
# 6 0.000000 0.000000 0.000000 0.002526 0.000000 0.047444
#
#
# Mechanical properties :
#
#
# Convention : Reuss Voigt Hill
#
# Bulk Modulus (GPa) = 24.24448 44.39844 34.32146
# Shear Modulus (GPa) = 28.59272 36.13699 32.36486
#
# Velocity S-wave (km/s) = 3.62940 4.08022 3.86139
# Velocity P-wave (km/s) = 5.36029 6.53083 5.97430
#
# Compressibility (1/GPa) = 0.04124650
#
# Stress axis : x y z
#
# Youngs Moduli (GPa) = 35.60984 95.46769 146.41276
#
# Poissons Ratio (x) = -0.17098 0.20800
# Poissons Ratio (y) = -0.06378 0.35733
# Poissons Ratio (z) = 0.05059 0.23299
#
# Static dielectric constant tensor:
#      x y z
#    x 3.647970 0.000000 0.004270 
#    y 0.000000 4.070400 0.000000 
#    z 0.004270 0.000000 4.067810 
# 
# 
# High freq. dielectric constant tensor:
#      x y z
#    x 1.835750 0.000000 -0.002770 
#    y 0.000000 1.866680 0.000000 
#    z -0.002770 0.000000 1.869660 
# 
# From -- ./inp_files/238993.got.cif
#   From: 2010.06.25/outbox.cif.g09.slc.cpg/sg15_120_cif.got.tgz:238993.got - 2010.06.28 07:06:18.
