data_PCOD8152534
_publ_section_title
;
Structure prediction by ZEFSAII (Michael W. Deem and Ramdas Pophale) SiO2 
 PCOD8152534
Probable space group: C 2/C
;
_chemical_formula_sum "Si O2"
_cell_formula_units_Z 40
_cell_length_a 28.791257
_cell_length_b 7.321333
_cell_length_c 18.007818
_cell_angle_alpha 90.000000
_cell_angle_beta 26.569139
_cell_angle_gamma 90.000000
_cell_volume 1697.809042
_symmetry_space_group_name_H-M "C 2/C"
_symmetry_group_IT_number 15
_symmetry_cell_setting 'monoclinic'
loop_
_space_group_symop_operation_xyz
x,y,z
-x,y,1/2-z
-x,-y,-z
x,-y,1/2+z
1/2+x,1/2+y,z
1/2-x,1/2+y,1/2-z
1/2-x,1/2-y,-z
1/2+x,1/2-y,1/2+z
loop_
_atom_site_type_symbol
_atom_site_label
_atom_site_fract_x
_atom_site_fract_y
_atom_site_fract_z
Si Si1 0.834143 0.705085 0.169620
Si Si2 0.595059 0.758297 0.773026
Si Si3 0.990292 0.592833 0.677132
Si Si4 0.337703 0.635895 0.333812
Si Si5 0.134334 0.118421 0.374607
O O1 0.849673 0.652563 0.233794
O O2 0.712200 0.700370 0.324588
O O3 0.878169 0.905435 0.093024
O O4 0.898460 0.566125 0.023673
O O5 0.658923 0.582247 0.650781
O O6 0.586282 0.918533 0.724569
O O7 0.479023 0.702245 0.960200
O O8 0.945574 0.776008 0.704447
O O9 0.000000 0.624213 0.750000
O O10 0.250000 0.750000 0.500000
O O11 0.318087 0.657229 0.274420
#
# Coordination Sequence:
#
# PCOD8152534 Si02
#       5
#     8   8   8   8   8
#     4  11  22  42  72 101 138 184 244 297 350 427
#     4  11  24  47  71 100 144 184 243 296 347 435
#     4  12  25  43  67 102 143 186 235 294 361 418
#     4  11  24  45  67  99 144 183 231 299 358 419
#     4  11  22  42  72 105 132 188 242 288 362 426
#
# _framework density 23.559774999999998
#
# number of rings (size 3 to 8) (size 9 to 14) (size 15 to 20)
#    0.000    0.800    4.000    4.200    2.800    3.200 
#    3.600    0.000    0.000    0.000    0.000    0.000 
#    0.000    0.000    0.000    0.000    0.000    0.000 
#
# Total GULP energy -248005.123701 kJ/mol
# GULP energy per Si atom -12400.256185 kJ/mol
# Density = 2.350615 g / cm^3
# Si number density = 23.559775 Si / 1000 Ang^3
#
#
#
# Elastic Constant Matrix: (Units=GPa)
#
#
# Indices 1 2 3 4 5 6 
#
# 1 144.6458 50.4428 33.5846 0.0159 -24.2519 -0.0066
# 2 50.4428 102.2540 11.2446 0.0178 13.2584 -0.0095
# 3 33.5846 11.2446 71.4326 0.0350 2.3090 -0.0215
# 4 0.0159 0.0178 0.0350 36.4126 -0.0011 -19.7079
# 5 -24.2519 13.2584 2.3090 -0.0011 25.1239 -0.0003
# 6 -0.0066 -0.0095 -0.0215 -19.7079 -0.0003 -3.8272
#
#
#
# Elastic Compliance Matrix: (Units=1/GPa)
#
#
# Indices 1 2 3 4 5 6 
#
# 1 0.014896 -0.009238 -0.006190 0.000006 0.019822 0.000002
# 2 -0.009238 0.016385 0.002339 -0.000007 -0.017779 0.000000
# 3 -0.006190 0.002339 0.016824 -0.000017 -0.008755 -0.000003
# 4 0.000006 -0.000007 -0.000017 0.007252 0.000011 -0.037343
# 5 0.019822 -0.017779 -0.008755 0.000011 0.069124 0.000000
# 6 0.000002 0.000000 -0.000003 -0.037343 0.000000 -0.068994
#
#
# Mechanical properties :
#
#
# Convention : Reuss Voigt Hill
#
# Bulk Modulus (GPa) = 45.60640 56.54182 51.07411
# Shear Modulus (GPa) = 56.19706 26.41256 41.30481
#
# Velocity S-wave (km/s) = 4.88925 3.35190 4.19166
# Velocity P-wave (km/s) = 7.16050 6.24753 6.71954
#
# Compressibility (1/GPa) = 0.02192674
#
# Stress axis : x y z
#
# Youngs Moduli (GPa) = 67.13369 61.03285 59.43774
#
# Poissons Ratio (x) = 0.56380 0.36791
# Poissons Ratio (y) = 0.62016 -0.13901
# Poissons Ratio (z) = 0.41555 -0.14274
#
# Static dielectric constant tensor:
#      x y z
#    x 4.477860 0.000000 -0.367500 
#    y 0.000000 4.566550 0.000010 
#    z -0.367500 0.000010 4.142860 
# 
# 
# High freq. dielectric constant tensor:
#      x y z
#    x 1.934610 0.000000 -0.020290 
#    y 0.000000 1.944500 0.000000 
#    z -0.020290 0.000000 1.923200 
# 
# From -- ./inp_files/221793.got.cif
#   From: 2010.06.25/outbox.cif.g09.slc.cpg/sg15_111_cif.got.tgz:221793.got - 2010.06.28 07:06:18.
