data_PCOD8152143
_publ_section_title
;
Structure prediction by ZEFSAII (Michael W. Deem and Ramdas Pophale) SiO2 
 PCOD8152143
Probable space group: C 2/C
;
_chemical_formula_sum "Si O2"
_cell_formula_units_Z 44
_cell_length_a 11.428537
_cell_length_b 20.276023
_cell_length_c 9.790034
_cell_angle_alpha 90.000000
_cell_angle_beta 107.351190
_cell_angle_gamma 90.000000
_cell_volume 2165.365188
_symmetry_space_group_name_H-M "C 2/C"
_symmetry_group_IT_number 15
_symmetry_cell_setting 'monoclinic'
loop_
_space_group_symop_operation_xyz
x,y,z
-x,y,1/2-z
-x,-y,-z
x,-y,1/2+z
1/2+x,1/2+y,z
1/2-x,1/2+y,1/2-z
1/2-x,1/2-y,-z
1/2+x,1/2-y,1/2+z
loop_
_atom_site_type_symbol
_atom_site_label
_atom_site_fract_x
_atom_site_fract_y
_atom_site_fract_z
Si Si1 0.000000 0.065138 0.750000
Si Si2 0.647212 0.654076 0.981371
Si Si3 0.575249 0.201574 0.412782
Si Si4 0.016063 0.402044 0.097089
Si Si5 0.699240 0.003805 0.056765
Si Si6 0.860536 0.965830 0.858428
O O1 0.882350 0.109686 0.665442
O O2 0.970175 0.019822 0.874542
O O3 0.570145 0.720783 0.941908
O O4 0.788457 0.672188 0.052566
O O5 0.598127 0.609306 0.091312
O O6 0.500000 0.184929 0.250000
O O7 0.510207 0.167902 0.518776
O O8 0.000000 0.388110 0.250000
O O9 0.144103 0.438135 0.107854
O O10 0.906255 0.444166 0.000643
O O11 0.800457 0.036259 0.187982
O O12 0.758980 0.986566 0.933006
#
# Coordination Sequence:
#
# PCOD8152143 Si02
#       6
#     4   8   8   8   8   8
#     4  12  24  42  68  96 136 170 218 274 324 386
#     4  11  24  42  67  94 127 178 219 261 330 392
#     4  11  23  44  69  90 131 176 223 262 321 402
#     4  11  22  38  62 100 133 169 212 278 330 380
#     4  11  23  37  65  96 135 167 217 272 334 383
#     4  12  22  42  63  96 128 174 216 271 323 386
#
# _framework density 20.319898999999999
#
# number of rings (size 3 to 8) (size 9 to 14) (size 15 to 20)
#    0.000    0.727    6.364    1.636    0.000    0.000 
#    1.636    0.000    0.000    4.364    0.000    0.000 
#    0.000    0.000    0.000    0.000    0.000    0.000 
#
# Total GULP energy -272715.285003 kJ/mol
# GULP energy per Si atom -12396.149318 kJ/mol
# Density = 2.027365 g / cm^3
# Si number density = 20.319899 Si / 1000 Ang^3
#
#
#
# Elastic Constant Matrix: (Units=GPa)
#
#
# Indices 1 2 3 4 5 6 
#
# 1 79.3861 44.3565 20.4664 0.0000 -6.0387 0.0000
# 2 44.3565 157.9077 65.0038 0.0000 -10.8072 0.0000
# 3 20.4664 65.0038 100.2782 0.0000 -10.7653 0.0000
# 4 0.0000 0.0000 0.0000 40.1720 0.0000 3.2204
# 5 -6.0387 -10.8072 -10.7653 0.0000 37.2965 0.0000
# 6 0.0000 0.0000 0.0000 3.2204 0.0000 27.2250
#
#
#
# Elastic Compliance Matrix: (Units=1/GPa)
#
#
# Indices 1 2 3 4 5 6 
#
# 1 0.015006 -0.003991 -0.000350 0.000000 0.001172 0.000000
# 2 -0.003991 0.009730 -0.005427 0.000000 0.000607 0.000000
# 3 -0.000350 -0.005427 0.013815 0.000000 0.002358 0.000000
# 4 0.000000 0.000000 0.000000 0.025131 0.000000 -0.002973
# 5 0.001172 0.000607 0.002358 0.000000 0.027858 0.000000
# 6 0.000000 0.000000 0.000000 -0.002973 0.000000 0.037083
#
#
# Mechanical properties :
#
#
# Convention : Reuss Voigt Hill
#
# Bulk Modulus (GPa) = 52.59184 66.35837 59.47511
# Shear Modulus (GPa) = 32.36304 34.78840 33.57572
#
# Velocity S-wave (km/s) = 3.99517 4.14216 4.06933
# Velocity P-wave (km/s) = 6.87168 7.45684 7.17023
#
# Compressibility (1/GPa) = 0.01901436
#
# Stress axis : x y z
#
# Youngs Moduli (GPa) = 66.64031 102.77871 72.38489
#
# Poissons Ratio (x) = 0.41019 0.02531
# Poissons Ratio (y) = 0.26596 0.39286
# Poissons Ratio (z) = 0.02330 0.55782
#
# Static dielectric constant tensor:
#      x y z
#    x 3.925080 0.000000 0.097350 
#    y 0.000000 3.998700 0.000000 
#    z 0.097350 0.000000 3.827300 
# 
# 
# High freq. dielectric constant tensor:
#      x y z
#    x 1.790680 0.000000 0.022740 
#    y 0.000000 1.796560 0.000000 
#    z 0.022740 0.000000 1.805920 
# 
# From -- ./inp_files/30825.got.cif
#   From: 2010.06.25/outbox.cif.g09.slc.cpg/sg15_16_cif.got.tgz:30825.got - 2010.06.28 07:06:18.
