data_PCOD8152108
_publ_section_title
;
Structure prediction by ZEFSAII (Michael W. Deem and Ramdas Pophale) SiO2 
 PCOD8152108
Probable space group: C 2/C
;
_chemical_formula_sum "Si O2"
_cell_formula_units_Z 64
_cell_length_a 27.284050
_cell_length_b 9.202179
_cell_length_c 14.131236
_cell_angle_alpha 90.000000
_cell_angle_beta 121.193509
_cell_angle_gamma 90.000000
_cell_volume 3035.013006
_symmetry_space_group_name_H-M "C 2/C"
_symmetry_group_IT_number 15
_symmetry_cell_setting 'monoclinic'
loop_
_space_group_symop_operation_xyz
x,y,z
-x,y,1/2-z
-x,-y,-z
x,-y,1/2+z
1/2+x,1/2+y,z
1/2-x,1/2+y,1/2-z
1/2-x,1/2-y,-z
1/2+x,1/2-y,1/2+z
loop_
_atom_site_type_symbol
_atom_site_label
_atom_site_fract_x
_atom_site_fract_y
_atom_site_fract_z
Si Si1 0.128641 0.704992 0.070349
Si Si2 0.132917 0.526334 0.252615
Si Si3 0.132917 0.973666 0.513220
Si Si4 0.566188 0.906966 0.343013
Si Si5 0.250000 0.413660 0.965740
Si Si6 0.433812 0.593034 0.210637
Si Si7 0.750000 0.159528 0.097372
Si Si8 0.371359 0.295008 0.813068
O O1 0.119618 0.661270 0.170772
O O2 0.194131 0.684052 0.104482
O O3 0.115125 0.875811 0.047311
O O4 0.084233 0.593854 0.971447
O O5 0.096071 0.535632 0.313034
O O6 0.198352 0.535882 0.347913
O O7 0.115125 0.375811 0.182939
O O8 0.198352 0.964118 0.548791
O O9 0.119618 0.838730 0.568465
O O10 0.096071 0.964368 0.379108
O O11 0.500000 0.912501 0.250000
O O12 0.593484 0.750000 0.343484
O O13 0.250000 0.250000 0.000000
O O14 0.250000 0.492599 0.066595
O O15 0.500000 0.587499 0.250000
O O16 0.415766 0.593853 0.302980
O O17 0.805869 0.184052 0.216220
O O18 0.750000 0.250000 0.000000
#
# Coordination Sequence:
#
# PCOD8152108 Si02
#       8
#     8   8   8   8   8   8   8   8
#     4  11  22  37  62  88 125 159 201 251 302 365
#     4  11  23  39  60  93 123 160 200 249 306 361
#     4  11  23  39  60  93 123 160 200 249 306 361
#     4   9  19  39  63  86 118 163 208 253 305 360
#     4  12  25  38  62  89 123 157 197 247 300 362
#     4   9  19  39  63  86 118 163 208 253 305 360
#     4  12  19  40  62  83 119 163 196 238 304 362
#     4  11  22  37  62  88 125 159 201 251 302 365
#
# _framework density 21.087223999999999
#
# number of rings (size 3 to 8) (size 9 to 14) (size 15 to 20)
#    0.000    1.250    5.000    1.500    3.500    1.000 
#    0.000    0.000    0.000    5.250    0.000    0.000 
#    0.000    0.000    0.000    0.000    0.000    0.000 
#
# Total GULP energy -396467.981400 kJ/mol
# GULP energy per Si atom -12389.624419 kJ/mol
# Density = 2.103923 g / cm^3
# Si number density = 21.087224 Si / 1000 Ang^3
#
#
#
# Elastic Constant Matrix: (Units=GPa)
#
#
# Indices 1 2 3 4 5 6 
#
# 1 66.7933 2.1965 28.6307 0.0000 20.6155 0.0000
# 2 2.1965 76.9127 10.3336 0.0000 -7.0470 0.0000
# 3 28.6307 10.3336 48.1236 0.0000 -4.4469 0.0000
# 4 0.0000 0.0000 0.0000 28.9756 0.0000 -23.6775
# 5 20.6155 -7.0470 -4.4469 0.0000 28.8838 0.0000
# 6 0.0000 0.0000 0.0000 -23.6775 0.0000 1.6351
#
#
#
# Elastic Compliance Matrix: (Units=1/GPa)
#
#
# Indices 1 2 3 4 5 6 
#
# 1 0.032529 -0.000455 -0.021720 0.000000 -0.026672 0.000000
# 2 -0.000455 0.013632 -0.002353 0.000000 0.003288 0.000000
# 3 -0.021720 -0.002353 0.036100 0.000000 0.020486 0.000000
# 4 0.000000 0.000000 0.000000 -0.003186 0.000000 -0.046133
# 5 -0.026672 0.003288 0.020486 0.000000 0.057614 0.000000
# 6 0.000000 0.000000 0.000000 -0.046133 0.000000 -0.056455
#
#
# Mechanical properties :
#
#
# Convention : Reuss Voigt Hill
#
# Bulk Modulus (GPa) = 30.11462 30.46124 30.28793
# Shear Modulus (GPa) = 35.62330 21.94349 28.78339
#
# Velocity S-wave (km/s) = 4.11461 3.22934 3.69856
# Velocity P-wave (km/s) = 6.07333 5.32744 5.71257
#
# Compressibility (1/GPa) = 0.03320646
#
# Stress axis : x y z
#
# Youngs Moduli (GPa) = 30.74205 73.35603 27.70075
#
# Poissons Ratio (x) = 0.03335 0.60165
# Poissons Ratio (y) = 0.01397 0.06518
# Poissons Ratio (z) = 0.66771 0.17260
#
# Static dielectric constant tensor:
#      x y z
#    x 3.715140 0.000000 -0.133480 
#    y 0.000000 3.795510 0.000000 
#    z -0.133480 0.000000 3.869270 
# 
# 
# High freq. dielectric constant tensor:
#      x y z
#    x 1.821380 0.000000 -0.002790 
#    y 0.000000 1.807400 0.000000 
#    z -0.002790 0.000000 1.824590 
# 
# From -- ./inp_files/180835.got.cif
#   From: 2010.06.25/outbox.cif.g09.slc.cpg/sg15_91_cif.got.tgz:180835.got - 2010.06.28 07:06:18.
