data_PCOD8152748
_publ_section_title
;
Structure prediction by ZEFSAII (Michael W. Deem and Ramdas Pophale) SiO2 
 PCOD8152748
Probable space group: C 2/C
;
_chemical_formula_sum "Si O2"
_cell_formula_units_Z 48
_cell_length_a 13.869677
_cell_length_b 7.549481
_cell_length_c 26.263570
_cell_angle_alpha 90.000000
_cell_angle_beta 136.140558
_cell_angle_gamma 90.000000
_cell_volume 1905.471677
_symmetry_space_group_name_H-M "C 2/C"
_symmetry_group_IT_number 15
_symmetry_cell_setting 'monoclinic'
loop_
_space_group_symop_operation_xyz
x,y,z
-x,y,1/2-z
-x,-y,-z
x,-y,1/2+z
1/2+x,1/2+y,z
1/2-x,1/2+y,1/2-z
1/2-x,1/2-y,-z
1/2+x,1/2-y,1/2+z
loop_
_atom_site_type_symbol
_atom_site_label
_atom_site_fract_x
_atom_site_fract_y
_atom_site_fract_z
Si Si1 0.184976 0.114143 0.544714
Si Si2 0.911155 0.270689 0.470215
Si Si3 0.073244 0.503998 0.923707
Si Si4 0.845825 0.726110 0.705830
Si Si5 0.779550 0.598877 0.825716
Si Si6 0.933677 0.627040 0.279338
O O1 0.274933 0.145208 0.629016
O O2 0.060495 0.261095 0.495319
O O3 0.115562 0.921583 0.517693
O O4 0.286748 0.117607 0.533777
O O5 0.927134 0.404949 0.522747
O O6 0.783881 0.338187 0.386625
O O7 0.937185 0.627344 0.867087
O O8 0.052066 0.364168 0.868351
O O9 0.853481 0.564139 0.749222
O O10 0.000000 0.793768 0.750000
O O11 0.759880 0.891696 0.695045
O O12 0.676865 0.717239 0.752938
O O13 0.000000 0.659106 0.250000
#
# Coordination Sequence:
#
# PCOD8152748 Si02
#       6
#     8   8   8   8   8   8
#     4  11  23  45  73 100 141 195 231 303 368 427
#     4  11  25  48  71 105 149 189 244 304 364 455
#     4  12  25  42  75 106 143 194 247 297 376 449
#     4  11  22  45  75  98 143 187 237 302 367 422
#     4  12  26  44  73 106 144 186 242 305 362 444
#     4  11  24  48  70 102 144 187 240 302 360 434
#
# _framework density 25.190612999999999
#
# number of rings (size 3 to 8) (size 9 to 14) (size 15 to 20)
#    0.000    0.667    6.667    1.500    2.333    0.667 
#    0.000    0.000    0.000    0.000    0.000    0.000 
#    0.000    0.000    0.000    0.000    0.000    0.000 
#
# Total GULP energy -297515.228001 kJ/mol
# GULP energy per Si atom -12396.467833 kJ/mol
# Density = 2.513328 g / cm^3
# Si number density = 25.190613 Si / 1000 Ang^3
#
#
#
# Elastic Constant Matrix: (Units=GPa)
#
#
# Indices 1 2 3 4 5 6 
#
# 1 108.3219 44.6340 14.4268 0.0000 12.8378 0.0000
# 2 44.6340 129.6511 23.1394 0.0000 10.9675 0.0000
# 3 14.4268 23.1394 84.5231 0.0000 10.4717 0.0000
# 4 0.0000 0.0000 0.0000 46.1018 0.0000 11.2422
# 5 12.8378 10.9675 10.4717 0.0000 29.5784 0.0000
# 6 0.0000 0.0000 0.0000 11.2422 0.0000 19.8061
#
#
#
# Elastic Compliance Matrix: (Units=1/GPa)
#
#
# Indices 1 2 3 4 5 6 
#
# 1 0.011123 -0.003449 -0.000538 0.000000 -0.003358 0.000000
# 2 -0.003449 0.009334 -0.001802 0.000000 -0.001326 0.000000
# 3 -0.000538 -0.001802 0.012869 0.000000 -0.003654 0.000000
# 4 0.000000 0.000000 0.000000 0.025176 0.000000 -0.014290
# 5 -0.003358 -0.001326 -0.003654 0.000000 0.037051 0.000000
# 6 0.000000 0.000000 0.000000 -0.014290 0.000000 0.058601
#
#
# Mechanical properties :
#
#
# Convention : Reuss Voigt Hill
#
# Bulk Modulus (GPa) = 45.98393 54.09959 50.04176
# Shear Modulus (GPa) = 28.90479 35.11701 32.01090
#
# Velocity S-wave (km/s) = 3.39107 3.73775 3.56862
# Velocity P-wave (km/s) = 5.79883 6.33644 6.07359
#
# Compressibility (1/GPa) = 0.02174673
#
# Stress axis : x y z
#
# Youngs Moduli (GPa) = 89.90749 107.13284 77.70552
#
# Poissons Ratio (x) = 0.36950 0.04182
# Poissons Ratio (y) = 0.31009 0.14006
# Poissons Ratio (z) = 0.04839 0.19310
#
# Static dielectric constant tensor:
#      x y z
#    x 4.844530 0.000000 0.084430 
#    y 0.000000 4.476180 0.000000 
#    z 0.084430 0.000000 4.933070 
# 
# 
# High freq. dielectric constant tensor:
#      x y z
#    x 2.016570 0.000000 -0.002650 
#    y 0.000000 1.998950 0.000000 
#    z -0.002650 0.000000 2.019020 
# 
# From -- ./inp_files/295448.got.cif
#   From: 2010.06.25/outbox.cif.g09.slc.cpg/sg15_148_cif.got.tgz:295448.got - 2010.06.28 07:06:18.
