data_PCOD8152487
_publ_section_title
;
Structure prediction by ZEFSAII (Michael W. Deem and Ramdas Pophale) SiO2 
 PCOD8152487
Probable space group: C 2/C
;
_chemical_formula_sum "Si O2"
_cell_formula_units_Z 56
_cell_length_a 14.632441
_cell_length_b 27.027635
_cell_length_c 8.771949
_cell_angle_alpha 90.000000
_cell_angle_beta 54.676871
_cell_angle_gamma 90.000000
_cell_volume 2830.480214
_symmetry_space_group_name_H-M "C 2/C"
_symmetry_group_IT_number 15
_symmetry_cell_setting 'monoclinic'
loop_
_space_group_symop_operation_xyz
x,y,z
-x,y,1/2-z
-x,-y,-z
x,-y,1/2+z
1/2+x,1/2+y,z
1/2-x,1/2+y,1/2-z
1/2-x,1/2-y,-z
1/2+x,1/2-y,1/2+z
loop_
_atom_site_type_symbol
_atom_site_label
_atom_site_fract_x
_atom_site_fract_y
_atom_site_fract_z
Si Si1 0.000000 0.792588 0.750000
Si Si2 0.888564 0.744217 0.139269
Si Si3 0.500000 0.834683 0.750000
Si Si4 0.288252 0.674866 0.287001
Si Si5 0.870710 0.397033 0.388253
Si Si6 0.414933 0.006076 0.447754
Si Si7 0.188386 0.603819 0.893995
Si Si8 0.373592 0.338198 0.365610
O O1 0.890176 0.824801 0.811274
O O2 0.024173 0.760808 0.575020
O O3 0.774710 0.727951 0.162106
O O4 0.860820 0.786257 0.289705
O O5 0.939878 0.698276 0.180551
O O6 0.590967 0.868094 0.578016
O O7 0.196568 0.633721 0.420657
O O8 0.330800 0.663863 0.077897
O O9 0.861854 0.454684 0.441967
O O10 0.814821 0.385036 0.281393
O O11 0.000000 0.380401 0.250000
O O12 0.500000 0.031636 0.250000
O O13 0.500000 0.000000 0.500000
O O14 0.316769 0.044629 0.577856
O O15 0.308847 0.620022 0.835959
O O16 0.500000 0.356043 0.250000
#
# Coordination Sequence:
#
# PCOD8152487 Si02
#       8
#     4   8   4   8   8   8   8   8
#     4  12  26  44  68  91 141 180 226 282 336 390
#     4  12  25  43  64  99 133 180 228 279 329 397
#     4  12  24  38  68  97 135 174 228 270 342 396
#     4  12  26  44  68  96 132 183 226 280 334 400
#     4  11  25  43  68 106 139 169 216 276 345 410
#     4  11  22  42  68 103 141 168 209 275 349 406
#     4  12  25  40  70  99 137 178 218 278 335 404
#     4  12  26  47  67  91 135 187 239 270 324 394
#
# _framework density 19.784628000000001
#
# number of rings (size 3 to 8) (size 9 to 14) (size 15 to 20)
#    0.000    0.286    7.143    2.571    7.000    0.000 
#    0.000    0.000    1.571    1.714    0.000    0.000 
#    0.000    0.000    0.000    0.000    0.000    0.000 
#
# Total GULP energy -347131.973008 kJ/mol
# GULP energy per Si atom -12397.570465 kJ/mol
# Density = 1.973960 g / cm^3
# Si number density = 19.784628 Si / 1000 Ang^3
#
#
#
# Elastic Constant Matrix: (Units=GPa)
#
#
# Indices 1 2 3 4 5 6 
#
# 1 141.3404 64.6754 37.9541 0.0000 -7.6856 0.0000
# 2 64.6754 106.2933 57.1824 0.0000 -7.2416 0.0000
# 3 37.9541 57.1824 137.9984 0.0000 6.4307 0.0000
# 4 0.0000 0.0000 0.0000 28.8356 0.0000 3.8105
# 5 -7.6856 -7.2416 6.4307 0.0000 40.2316 0.0000
# 6 0.0000 0.0000 0.0000 3.8105 0.0000 11.2886
#
#
#
# Elastic Compliance Matrix: (Units=1/GPa)
#
#
# Indices 1 2 3 4 5 6 
#
# 1 0.009846 -0.005726 -0.000378 0.000000 0.000911 0.000000
# 2 -0.005726 0.015808 -0.005095 0.000000 0.002566 0.000000
# 3 -0.000378 -0.005095 0.009579 0.000000 -0.002520 0.000000
# 4 0.000000 0.000000 0.000000 0.036299 0.000000 -0.012253
# 5 0.000911 0.002566 -0.002520 0.000000 0.025895 0.000000
# 6 0.000000 0.000000 0.000000 -0.012253 0.000000 0.092721
#
#
# Mechanical properties :
#
#
# Convention : Reuss Voigt Hill
#
# Bulk Modulus (GPa) = 77.90828 78.36178 78.13503
# Shear Modulus (GPa) = 23.06031 31.12582 27.09307
#
# Velocity S-wave (km/s) = 3.41774 3.97070 3.70456
# Velocity P-wave (km/s) = 7.41878 7.79201 7.60768
#
# Compressibility (1/GPa) = 0.01283561
#
# Stress axis : x y z
#
# Youngs Moduli (GPa) = 101.56323 63.26109 104.39434
#
# Poissons Ratio (x) = 0.36221 0.03945
# Poissons Ratio (y) = 0.58151 0.53189
# Poissons Ratio (z) = 0.03838 0.32231
#
# Static dielectric constant tensor:
#      x y z
#    x 3.943650 0.000000 -0.024180 
#    y 0.000000 2.828360 0.000000 
#    z -0.024180 0.000000 3.859590 
# 
# 
# High freq. dielectric constant tensor:
#      x y z
#    x 1.781910 0.000000 0.018090 
#    y 0.000000 1.757680 0.000000 
#    z 0.018090 0.000000 1.788460 
# 
# From -- ./inp_files/44525.got.cif
#   From: 2010.06.25/outbox.cif.g09.slc.cpg/sg15_23_cif.got.tgz:44525.got - 2010.06.28 07:06:18.
