data_PCOD8152091
_publ_section_title
;
Structure prediction by ZEFSAII (Michael W. Deem and Ramdas Pophale) SiO2 
 PCOD8152091
Probable space group: C 2/C
;
_chemical_formula_sum "Si O2"
_cell_formula_units_Z 48
_cell_length_a 10.584326
_cell_length_b 25.174174
_cell_length_c 9.522526
_cell_angle_alpha 90.000000
_cell_angle_beta 64.887004
_cell_angle_gamma 90.000000
_cell_volume 2297.449093
_symmetry_space_group_name_H-M "C 2/C"
_symmetry_group_IT_number 15
_symmetry_cell_setting 'monoclinic'
loop_
_space_group_symop_operation_xyz
x,y,z
-x,y,1/2-z
-x,-y,-z
x,-y,1/2+z
1/2+x,1/2+y,z
1/2-x,1/2+y,1/2-z
1/2-x,1/2-y,-z
1/2+x,1/2-y,1/2+z
loop_
_atom_site_type_symbol
_atom_site_label
_atom_site_fract_x
_atom_site_fract_y
_atom_site_fract_z
Si Si1 0.197051 0.105663 0.404136
Si Si2 0.361704 0.795187 0.909292
Si Si3 0.480883 0.137840 0.602645
Si Si4 0.196729 0.455505 0.400439
Si Si5 0.570454 0.554253 0.918892
Si Si6 0.269436 0.071720 0.080988
O O1 0.266739 0.163399 0.368128
O O2 0.301688 0.067788 0.442653
O O3 0.172874 0.082254 0.260743
O O4 0.041755 0.102365 0.544251
O O5 0.500000 0.778672 0.750000
O O6 0.250000 0.750000 0.000000
O O7 0.409808 0.818746 0.036368
O O8 0.500000 0.161882 0.750000
O O9 0.394838 0.082535 0.655698
O O10 0.628403 0.121998 0.468223
O O11 0.354931 0.454896 0.265575
O O12 0.145034 0.516440 0.434600
O O13 0.500000 0.500000 0.000000
O O14 0.683624 0.570956 0.979839
#
# Coordination Sequence:
#
# PCOD8152091 Si02
#       6
#     8   8   8   8   8   8
#     4  11  24  38  65  97 132 177 225 267 327 395
#     4  11  26  52  78  97 128 172 230 297 353 408
#     4  11  24  44  65 100 134 169 224 273 344 402
#     4  11  22  36  60  93 139 189 220 263 311 399
#     4  12  22  36  58  93 144 184 223 261 314 388
#     4  12  21  39  61  92 143 181 223 265 317 393
#
# _framework density 20.892738000000001
#
# number of rings (size 3 to 8) (size 9 to 14) (size 15 to 20)
#    0.000    0.667    6.667    1.500    0.000    2.667 
#    0.000    2.500    0.000    0.000    0.000    0.000 
#    0.000    0.000    0.000    0.000    0.000    0.000 
#
# Total GULP energy -297466.732673 kJ/mol
# GULP energy per Si atom -12394.447195 kJ/mol
# Density = 2.084519 g / cm^3
# Si number density = 20.892738 Si / 1000 Ang^3
#
#
#
# Elastic Constant Matrix: (Units=GPa)
#
#
# Indices 1 2 3 4 5 6 
#
# 1 84.6493 42.1917 19.6636 0.0000 -1.8512 0.0000
# 2 42.1917 100.3166 38.0011 0.0000 -1.6175 0.0000
# 3 19.6636 38.0011 93.4770 0.0000 -1.9260 0.0000
# 4 0.0000 0.0000 0.0000 21.4385 0.0000 -8.3373
# 5 -1.8512 -1.6175 -1.9260 0.0000 36.1586 0.0000
# 6 0.0000 0.0000 0.0000 -8.3373 0.0000 45.6065
#
#
#
# Elastic Compliance Matrix: (Units=1/GPa)
#
#
# Indices 1 2 3 4 5 6 
#
# 1 0.014993 -0.006037 -0.000690 0.000000 0.000461 0.000000
# 2 -0.006037 0.014216 -0.004508 0.000000 0.000087 0.000000
# 3 -0.000690 -0.004508 0.012685 0.000000 0.000439 0.000000
# 4 0.000000 0.000000 0.000000 0.050215 0.000000 0.009180
# 5 0.000461 0.000087 0.000439 0.000000 0.027707 0.000000
# 6 0.000000 0.000000 0.000000 0.009180 0.000000 0.023605
#
#
# Mechanical properties :
#
#
# Convention : Reuss Voigt Hill
#
# Bulk Modulus (GPa) = 51.48202 53.12842 52.30522
# Shear Modulus (GPa) = 29.00826 32.54649 30.77737
#
# Velocity S-wave (km/s) = 3.73022 3.95117 3.84228
# Velocity P-wave (km/s) = 6.57627 6.80441 6.69131
#
# Compressibility (1/GPa) = 0.01942426
#
# Stress axis : x y z
#
# Youngs Moduli (GPa) = 66.69857 70.34108 78.83600
#
# Poissons Ratio (x) = 0.42464 0.05441
# Poissons Ratio (y) = 0.40265 0.35537
# Poissons Ratio (z) = 0.04603 0.31708
#
# Static dielectric constant tensor:
#      x y z
#    x -0.229830 0.000000 0.136530 
#    y 0.000000 3.508890 0.000000 
#    z 0.136530 0.000000 3.872120 
# 
# 
# High freq. dielectric constant tensor:
#      x y z
#    x 1.826720 0.000000 0.001010 
#    y 0.000000 1.777180 0.000000 
#    z 0.001010 0.000000 1.834550 
# 
# From -- ./inp_files/32534.got.cif
#   From: 2010.06.25/outbox.cif.g09.slc.cpg/sg15_17_cif.got.tgz:32534.got - 2010.06.28 07:06:18.
