data_PCOD8152672
_publ_section_title
;
Structure prediction by ZEFSAII (Michael W. Deem and Ramdas Pophale) SiO2 
 PCOD8152672
Probable space group: C 2/C
;
_chemical_formula_sum "Si O2"
_cell_formula_units_Z 36
_cell_length_a 16.274446
_cell_length_b 17.740991
_cell_length_c 10.031120
_cell_angle_alpha 90.000000
_cell_angle_beta 36.939313
_cell_angle_gamma 90.000000
_cell_volume 1740.545684
_symmetry_space_group_name_H-M "C 2/C"
_symmetry_group_IT_number 15
_symmetry_cell_setting 'monoclinic'
loop_
_space_group_symop_operation_xyz
x,y,z
-x,y,1/2-z
-x,-y,-z
x,-y,1/2+z
1/2+x,1/2+y,z
1/2-x,1/2+y,1/2-z
1/2-x,1/2-y,-z
1/2+x,1/2-y,1/2+z
loop_
_atom_site_type_symbol
_atom_site_label
_atom_site_fract_x
_atom_site_fract_y
_atom_site_fract_z
Si Si1 0.795788 0.272139 0.227526
Si Si2 0.613187 0.612306 0.818286
Si Si3 0.000000 0.788371 0.250000
Si Si4 0.149035 0.656063 0.580270
Si Si5 0.389163 0.549389 0.277193
O O1 0.709124 0.345854 0.299533
O O2 0.869165 0.285382 0.274318
O O3 0.698809 0.199234 0.380402
O O4 0.910536 0.261660 0.966109
O O5 0.607048 0.660832 0.692026
O O6 0.664577 0.528257 0.718045
O O7 0.460540 0.603664 0.076016
O O8 0.252149 0.591624 0.498335
O O9 0.000000 0.619622 0.750000
O O10 0.500000 0.533505 0.250000
#
# Coordination Sequence:
#
# PCOD8152672 Si02
#       5
#     8   8   4   8   8
#     4  11  24  41  67  97 134 173 221 275 329 391
#     4  11  23  40  67  97 128 177 223 268 323 396
#     4  12  22  40  62 100 136 170 222 276 336 382
#     4  11  24  42  69 100 129 175 220 275 328 392
#     4  11  22  44  70  94 129 176 226 265 323 398
#
# _framework density 20.683167999999998
#
# number of rings (size 3 to 8) (size 9 to 14) (size 15 to 20)
#    0.000    0.889    5.556    2.000    3.111    0.000 
#    2.000    1.111    0.000    0.000    0.000    0.000 
#    0.000    0.000    0.000    0.000    0.000    0.000 
#
# Total GULP energy -223158.913942 kJ/mol
# GULP energy per Si atom -12397.717441 kJ/mol
# Density = 2.063609 g / cm^3
# Si number density = 20.683168 Si / 1000 Ang^3
#
#
#
# Elastic Constant Matrix: (Units=GPa)
#
#
# Indices 1 2 3 4 5 6 
#
# 1 87.2178 35.6885 43.1869 -0.0001 -5.7606 0.0001
# 2 35.6885 89.2508 55.1640 0.0000 -10.2722 0.0000
# 3 43.1869 55.1640 129.6498 0.0000 -1.5346 0.0001
# 4 -0.0001 0.0000 0.0000 24.5211 0.0000 5.6834
# 5 -5.7606 -10.2722 -1.5346 0.0000 36.2179 -0.0001
# 6 0.0001 0.0000 0.0001 5.6834 -0.0001 32.2190
#
#
#
# Elastic Compliance Matrix: (Units=1/GPa)
#
#
# Indices 1 2 3 4 5 6 
#
# 1 0.014692 -0.003699 -0.003307 0.000000 0.001148 0.000000
# 2 -0.003699 0.016748 -0.005848 0.000000 0.003914 0.000000
# 3 -0.003307 -0.005848 0.011282 0.000000 -0.001706 0.000000
# 4 0.000000 0.000000 0.000000 0.042520 0.000000 -0.007500
# 5 0.001148 0.003914 -0.001706 0.000000 0.028831 0.000000
# 6 0.000000 0.000000 0.000000 -0.007500 0.000000 0.032361
#
#
# Mechanical properties :
#
#
# Convention : Reuss Voigt Hill
#
# Bulk Modulus (GPa) = 58.76711 63.79969 61.28340
# Shear Modulus (GPa) = 28.11940 30.06351 29.09146
#
# Velocity S-wave (km/s) = 3.69118 3.81665 3.75444
# Velocity P-wave (km/s) = 6.82943 7.09476 6.96336
#
# Compressibility (1/GPa) = 0.01701632
#
# Stress axis : x y z
#
# Youngs Moduli (GPa) = 68.06292 59.70740 88.63376
#
# Poissons Ratio (x) = 0.22087 0.29307
# Poissons Ratio (y) = 0.25178 0.51830
# Poissons Ratio (z) = 0.22505 0.34915
#
# Static dielectric constant tensor:
#      x y z
#    x 3.632200 0.000000 0.191000 
#    y 0.000000 3.606670 0.000000 
#    z 0.191000 0.000000 3.686990 
# 
# 
# High freq. dielectric constant tensor:
#      x y z
#    x 1.807860 0.000000 0.015110 
#    y 0.000000 1.801690 0.000000 
#    z 0.015110 0.000000 1.804640 
# 
# From -- ./inp_files/30579.got.cif
#   From: 2010.06.25/outbox.cif.g09.slc.cpg/sg15_16_cif.got.tgz:30579.got - 2010.06.28 07:06:18.
