data_PCOD8152458
_publ_section_title
;
Structure prediction by ZEFSAII (Michael W. Deem and Ramdas Pophale) SiO2 
 PCOD8152458
Probable space group: C 2/C
;
_chemical_formula_sum "Si O2"
_cell_formula_units_Z 56
_cell_length_a 9.053329
_cell_length_b 12.385936
_cell_length_c 23.550432
_cell_angle_alpha 90.000000
_cell_angle_beta 74.957455
_cell_angle_gamma 90.000000
_cell_volume 2550.311638
_symmetry_space_group_name_H-M "C 2/C"
_symmetry_group_IT_number 15
_symmetry_cell_setting 'monoclinic'
loop_
_space_group_symop_operation_xyz
x,y,z
-x,y,1/2-z
-x,-y,-z
x,-y,1/2+z
1/2+x,1/2+y,z
1/2-x,1/2+y,1/2-z
1/2-x,1/2-y,-z
1/2+x,1/2-y,1/2+z
loop_
_atom_site_type_symbol
_atom_site_label
_atom_site_fract_x
_atom_site_fract_y
_atom_site_fract_z
Si Si1 0.602684 0.601974 0.497576
Si Si2 0.319515 0.667907 0.132521
Si Si3 0.083714 0.743490 0.681194
Si Si4 0.088742 0.505414 0.183508
Si Si5 0.152809 0.598312 0.372071
Si Si6 0.305394 0.117870 0.585643
Si Si7 0.090771 0.699897 0.494570
O O1 0.500000 0.500000 0.500000
O O2 0.676374 0.613397 0.429063
O O3 0.729723 0.590151 0.533019
O O4 0.503003 0.704146 0.525158
O O5 0.483183 0.696697 0.143567
O O6 0.239920 0.577691 0.180376
O O7 0.233236 0.781728 0.128407
O O8 0.000000 0.749824 0.750000
O O9 0.118983 0.618403 0.660046
O O10 0.242434 0.810129 0.667461
O O11 0.000000 0.494557 0.250000
O O12 0.001682 0.582855 0.147857
O O13 0.225934 0.478566 0.366853
O O14 0.120175 0.616555 0.441575
O O15 0.486666 0.144674 0.554519
O O16 0.250000 0.750000 0.500000
#
# Coordination Sequence:
#
# PCOD8152458 Si02
#       7
#     8   8   8   8   8   8   8
#     4  11  23  38  60  95 134 172 215 265 322 403
#     4  11  22  44  67  90 137 168 212 272 333 382
#     4  11  25  46  67  97 130 169 227 281 328 388
#     4  11  25  45  69  96 127 173 228 281 329 385
#     4  12  23  42  70  95 134 177 219 269 336 390
#     4  11  22  42  62  97 137 173 214 269 324 405
#     4  11  23  37  63  98 133 171 218 263 328 405
#
# _framework density 21.958099000000001
#
# number of rings (size 3 to 8) (size 9 to 14) (size 15 to 20)
#    0.000    0.857    1.429    8.143    2.000    0.000 
#    2.571    0.714    0.000    0.000    0.000    0.000 
#    0.000    0.000    0.000    0.000    0.000    0.000 
#
# Total GULP energy -346925.524557 kJ/mol
# GULP energy per Si atom -12390.197306 kJ/mol
# Density = 2.190812 g / cm^3
# Si number density = 21.958099 Si / 1000 Ang^3
#
#
#
# Elastic Constant Matrix: (Units=GPa)
#
#
# Indices 1 2 3 4 5 6 
#
# 1 87.6758 40.9729 13.1131 0.0000 -3.1331 0.0000
# 2 40.9729 160.7253 29.6389 0.0000 -23.7586 0.0000
# 3 13.1131 29.6389 33.5559 0.0000 -1.2824 0.0000
# 4 0.0000 0.0000 0.0000 28.8203 0.0000 6.9215
# 5 -3.1331 -23.7586 -1.2824 0.0000 29.9410 0.0000
# 6 0.0000 0.0000 0.0000 6.9215 0.0000 32.7542
#
#
#
# Elastic Compliance Matrix: (Units=1/GPa)
#
#
# Indices 1 2 3 4 5 6 
#
# 1 0.013171 -0.003073 -0.002477 0.000000 -0.001167 0.000000
# 2 -0.003073 0.009234 -0.006698 0.000000 0.006718 0.000000
# 3 -0.002477 -0.006698 0.036532 0.000000 -0.004009 0.000000
# 4 0.000000 0.000000 0.000000 0.036553 0.000000 -0.007724
# 5 -0.001167 0.006718 -0.004009 0.000000 0.038436 0.000000
# 6 0.000000 0.000000 0.000000 -0.007724 0.000000 0.032163
#
#
# Mechanical properties :
#
#
# Convention : Reuss Voigt Hill
#
# Bulk Modulus (GPa) = 29.03627 49.93410 39.48519
# Shear Modulus (GPa) = 24.74462 31.51858 28.13160
#
# Velocity S-wave (km/s) = 3.36058 3.79277 3.58320
# Velocity P-wave (km/s) = 5.32073 6.47844 5.92791
#
# Compressibility (1/GPa) = 0.03443969
#
# Stress axis : x y z
#
# Youngs Moduli (GPa) = 75.92665 108.30111 27.37334
#
# Poissons Ratio (x) = 0.33283 0.06780
# Poissons Ratio (y) = 0.23334 0.18335
# Poissons Ratio (z) = 0.18807 0.72540
#
# Static dielectric constant tensor:
#      x y z
#    x 3.855200 0.000000 0.037290 
#    y 0.000000 4.338080 0.000000 
#    z 0.037290 0.000000 3.727890 
# 
# 
# High freq. dielectric constant tensor:
#      x y z
#    x 1.854980 0.000000 0.015110 
#    y 0.000000 1.891150 0.000000 
#    z 0.015110 0.000000 1.850340 
# 
# From -- ./inp_files/287950.got.cif
#   From: 2010.06.25/outbox.cif.g09.slc.cpg/sg15_144_cif.got.tgz:287950.got - 2010.06.28 07:06:18.
