data_PCOD8152325
_publ_section_title
;
Structure prediction by ZEFSAII (Michael W. Deem and Ramdas Pophale) SiO2 
 PCOD8152325
Probable space group: C 2/C
;
_chemical_formula_sum "Si O2"
_cell_formula_units_Z 48
_cell_length_a 11.582697
_cell_length_b 14.734089
_cell_length_c 14.694834
_cell_angle_alpha 90.000000
_cell_angle_beta 81.697582
_cell_angle_gamma 90.000000
_cell_volume 2481.544753
_symmetry_space_group_name_H-M "C 2/C"
_symmetry_group_IT_number 15
_symmetry_cell_setting 'monoclinic'
loop_
_space_group_symop_operation_xyz
x,y,z
-x,y,1/2-z
-x,-y,-z
x,-y,1/2+z
1/2+x,1/2+y,z
1/2-x,1/2+y,1/2-z
1/2-x,1/2-y,-z
1/2+x,1/2-y,1/2+z
loop_
_atom_site_type_symbol
_atom_site_label
_atom_site_fract_x
_atom_site_fract_y
_atom_site_fract_z
Si Si1 0.398650 0.499690 0.435485
Si Si2 0.692963 0.727141 0.249573
Si Si3 0.000000 0.912483 0.750000
Si Si4 0.245986 0.179980 0.580133
Si Si5 0.005959 0.410232 0.445161
Si Si6 0.780667 0.662584 0.051532
Si Si7 0.500000 0.128334 0.750000
O O1 0.500000 0.500000 0.500000
O O2 0.452277 0.522517 0.332571
O O3 0.348464 0.398160 0.429211
O O4 0.298298 0.575047 0.467976
O O5 0.600550 0.648295 0.286646
O O6 0.773896 0.761835 0.324183
O O7 0.772891 0.686564 0.159633
O O8 0.616715 0.812354 0.226916
O O9 0.250000 0.250000 0.500000
O O10 0.371631 0.136991 0.565710
O O11 0.912985 0.347647 0.505450
O O12 0.000000 0.500000 0.500000
O O13 0.988493 0.433876 0.340537
O O14 0.750000 0.750000 0.000000
#
# Coordination Sequence:
#
# PCOD8152325 Si02
#       7
#     8   8   4   8   8   8   4
#     4  11  24  41  63  93 126 168 210 259 311 375
#     4   9  19  38  63  87 118 166 211 253 313 372
#     4   9  20  40  62  87 120 166 216 255 310 379
#     4  11  24  42  62  91 132 167 204 264 320 371
#     4  11  22  43  62  94 126 162 213 260 321 373
#     4  11  22  40  68  94 120 165 214 260 311 383
#     4   9  18  36  64  85 122 166 202 253 314 375
#
# _framework density 19.342790000000001
#
# number of rings (size 3 to 8) (size 9 to 14) (size 15 to 20)
#    0.000    1.667    3.333    1.000    4.667    1.333 
#    3.000    0.000    0.000    0.000    0.000    0.000 
#    0.000    0.000    0.000    0.000    0.000    0.000 
#
# Total GULP energy -297324.696785 kJ/mol
# GULP energy per Si atom -12388.529033 kJ/mol
# Density = 1.929877 g / cm^3
# Si number density = 19.342790 Si / 1000 Ang^3
#
#
#
# Elastic Constant Matrix: (Units=GPa)
#
#
# Indices 1 2 3 4 5 6 
#
# 1 79.0330 31.9047 55.8960 0.0000 5.5890 0.0000
# 2 31.9047 124.4917 71.1710 0.0000 12.5912 0.0000
# 3 55.8960 71.1710 149.1630 0.0000 6.8406 0.0000
# 4 0.0000 0.0000 0.0000 42.8869 0.0000 -0.3407
# 5 5.5890 12.5912 6.8406 0.0000 37.0619 0.0000
# 6 0.0000 0.0000 0.0000 -0.3407 0.0000 32.4988
#
#
#
# Elastic Compliance Matrix: (Units=1/GPa)
#
#
# Indices 1 2 3 4 5 6 
#
# 1 0.017358 -0.000879 -0.006030 0.000000 -0.001206 0.000000
# 2 -0.000879 0.011387 -0.004974 0.000000 -0.002818 0.000000
# 3 -0.006030 -0.004974 0.011314 0.000000 0.000511 0.000000
# 4 0.000000 0.000000 0.000000 0.023319 0.000000 0.000244
# 5 -0.001206 -0.002818 0.000511 0.000000 0.028027 0.000000
# 6 0.000000 0.000000 0.000000 0.000244 0.000000 0.030773
#
#
# Mechanical properties :
#
#
# Convention : Reuss Voigt Hill
#
# Bulk Modulus (GPa) = 61.38184 74.51456 67.94820
# Shear Modulus (GPa) = 33.03088 35.40393 34.21740
#
# Velocity S-wave (km/s) = 4.13687 4.28289 4.21051
# Velocity P-wave (km/s) = 7.39059 7.94131 7.67089
#
# Compressibility (1/GPa) = 0.01629146
#
# Stress axis : x y z
#
# Youngs Moduli (GPa) = 57.61161 87.82112 88.38994
#
# Poissons Ratio (x) = 0.07723 0.53295
# Poissons Ratio (y) = 0.05066 0.43968
# Poissons Ratio (z) = 0.34737 0.43685
#
# Static dielectric constant tensor:
#      x y z
#    x 3.632010 0.000000 0.414020 
#    y 0.000000 3.510710 0.000000 
#    z 0.414020 0.000000 5.919650 
# 
# 
# High freq. dielectric constant tensor:
#      x y z
#    x 1.745020 0.000000 -0.006620 
#    y 0.000000 1.758360 0.000000 
#    z -0.006620 0.000000 1.766700 
# 
# From -- ./inp_files/143597.got.cif
#   From: 2010.06.25/outbox.cif.g09.slc.cpg/sg15_72_cif.got.tgz:143597.got - 2010.06.28 07:06:18.
