data_PCOD8152562
_publ_section_title
;
Structure prediction by ZEFSAII (Michael W. Deem and Ramdas Pophale) SiO2 
 PCOD8152562
Probable space group: C 2/C
;
_chemical_formula_sum "Si O2"
_cell_formula_units_Z 60
_cell_length_a 12.493493
_cell_length_b 7.795852
_cell_length_c 29.276339
_cell_angle_alpha 90.000000
_cell_angle_beta 70.552100
_cell_angle_gamma 90.000000
_cell_volume 2688.750015
_symmetry_space_group_name_H-M "C 2/C"
_symmetry_group_IT_number 15
_symmetry_cell_setting 'monoclinic'
loop_
_space_group_symop_operation_xyz
x,y,z
-x,y,1/2-z
-x,-y,-z
x,-y,1/2+z
1/2+x,1/2+y,z
1/2-x,1/2+y,1/2-z
1/2-x,1/2-y,-z
1/2+x,1/2-y,1/2+z
loop_
_atom_site_type_symbol
_atom_site_label
_atom_site_fract_x
_atom_site_fract_y
_atom_site_fract_z
Si Si1 0.906059 0.239918 0.671267
Si Si2 0.500000 0.136527 0.250000
Si Si3 0.493599 0.079778 0.950784
Si Si4 0.799920 0.479849 0.917750
Si Si5 0.608109 0.426849 0.509473
Si Si6 0.270341 0.043181 0.320668
Si Si7 0.798106 0.422694 0.141772
Si Si8 0.868843 0.875374 0.403657
O O1 0.843848 0.420979 0.667181
O O2 0.974632 0.251156 0.708834
O O3 0.999885 0.180939 0.620786
O O4 0.819031 0.083314 0.690349
O O5 0.386912 0.026307 0.275673
O O6 0.423857 0.972632 0.923373
O O7 0.418347 0.247309 0.965124
O O8 0.614882 0.114214 0.911936
O O9 0.500000 0.000000 0.000000
O O10 0.797886 0.543435 0.865914
O O11 0.775551 0.277804 0.917937
O O12 0.708605 0.588197 0.958728
O O13 0.500000 0.500000 0.500000
O O14 0.648925 0.539879 0.545382
O O15 0.223730 0.241950 0.327725
O O16 0.680440 0.483675 0.132994
#
# Coordination Sequence:
#
# PCOD8152562 Si02
#       8
#     8   4   8   8   8   8   8   8
#     4  12  26  49  79 102 149 183 234 304 369 427
#     4  12  26  54  72 116 138 176 246 308 364 442
#     4  12  24  38  63 102 143 192 244 285 341 420
#     4  11  22  43  63  97 144 184 234 298 345 416
#     4  12  24  37  64  97 143 193 243 282 350 423
#     4  11  27  49  77 105 144 188 238 301 365 433
#     4  11  24  48  72 105 145 190 240 290 359 426
#     4  11  22  45  67 102 138 187 237 294 344 425
#
# _framework density 22.315201999999999
#
# number of rings (size 3 to 8) (size 9 to 14) (size 15 to 20)
#    0.000    0.533    4.000    5.600    5.600    0.000 
#    2.400    1.333    0.000    0.000    0.000    0.000 
#    0.000    0.000    0.000    0.000    0.000    0.000 
#
# Total GULP energy -371717.331475 kJ/mol
# GULP energy per Si atom -12390.577716 kJ/mol
# Density = 2.226441 g / cm^3
# Si number density = 22.315202 Si / 1000 Ang^3
#
#
#
# Elastic Constant Matrix: (Units=GPa)
#
#
# Indices 1 2 3 4 5 6 
#
# 1 104.7632 22.2235 11.3266 0.0000 -6.7167 0.0000
# 2 22.2235 58.4708 16.4472 0.0000 -13.6936 0.0000
# 3 11.3266 16.4472 80.7368 0.0000 -20.7815 0.0000
# 4 0.0000 0.0000 0.0000 12.4149 0.0000 -3.8964
# 5 -6.7167 -13.6936 -20.7815 0.0000 54.0320 0.0000
# 6 0.0000 0.0000 0.0000 -3.8964 0.0000 42.1712
#
#
#
# Elastic Compliance Matrix: (Units=1/GPa)
#
#
# Indices 1 2 3 4 5 6 
#
# 1 0.010419 -0.003750 -0.000676 0.000000 0.000085 0.000000
# 2 -0.003750 0.020118 -0.002641 0.000000 0.003616 0.000000
# 3 -0.000676 -0.002641 0.014234 0.000000 0.004721 0.000000
# 4 0.000000 0.000000 0.000000 0.082954 0.000000 0.007664
# 5 0.000085 0.003616 0.004721 0.000000 0.021250 0.000000
# 6 0.000000 0.000000 0.000000 0.007664 0.000000 0.024421
#
#
# Mechanical properties :
#
#
# Convention : Reuss Voigt Hill
#
# Bulk Modulus (GPa) = 32.64085 38.21837 35.42961
# Shear Modulus (GPa) = 25.28525 34.65518 29.97022
#
# Velocity S-wave (km/s) = 3.36980 3.94507 3.66873
# Velocity P-wave (km/s) = 5.45891 6.15753 5.81871
#
# Compressibility (1/GPa) = 0.03063646
#
# Stress axis : x y z
#
# Youngs Moduli (GPa) = 95.97501 49.70709 70.25406
#
# Poissons Ratio (x) = 0.18641 0.04749
# Poissons Ratio (y) = 0.35992 0.18556
# Poissons Ratio (z) = 0.06487 0.13129
#
# Static dielectric constant tensor:
#      x y z
#    x 4.304220 0.000000 0.038420 
#    y 0.000000 3.301760 0.000000 
#    z 0.038420 0.000000 4.054640 
# 
# 
# High freq. dielectric constant tensor:
#      x y z
#    x 1.903590 0.000000 0.004540 
#    y 0.000000 1.866050 0.000000 
#    z 0.004540 0.000000 1.877720 
# 
# From -- ./inp_files/310268.got.cif
#   From: 2010.06.25/outbox.cif.g09.slc.cpg/sg15_156_cif.got.tgz:310268.got - 2010.06.28 07:06:18.
