data_PCOD8152926
_publ_section_title
;
Structure prediction by ZEFSAII (Michael W. Deem and Ramdas Pophale) SiO2 
 PCOD8152926
Probable space group: C 2/C
;
_chemical_formula_sum "Si O2"
_cell_formula_units_Z 40
_cell_length_a 9.909004
_cell_length_b 13.553208
_cell_length_c 14.450925
_cell_angle_alpha 90.000000
_cell_angle_beta 89.915020
_cell_angle_gamma 90.000000
_cell_volume 1940.739640
_symmetry_space_group_name_H-M "C 2/C"
_symmetry_group_IT_number 15
_symmetry_cell_setting 'monoclinic'
loop_
_space_group_symop_operation_xyz
x,y,z
-x,y,1/2-z
-x,-y,-z
x,-y,1/2+z
1/2+x,1/2+y,z
1/2-x,1/2+y,1/2-z
1/2-x,1/2-y,-z
1/2+x,1/2-y,1/2+z
loop_
_atom_site_type_symbol
_atom_site_label
_atom_site_fract_x
_atom_site_fract_y
_atom_site_fract_z
Si Si1 0.095043 0.874359 0.662063
Si Si2 0.506937 0.099436 0.943227
Si Si3 0.715536 0.587119 0.652613
Si Si4 0.250444 0.323585 0.154113
Si Si5 0.494366 0.304416 0.473358
O O1 0.202366 0.786984 0.676597
O O2 0.000000 0.884663 0.750000
O O3 0.999847 0.854123 0.574267
O O4 0.177573 0.973364 0.645622
O O5 0.627652 0.098973 0.869785
O O6 0.371535 0.110816 0.883986
O O7 0.526707 0.187460 0.016635
O O8 0.500000 0.000000 0.000000
O O9 0.686911 0.627400 0.754942
O O10 0.630793 0.650882 0.580443
O O11 0.364837 0.324322 0.076822
#
# Coordination Sequence:
#
# PCOD8152926 Si02
#       5
#     8   8   8   8   8
#     4  11  23  41  63  90 124 163 201 251 308 362
#     4  11  23  41  63  90 124 164 203 251 307 361
#     4  12  24  40  64  94 122 160 207 253 300 362
#     4  11  23  42  62  90 126 162 201 251 307 364
#     4  11  23  42  64  90 122 161 205 252 302 363
#
# _framework density 20.610699
#
# number of rings (size 3 to 8) (size 9 to 14) (size 15 to 20)
#    0.000    0.800    0.000   10.800    0.000    3.200 
#    0.000    4.000    0.000    0.000    0.000    0.000 
#    0.000    0.000    0.000    0.000    0.000    0.000 
#
# Total GULP energy -248163.741457 kJ/mol
# GULP energy per Si atom -12408.187073 kJ/mol
# Density = 2.056379 g / cm^3
# Si number density = 20.610699 Si / 1000 Ang^3
#
#
#
# Elastic Constant Matrix: (Units=GPa)
#
#
# Indices 1 2 3 4 5 6 
#
# 1 87.3766 33.1545 49.1654 0.0000 -15.2666 0.0000
# 2 33.1545 153.3985 65.6131 0.0000 21.4136 0.0000
# 3 49.1654 65.6131 111.6787 0.0000 -0.9756 0.0000
# 4 0.0000 0.0000 0.0000 30.4079 0.0000 -4.9571
# 5 -15.2666 21.4136 -0.9756 0.0000 44.7775 0.0000
# 6 0.0000 0.0000 0.0000 -4.9571 0.0000 25.1229
#
#
#
# Elastic Compliance Matrix: (Units=1/GPa)
#
#
# Indices 1 2 3 4 5 6 
#
# 1 0.016798 -0.001866 -0.006242 0.000000 0.006483 0.000000
# 2 -0.001866 0.009818 -0.004994 0.000000 -0.005440 0.000000
# 3 -0.006242 -0.004994 0.014642 0.000000 0.000579 0.000000
# 4 0.000000 0.000000 0.000000 0.033979 0.000000 0.006705
# 5 0.006483 -0.005440 0.000579 0.000000 0.027157 0.000000
# 6 0.000000 0.000000 0.000000 0.006705 0.000000 0.041127
#
#
# Mechanical properties :
#
#
# Convention : Reuss Voigt Hill
#
# Bulk Modulus (GPa) = 66.43291 72.03554 69.23422
# Shear Modulus (GPa) = 28.61343 33.69639 31.15491
#
# Velocity S-wave (km/s) = 3.73001 4.04777 3.89213
# Velocity P-wave (km/s) = 7.13112 7.54138 7.33911
#
# Compressibility (1/GPa) = 0.01505278
#
# Stress axis : x y z
#
# Youngs Moduli (GPa) = 59.53148 101.85591 68.29791
#
# Poissons Ratio (x) = 0.19002 0.42634
# Poissons Ratio (y) = 0.11106 0.34110
# Poissons Ratio (z) = 0.37162 0.50870
#
# Static dielectric constant tensor:
#      x y z
#    x 3.800100 0.000000 -0.074590 
#    y 0.000000 4.220210 0.000000 
#    z -0.074590 0.000000 3.864870 
# 
# 
# High freq. dielectric constant tensor:
#      x y z
#    x 1.816000 0.000000 -0.008400 
#    y 0.000000 1.821090 0.000000 
#    z -0.008400 0.000000 1.819680 
# 
# From -- ./inp_files/133171.got.cif
#   From: 2010.06.25/outbox.cif.g09.slc.cpg/sg15_67_cif.got.tgz:133171.got - 2010.06.28 07:06:18.
