data_PCOD8152576
_publ_section_title
;
Structure prediction by ZEFSAII (Michael W. Deem and Ramdas Pophale) SiO2 
 PCOD8152576
Probable space group: C 2/C
;
_chemical_formula_sum "Si O2"
_cell_formula_units_Z 40
_cell_length_a 12.268896
_cell_length_b 8.486645
_cell_length_c 19.965494
_cell_angle_alpha 90.000000
_cell_angle_beta 71.219576
_cell_angle_gamma 90.000000
_cell_volume 1968.163469
_symmetry_space_group_name_H-M "C 2/C"
_symmetry_group_IT_number 15
_symmetry_cell_setting 'monoclinic'
loop_
_space_group_symop_operation_xyz
x,y,z
-x,y,1/2-z
-x,-y,-z
x,-y,1/2+z
1/2+x,1/2+y,z
1/2-x,1/2+y,1/2-z
1/2-x,1/2-y,-z
1/2+x,1/2-y,1/2+z
loop_
_atom_site_type_symbol
_atom_site_label
_atom_site_fract_x
_atom_site_fract_y
_atom_site_fract_z
Si Si1 0.727684 0.115490 0.818247
Si Si2 0.036564 0.414140 0.925298
Si Si3 0.791157 0.338623 0.926027
Si Si4 0.364873 0.689916 0.285056
Si Si5 0.273815 0.312993 0.068670
O O1 0.770958 0.236384 0.864914
O O2 0.703197 0.206159 0.755018
O O3 0.613221 0.029760 0.865917
O O4 0.829066 0.991689 0.783631
O O5 0.105119 0.254158 0.928544
O O6 0.926389 0.372535 0.903077
O O7 0.000000 0.500000 0.000000
O O8 0.718196 0.498667 0.933464
O O9 0.750000 0.250000 0.000000
O O10 0.500000 0.706495 0.250000
O O11 0.331465 0.752842 0.364964
O O12 0.250000 0.250000 0.000000
#
# Coordination Sequence:
#
# PCOD8152576 Si02
#       5
#     8   8   8   8   8
#     4  11  25  43  64  97 134 170 225 270 330 405
#     4  11  22  43  67  98 134 168 217 280 335 393
#     4  12  23  40  66  98 134 174 219 274 332 400
#     4  11  25  44  68  95 132 177 220 275 338 398
#     4  11  23  42  69  97 130 173 222 274 333 394
#
# _framework density 20.323513999999999
#
# number of rings (size 3 to 8) (size 9 to 14) (size 15 to 20)
#    0.000    0.800    4.000    3.600    0.000    5.600 
#    0.000    1.000    0.000    0.000    0.000    0.000 
#    0.000    0.000    0.000    0.000    0.000    0.000 
#
# Total GULP energy -248134.646759 kJ/mol
# GULP energy per Si atom -12406.732338 kJ/mol
# Density = 2.027726 g / cm^3
# Si number density = 20.323514 Si / 1000 Ang^3
#
#
#
# Elastic Constant Matrix: (Units=GPa)
#
#
# Indices 1 2 3 4 5 6 
#
# 1 117.5066 54.6724 47.1484 0.0000 -0.2444 0.0000
# 2 54.6724 169.4648 57.3410 0.0000 10.2127 0.0000
# 3 47.1484 57.3410 140.1631 0.0000 9.0070 0.0000
# 4 0.0000 0.0000 0.0000 44.4614 0.0000 6.6356
# 5 -0.2444 10.2127 9.0070 0.0000 33.1076 0.0000
# 6 0.0000 0.0000 0.0000 6.6356 0.0000 32.9221
#
#
#
# Elastic Compliance Matrix: (Units=1/GPa)
#
#
# Indices 1 2 3 4 5 6 
#
# 1 0.010830 -0.002697 -0.002644 0.000000 0.001631 0.000000
# 2 -0.002697 0.007583 -0.002080 0.000000 -0.001793 0.000000
# 3 -0.002644 -0.002080 0.008992 0.000000 -0.001824 0.000000
# 4 0.000000 0.000000 0.000000 0.023189 0.000000 -0.004674
# 5 0.001631 -0.001793 -0.001824 0.000000 0.031266 0.000000
# 6 0.000000 0.000000 0.000000 -0.004674 0.000000 0.031317
#
#
# Mechanical properties :
#
#
# Convention : Reuss Voigt Hill
#
# Bulk Modulus (GPa) = 79.60470 82.82867 81.21669
# Shear Modulus (GPa) = 37.81978 39.96306 38.89142
#
# Velocity S-wave (km/s) = 4.31848 4.43916 4.37924
# Velocity P-wave (km/s) = 8.00747 8.19258 8.10055
#
# Compressibility (1/GPa) = 0.01256207
#
# Stress axis : x y z
#
# Youngs Moduli (GPa) = 92.34002 131.87580 111.21008
#
# Poissons Ratio (x) = 0.35572 0.29406
# Poissons Ratio (y) = 0.24908 0.23127
# Poissons Ratio (z) = 0.24416 0.27425
#
# Static dielectric constant tensor:
#      x y z
#    x 4.190670 0.000000 -0.027950 
#    y 0.000000 3.707800 0.000000 
#    z -0.027950 0.000000 3.790120 
# 
# 
# High freq. dielectric constant tensor:
#      x y z
#    x 1.797610 0.000000 0.000730 
#    y 0.000000 1.810840 0.000000 
#    z 0.000730 0.000000 1.810330 
# 
# From -- ./inp_files/195051.got.cif
#   From: 2010.06.25/outbox.cif.g09.slc.cpg/sg15_98_cif.got.tgz:195051.got - 2010.06.28 07:06:18.
