data_PCOD8152037
_publ_section_title
;
Structure prediction by ZEFSAII (Michael W. Deem and Ramdas Pophale) SiO2 
 PCOD8152037
Probable space group: C 2/C
;
_chemical_formula_sum "Si O2"
_cell_formula_units_Z 48
_cell_length_a 28.522506
_cell_length_b 9.189441
_cell_length_c 17.530119
_cell_angle_alpha 90.000000
_cell_angle_beta 28.899718
_cell_angle_gamma 90.000000
_cell_volume 2220.540663
_symmetry_space_group_name_H-M "C 2/C"
_symmetry_group_IT_number 15
_symmetry_cell_setting 'monoclinic'
loop_
_space_group_symop_operation_xyz
x,y,z
-x,y,1/2-z
-x,-y,-z
x,-y,1/2+z
1/2+x,1/2+y,z
1/2-x,1/2+y,1/2-z
1/2-x,1/2-y,-z
1/2+x,1/2-y,1/2+z
loop_
_atom_site_type_symbol
_atom_site_label
_atom_site_fract_x
_atom_site_fract_y
_atom_site_fract_z
Si Si1 0.196000 0.002485 0.388429
Si Si2 0.143866 0.720433 0.867417
Si Si3 0.766519 0.161795 0.399331
Si Si4 0.984575 0.517566 0.110786
Si Si5 0.762458 0.415022 0.959431
Si Si6 0.422302 0.235391 0.923500
O O1 0.185035 0.152949 0.360994
O O2 0.205510 0.038879 0.464572
O O3 0.291686 0.925315 0.219806
O O4 0.106263 0.892442 0.499651
O O5 0.142919 0.775738 0.779591
O O6 0.040330 0.670112 0.048936
O O7 0.750000 0.250000 0.500000
O O8 0.674212 0.167744 0.475466
O O9 0.784793 0.997393 0.400487
O O10 0.874499 0.537675 0.293076
O O11 0.031665 0.376906 0.082911
O O12 0.000000 0.500000 0.000000
O O13 0.750000 0.250000 0.000000
O O14 0.500000 0.272987 0.750000
#
# Coordination Sequence:
#
# PCOD8152037 Si02
#       6
#     8   8   8   8   8   8
#     4  11  25  44  69 101 138 184 231 288 351 423
#     4  11  24  42  72  98 138 179 238 280 349 414
#     4  11  21  46  68  97 134 188 223 283 354 417
#     4  12  25  46  70 103 138 184 236 287 342 419
#     4  12  27  44  71 101 144 181 234 289 355 419
#     4  11  24  41  73  98 140 183 233 282 352 414
#
# _framework density 21.616356
#
# number of rings (size 3 to 8) (size 9 to 14) (size 15 to 20)
#    0.000    0.667    6.667    2.000    4.667    1.333 
#    0.000    1.667    0.000    0.000    0.000    0.000 
#    0.000    0.000    0.000    0.000    0.000    0.000 
#
# Total GULP energy -297460.788760 kJ/mol
# GULP energy per Si atom -12394.199532 kJ/mol
# Density = 2.156716 g / cm^3
# Si number density = 21.616356 Si / 1000 Ang^3
#
#
#
# Elastic Constant Matrix: (Units=GPa)
#
#
# Indices 1 2 3 4 5 6 
#
# 1 93.7896 46.8523 18.8428 0.0005 0.3269 -0.0007
# 2 46.8523 144.8906 21.8377 -0.0004 -6.5553 -0.0003
# 3 18.8428 21.8377 69.2646 0.0002 1.6762 -0.0003
# 4 0.0005 -0.0004 0.0002 37.1617 0.0001 2.1612
# 5 0.3269 -6.5553 1.6762 0.0001 14.8860 0.0000
# 6 -0.0007 -0.0003 -0.0003 2.1612 0.0000 45.3523
#
#
#
# Elastic Compliance Matrix: (Units=1/GPa)
#
#
# Indices 1 2 3 4 5 6 
#
# 1 0.013112 -0.003979 -0.002269 0.000000 -0.001784 0.000000
# 2 -0.003979 0.008635 -0.001739 0.000000 0.004086 0.000000
# 3 -0.002269 -0.001739 0.015663 0.000000 -0.002480 0.000000
# 4 0.000000 0.000000 0.000000 0.026984 0.000000 -0.001286
# 5 -0.001784 0.004086 -0.002480 0.000000 0.069295 0.000000
# 6 0.000000 0.000000 0.000000 -0.001286 0.000000 0.022111
#
#
# Mechanical properties :
#
#
# Convention : Reuss Voigt Hill
#
# Bulk Modulus (GPa) = 46.65040 53.66783 50.15911
# Shear Modulus (GPa) = 27.94552 34.17413 31.05983
#
# Velocity S-wave (km/s) = 3.59945 3.98042 3.79472
# Velocity P-wave (km/s) = 6.23720 6.78279 6.51571
#
# Compressibility (1/GPa) = 0.02143604
#
# Stress axis : x y z
#
# Youngs Moduli (GPa) = 76.26719 115.80442 63.84452
#
# Poissons Ratio (x) = 0.46074 0.14489
# Poissons Ratio (y) = 0.30343 0.11103
# Poissons Ratio (z) = 0.17308 0.20139
#
# Static dielectric constant tensor:
#      x y z
#    x 3.991080 0.000000 0.120650 
#    y 0.000000 4.384030 0.000000 
#    z 0.120650 0.000000 4.584300 
# 
# 
# High freq. dielectric constant tensor:
#      x y z
#    x 1.846800 0.000000 0.008540 
#    y 0.000000 1.864950 0.000000 
#    z 0.008540 0.000000 1.846680 
# 
# From -- ./inp_files/224530.got.cif
#   From: 2010.06.25/outbox.cif.g09.slc.cpg/sg15_113_cif.got.tgz:224530.got - 2010.06.28 07:06:18.
