data_PCOD8152837
_publ_section_title
;
Structure prediction by ZEFSAII (Michael W. Deem and Ramdas Pophale) SiO2 
 PCOD8152837
Probable space group: C 2/C
;
_chemical_formula_sum "Si O2"
_cell_formula_units_Z 32
_cell_length_a 26.819250
_cell_length_b 7.699411
_cell_length_c 18.620890
_cell_angle_alpha 90.000000
_cell_angle_beta 25.502857
_cell_angle_gamma 90.000000
_cell_volume 1655.519558
_symmetry_space_group_name_H-M "C 2/C"
_symmetry_group_IT_number 15
_symmetry_cell_setting 'monoclinic'
loop_
_space_group_symop_operation_xyz
x,y,z
-x,y,1/2-z
-x,-y,-z
x,-y,1/2+z
1/2+x,1/2+y,z
1/2-x,1/2+y,1/2-z
1/2-x,1/2-y,-z
1/2+x,1/2-y,1/2+z
loop_
_atom_site_type_symbol
_atom_site_label
_atom_site_fract_x
_atom_site_fract_y
_atom_site_fract_z
Si Si1 0.571265 0.640758 0.989652
Si Si2 0.091116 0.451027 0.070866
Si Si3 0.155551 0.030960 0.735289
Si Si4 0.488559 0.328239 0.348026
O O1 0.595068 0.816003 0.001205
O O2 0.435661 0.630733 0.140884
O O3 0.598054 0.471190 0.004553
O O4 0.653672 0.637020 0.812883
O O5 0.059551 0.635919 0.077559
O O6 0.000000 0.392234 0.250000
O O7 0.216178 0.461026 0.946652
O O8 0.114667 0.156524 0.722980
O O9 0.500000 0.373075 0.250000
#
# Coordination Sequence:
#
# PCOD8152837 Si02
#       4
#     8   8   8   8
#     4   9  21  42  57  88 125 156 201 249 293 358
#     4  11  23  38  63  92 119 160 205 238 305 361
#     4   9  22  41  59  91 123 155 205 244 299 359
#     4   9  20  40  59  87 124 154 199 248 294 355
#
# _framework density 19.329277999999999
#
# number of rings (size 3 to 8) (size 9 to 14) (size 15 to 20)
#    1.500    1.000    0.000    0.750    3.500    6.000 
#    4.500    0.000    0.000    0.000    0.000    0.000 
#    0.000    0.000    0.000    0.000    0.000    0.000 
#
# Total GULP energy -198274.434506 kJ/mol
# GULP energy per Si atom -12392.152157 kJ/mol
# Density = 1.928528 g / cm^3
# Si number density = 19.329278 Si / 1000 Ang^3
#
#
#
# Elastic Constant Matrix: (Units=GPa)
#
#
# Indices 1 2 3 4 5 6 
#
# 1 118.2234 53.9878 25.4020 0.0020 15.9998 0.0004
# 2 53.9878 85.1031 7.2605 0.0025 5.5136 0.0007
# 3 25.4020 7.2605 69.9556 0.0028 -8.1188 -0.0009
# 4 0.0020 0.0025 0.0028 8.1593 -0.0005 -7.5245
# 5 15.9998 5.5136 -8.1188 -0.0005 38.7334 -0.0003
# 6 0.0004 0.0007 -0.0009 -7.5245 -0.0003 22.6273
#
#
#
# Elastic Compliance Matrix: (Units=1/GPa)
#
#
# Indices 1 2 3 4 5 6 
#
# 1 0.013958 -0.008072 -0.004885 0.000000 -0.005641 0.000000
# 2 -0.008072 0.016676 0.001345 -0.000005 0.001243 -0.000002
# 3 -0.004885 0.001345 0.016544 -0.000005 0.005294 -0.000001
# 4 0.000000 -0.000005 -0.000005 0.176767 0.000002 0.058782
# 5 -0.005641 0.001243 0.005294 0.000002 0.029080 0.000001
# 6 0.000000 -0.000002 -0.000001 0.058782 0.000001 0.063742
#
#
# Mechanical properties :
#
#
# Convention : Reuss Voigt Hill
#
# Bulk Modulus (GPa) = 41.75049 49.62030 45.68540
# Shear Modulus (GPa) = 14.36879 26.34612 20.35745
#
# Velocity S-wave (km/s) = 2.72944 3.69591 3.24881
# Velocity P-wave (km/s) = 5.61957 6.62871 6.14489
#
# Compressibility (1/GPa) = 0.02395182
#
# Stress axis : x y z
#
# Youngs Moduli (GPa) = 71.64387 59.96555 60.44666
#
# Poissons Ratio (x) = 0.48407 0.29529
# Poissons Ratio (y) = 0.57834 -0.08128
# Poissons Ratio (z) = 0.34999 -0.08063
#
# Static dielectric constant tensor:
#      x y z
#    x 3.502460 0.000000 0.024280 
#    y 0.000000 3.291840 0.000010 
#    z 0.024280 0.000010 3.310520 
# 
# 
# High freq. dielectric constant tensor:
#      x y z
#    x 1.757260 0.000000 0.007680 
#    y 0.000000 1.735830 0.000000 
#    z 0.007680 0.000000 1.738840 
# 
# From -- ./inp_files/109174.got.cif
#   From: 2010.06.25/outbox.cif.g09.slc.cpg/sg15_55_cif.got.tgz:109174.got - 2010.06.28 07:06:18.
