data_PCOD8152222
_publ_section_title
;
Structure prediction by ZEFSAII (Michael W. Deem and Ramdas Pophale) SiO2 
 PCOD8152222
Probable space group: C 2/C
;
_chemical_formula_sum "Si O2"
_cell_formula_units_Z 64
_cell_length_a 13.067787
_cell_length_b 19.047559
_cell_length_c 17.111640
_cell_angle_alpha 90.000000
_cell_angle_beta 139.614806
_cell_angle_gamma 90.000000
_cell_volume 2759.665631
_symmetry_space_group_name_H-M "C 2/C"
_symmetry_group_IT_number 15
_symmetry_cell_setting 'monoclinic'
loop_
_space_group_symop_operation_xyz
x,y,z
-x,y,1/2-z
-x,-y,-z
x,-y,1/2+z
1/2+x,1/2+y,z
1/2-x,1/2+y,1/2-z
1/2-x,1/2-y,-z
1/2+x,1/2-y,1/2+z
loop_
_atom_site_type_symbol
_atom_site_label
_atom_site_fract_x
_atom_site_fract_y
_atom_site_fract_z
Si Si1 0.870430 0.611955 0.012691
Si Si2 0.308832 0.522513 0.467784
Si Si3 0.038707 0.073189 0.182484
Si Si4 0.348419 0.016930 0.284381
Si Si5 0.477425 0.763099 0.826383
Si Si6 0.030195 0.856694 0.073845
Si Si7 0.110488 0.783654 0.651031
Si Si8 0.858890 0.629690 0.827600
O O1 0.752120 0.562767 0.991231
O O2 0.045243 0.579595 0.122230
O O3 0.887361 0.689730 0.056134
O O4 0.809161 0.624097 0.889372
O O5 0.386298 0.449045 0.540927
O O6 0.175423 0.516673 0.323582
O O7 0.441365 0.571355 0.505463
O O8 0.185162 0.025145 0.238279
O O9 0.070822 0.156777 0.192205
O O10 0.000000 0.056997 0.250000
O O11 0.445865 0.944208 0.359765
O O12 0.500000 0.775008 0.750000
O O13 0.513467 0.682445 0.870206
O O14 0.298448 0.783009 0.746960
O O15 0.213099 0.875922 0.182905
O O16 0.990454 0.800841 0.983953
O O17 0.053260 0.703780 0.640382
#
# Coordination Sequence:
#
# PCOD8152222 Si02
#       8
#     8   8   8   8   8   8   8   8
#     4  12  24  42  67 102 140 172 220 281 354 409
#     4  12  25  41  72 104 134 180 220 283 350 408
#     4  12  25  44  70 100 133 181 235 282 327 394
#     4  12  23  47  68  97 139 177 228 284 344 405
#     4  11  23  37  64 100 141 180 210 265 351 426
#     4  11  22  39  65  99 144 168 222 268 343 418
#     4  11  23  45  65  97 137 182 223 277 340 402
#     4  11  25  40  68  98 134 185 227 279 332 408
#
# _framework density 23.191216000000001
#
# number of rings (size 3 to 8) (size 9 to 14) (size 15 to 20)
#    0.000    0.500    5.000    4.125    3.500    1.000 
#    0.000    1.250    0.000    8.250    0.000    0.000 
#    0.000    0.000    0.000    0.000    0.000    0.000 
#
# Total GULP energy -396554.743761 kJ/mol
# GULP energy per Si atom -12392.335743 kJ/mol
# Density = 2.313843 g / cm^3
# Si number density = 23.191216 Si / 1000 Ang^3
#
#
#
# Elastic Constant Matrix: (Units=GPa)
#
#
# Indices 1 2 3 4 5 6 
#
# 1 42.4279 8.9515 8.0948 0.0000 -3.5099 0.0000
# 2 8.9515 144.2618 14.1541 0.0000 -7.2536 0.0000
# 3 8.0948 14.1541 81.9002 -0.0001 -15.9665 0.0000
# 4 0.0000 0.0000 -0.0001 38.7864 -0.0001 -4.6614
# 5 -3.5099 -7.2536 -15.9665 -0.0001 22.2919 0.0000
# 6 0.0000 0.0000 0.0000 -4.6614 0.0000 21.7518
#
#
#
# Elastic Compliance Matrix: (Units=1/GPa)
#
#
# Indices 1 2 3 4 5 6 
#
# 1 0.024346 -0.001228 -0.001772 0.000000 0.002164 0.000000
# 2 -0.001228 0.007166 -0.000814 0.000000 0.001556 0.000000
# 3 -0.001772 -0.000814 0.014435 0.000000 0.009795 0.000000
# 4 0.000000 0.000000 0.000000 0.026464 0.000000 0.005671
# 5 0.002164 0.001556 0.009795 0.000000 0.052722 0.000000
# 6 0.000000 0.000000 0.000000 0.005671 0.000000 0.047189
#
#
# Mechanical properties :
#
#
# Convention : Reuss Voigt Hill
#
# Bulk Modulus (GPa) = 26.09648 36.77675 31.43661
# Shear Modulus (GPa) = 25.94405 32.39200 29.16802
#
# Velocity S-wave (km/s) = 3.34833 3.74135 3.55028
# Velocity P-wave (km/s) = 5.12109 5.87844 5.51279
#
# Compressibility (1/GPa) = 0.03831934
#
# Stress axis : x y z
#
# Youngs Moduli (GPa) = 41.07514 139.54591 69.27412
#
# Poissons Ratio (x) = 0.17136 0.12276
# Poissons Ratio (y) = 0.05044 0.05638
# Poissons Ratio (z) = 0.07279 0.11357
#
# Static dielectric constant tensor:
#      x y z
#    x 3.756250 0.000000 -0.031020 
#    y 0.000000 4.753020 0.000000 
#    z -0.031020 0.000000 4.349860 
# 
# 
# High freq. dielectric constant tensor:
#      x y z
#    x 1.872540 0.000000 -0.011790 
#    y 0.000000 1.941630 0.000000 
#    z -0.011790 0.000000 1.930180 
# 
# From -- ./inp_files/206492.got.cif
#   From: 2010.06.25/outbox.cif.g09.slc.cpg/sg15_104_cif.got.tgz:206492.got - 2010.06.28 07:06:18.
