data_PCOD8152573
_publ_section_title
;
Structure prediction by ZEFSAII (Michael W. Deem and Ramdas Pophale) SiO2 
 PCOD8152573
Probable space group: C 2/C
;
_chemical_formula_sum "Si O2"
_cell_formula_units_Z 44
_cell_length_a 27.932502
_cell_length_b 12.854868
_cell_length_c 16.207219
_cell_angle_alpha 90.000000
_cell_angle_beta 158.718900
_cell_angle_gamma 90.000000
_cell_volume 2112.153289
_symmetry_space_group_name_H-M "C 2/C"
_symmetry_group_IT_number 15
_symmetry_cell_setting 'monoclinic'
loop_
_space_group_symop_operation_xyz
x,y,z
-x,y,1/2-z
-x,-y,-z
x,-y,1/2+z
1/2+x,1/2+y,z
1/2-x,1/2+y,1/2-z
1/2-x,1/2-y,-z
1/2+x,1/2-y,1/2+z
loop_
_atom_site_type_symbol
_atom_site_label
_atom_site_fract_x
_atom_site_fract_y
_atom_site_fract_z
Si Si1 0.689759 0.104328 0.393527
Si Si2 0.500000 0.075280 0.750000
Si Si3 0.553499 0.753385 0.207222
Si Si4 0.895390 0.604856 0.982397
Si Si5 0.219166 0.773843 0.313281
Si Si6 0.268483 0.885016 0.110159
O O1 0.788457 0.143262 0.623716
O O2 0.726704 0.159566 0.366153
O O3 0.704682 0.982136 0.406229
O O4 0.540038 0.130942 0.179789
O O5 0.435101 0.148379 0.713805
O O6 0.392760 0.999479 0.534348
O O7 0.633929 0.789105 0.255381
O O8 0.619125 0.653893 0.357254
O O9 0.407885 0.718281 0.949058
O O10 0.845470 0.701528 0.958273
O O11 0.793762 0.584100 0.745114
#
# Coordination Sequence:
#
# PCOD8152573 Si02
#       6
#     8   4   8   8   8   8
#     4  11  22  43  66  97 125 178 215 270 316 391
#     4  12  22  40  68  92 126 168 228 246 328 386
#     4  11  23  40  63  99 127 172 208 273 321 384
#     4  12  21  40  68  96 124 173 223 265 308 398
#     4  11  23  39  69  93 136 163 223 263 326 378
#     4  11  23  40  66  92 132 165 219 264 326 379
#
# _framework density 20.831821999999999
#
# number of rings (size 3 to 8) (size 9 to 14) (size 15 to 20)
#    0.000    0.727    5.455    2.727    0.000    0.727 
#    0.000    0.000   32.000    0.000    0.000    0.000 
#    0.000    0.000    0.000    0.000    0.000    0.000 
#
# Total GULP energy -272781.951681 kJ/mol
# GULP energy per Si atom -12399.179622 kJ/mol
# Density = 2.078441 g / cm^3
# Si number density = 20.831822 Si / 1000 Ang^3
#
#
#
# Elastic Constant Matrix: (Units=GPa)
#
#
# Indices 1 2 3 4 5 6 
#
# 1 95.8799 53.2829 55.0789 0.0000 -12.1787 0.0000
# 2 53.2829 106.2467 74.4030 0.0000 0.0071 0.0000
# 3 55.0789 74.4030 104.9854 0.0000 -18.5677 0.0000
# 4 0.0000 0.0000 0.0000 22.8930 0.0000 3.3706
# 5 -12.1787 0.0071 -18.5677 0.0000 42.1707 0.0000
# 6 0.0000 0.0000 0.0000 3.3706 0.0000 45.0147
#
#
#
# Elastic Compliance Matrix: (Units=1/GPa)
#
#
# Indices 1 2 3 4 5 6 
#
# 1 0.016077 -0.004940 -0.004460 0.000000 0.002680 0.000000
# 2 -0.004940 0.021901 -0.014296 0.000000 -0.007725 0.000000
# 3 -0.004460 -0.014296 0.023607 0.000000 0.009109 0.000000
# 4 0.000000 0.000000 0.000000 0.044169 0.000000 -0.003307
# 5 0.002680 -0.007725 0.009109 0.000000 0.028499 0.000000
# 6 0.000000 0.000000 0.000000 -0.003307 0.000000 0.022463
#
#
# Mechanical properties :
#
#
# Convention : Reuss Voigt Hill
#
# Bulk Modulus (GPa) = 70.44885 74.73795 72.59340
# Shear Modulus (GPa) = 23.94192 30.30548 27.12370
#
# Velocity S-wave (km/s) = 3.39380 3.81828 3.61228
# Velocity P-wave (km/s) = 7.01773 7.44270 7.23333
#
# Compressibility (1/GPa) = 0.01419470
#
# Stress axis : x y z
#
# Youngs Moduli (GPa) = 62.19933 45.65980 42.35961
#
# Poissons Ratio (x) = 0.22555 0.18892
# Poissons Ratio (y) = 0.30725 0.60557
# Poissons Ratio (z) = 0.27740 0.65275
#
# Static dielectric constant tensor:
#      x y z
#    x 3.969100 0.000000 -0.222930 
#    y 0.000000 3.715580 0.000000 
#    z -0.222930 0.000000 3.703000 
# 
# 
# High freq. dielectric constant tensor:
#      x y z
#    x 1.830110 0.000000 -0.020280 
#    y 0.000000 1.806000 0.000000 
#    z -0.020280 0.000000 1.803210 
# 
# From -- ./inp_files/225228.got.cif
#   From: 2010.06.25/outbox.cif.g09.slc.cpg/sg15_113_cif.got.tgz:225228.got - 2010.06.28 07:06:18.
