data_PCOD8152061
_publ_section_title
;
Structure prediction by ZEFSAII (Michael W. Deem and Ramdas Pophale) SiO2 
 PCOD8152061
Probable space group: C 2/C
;
_chemical_formula_sum "Si O2"
_cell_formula_units_Z 56
_cell_length_a 24.831011
_cell_length_b 12.661769
_cell_length_c 25.830032
_cell_angle_alpha 90.000000
_cell_angle_beta 160.116021
_cell_angle_gamma 90.000000
_cell_volume 2762.113877
_symmetry_space_group_name_H-M "C 2/C"
_symmetry_group_IT_number 15
_symmetry_cell_setting 'monoclinic'
loop_
_space_group_symop_operation_xyz
x,y,z
-x,y,1/2-z
-x,-y,-z
x,-y,1/2+z
1/2+x,1/2+y,z
1/2-x,1/2+y,1/2-z
1/2-x,1/2-y,-z
1/2+x,1/2-y,1/2+z
loop_
_atom_site_type_symbol
_atom_site_label
_atom_site_fract_x
_atom_site_fract_y
_atom_site_fract_z
Si Si1 0.594908 0.312982 0.643817
Si Si2 0.871847 0.490895 0.674661
Si Si3 0.945501 0.694049 0.314750
Si Si4 0.628537 0.661219 0.909444
Si Si5 0.815550 0.495323 0.319740
Si Si6 0.346540 0.201486 0.905169
Si Si7 0.755656 0.619316 0.663465
O O1 0.730213 0.401279 0.763446
O O2 0.565014 0.265909 0.559887
O O3 0.430092 0.361548 0.513352
O O4 0.652946 0.224577 0.736513
O O5 0.957365 0.396261 0.782720
O O6 0.718841 0.446195 0.506174
O O7 0.824612 0.584578 0.670548
O O8 0.000000 0.536353 0.750000
O O9 0.764375 0.723447 0.161273
O O10 0.037949 0.796562 0.378027
O O11 0.018057 0.654993 0.434816
O O12 0.500000 0.632261 0.750000
O O13 0.750000 0.750000 0.000000
O O14 0.746952 0.394319 0.289494
O O15 0.782382 0.475754 0.228836
O O16 0.000000 0.500000 0.500000
#
# Coordination Sequence:
#
# PCOD8152061 Si02
#       7
#     8   8   8   8   8   8   8
#     4  11  23  44  63  92 138 175 218 274 320 389
#     4  12  25  43  65  94 127 168 221 279 331 392
#     4  12  21  35  60  95 133 162 201 254 328 397
#     4  12  21  40  60  92 132 169 202 264 333 391
#     4  11  22  39  62  97 135 173 216 260 320 398
#     4  11  22  34  60  94 127 168 206 250 318 392
#     4  11  25  43  68  95 127 179 224 271 336 387
#
# _framework density 20.274328000000001
#
# number of rings (size 3 to 8) (size 9 to 14) (size 15 to 20)
#    0.000    0.571    4.286    6.429    2.000    0.000 
#    0.000    2.143    0.000    0.000    0.000    0.000 
#    0.000    0.000    0.000    0.000    0.000    0.000 
#
# Total GULP energy -347334.330845 kJ/mol
# GULP energy per Si atom -12404.797530 kJ/mol
# Density = 2.022818 g / cm^3
# Si number density = 20.274328 Si / 1000 Ang^3
#
#
#
# Elastic Constant Matrix: (Units=GPa)
#
#
# Indices 1 2 3 4 5 6 
#
# 1 137.3347 57.0670 59.5567 0.0021 7.6790 0.0001
# 2 57.0670 94.3328 45.7969 0.0116 2.2173 0.0018
# 3 59.5567 45.7969 140.3835 0.0390 -4.0920 0.0105
# 4 0.0021 0.0116 0.0390 30.5697 0.0080 0.0899
# 5 7.6790 2.2173 -4.0920 0.0080 33.9899 -0.0007
# 6 0.0001 0.0018 0.0105 0.0899 -0.0007 36.1505
#
#
#
# Elastic Compliance Matrix: (Units=1/GPa)
#
#
# Indices 1 2 3 4 5 6 
#
# 1 0.010816 -0.005017 -0.003024 0.000006 -0.002480 0.000001
# 2 -0.005017 0.014982 -0.002764 -0.000002 -0.000177 0.000000
# 3 -0.003024 -0.002764 0.009366 -0.000011 0.001991 -0.000003
# 4 0.000006 -0.000002 -0.000011 0.032712 -0.000010 -0.000081
# 5 -0.002480 -0.000177 0.001991 -0.000010 0.030232 0.000000
# 6 0.000001 0.000000 -0.000003 -0.000081 0.000000 0.027662
#
#
# Mechanical properties :
#
#
# Convention : Reuss Voigt Hill
#
# Bulk Modulus (GPa) = 73.78209 77.43247 75.60728
# Shear Modulus (GPa) = 32.91628 34.11736 33.51682
#
# Velocity S-wave (km/s) = 4.03369 4.10663 4.07032
# Velocity P-wave (km/s) = 7.62661 7.79494 7.71123
#
# Compressibility (1/GPa) = 0.01355342
#
# Stress axis : x y z
#
# Youngs Moduli (GPa) = 92.45207 66.74729 106.76578
#
# Poissons Ratio (x) = 0.33486 0.32291
# Poissons Ratio (y) = 0.46381 0.29513
# Poissons Ratio (z) = 0.27962 0.18451
#
# Static dielectric constant tensor:
#      x y z
#    x 3.766300 -0.000030 -0.072110 
#    y -0.000030 3.674040 -0.000030 
#    z -0.072110 -0.000030 3.737460 
# 
# 
# High freq. dielectric constant tensor:
#      x y z
#    x 1.791350 0.000000 -0.001530 
#    y 0.000000 1.774580 0.000000 
#    z -0.001530 0.000000 1.805500 
# 
# From -- ./inp_files/303287.got.cif
#   From: 2010.06.25/outbox.cif.g09.slc.cpg/sg15_152_cif.got.tgz:303287.got - 2010.06.28 07:06:18.
