data_PCOD8152356
_publ_section_title
;
Structure prediction by ZEFSAII (Michael W. Deem and Ramdas Pophale) SiO2 
 PCOD8152356
Probable space group: C 2/C
;
_chemical_formula_sum "Si O2"
_cell_formula_units_Z 56
_cell_length_a 15.140809
_cell_length_b 15.434907
_cell_length_c 22.607519
_cell_angle_alpha 90.000000
_cell_angle_beta 155.698872
_cell_angle_gamma 90.000000
_cell_volume 2174.252267
_symmetry_space_group_name_H-M "C 2/C"
_symmetry_group_IT_number 15
_symmetry_cell_setting 'monoclinic'
loop_
_space_group_symop_operation_xyz
x,y,z
-x,y,1/2-z
-x,-y,-z
x,-y,1/2+z
1/2+x,1/2+y,z
1/2-x,1/2+y,1/2-z
1/2-x,1/2-y,-z
1/2+x,1/2-y,1/2+z
loop_
_atom_site_type_symbol
_atom_site_label
_atom_site_fract_x
_atom_site_fract_y
_atom_site_fract_z
Si Si1 0.773521 0.737142 0.229497
Si Si2 0.500000 0.938248 0.750000
Si Si3 0.000000 0.300404 0.250000
Si Si4 0.150645 0.560836 0.164003
Si Si5 0.292411 0.072739 0.707591
Si Si6 0.619302 0.672649 0.015481
Si Si7 0.160741 0.307762 0.497394
Si Si8 0.766379 0.983970 0.607138
O O1 0.751328 0.638690 0.238636
O O2 0.732051 0.735111 0.133673
O O3 0.002202 0.775245 0.390868
O O4 0.596123 0.799828 0.151148
O O5 0.682399 0.879621 0.894252
O O6 0.345458 0.989497 0.699878
O O7 0.018291 0.359804 0.200355
O O8 0.211563 0.240736 0.371408
O O9 0.197620 0.464997 0.219774
O O10 0.241876 0.565431 0.154234
O O11 0.891330 0.564723 0.999931
O O12 0.054546 0.112442 0.554991
O O13 0.250000 0.250000 0.500000
O O14 0.228543 0.408824 0.534653
O O15 0.000000 0.025660 0.750000
#
# Coordination Sequence:
#
# PCOD8152356 Si02
#       8
#     8   4   4   8   8   8   8   8
#     4  12  26  45  74 105 156 195 249 303 372 445
#     4  11  26  46  78 107 148 196 260 303 368 454
#     4  11  22  40  74 109 148 176 250 305 380 448
#     4  11  25  44  68 104 149 200 243 299 372 446
#     4  11  24  47  73 109 142 190 247 313 376 430
#     4  12  26  50  76 110 148 201 250 316 374 451
#     4  12  23  41  73 113 148 193 242 313 385 454
#     4  11  24  45  70 106 151 192 245 303 378 450
#
# _framework density 25.755981999999999
#
# number of rings (size 3 to 8) (size 9 to 14) (size 15 to 20)
#    0.000    0.571    3.571    4.714    0.000    2.857 
#    1.286    0.000    0.000    0.000    0.000    0.000 
#    0.000    0.000    0.000    0.000    0.000    0.000 
#
# Total GULP energy -346890.792421 kJ/mol
# GULP energy per Si atom -12388.956872 kJ/mol
# Density = 2.569736 g / cm^3
# Si number density = 25.755982 Si / 1000 Ang^3
#
#
#
# Elastic Constant Matrix: (Units=GPa)
#
#
# Indices 1 2 3 4 5 6 
#
# 1 52.4433 9.1504 19.7913 0.0296 -5.0996 0.0049
# 2 9.1504 60.8519 35.2983 0.0131 2.7870 -0.0120
# 3 19.7913 35.2983 159.9803 -0.0389 7.4978 -0.0258
# 4 0.0296 0.0131 -0.0389 17.7447 -0.0200 -0.8135
# 5 -5.0996 2.7870 7.4978 -0.0200 42.8398 0.0227
# 6 0.0049 -0.0120 -0.0258 -0.8135 0.0227 31.3354
#
#
#
# Elastic Compliance Matrix: (Units=1/GPa)
#
#
# Indices 1 2 3 4 5 6 
#
# 1 0.020543 -0.001915 -0.002258 -0.000035 0.002965 -0.000009
# 2 -0.001915 0.019035 -0.003926 -0.000020 -0.000779 0.000004
# 3 -0.002258 -0.003926 0.007458 0.000022 -0.001319 0.000007
# 4 -0.000035 -0.000020 0.000022 0.056422 0.000019 0.001465
# 5 0.002965 -0.000779 -0.001319 0.000019 0.023977 -0.000019
# 6 -0.000009 0.000004 0.000007 0.001465 -0.000019 0.031951
#
#
# Mechanical properties :
#
#
# Convention : Reuss Voigt Hill
#
# Bulk Modulus (GPa) = 32.42869 44.63951 38.53410
# Shear Modulus (GPa) = 26.90148 32.31968 29.61058
#
# Velocity S-wave (km/s) = 3.23534 3.54622 3.39434
# Velocity P-wave (km/s) = 5.15506 5.84268 5.50961
#
# Compressibility (1/GPa) = 0.03083689
#
# Stress axis : x y z
#
# Youngs Moduli (GPa) = 48.67892 52.53589 134.08041
#
# Poissons Ratio (x) = 0.10062 0.30272
# Poissons Ratio (y) = 0.09323 0.52645
# Poissons Ratio (z) = 0.10991 0.20628
#
# Static dielectric constant tensor:
#      x y z
#    x 4.481810 -0.000060 -0.234440 
#    y -0.000060 4.943080 0.000820 
#    z -0.234440 0.000820 6.789430 
# 
# 
# High freq. dielectric constant tensor:
#      x y z
#    x 2.013070 0.000000 -0.010620 
#    y 0.000000 2.031430 -0.000010 
#    z -0.010620 -0.000010 2.049150 
# 
# From -- ./inp_files/299382.got.cif
#   From: 2010.06.25/outbox.cif.g09.slc.cpg/sg15_150_cif.got.tgz:299382.got - 2010.06.28 07:06:18.
