data_PCOD8152351
_publ_section_title
;
Structure prediction by ZEFSAII (Michael W. Deem and Ramdas Pophale) SiO2 
 PCOD8152351
Probable space group: C 2/C
;
_chemical_formula_sum "Si O2"
_cell_formula_units_Z 56
_cell_length_a 18.237863
_cell_length_b 15.099154
_cell_length_c 20.451514
_cell_angle_alpha 90.000000
_cell_angle_beta 27.395889
_cell_angle_gamma 90.000000
_cell_volume 2591.423054
_symmetry_space_group_name_H-M "C 2/C"
_symmetry_group_IT_number 15
_symmetry_cell_setting 'monoclinic'
loop_
_space_group_symop_operation_xyz
x,y,z
-x,y,1/2-z
-x,-y,-z
x,-y,1/2+z
1/2+x,1/2+y,z
1/2-x,1/2+y,1/2-z
1/2-x,1/2-y,-z
1/2+x,1/2-y,1/2+z
loop_
_atom_site_type_symbol
_atom_site_label
_atom_site_fract_x
_atom_site_fract_y
_atom_site_fract_z
Si Si1 0.500000 0.458008 0.250000
Si Si2 0.000000 0.445599 0.750000
Si Si3 0.296941 0.232148 0.771181
Si Si4 0.330646 0.472316 0.659832
Si Si5 0.466506 0.067800 0.660867
Si Si6 0.428747 0.709415 0.042189
Si Si7 0.777019 0.072234 0.340059
Si Si8 0.692939 0.669533 0.501150
O O1 0.370953 0.527224 0.324913
O O2 0.425806 0.395096 0.365096
O O3 0.952472 0.511546 0.845997
O O4 0.152987 0.385003 0.644974
O O5 0.406336 0.166219 0.728583
O O6 0.360368 0.216343 0.645747
O O7 0.325985 0.326915 0.782874
O O8 0.114844 0.199570 0.911417
O O9 0.500000 0.500000 0.500000
O O10 0.194145 0.519646 0.729787
O O11 0.316927 0.369090 0.656933
O O12 0.311769 0.491638 0.751435
O O13 0.590278 0.071984 0.503486
O O14 0.396720 0.716389 0.989689
O O15 0.750000 0.750000 0.500000
#
# Coordination Sequence:
#
# PCOD8152351 Si02
#       8
#     4   4   8   8   8   8   8   8
#     4  12  27  49  72 102 148 190 230 289 365 424
#     4  12  27  47  68 106 140 190 234 287 367 424
#     4  11  25  44  73 106 137 185 237 300 348 415
#     4  11  22  40  72  97 135 187 237 294 348 417
#     4  12  24  46  69 104 145 185 239 293 356 426
#     4  11  24  43  66 102 139 176 238 289 355 413
#     4  11  26  46  69 107 143 186 241 289 358 427
#     4  12  28  46  71 103 143 189 236 293 358 427
#
# _framework density 21.609749000000001
#
# number of rings (size 3 to 8) (size 9 to 14) (size 15 to 20)
#    0.000    0.571    5.714    1.714    4.000    0.571 
#    0.000    1.429    0.000    0.000    0.000    0.000 
#    0.000    0.000    0.000    0.000    0.000    0.000 
#
# Total GULP energy -346903.606403 kJ/mol
# GULP energy per Si atom -12389.414514 kJ/mol
# Density = 2.156056 g / cm^3
# Si number density = 21.609749 Si / 1000 Ang^3
#
#
#
# Elastic Constant Matrix: (Units=GPa)
#
#
# Indices 1 2 3 4 5 6 
#
# 1 71.6279 37.7688 19.1202 0.0015 2.4526 -0.0028
# 2 37.7688 100.2652 31.2983 -0.0055 0.5285 -0.0046
# 3 19.1202 31.2983 136.3667 -0.0227 1.4094 -0.0003
# 4 0.0015 -0.0055 -0.0227 27.2880 0.0063 -0.6502
# 5 2.4526 0.5285 1.4094 0.0063 32.1727 0.0019
# 6 -0.0028 -0.0046 -0.0003 -0.6502 0.0019 29.5733
#
#
#
# Elastic Compliance Matrix: (Units=1/GPa)
#
#
# Indices 1 2 3 4 5 6 
#
# 1 0.017597 -0.006308 -0.001007 -0.000003 -0.001194 0.000001
# 2 -0.006308 0.013005 -0.002104 0.000001 0.000359 0.000001
# 3 -0.001007 -0.002104 0.007960 0.000006 -0.000237 0.000000
# 4 -0.000003 0.000001 0.000006 0.036665 -0.000007 0.000806
# 5 -0.001194 0.000359 -0.000237 -0.000007 0.031178 -0.000002
# 6 0.000001 0.000001 0.000000 0.000806 -0.000002 0.033832
#
#
# Mechanical properties :
#
#
# Convention : Reuss Voigt Hill
#
# Bulk Modulus (GPa) = 50.70226 53.84828 52.27527
# Shear Modulus (GPa) = 30.18436 32.47831 31.33133
#
# Velocity S-wave (km/s) = 3.74142 3.88099 3.81185
# Velocity P-wave (km/s) = 6.49446 6.71233 6.60429
#
# Compressibility (1/GPa) = 0.01972299
#
# Stress axis : x y z
#
# Youngs Moduli (GPa) = 56.82834 76.89622 125.63207
#
# Poissons Ratio (x) = 0.48505 0.12654
# Poissons Ratio (y) = 0.35846 0.26433
# Poissons Ratio (z) = 0.05724 0.16179
#
# Static dielectric constant tensor:
#      x y z
#    x 2.460540 -0.012110 -0.047200 
#    y -0.012110 1.820410 -0.002040 
#    z -0.047200 -0.002040 3.807520 
# 
# 
# High freq. dielectric constant tensor:
#      x y z
#    x 1.837470 0.000000 0.003100 
#    y 0.000000 1.858220 0.000000 
#    z 0.003100 0.000000 1.868920 
# 
# From -- ./inp_files/249245.got.cif
#   From: 2010.06.25/outbox.cif.g09.slc.cpg/sg15_125_cif.got.tgz:249245.got - 2010.06.28 07:06:18.
