data_PCOD8152529
_publ_section_title
;
Structure prediction by ZEFSAII (Michael W. Deem and Ramdas Pophale) SiO2 
 PCOD8152529
Probable space group: C 2/C
;
_chemical_formula_sum "Si O2"
_cell_formula_units_Z 52
_cell_length_a 18.956406
_cell_length_b 7.803681
_cell_length_c 18.429129
_cell_angle_alpha 90.000000
_cell_angle_beta 59.673174
_cell_angle_gamma 90.000000
_cell_volume 2353.158828
_symmetry_space_group_name_H-M "C 2/C"
_symmetry_group_IT_number 15
_symmetry_cell_setting 'monoclinic'
loop_
_space_group_symop_operation_xyz
x,y,z
-x,y,1/2-z
-x,-y,-z
x,-y,1/2+z
1/2+x,1/2+y,z
1/2-x,1/2+y,1/2-z
1/2-x,1/2-y,-z
1/2+x,1/2-y,1/2+z
loop_
_atom_site_type_symbol
_atom_site_label
_atom_site_fract_x
_atom_site_fract_y
_atom_site_fract_z
Si Si1 0.165181 0.511627 0.967745
Si Si2 0.500000 0.052941 0.250000
Si Si3 0.161491 0.635202 0.622552
Si Si4 0.656674 0.479354 0.135374
Si Si5 0.568516 0.333409 0.314727
Si Si6 0.090773 0.860226 0.027011
Si Si7 0.832442 0.838634 0.102584
O O1 0.251478 0.557839 0.884086
O O2 0.131039 0.333682 0.953330
O O3 0.187809 0.476526 0.040041
O O4 0.101514 0.667221 0.988865
O O5 0.525099 0.161563 0.307815
O O6 0.421932 0.935780 0.302615
O O7 0.145582 0.831094 0.608533
O O8 0.235120 0.634763 0.642927
O O9 0.591831 0.450175 0.233744
O O10 0.639993 0.352699 0.077321
O O11 0.502258 0.413290 0.404868
O O12 0.650234 0.312577 0.320554
O O13 0.122384 0.995797 0.952539
#
# Coordination Sequence:
#
# PCOD8152529 Si02
#       7
#     8   4   8   8   8   8   8
#     4  11  22  44  72 100 128 187 232 282 343 424
#     4  12  26  42  72  98 146 184 238 284 356 418
#     4  11  23  44  71 103 131 188 232 283 346 422
#     4  11  22  42  71  96 136 179 232 278 346 413
#     4  12  26  44  64 107 139 183 228 294 347 415
#     4  12  22  43  72  98 135 183 230 280 344 418
#     4  11  26  45  69  99 145 174 238 287 347 412
#
# _framework density 22.097954999999999
#
# number of rings (size 3 to 8) (size 9 to 14) (size 15 to 20)
#    0.000    0.615    6.154    1.846    4.308    3.077 
#    2.769    0.000    0.000    0.000    0.000    0.000 
#    0.000    0.000    0.000    0.000    0.000    0.000 
#
# Total GULP energy -322301.822087 kJ/mol
# GULP energy per Si atom -12396.223926 kJ/mol
# Density = 2.204766 g / cm^3
# Si number density = 22.097955 Si / 1000 Ang^3
#
#
#
# Elastic Constant Matrix: (Units=GPa)
#
#
# Indices 1 2 3 4 5 6 
#
# 1 86.9647 27.7067 34.4196 0.0011 4.2593 0.0041
# 2 27.7067 116.4328 38.8540 0.0018 -7.8959 0.0054
# 3 34.4196 38.8540 86.2025 0.0000 -19.5407 0.0010
# 4 0.0011 0.0018 0.0000 26.2408 -0.0001 -11.7269
# 5 4.2593 -7.8959 -19.5407 -0.0001 44.7489 0.0002
# 6 0.0041 0.0054 0.0010 -11.7269 0.0002 20.9214
#
#
#
# Elastic Compliance Matrix: (Units=1/GPa)
#
#
# Indices 1 2 3 4 5 6 
#
# 1 0.014668 -0.001768 -0.006045 -0.000002 -0.004348 -0.000003
# 2 -0.001768 0.010324 -0.003881 -0.000002 0.000295 -0.000003
# 3 -0.006045 -0.003881 0.017468 0.000001 0.007518 0.000002
# 4 -0.000002 -0.000002 0.000001 0.050845 0.000000 0.028500
# 5 -0.004348 0.000295 0.007518 0.000000 0.026096 0.000000
# 6 -0.000003 -0.000003 0.000002 0.028500 0.000000 0.063773
#
#
# Mechanical properties :
#
#
# Convention : Reuss Voigt Hill
#
# Bulk Modulus (GPa) = 52.43249 54.61786 53.52517
# Shear Modulus (GPa) = 23.48308 30.95685 27.21997
#
# Velocity S-wave (km/s) = 3.26342 3.74691 3.51349
# Velocity P-wave (km/s) = 6.16268 6.59462 6.38231
#
# Compressibility (1/GPa) = 0.01907214
#
# Stress axis : x y z
#
# Youngs Moduli (GPa) = 68.17639 96.85836 57.24782
#
# Poissons Ratio (x) = 0.17123 0.34609
# Poissons Ratio (y) = 0.12053 0.22216
# Poissons Ratio (z) = 0.41216 0.37587
#
# Static dielectric constant tensor:
#      x y z
#    x 4.008730 0.000000 -0.157990 
#    y 0.000000 4.043890 0.000000 
#    z -0.157990 0.000000 3.956780 
# 
# 
# High freq. dielectric constant tensor:
#      x y z
#    x 1.863740 0.000000 -0.013910 
#    y 0.000000 1.870300 0.000000 
#    z -0.013910 0.000000 1.863800 
# 
# From -- ./inp_files/209453.got.cif
#   From: 2010.06.25/outbox.cif.g09.slc.cpg/sg15_105_cif.got.tgz:209453.got - 2010.06.28 07:06:18.
