data_PCOD8152367
_publ_section_title
;
Structure prediction by ZEFSAII (Michael W. Deem and Ramdas Pophale) SiO2 
 PCOD8152367
Probable space group: C 2/C
;
_chemical_formula_sum "Si O2"
_cell_formula_units_Z 52
_cell_length_a 21.252735
_cell_length_b 13.780054
_cell_length_c 12.864620
_cell_angle_alpha 90.000000
_cell_angle_beta 41.370017
_cell_angle_gamma 90.000000
_cell_volume 2490.067407
_symmetry_space_group_name_H-M "C 2/C"
_symmetry_group_IT_number 15
_symmetry_cell_setting 'monoclinic'
loop_
_space_group_symop_operation_xyz
x,y,z
-x,y,1/2-z
-x,-y,-z
x,-y,1/2+z
1/2+x,1/2+y,z
1/2-x,1/2+y,1/2-z
1/2-x,1/2-y,-z
1/2+x,1/2-y,1/2+z
loop_
_atom_site_type_symbol
_atom_site_label
_atom_site_fract_x
_atom_site_fract_y
_atom_site_fract_z
Si Si1 0.926652 0.020632 0.500677
Si Si2 0.179058 0.644790 0.490778
Si Si3 0.500000 0.625336 0.750000
Si Si4 0.447572 0.741519 0.490359
Si Si5 0.666356 0.295520 0.170826
Si Si6 0.838272 0.698440 0.753948
Si Si7 0.264077 0.049124 0.676271
O O1 0.938584 0.133043 0.455952
O O2 0.817647 0.995703 0.658588
O O3 0.000000 0.000000 0.500000
O O4 0.940482 0.946251 0.393092
O O5 0.081456 0.691427 0.570171
O O6 0.177567 0.641833 0.617871
O O7 0.268440 0.708337 0.337607
O O8 0.173682 0.535105 0.453510
O O9 0.427666 0.695065 0.781185
O O10 0.371642 0.760558 0.678759
O O11 0.554698 0.763100 0.393216
O O12 0.708458 0.398253 0.152035
O O13 0.750000 0.250000 0.000000
O O14 0.821487 0.624534 0.678476
#
# Coordination Sequence:
#
# PCOD8152367 Si02
#       7
#     8   8   4   8   8   8   8
#     4  11  22  41  64 102 131 166 230 283 341 389
#     4  11  25  43  71 101 140 181 229 285 344 420
#     4  12  26  38  74 100 128 182 222 290 342 410
#     4  11  24  45  68  98 136 179 227 289 334 415
#     4  11  27  44  66 103 137 179 227 283 353 408
#     4  11  25  44  71 101 136 186 229 280 355 401
#     4  11  25  44  67 101 139 178 224 287 342 408
#
# _framework density 20.882968999999999
#
# number of rings (size 3 to 8) (size 9 to 14) (size 15 to 20)
#    0.000    0.923    6.154    1.385    8.615    0.615 
#    0.000    1.538    0.000    0.000    0.000    0.000 
#    0.000    0.000    0.000    0.000    0.000    0.000 
#
# Total GULP energy -322234.332631 kJ/mol
# GULP energy per Si atom -12393.628178 kJ/mol
# Density = 2.083544 g / cm^3
# Si number density = 20.882969 Si / 1000 Ang^3
#
#
#
# Elastic Constant Matrix: (Units=GPa)
#
#
# Indices 1 2 3 4 5 6 
#
# 1 103.7692 25.2816 12.1103 0.0000 1.6566 0.0000
# 2 25.2816 74.7019 26.3189 0.0000 6.6647 0.0000
# 3 12.1103 26.3189 84.9468 0.0000 -9.6686 0.0000
# 4 0.0000 0.0000 0.0000 35.8331 0.0000 -3.1744
# 5 1.6566 6.6647 -9.6686 0.0000 34.0960 0.0000
# 6 0.0000 0.0000 0.0000 -3.1744 0.0000 44.4540
#
#
#
# Elastic Compliance Matrix: (Units=1/GPa)
#
#
# Indices 1 2 3 4 5 6 
#
# 1 0.010518 -0.003407 -0.000440 0.000000 0.000030 0.000000
# 2 -0.003407 0.016798 -0.005243 0.000000 -0.004605 0.000000
# 3 -0.000440 -0.005243 0.014031 0.000000 0.005025 0.000000
# 4 0.000000 0.000000 0.000000 0.028085 0.000000 0.002006
# 5 0.000030 -0.004605 0.005025 0.000000 0.031652 0.000000
# 6 0.000000 0.000000 0.000000 0.002006 0.000000 0.022638
#
#
# Mechanical properties :
#
#
# Convention : Reuss Voigt Hill
#
# Bulk Modulus (GPa) = 43.16666 43.42661 43.29663
# Shear Modulus (GPa) = 33.41700 36.19043 34.80371
#
# Velocity S-wave (km/s) = 4.00459 4.16746 4.08684
# Velocity P-wave (km/s) = 6.48830 6.63305 6.56107
#
# Compressibility (1/GPa) = 0.02316603
#
# Stress axis : x y z
#
# Youngs Moduli (GPa) = 95.07729 59.53264 71.27000
#
# Poissons Ratio (x) = 0.20283 0.03139
# Poissons Ratio (y) = 0.32393 0.37365
# Poissons Ratio (z) = 0.04187 0.31211
#
# Static dielectric constant tensor:
#      x y z
#    x 3.901790 0.000000 0.020480 
#    y 0.000000 3.683800 0.000000 
#    z 0.020480 0.000000 3.873990 
# 
# 
# High freq. dielectric constant tensor:
#      x y z
#    x 1.833000 0.000000 0.000900 
#    y 0.000000 1.805050 0.000000 
#    z 0.000900 0.000000 1.820470 
# 
# From -- ./inp_files/112659.got.cif
#   From: 2010.06.25/outbox.cif.g09.slc.cpg/sg15_57_cif.got.tgz:112659.got - 2010.06.28 07:06:18.
