data_PCOD8152991
_publ_section_title
;
Structure prediction by ZEFSAII (Michael W. Deem and Ramdas Pophale) SiO2 
 PCOD8152991
Probable space group: C 2/C
;
_chemical_formula_sum "Si O2"
_cell_formula_units_Z 40
_cell_length_a 23.542493
_cell_length_b 15.251765
_cell_length_c 12.717656
_cell_angle_alpha 90.000000
_cell_angle_beta 22.810726
_cell_angle_gamma 90.000000
_cell_volume 1770.362338
_symmetry_space_group_name_H-M "C 2/C"
_symmetry_group_IT_number 15
_symmetry_cell_setting 'monoclinic'
loop_
_space_group_symop_operation_xyz
x,y,z
-x,y,1/2-z
-x,-y,-z
x,-y,1/2+z
1/2+x,1/2+y,z
1/2-x,1/2+y,1/2-z
1/2-x,1/2-y,-z
1/2+x,1/2-y,1/2+z
loop_
_atom_site_type_symbol
_atom_site_label
_atom_site_fract_x
_atom_site_fract_y
_atom_site_fract_z
Si Si1 0.843972 0.870607 0.069325
Si Si2 0.263855 0.288621 0.862033
Si Si3 0.450242 0.597136 0.612906
Si Si4 0.275424 0.030776 0.356290
Si Si5 0.948503 0.435310 0.234911
O O1 0.737489 0.790617 0.219313
O O2 0.857741 0.867797 0.171575
O O3 0.779627 0.962757 0.137674
O O4 0.000000 0.855007 0.750000
O O5 0.413825 0.341329 0.591383
O O6 0.250000 0.250000 0.000000
O O7 0.122039 0.349872 0.090161
O O8 0.500000 0.500000 0.500000
O O9 0.352355 0.595860 0.886673
O O10 0.323775 0.981610 0.380268
O O11 0.411465 0.086132 0.078135
O O12 0.000000 0.492177 0.250000
#
# Coordination Sequence:
#
# PCOD8152991 Si02
#       5
#     8   8   8   8   8
#     4  12  22  41  73  98 137 183 228 275 351 412
#     4  12  23  42  68  97 135 183 221 272 347 415
#     4  12  23  44  72 104 136 180 235 283 336 415
#     4  11  24  42  70 104 133 176 236 286 330 410
#     4  11  23  41  71  96 135 179 227 276 347 405
#
# _framework density 22.594244
#
# number of rings (size 3 to 8) (size 9 to 14) (size 15 to 20)
#    0.000    0.400    8.000    1.800    0.000    0.000 
#    0.000    1.000    4.400    0.000    0.000    0.000 
#    0.000    0.000    0.000    0.000    0.000    0.000 
#
# Total GULP energy -247971.628059 kJ/mol
# GULP energy per Si atom -12398.581403 kJ/mol
# Density = 2.254282 g / cm^3
# Si number density = 22.594244 Si / 1000 Ang^3
#
#
#
# Elastic Constant Matrix: (Units=GPa)
#
#
# Indices 1 2 3 4 5 6 
#
# 1 106.2860 42.4898 35.5080 -0.0001 -13.4660 -0.0001
# 2 42.4898 95.4872 54.2746 0.0002 -7.7078 -0.0001
# 3 35.5080 54.2746 152.3907 -0.0001 -1.6870 0.0000
# 4 -0.0001 0.0002 -0.0001 35.6810 0.0000 -7.4482
# 5 -13.4660 -7.7078 -1.6870 0.0000 32.6423 0.0001
# 6 -0.0001 -0.0001 0.0000 -7.4482 0.0001 22.4971
#
#
#
# Elastic Compliance Matrix: (Units=1/GPa)
#
#
# Indices 1 2 3 4 5 6 
#
# 1 0.012047 -0.004359 -0.001212 0.000000 0.003878 0.000000
# 2 -0.004359 0.014980 -0.004303 0.000000 0.001517 0.000000
# 3 -0.001212 -0.004303 0.008365 0.000000 -0.001084 0.000000
# 4 0.000000 0.000000 0.000000 0.030107 0.000000 0.009968
# 5 0.003878 0.001517 -0.001084 0.000000 0.032537 0.000000
# 6 0.000000 0.000000 0.000000 0.009968 0.000000 0.047750
#
#
# Mechanical properties :
#
#
# Convention : Reuss Voigt Hill
#
# Bulk Modulus (GPa) = 63.91629 68.74541 66.33085
# Shear Modulus (GPa) = 29.28276 32.95686 31.11981
#
# Velocity S-wave (km/s) = 3.60394 3.82336 3.71527
# Velocity P-wave (km/s) = 6.75781 7.06986 6.91560
#
# Compressibility (1/GPa) = 0.01564546
#
# Stress axis : x y z
#
# Youngs Moduli (GPa) = 83.00607 66.75358 119.54717
#
# Poissons Ratio (x) = 0.29098 0.14485
# Poissons Ratio (y) = 0.36183 0.51440
# Poissons Ratio (z) = 0.10058 0.28723
#
# Static dielectric constant tensor:
#      x y z
#    x 4.564590 0.000030 -0.212920 
#    y 0.000030 2.898210 -0.000040 
#    z -0.212920 -0.000040 4.349420 
# 
# 
# High freq. dielectric constant tensor:
#      x y z
#    x 1.912330 0.000000 -0.014370 
#    y 0.000000 1.861760 0.000000 
#    z -0.014370 0.000000 1.896120 
# 
# From -- ./inp_files/178278.got.cif
#   From: 2010.06.25/outbox.cif.g09.slc.cpg/sg15_90_cif.got.tgz:178278.got - 2010.06.28 07:06:18.
