data_PCOD8152343
_publ_section_title
;
Structure prediction by ZEFSAII (Michael W. Deem and Ramdas Pophale) SiO2 
 PCOD8152343
Probable space group: C 2/C
;
_chemical_formula_sum "Si O2"
_cell_formula_units_Z 56
_cell_length_a 26.314483
_cell_length_b 11.396516
_cell_length_c 14.465050
_cell_angle_alpha 90.000000
_cell_angle_beta 141.691166
_cell_angle_gamma 90.000000
_cell_volume 2689.109817
_symmetry_space_group_name_H-M "C 2/C"
_symmetry_group_IT_number 15
_symmetry_cell_setting 'monoclinic'
loop_
_space_group_symop_operation_xyz
x,y,z
-x,y,1/2-z
-x,-y,-z
x,-y,1/2+z
1/2+x,1/2+y,z
1/2-x,1/2+y,1/2-z
1/2-x,1/2-y,-z
1/2+x,1/2-y,1/2+z
loop_
_atom_site_type_symbol
_atom_site_label
_atom_site_fract_x
_atom_site_fract_y
_atom_site_fract_z
Si Si1 0.071507 0.354783 0.420539
Si Si2 0.325848 0.059001 0.957054
Si Si3 0.372895 0.731609 0.417950
Si Si4 0.698087 0.140520 0.389135
Si Si5 0.273494 0.275930 0.428588
Si Si6 0.706519 0.515744 0.129279
Si Si7 0.473819 0.136819 0.443917
O O1 0.087865 0.494700 0.444712
O O2 0.159230 0.314723 0.508599
O O3 0.049883 0.307513 0.490741
O O4 0.000000 0.315936 0.250000
O O5 0.346577 0.195524 0.970841
O O6 0.250750 0.021482 0.785939
O O7 0.297987 0.042516 0.023936
O O8 0.308587 0.757303 0.245429
O O9 0.372138 0.594510 0.450463
O O10 0.458199 0.776849 0.500047
O O11 0.750000 0.250000 0.500000
O O12 0.732392 0.097310 0.341061
O O13 0.601375 0.157701 0.233032
O O14 0.250000 0.250000 0.500000
O O15 0.313869 0.404428 0.465134
O O16 0.500000 0.000000 0.500000
#
# Coordination Sequence:
#
# PCOD8152343 Si02
#       7
#     8   8   8   8   8   8   8
#     4  12  23  41  67  99 133 177 226 285 344 410
#     4  11  22  40  70  94 136 170 223 286 345 402
#     4  11  22  41  63  98 133 175 222 283 340 402
#     4  12  24  42  69 101 131 178 230 287 351 411
#     4  11  23  43  68  96 135 178 230 277 341 420
#     4  11  23  44  66  96 138 178 225 279 345 418
#     4  12  23  42  67 100 138 173 232 291 346 408
#
# _framework density 20.824736000000001
#
# number of rings (size 3 to 8) (size 9 to 14) (size 15 to 20)
#    0.000    0.571    5.714    3.429    2.000    0.000 
#    0.000    2.143    0.000    0.000    0.000    0.000 
#    0.000    0.000    0.000    0.000    0.000    0.000 
#
# Total GULP energy -346965.731057 kJ/mol
# GULP energy per Si atom -12391.633252 kJ/mol
# Density = 2.077734 g / cm^3
# Si number density = 20.824736 Si / 1000 Ang^3
#
#
#
# Elastic Constant Matrix: (Units=GPa)
#
#
# Indices 1 2 3 4 5 6 
#
# 1 140.5027 44.9743 50.2831 0.0000 -11.7370 0.0000
# 2 44.9743 99.3327 37.1855 0.0000 -3.4721 0.0000
# 3 50.2831 37.1855 123.2199 0.0000 1.6002 0.0000
# 4 0.0000 0.0000 0.0000 23.0241 0.0000 -2.3676
# 5 -11.7370 -3.4721 1.6002 0.0000 31.1741 0.0000
# 6 0.0000 0.0000 0.0000 -2.3676 0.0000 36.3237
#
#
#
# Elastic Compliance Matrix: (Units=1/GPa)
#
#
# Indices 1 2 3 4 5 6 
#
# 1 0.009437 -0.003041 -0.002977 0.000000 0.003367 0.000000
# 2 -0.003041 0.012394 -0.002504 0.000000 0.000364 0.000000
# 3 -0.002977 -0.002504 0.010111 0.000000 -0.001919 0.000000
# 4 0.000000 0.000000 0.000000 0.043726 0.000000 0.002850
# 5 0.003367 0.000364 -0.001919 0.000000 0.033485 0.000000
# 6 0.000000 0.000000 0.000000 0.002850 0.000000 0.027716
#
#
# Mechanical properties :
#
#
# Convention : Reuss Voigt Hill
#
# Bulk Modulus (GPa) = 67.12163 69.77122 68.44643
# Shear Modulus (GPa) = 31.47035 33.47855 32.47445
#
# Velocity S-wave (km/s) = 3.89163 4.01388 3.95323
# Velocity P-wave (km/s) = 7.24533 7.42013 7.33325
#
# Compressibility (1/GPa) = 0.01489833
#
# Stress axis : x y z
#
# Youngs Moduli (GPa) = 105.96132 80.68376 98.90038
#
# Poissons Ratio (x) = 0.24533 0.29446
# Poissons Ratio (y) = 0.32219 0.24767
# Poissons Ratio (z) = 0.31548 0.20205
#
# Static dielectric constant tensor:
#      x y z
#    x 4.030600 0.000000 -0.240320 
#    y 0.000000 4.201040 0.000000 
#    z -0.240320 0.000000 3.789110 
# 
# 
# High freq. dielectric constant tensor:
#      x y z
#    x 1.831350 0.000000 -0.018850 
#    y 0.000000 1.807590 0.000000 
#    z -0.018850 0.000000 1.807530 
# 
# From -- ./inp_files/177610.got.cif
#   From: 2010.06.25/outbox.cif.g09.slc.cpg/sg15_89_cif.got.tgz:177610.got - 2010.06.28 07:06:18.
