data_PCOD8152881
_publ_section_title
;
Structure prediction by ZEFSAII (Michael W. Deem and Ramdas Pophale) SiO2 
 PCOD8152881
Probable space group: C 2/C
;
_chemical_formula_sum "Si O2"
_cell_formula_units_Z 40
_cell_length_a 9.110852
_cell_length_b 13.120578
_cell_length_c 31.448118
_cell_angle_alpha 90.000000
_cell_angle_beta 29.076871
_cell_angle_gamma 90.000000
_cell_volume 1826.952923
_symmetry_space_group_name_H-M "C 2/C"
_symmetry_group_IT_number 15
_symmetry_cell_setting 'monoclinic'
loop_
_space_group_symop_operation_xyz
x,y,z
-x,y,1/2-z
-x,-y,-z
x,-y,1/2+z
1/2+x,1/2+y,z
1/2-x,1/2+y,1/2-z
1/2-x,1/2-y,-z
1/2+x,1/2-y,1/2+z
loop_
_atom_site_type_symbol
_atom_site_label
_atom_site_fract_x
_atom_site_fract_y
_atom_site_fract_z
Si Si1 0.283787 0.216165 0.039814
Si Si2 0.216667 0.915970 0.795442
Si Si3 0.412067 0.596132 0.993743
Si Si4 0.115870 0.894813 0.098078
Si Si5 0.161718 0.680545 0.321670
O O1 0.375642 0.310177 0.046443
O O2 0.960913 0.176556 0.137192
O O3 0.250000 0.250000 0.000000
O O4 0.532108 0.126400 0.981434
O O5 0.500000 0.956206 0.750000
O O6 0.375172 0.876467 0.713095
O O7 0.990423 0.011028 0.845778
O O8 0.450858 0.574539 0.934046
O O9 0.500000 0.500000 0.000000
O O10 0.062778 0.627056 0.088162
O O11 0.918081 0.798690 0.162378
O O12 0.500000 0.664822 0.250000
#
# Coordination Sequence:
#
# PCOD8152881 Si02
#       5
#     8   8   8   8   8
#     4  11  23  41  65  94 129 169 213 262 318 389
#     4  12  24  40  63  95 128 163 211 269 321 373
#     4  11  23  43  67  92 125 173 217 255 319 399
#     4  11  23  44  65  88 128 175 210 256 322 394
#     4  11  23  40  63  93 122 160 212 268 319 375
#
# _framework density 21.894379000000001
#
# number of rings (size 3 to 8) (size 9 to 14) (size 15 to 20)
#    0.000    0.800    0.000   10.800    0.000    3.200 
#    0.000    2.000    0.000    0.000    0.000    0.000 
#    0.000    0.000    0.000    0.000    0.000    0.000 
#
# Total GULP energy -248091.763422 kJ/mol
# GULP energy per Si atom -12404.588171 kJ/mol
# Density = 2.184455 g / cm^3
# Si number density = 21.894379 Si / 1000 Ang^3
#
#
#
# Elastic Constant Matrix: (Units=GPa)
#
#
# Indices 1 2 3 4 5 6 
#
# 1 82.4447 6.9233 17.0799 -0.0318 3.5224 -0.0177
# 2 6.9233 98.5098 46.7490 -0.0667 5.4958 -0.0186
# 3 17.0799 46.7490 86.0790 -0.2341 -4.2210 -0.0035
# 4 -0.0318 -0.0667 -0.2341 18.1888 0.0658 4.4102
# 5 3.5224 5.4958 -4.2210 0.0658 47.5639 -0.0020
# 6 -0.0177 -0.0186 -0.0035 4.4102 -0.0020 30.6226
#
#
#
# Elastic Compliance Matrix: (Units=1/GPa)
#
#
# Indices 1 2 3 4 5 6 
#
# 1 0.012735 0.000544 -0.002884 -0.000010 -0.001262 0.000009
# 2 0.000544 0.013943 -0.007795 -0.000043 -0.002343 0.000014
# 3 -0.002884 -0.007795 0.016550 0.000177 0.002583 -0.000030
# 4 -0.000010 -0.000043 0.000177 0.056971 -0.000058 -0.008205
# 5 -0.001262 -0.002343 0.002583 -0.000058 0.021618 0.000008
# 6 0.000009 0.000014 -0.000030 -0.008205 0.000008 0.033837
#
#
# Mechanical properties :
#
#
# Convention : Reuss Voigt Hill
#
# Bulk Modulus (GPa) = 43.55900 45.39309 44.47605
# Shear Modulus (GPa) = 27.23638 32.36048 29.79843
#
# Velocity S-wave (km/s) = 3.53085 3.84868 3.69319
# Velocity P-wave (km/s) = 6.04655 6.36613 6.20840
#
# Compressibility (1/GPa) = 0.02295737
#
# Stress axis : x y z
#
# Youngs Moduli (GPa) = 78.52308 71.71985 60.42174
#
# Poissons Ratio (x) = -0.03903 0.17428
# Poissons Ratio (y) = -0.04273 0.47101
# Poissons Ratio (z) = 0.22649 0.55909
#
# Static dielectric constant tensor:
#      x y z
#    x 3.025940 0.000880 -0.834390 
#    y 0.000880 4.064860 0.000310 
#    z -0.834390 0.000310 3.380590 
# 
# 
# High freq. dielectric constant tensor:
#      x y z
#    x 1.862290 0.000000 -0.006730 
#    y 0.000000 1.870210 0.000000 
#    z -0.006730 0.000000 1.874150 
# 
# From -- ./inp_files/189032.got.cif
#   From: 2010.06.25/outbox.cif.g09.slc.cpg/sg15_95_cif.got.tgz:189032.got - 2010.06.28 07:06:18.
