data_PCOD8152603
_publ_section_title
;
Structure prediction by ZEFSAII (Michael W. Deem and Ramdas Pophale) SiO2 
 PCOD8152603
Probable space group: C 2/C
;
_chemical_formula_sum "Si O2"
_cell_formula_units_Z 48
_cell_length_a 11.101575
_cell_length_b 14.470017
_cell_length_c 16.086763
_cell_angle_alpha 90.000000
_cell_angle_beta 63.631231
_cell_angle_gamma 90.000000
_cell_volume 2315.303938
_symmetry_space_group_name_H-M "C 2/C"
_symmetry_group_IT_number 15
_symmetry_cell_setting 'monoclinic'
loop_
_space_group_symop_operation_xyz
x,y,z
-x,y,1/2-z
-x,-y,-z
x,-y,1/2+z
1/2+x,1/2+y,z
1/2-x,1/2+y,1/2-z
1/2-x,1/2-y,-z
1/2+x,1/2-y,1/2+z
loop_
_atom_site_type_symbol
_atom_site_label
_atom_site_fract_x
_atom_site_fract_y
_atom_site_fract_z
Si Si1 0.383343 0.061337 0.941554
Si Si2 0.071803 0.226728 0.099751
Si Si3 0.886594 0.925331 0.051570
Si Si4 0.868308 0.851175 0.236149
Si Si5 0.704615 0.313813 0.727788
Si Si6 0.328812 0.998090 0.642944
O O1 0.423432 0.168998 0.934189
O O2 0.266569 0.036929 0.910852
O O3 0.517760 0.007455 0.872357
O O4 0.328415 0.026317 0.046242
O O5 0.181088 0.216582 0.139634
O O6 0.928431 0.196429 0.177587
O O7 0.107236 0.161123 0.012551
O O8 0.911425 0.898077 0.137801
O O9 0.000000 0.000000 0.000000
O O10 0.819009 0.748115 0.233752
O O11 0.000000 0.845759 0.250000
O O12 0.751430 0.906992 0.319229
O O13 0.753324 0.419157 0.718217
#
# Coordination Sequence:
#
# PCOD8152603 Si02
#       6
#     8   8   8   8   8   8
#     4  11  22  43  70  98 136 175 231 277 340 411
#     4  11  22  44  74 102 127 183 232 281 334 407
#     4  12  24  42  70 102 132 176 231 276 338 410
#     4  12  26  45  64  96 141 177 224 284 346 398
#     4  11  23  44  71 100 137 173 231 281 338 410
#     4  11  24  42  68 102 134 179 222 286 344 399
#
# _framework density 20.731619999999999
#
# number of rings (size 3 to 8) (size 9 to 14) (size 15 to 20)
#    0.000    0.667    5.000    3.500    2.333    0.667 
#    6.000    0.833    0.000    0.000    0.000    0.000 
#    0.000    0.000    0.000    0.000    0.000    0.000 
#
# Total GULP energy -297674.762043 kJ/mol
# GULP energy per Si atom -12403.115085 kJ/mol
# Density = 2.068443 g / cm^3
# Si number density = 20.731620 Si / 1000 Ang^3
#
#
#
# Elastic Constant Matrix: (Units=GPa)
#
#
# Indices 1 2 3 4 5 6 
#
# 1 175.3573 36.8400 52.2354 0.0000 2.0985 0.0000
# 2 36.8400 61.7875 15.6069 0.0000 -1.0135 0.0000
# 3 52.2354 15.6069 91.8888 0.0000 1.9025 0.0000
# 4 0.0000 0.0000 0.0000 39.5337 0.0000 -4.8639
# 5 2.0985 -1.0135 1.9025 0.0000 34.6202 0.0000
# 6 0.0000 0.0000 0.0000 -4.8639 0.0000 27.5836
#
#
#
# Elastic Compliance Matrix: (Units=1/GPa)
#
#
# Indices 1 2 3 4 5 6 
#
# 1 0.007555 -0.003581 -0.003679 0.000000 -0.000361 0.000000
# 2 -0.003581 0.018622 -0.001144 0.000000 0.000825 0.000000
# 3 -0.003679 -0.001144 0.013180 0.000000 -0.000535 0.000000
# 4 0.000000 0.000000 0.000000 0.025856 0.000000 0.004559
# 5 -0.000361 0.000825 -0.000535 0.000000 0.028960 0.000000
# 6 0.000000 0.000000 0.000000 0.004559 0.000000 0.037057
#
#
# Mechanical properties :
#
#
# Convention : Reuss Voigt Hill
#
# Bulk Modulus (GPa) = 44.34997 59.82204 52.08600
# Shear Modulus (GPa) = 32.14277 35.30426 33.72351
#
# Velocity S-wave (km/s) = 3.94181 4.13112 4.03758
# Velocity P-wave (km/s) = 6.49277 7.18839 6.84942
#
# Compressibility (1/GPa) = 0.02254793
#
# Stress axis : x y z
#
# Youngs Moduli (GPa) = 132.35755 53.69886 75.87491
#
# Poissons Ratio (x) = 0.19231 0.27916
# Poissons Ratio (y) = 0.47402 0.08681
# Poissons Ratio (z) = 0.48697 0.06144
#
# Static dielectric constant tensor:
#      x y z
#    x 3.933700 0.000000 -0.134310 
#    y 0.000000 3.833090 0.000000 
#    z -0.134310 0.000000 3.859440 
# 
# 
# High freq. dielectric constant tensor:
#      x y z
#    x 1.819330 0.000000 -0.014450 
#    y 0.000000 1.812810 0.000000 
#    z -0.014450 0.000000 1.823770 
# 
# From -- ./inp_files/144058.got.cif
#   From: 2010.06.25/outbox.cif.g09.slc.cpg/sg15_73_cif.got.tgz:144058.got - 2010.06.28 07:06:18.
