data_PCOD8152201
_publ_section_title
;
Structure prediction by ZEFSAII (Michael W. Deem and Ramdas Pophale) SiO2 
 PCOD8152201
Probable space group: C 2/C
;
_chemical_formula_sum "Si O2"
_cell_formula_units_Z 48
_cell_length_a 16.396161
_cell_length_b 27.268442
_cell_length_c 9.398448
_cell_angle_alpha 90.000000
_cell_angle_beta 31.460172
_cell_angle_gamma 90.000000
_cell_volume 2193.061031
_symmetry_space_group_name_H-M "C 2/C"
_symmetry_group_IT_number 15
_symmetry_cell_setting 'monoclinic'
loop_
_space_group_symop_operation_xyz
x,y,z
-x,y,1/2-z
-x,-y,-z
x,-y,1/2+z
1/2+x,1/2+y,z
1/2-x,1/2+y,1/2-z
1/2-x,1/2-y,-z
1/2+x,1/2-y,1/2+z
loop_
_atom_site_type_symbol
_atom_site_label
_atom_site_fract_x
_atom_site_fract_y
_atom_site_fract_z
Si Si1 0.243590 0.898384 0.173840
Si Si2 0.094724 0.208055 0.334830
Si Si3 0.154354 0.448340 0.212165
Si Si4 0.885522 0.900491 0.653851
Si Si5 0.312869 0.057428 0.287696
Si Si6 0.726104 0.294297 0.327847
O O1 0.324189 0.938904 0.152155
O O2 0.287810 0.845281 0.172255
O O3 0.059723 0.912047 0.447375
O O4 0.315245 0.902102 0.909323
O O5 0.115237 0.156874 0.387478
O O6 0.148904 0.250223 0.363853
O O7 0.919759 0.221782 0.550801
O O8 0.191610 0.200368 0.046092
O O9 0.202802 0.504612 0.112840
O O10 0.969249 0.439622 0.457080
O O11 0.263449 0.411773 0.961618
O O12 0.836981 0.932111 0.588750
#
# Coordination Sequence:
#
# PCOD8152201 Si02
#       6
#     8   8   8   8   8   8
#     4  11  22  39  63  91 124 157 202 259 312 355
#     4   9  18  35  58  89 118 151 201 251 295 362
#     4  11  23  42  61  85 124 166 210 249 301 370
#     4  11  22  39  63  93 118 159 210 254 300 369
#     4  11  25  40  59  89 126 164 201 255 312 365
#     4   9  18  35  59  88 118 152 197 255 299 352
#
# _framework density 21.887215999999999
#
# number of rings (size 3 to 8) (size 9 to 14) (size 15 to 20)
#    0.000    1.667    1.667    3.000    0.000    8.000 
#    6.000    0.833    0.000    2.000    0.000    0.000 
#    0.000    0.000    0.000    0.000    0.000    0.000 
#
# Total GULP energy -297560.548978 kJ/mol
# GULP energy per Si atom -12398.356207 kJ/mol
# Density = 2.183740 g / cm^3
# Si number density = 21.887216 Si / 1000 Ang^3
#
#
#
# Elastic Constant Matrix: (Units=GPa)
#
#
# Indices 1 2 3 4 5 6 
#
# 1 74.1827 51.0860 8.1987 0.0004 -5.0908 -0.0001
# 2 51.0860 118.7466 33.9017 0.0000 -14.1587 0.0000
# 3 8.1987 33.9017 51.8763 0.0005 -1.9134 0.0000
# 4 0.0004 0.0000 0.0005 19.9373 -0.0003 -6.7520
# 5 -5.0908 -14.1587 -1.9134 -0.0003 31.9612 0.0000
# 6 -0.0001 0.0000 0.0000 -6.7520 0.0000 45.2997
#
#
#
# Elastic Compliance Matrix: (Units=1/GPa)
#
#
# Indices 1 2 3 4 5 6 
#
# 1 0.019539 -0.009364 0.003000 0.000000 -0.000857 0.000000
# 2 -0.009364 0.015433 -0.008427 0.000001 0.004841 0.000000
# 3 0.003000 -0.008427 0.024243 -0.000001 -0.001804 0.000000
# 4 0.000000 0.000001 -0.000001 0.052824 0.000001 0.007873
# 5 -0.000857 0.004841 -0.001804 0.000001 0.033188 0.000000
# 6 0.000000 0.000000 0.000000 0.007873 0.000000 0.023249
#
#
# Mechanical properties :
#
#
# Convention : Reuss Voigt Hill
#
# Bulk Modulus (GPa) = 33.74714 47.90872 40.82793
# Shear Modulus (GPa) = 24.04593 29.54759 26.79676
#
# Velocity S-wave (km/s) = 3.31815 3.67821 3.50281
# Velocity P-wave (km/s) = 5.48929 6.32261 5.92063
#
# Compressibility (1/GPa) = 0.02963214
#
# Stress axis : x y z
#
# Youngs Moduli (GPa) = 51.18059 64.79596 41.24873
#
# Poissons Ratio (x) = 0.60678 -0.12375
# Poissons Ratio (y) = 0.47928 0.34761
# Poissons Ratio (z) = -0.15355 0.54604
#
# Static dielectric constant tensor:
#      x y z
#    x 3.940780 0.000000 -0.159930 
#    y 0.000000 4.034230 0.000000 
#    z -0.159930 0.000000 3.727850 
# 
# 
# High freq. dielectric constant tensor:
#      x y z
#    x 1.867350 0.000000 -0.009590 
#    y 0.000000 1.859950 0.000000 
#    z -0.009590 0.000000 1.840620 
# 
# From -- ./inp_files/44430.got.cif
#   From: 2010.06.25/outbox.cif.g09.slc.cpg/sg15_23_cif.got.tgz:44430.got - 2010.06.28 07:06:18.
