data_PCOD8152244
_publ_section_title
;
Structure prediction by ZEFSAII (Michael W. Deem and Ramdas Pophale) SiO2 
 PCOD8152244
Probable space group: C 2/C
;
_chemical_formula_sum "Si O2"
_cell_formula_units_Z 56
_cell_length_a 7.733955
_cell_length_b 22.482859
_cell_length_c 14.764660
_cell_angle_alpha 90.000000
_cell_angle_beta 88.862214
_cell_angle_gamma 90.000000
_cell_volume 2566.793860
_symmetry_space_group_name_H-M "C 2/C"
_symmetry_group_IT_number 15
_symmetry_cell_setting 'monoclinic'
loop_
_space_group_symop_operation_xyz
x,y,z
-x,y,1/2-z
-x,-y,-z
x,-y,1/2+z
1/2+x,1/2+y,z
1/2-x,1/2+y,1/2-z
1/2-x,1/2-y,-z
1/2+x,1/2-y,1/2+z
loop_
_atom_site_type_symbol
_atom_site_label
_atom_site_fract_x
_atom_site_fract_y
_atom_site_fract_z
Si Si1 0.210600 0.143028 0.960602
Si Si2 0.689780 0.512343 0.023903
Si Si3 0.706652 0.004359 0.286869
Si Si4 0.456905 0.814844 0.950963
Si Si5 0.804039 0.368694 0.257805
Si Si6 0.872251 0.561524 0.377607
Si Si7 0.358174 0.312527 0.412701
O O1 0.257465 0.076864 0.993494
O O2 0.233249 0.152974 0.854137
O O3 0.006087 0.157340 0.976106
O O4 0.344784 0.184980 0.014268
O O5 0.811654 0.462451 0.976213
O O6 0.500000 0.500000 0.000000
O O7 0.661947 0.505738 0.131822
O O8 0.529034 0.021044 0.340364
O O9 0.762010 0.050379 0.205077
O O10 0.697472 0.939467 0.244243
O O11 0.423249 0.869804 0.883822
O O12 0.420180 0.755142 0.894883
O O13 0.325224 0.817459 0.035865
O O14 0.673208 0.343440 0.183392
O O15 0.000000 0.344270 0.250000
#
# Coordination Sequence:
#
# PCOD8152244 Si02
#       7
#     8   8   8   8   8   8   8
#     4  12  23  43  69  97 133 177 226 277 337 409
#     4  12  24  38  65 101 137 170 219 283 340 405
#     4  11  22  39  67  97 130 173 224 269 343 418
#     4  11  24  46  70  92 139 175 228 280 341 405
#     4  12  21  41  68  99 132 175 224 277 334 405
#     4  11  22  41  65  96 129 176 220 266 345 410
#     4  11  26  44  67 101 129 180 231 282 333 403
#
# _framework density 21.817098999999999
#
# number of rings (size 3 to 8) (size 9 to 14) (size 15 to 20)
#    0.000    0.571    5.714    3.857    0.000    0.571 
#    5.143    0.000    3.143    0.000    0.000    0.000 
#    0.000    0.000    0.000    0.000    0.000    0.000 
#
# Total GULP energy -347026.761271 kJ/mol
# GULP energy per Si atom -12393.812903 kJ/mol
# Density = 2.176744 g / cm^3
# Si number density = 21.817099 Si / 1000 Ang^3
#
#
#
# Elastic Constant Matrix: (Units=GPa)
#
#
# Indices 1 2 3 4 5 6 
#
# 1 83.7740 17.7755 4.9421 0.0000 21.9643 0.0000
# 2 17.7755 114.7724 28.7140 0.0000 16.2784 0.0000
# 3 4.9421 28.7140 96.7847 0.0000 32.0461 0.0000
# 4 0.0000 0.0000 0.0000 31.1809 0.0000 8.8901
# 5 21.9643 16.2784 32.0461 0.0000 32.5959 0.0000
# 6 0.0000 0.0000 0.0000 8.8901 0.0000 30.2005
#
#
#
# Elastic Compliance Matrix: (Units=1/GPa)
#
#
# Indices 1 2 3 4 5 6 
#
# 1 0.015685 -0.001513 0.004295 0.000000 -0.014036 0.000000
# 2 -0.001513 0.009746 -0.002284 0.000000 -0.001603 0.000000
# 3 0.004295 -0.002284 0.016859 0.000000 -0.018329 0.000000
# 4 0.000000 0.000000 0.000000 0.035009 0.000000 -0.010306
# 5 -0.014036 -0.001603 -0.018329 0.000000 0.058957 0.000000
# 6 0.000000 0.000000 0.000000 -0.010306 0.000000 0.036146
#
#
# Mechanical properties :
#
#
# Convention : Reuss Voigt Hill
#
# Bulk Modulus (GPa) = 23.10134 44.24383 33.67258
# Shear Modulus (GPa) = 26.90591 35.05541 30.98066
#
# Velocity S-wave (km/s) = 3.51557 4.01282 3.77240
# Velocity P-wave (km/s) = 5.20487 6.46481 5.86875
#
# Compressibility (1/GPa) = 0.04328754
#
# Stress axis : x y z
#
# Youngs Moduli (GPa) = 63.75673 102.60820 59.31488
#
# Poissons Ratio (x) = 0.15525 -0.25479
# Poissons Ratio (y) = 0.09647 0.13545
# Poissons Ratio (z) = -0.27387 0.23431
#
# Static dielectric constant tensor:
#      x y z
#    x 4.178410 0.000000 0.101100 
#    y 0.000000 4.021370 0.000000 
#    z 0.101100 0.000000 -3.108770 
# 
# 
# High freq. dielectric constant tensor:
#      x y z
#    x 1.866460 0.000000 0.013280 
#    y 0.000000 1.848560 0.000000 
#    z 0.013280 0.000000 1.859620 
# 
# From -- ./inp_files/136454.got.cif
#   From: 2010.06.25/outbox.cif.g09.slc.cpg/sg15_69_cif.got.tgz:136454.got - 2010.06.28 07:06:18.
