data_PCOD8152463
_publ_section_title
;
Structure prediction by ZEFSAII (Michael W. Deem and Ramdas Pophale) SiO2 
 PCOD8152463
Probable space group: C 2/C
;
_chemical_formula_sum "Si O2"
_cell_formula_units_Z 40
_cell_length_a 9.741039
_cell_length_b 21.514478
_cell_length_c 9.132246
_cell_angle_alpha 90.000000
_cell_angle_beta 98.622249
_cell_angle_gamma 90.000000
_cell_volume 1892.245399
_symmetry_space_group_name_H-M "C 2/C"
_symmetry_group_IT_number 15
_symmetry_cell_setting 'monoclinic'
loop_
_space_group_symop_operation_xyz
x,y,z
-x,y,1/2-z
-x,-y,-z
x,-y,1/2+z
1/2+x,1/2+y,z
1/2-x,1/2+y,1/2-z
1/2-x,1/2-y,-z
1/2+x,1/2-y,1/2+z
loop_
_atom_site_type_symbol
_atom_site_label
_atom_site_fract_x
_atom_site_fract_y
_atom_site_fract_z
Si Si1 0.496103 0.837096 0.078897
Si Si2 0.260776 0.108813 0.373849
Si Si3 0.961304 0.198165 0.076689
Si Si4 0.730672 0.363276 0.535124
Si Si5 0.603161 0.517672 0.890971
O O1 0.500000 0.855355 0.250000
O O2 0.423894 0.769896 0.041275
O O3 0.412132 0.889856 0.975235
O O4 0.651285 0.830304 0.041502
O O5 0.276707 0.133676 0.211632
O O6 0.170255 0.153199 0.467409
O O7 0.195239 0.040605 0.354041
O O8 0.088968 0.176125 0.995126
O O9 0.000000 0.187082 0.250000
O O10 0.710586 0.430896 0.461760
O O11 0.500000 0.542774 0.750000
O O12 0.500000 0.500000 0.000000
#
# Coordination Sequence:
#
# PCOD8152463 Si02
#       5
#     8   8   8   8   8
#     4  11  25  39  60  95 130 162 207 255 305 364
#     4  11  22  42  65  90 126 166 200 255 314 365
#     4   9  19  40  65  91 123 164 208 253 303 364
#     4  11  23  41  66  91 126 164 204 252 312 368
#     4  12  23  42  68  95 119 158 210 258 305 369
#
# _framework density 21.138908000000001
#
# number of rings (size 3 to 8) (size 9 to 14) (size 15 to 20)
#    0.000    1.200    4.000    2.400    2.800    0.800 
#    0.000    4.000    0.000    0.000    0.000    0.000 
#    0.000    0.000    0.000    0.000    0.000    0.000 
#
# Total GULP energy -248004.965485 kJ/mol
# GULP energy per Si atom -12400.248274 kJ/mol
# Density = 2.109080 g / cm^3
# Si number density = 21.138908 Si / 1000 Ang^3
#
#
#
# Elastic Constant Matrix: (Units=GPa)
#
#
# Indices 1 2 3 4 5 6 
#
# 1 96.9133 13.1074 36.0035 0.0000 -12.2504 0.0000
# 2 13.1074 71.3769 16.0602 0.0000 6.4480 0.0000
# 3 36.0035 16.0602 104.9386 0.0000 -2.7545 0.0000
# 4 0.0000 0.0000 0.0000 29.2641 0.0000 3.4648
# 5 -12.2504 6.4480 -2.7545 0.0000 36.5350 0.0000
# 6 0.0000 0.0000 0.0000 3.4648 0.0000 25.4930
#
#
#
# Elastic Compliance Matrix: (Units=1/GPa)
#
#
# Indices 1 2 3 4 5 6 
#
# 1 0.012554 -0.001806 -0.003920 0.000000 0.004233 0.000000
# 2 -0.001806 0.015047 -0.001772 0.000000 -0.003395 0.000000
# 3 -0.003920 -0.001772 0.011141 0.000000 -0.000162 0.000000
# 4 0.000000 0.000000 0.000000 0.034730 0.000000 -0.004720
# 5 0.004233 -0.003395 -0.000162 0.000000 0.029377 0.000000
# 6 0.000000 0.000000 0.000000 -0.004720 0.000000 0.039868
#
#
# Mechanical properties :
#
#
# Convention : Reuss Voigt Hill
#
# Bulk Modulus (GPa) = 42.11137 44.84124 43.47631
# Shear Modulus (GPa) = 30.18789 32.12891 31.15840
#
# Velocity S-wave (km/s) = 3.78308 3.90281 3.84341
# Velocity P-wave (km/s) = 6.24874 6.44732 6.34881
#
# Compressibility (1/GPa) = 0.02374656
#
# Stress axis : x y z
#
# Youngs Moduli (GPa) = 79.65635 66.45746 89.75681
#
# Poissons Ratio (x) = 0.12001 0.35182
# Poissons Ratio (y) = 0.14384 0.15909
# Poissons Ratio (z) = 0.31223 0.11779
#
# Static dielectric constant tensor:
#      x y z
#    x 3.811910 0.000000 -0.129550 
#    y 0.000000 2.997570 0.000000 
#    z -0.129550 0.000000 3.604410 
# 
# 
# High freq. dielectric constant tensor:
#      x y z
#    x 1.833580 0.000000 -0.006970 
#    y 0.000000 1.822770 0.000000 
#    z -0.006970 0.000000 1.822320 
# 
# From -- ./inp_files/23423.got.cif
#   From: 2010.06.25/outbox.cif.g09.slc.cpg/sg15_12_cif.got.tgz:23423.got - 2010.06.28 07:06:18.
