data_PCOD8152684
_publ_section_title
;
Structure prediction by ZEFSAII (Michael W. Deem and Ramdas Pophale) SiO2 
 PCOD8152684
Probable space group: C 2/C
;
_chemical_formula_sum "Si O2"
_cell_formula_units_Z 40
_cell_length_a 15.948873
_cell_length_b 9.462601
_cell_length_c 14.200825
_cell_angle_alpha 90.000000
_cell_angle_beta 55.846758
_cell_angle_gamma 90.000000
_cell_volume 1773.546485
_symmetry_space_group_name_H-M "C 2/C"
_symmetry_group_IT_number 15
_symmetry_cell_setting 'monoclinic'
loop_
_space_group_symop_operation_xyz
x,y,z
-x,y,1/2-z
-x,-y,-z
x,-y,1/2+z
1/2+x,1/2+y,z
1/2-x,1/2+y,1/2-z
1/2-x,1/2-y,-z
1/2+x,1/2-y,1/2+z
loop_
_atom_site_type_symbol
_atom_site_label
_atom_site_fract_x
_atom_site_fract_y
_atom_site_fract_z
Si Si1 0.201111 0.855973 0.961864
Si Si2 0.004429 0.396142 0.137980
Si Si3 0.506209 0.331734 0.484867
Si Si4 0.270309 0.900100 0.532996
Si Si5 0.164266 0.374430 0.808316
O O1 0.091550 0.791022 0.013346
O O2 0.266998 0.867168 0.826163
O O3 0.250000 0.750000 0.000000
O O4 0.192544 0.003352 0.023577
O O5 0.997256 0.245071 0.091062
O O6 0.919667 0.502853 0.151694
O O7 0.000000 0.363376 0.250000
O O8 0.115678 0.460119 0.051115
O O9 0.500000 0.500000 0.500000
O O10 0.605926 0.274215 0.366738
O O11 0.250000 0.750000 0.500000
O O12 0.256793 0.902379 0.655125
#
# Coordination Sequence:
#
# PCOD8152684 Si02
#       5
#     8   8   8   8   8
#     4  12  25  43  71 103 135 180 231 279 344 404
#     4  11  22  44  72  93 132 188 231 268 341 419
#     4  11  26  45  66 105 142 172 226 292 352 395
#     4  11  24  42  68 100 131 176 230 280 341 410
#     4  11  25  47  70  98 140 185 233 278 331 425
#
# _framework density 22.55368
#
# number of rings (size 3 to 8) (size 9 to 14) (size 15 to 20)
#    0.000    0.800    2.000    7.200    2.800    4.800 
#    3.600    0.000    0.000    0.000    0.000    0.000 
#    0.000    0.000    0.000    0.000    0.000    0.000 
#
# Total GULP energy -247874.250582 kJ/mol
# GULP energy per Si atom -12393.712529 kJ/mol
# Density = 2.250235 g / cm^3
# Si number density = 22.553680 Si / 1000 Ang^3
#
#
#
# Elastic Constant Matrix: (Units=GPa)
#
#
# Indices 1 2 3 4 5 6 
#
# 1 98.4311 7.3115 41.1369 0.0000 26.1499 0.0000
# 2 7.3115 109.4690 23.7621 0.0000 21.7167 0.0000
# 3 41.1369 23.7621 110.2941 0.0000 34.6402 0.0000
# 4 0.0000 0.0000 0.0000 23.1853 0.0000 1.9305
# 5 26.1499 21.7167 34.6402 0.0000 42.2661 0.0000
# 6 0.0000 0.0000 0.0000 1.9305 0.0000 43.8520
#
#
#
# Elastic Compliance Matrix: (Units=1/GPa)
#
#
# Indices 1 2 3 4 5 6 
#
# 1 0.012999 0.001004 -0.003201 0.000000 -0.005935 0.000000
# 2 0.001004 0.010294 -0.000991 0.000000 -0.005098 0.000000
# 3 -0.003201 -0.000991 0.013052 0.000000 -0.008207 0.000000
# 4 0.000000 0.000000 0.000000 0.043290 0.000000 -0.001906
# 5 -0.005935 -0.005098 -0.008207 0.000000 0.036678 0.000000
# 6 0.000000 0.000000 0.000000 -0.001906 0.000000 0.022888
#
#
# Mechanical properties :
#
#
# Convention : Reuss Voigt Hill
#
# Bulk Modulus (GPa) = 33.36682 51.40171 42.38427
# Shear Modulus (GPa) = 32.14070 38.25957 35.20014
#
# Velocity S-wave (km/s) = 3.77911 4.12318 3.95489
# Velocity P-wave (km/s) = 5.81969 6.74595 6.29986
#
# Compressibility (1/GPa) = 0.02996989
#
# Stress axis : x y z
#
# Youngs Moduli (GPa) = 76.92760 97.13930 76.61887
#
# Poissons Ratio (x) = -0.09753 0.24522
# Poissons Ratio (y) = -0.07723 0.07594
# Poissons Ratio (z) = 0.24621 0.09628
#
# Static dielectric constant tensor:
#      x y z
#    x 4.939150 0.000000 0.305690 
#    y 0.000000 3.695790 0.000000 
#    z 0.305690 0.000000 3.953210 
# 
# 
# High freq. dielectric constant tensor:
#      x y z
#    x 1.914410 0.000000 0.019150 
#    y 0.000000 1.894660 0.000000 
#    z 0.019150 0.000000 1.883670 
# 
# From -- ./inp_files/150784.got.cif
#   From: 2010.06.25/outbox.cif.g09.slc.cpg/sg15_76_cif.got.tgz:150784.got - 2010.06.28 07:06:18.
