data_PCOD8152814
_publ_section_title
;
Structure prediction by ZEFSAII (Michael W. Deem and Ramdas Pophale) SiO2 
 PCOD8152814
Probable space group: C 2/C
;
_chemical_formula_sum "Si O2"
_cell_formula_units_Z 48
_cell_length_a 22.102180
_cell_length_b 12.435614
_cell_length_c 8.632068
_cell_angle_alpha 90.000000
_cell_angle_beta 73.733103
_cell_angle_gamma 90.000000
_cell_volume 2277.579956
_symmetry_space_group_name_H-M "C 2/C"
_symmetry_group_IT_number 15
_symmetry_cell_setting 'monoclinic'
loop_
_space_group_symop_operation_xyz
x,y,z
-x,y,1/2-z
-x,-y,-z
x,-y,1/2+z
1/2+x,1/2+y,z
1/2-x,1/2+y,1/2-z
1/2-x,1/2-y,-z
1/2+x,1/2-y,1/2+z
loop_
_atom_site_type_symbol
_atom_site_label
_atom_site_fract_x
_atom_site_fract_y
_atom_site_fract_z
Si Si1 0.626837 0.682908 0.020999
Si Si2 0.841947 0.210501 0.171725
Si Si3 0.538196 0.585558 0.871415
Si Si4 0.293597 0.913842 0.033527
Si Si5 0.704926 0.867915 0.814112
Si Si6 0.651471 0.450137 0.083964
O O1 0.614366 0.721469 0.206741
O O2 0.658891 0.564540 0.993934
O O3 0.560321 0.679871 0.973966
O O4 0.674575 0.760406 0.900045
O O5 0.823767 0.328617 0.128380
O O6 0.780241 0.142945 0.267437
O O7 0.876592 0.140371 0.014253
O O8 0.500000 0.629749 0.750000
O O9 0.602461 0.532318 0.759101
O O10 0.500000 0.500000 0.000000
O O11 0.217871 0.904203 0.097719
O O12 0.316518 0.032017 0.065328
O O13 0.318085 0.888209 0.844212
#
# Coordination Sequence:
#
# PCOD8152814 Si02
#       6
#     8   8   8   8   8   8
#     4  12  23  39  61  90 128 168 209 266 321 370
#     4  11  23  37  62  90 130 176 208 251 315 386
#     4  12  26  41  62  90 126 167 217 273 329 375
#     4  11  23  39  60  94 134 177 212 244 309 397
#     4  11  23  36  60  91 132 175 214 251 305 388
#     4  11  23  40  61  92 136 167 210 264 317 379
#
# _framework density 21.074999999999999
#
# number of rings (size 3 to 8) (size 9 to 14) (size 15 to 20)
#    0.000    0.667    3.333    6.500    7.000    0.000 
#    0.000    0.000    0.000    0.000    0.000   10.500 
#    5.000    0.167    0.000    0.000    0.000    0.000 
#
# Total GULP energy -297569.413512 kJ/mol
# GULP energy per Si atom -12398.725563 kJ/mol
# Density = 2.102703 g / cm^3
# Si number density = 21.075000 Si / 1000 Ang^3
#
#
#
# Elastic Constant Matrix: (Units=GPa)
#
#
# Indices 1 2 3 4 5 6 
#
# 1 78.3645 27.8243 58.2395 0.0000 32.6549 0.0000
# 2 27.8243 114.4547 56.3526 0.0000 5.1047 0.0000
# 3 58.2395 56.3526 139.7177 0.0000 18.5852 0.0000
# 4 0.0000 0.0000 0.0000 41.3704 0.0000 8.3518
# 5 32.6549 5.1047 18.5852 0.0000 51.0891 0.0000
# 6 0.0000 0.0000 0.0000 8.3518 0.0000 24.5433
#
#
#
# Elastic Compliance Matrix: (Units=1/GPa)
#
#
# Indices 1 2 3 4 5 6 
#
# 1 0.024396 -0.001481 -0.007900 0.000000 -0.012572 0.000000
# 2 -0.001481 0.011006 -0.003995 0.000000 0.001300 0.000000
# 3 -0.007900 -0.003995 0.011913 0.000000 0.001115 0.000000
# 4 0.000000 0.000000 0.000000 0.025955 0.000000 -0.008832
# 5 -0.012572 0.001300 0.001115 0.000000 0.027074 0.000000
# 6 0.000000 0.000000 0.000000 -0.008832 0.000000 0.043750
#
#
# Mechanical properties :
#
#
# Convention : Reuss Voigt Hill
#
# Bulk Modulus (GPa) = 48.62622 68.59664 58.61143
# Shear Modulus (GPa) = 28.13739 36.07526 32.10633
#
# Velocity S-wave (km/s) = 3.65788 4.14183 3.90735
# Velocity P-wave (km/s) = 6.40024 7.44933 6.94462
#
# Compressibility (1/GPa) = 0.02056504
#
# Stress axis : x y z
#
# Youngs Moduli (GPa) = 40.98966 90.86037 83.94056
#
# Poissons Ratio (x) = 0.13452 0.66312
# Poissons Ratio (y) = 0.06069 0.33532
# Poissons Ratio (z) = 0.32381 0.36297
#
# Static dielectric constant tensor:
#      x y z
#    x 3.808440 0.000000 0.423480 
#    y 0.000000 3.711380 0.000000 
#    z 0.423480 0.000000 4.215330 
# 
# 
# High freq. dielectric constant tensor:
#      x y z
#    x 1.788930 0.000000 0.034650 
#    y 0.000000 1.813200 0.000000 
#    z 0.034650 0.000000 1.849940 
# 
# From -- ./inp_files/60834.got.cif
#   From: 2010.06.25/outbox.cif.g09.slc.cpg/sg15_31_cif.got.tgz:60834.got - 2010.06.28 07:06:18.
