data_PCOD8152832
_publ_section_title
;
Structure prediction by ZEFSAII (Michael W. Deem and Ramdas Pophale) SiO2 
 PCOD8152832
Probable space group: C 2/C
;
_chemical_formula_sum "Si O2"
_cell_formula_units_Z 56
_cell_length_a 14.065419
_cell_length_b 27.095489
_cell_length_c 8.720871
_cell_angle_alpha 90.000000
_cell_angle_beta 119.283319
_cell_angle_gamma 90.000000
_cell_volume 2898.888054
_symmetry_space_group_name_H-M "C 2/C"
_symmetry_group_IT_number 15
_symmetry_cell_setting 'monoclinic'
loop_
_space_group_symop_operation_xyz
x,y,z
-x,y,1/2-z
-x,-y,-z
x,-y,1/2+z
1/2+x,1/2+y,z
1/2-x,1/2+y,1/2-z
1/2-x,1/2-y,-z
1/2+x,1/2-y,1/2+z
loop_
_atom_site_type_symbol
_atom_site_label
_atom_site_fract_x
_atom_site_fract_y
_atom_site_fract_z
Si Si1 0.531157 0.948268 0.098146
Si Si2 0.534941 0.850606 0.601178
Si Si3 0.398983 0.379763 0.063736
Si Si4 0.755727 0.299276 0.664519
Si Si5 0.768580 0.093549 0.738470
Si Si6 0.178114 0.302212 0.126366
Si Si7 0.022272 0.947599 0.945335
O O1 0.500000 0.949840 0.250000
O O2 0.659057 0.937680 0.171688
O O3 0.460804 0.905409 0.964053
O O4 0.500000 0.000000 0.000000
O O5 0.500000 0.855702 0.750000
O O6 0.654167 0.828024 0.663845
O O7 0.447960 0.816153 0.441377
O O8 0.500000 0.364045 0.250000
O O9 0.312268 0.411046 0.097517
O O10 0.351894 0.330919 0.949781
O O11 0.433415 0.412163 0.948149
O O12 0.813397 0.290437 0.547519
O O13 0.719881 0.249734 0.730198
O O14 0.751263 0.152621 0.748068
O O15 0.855796 0.072290 0.927306
O O16 0.000000 0.950648 0.750000
O O17 0.000000 0.000000 0.000000
#
# Coordination Sequence:
#
# PCOD8152832 Si02
#       7
#     8   8   8   8   8   8   8
#     4  11  24  39  58  81 108 144 185 227 277 330
#     4   9  18  33  52  79 111 141 183 226 267 323
#     4   9  19  35  56  83 114 144 182 226 270 322
#     4   9  16  28  55  83 107 142 182 227 267 310
#     4   9  20  39  57  80 116 144 176 230 274 317
#     4   8  16  30  51  81 111 142 179 224 271 314
#     4  11  23  38  58  83 110 144 184 223 274 332
#
# _framework density 19.317751999999999
#
# number of rings (size 3 to 8) (size 9 to 14) (size 15 to 20)
#    0.000    2.571    0.000    2.571    0.000    9.714 
#    0.000    0.000    0.000   12.000    0.000    0.000 
#    0.000    0.000    0.000    0.000    0.000    0.000 
#
# Total GULP energy -347033.704317 kJ/mol
# GULP energy per Si atom -12394.060868 kJ/mol
# Density = 1.927378 g / cm^3
# Si number density = 19.317752 Si / 1000 Ang^3
#
#
#
# Elastic Constant Matrix: (Units=GPa)
#
#
# Indices 1 2 3 4 5 6 
#
# 1 113.3337 73.0476 56.8451 0.0000 15.6452 0.0000
# 2 73.0476 177.1427 79.2900 0.0000 20.5569 0.0000
# 3 56.8451 79.2900 105.8136 0.0000 11.2800 0.0000
# 4 0.0000 0.0000 0.0000 28.1651 0.0000 4.0655
# 5 15.6452 20.5569 11.2800 0.0000 27.5494 0.0000
# 6 0.0000 0.0000 0.0000 4.0655 0.0000 23.7585
#
#
#
# Elastic Compliance Matrix: (Units=1/GPa)
#
#
# Indices 1 2 3 4 5 6 
#
# 1 0.013650 -0.003170 -0.004584 0.000000 -0.003510 0.000000
# 2 -0.003170 0.009651 -0.005179 0.000000 -0.003281 0.000000
# 3 -0.004584 -0.005179 0.015794 0.000000 0.000001 0.000000
# 4 0.000000 0.000000 0.000000 0.036404 0.000000 -0.006229
# 5 -0.003510 -0.003281 0.000001 0.000000 0.040739 0.000000
# 6 0.000000 0.000000 0.000000 -0.006229 0.000000 0.043156
#
#
# Mechanical properties :
#
#
# Convention : Reuss Voigt Hill
#
# Bulk Modulus (GPa) = 75.58820 90.51727 83.05274
# Shear Modulus (GPa) = 26.36140 28.36841 27.36490
#
# Velocity S-wave (km/s) = 3.69808 3.83628 3.76781
# Velocity P-wave (km/s) = 7.57946 8.15975 7.87495
#
# Compressibility (1/GPa) = 0.01322958
#
# Stress axis : x y z
#
# Youngs Moduli (GPa) = 73.25920 103.61182 63.31488
#
# Poissons Ratio (x) = 0.32844 0.29021
# Poissons Ratio (y) = 0.23222 0.32794
# Poissons Ratio (z) = 0.33580 0.53666
#
# Static dielectric constant tensor:
#      x y z
#    x 3.676050 0.000000 0.262900 
#    y 0.000000 3.721530 0.000000 
#    z 0.262900 0.000000 3.320180 
# 
# 
# High freq. dielectric constant tensor:
#      x y z
#    x 1.747200 0.000000 0.021580 
#    y 0.000000 1.760380 0.000000 
#    z 0.021580 0.000000 1.730280 
# 
# From -- ./inp_files/42722.got.cif
#   From: 2010.06.25/outbox.cif.g09.slc.cpg/sg15_22_cif.got.tgz:42722.got - 2010.06.28 07:06:18.
