data_PCOD8152044
_publ_section_title
;
Structure prediction by ZEFSAII (Michael W. Deem and Ramdas Pophale) SiO2 
 PCOD8152044
Probable space group: C 2/C
;
_chemical_formula_sum "Si O2"
_cell_formula_units_Z 64
_cell_length_a 28.266016
_cell_length_b 9.473846
_cell_length_c 18.102991
_cell_angle_alpha 90.000000
_cell_angle_beta 141.028905
_cell_angle_gamma 90.000000
_cell_volume 3048.894241
_symmetry_space_group_name_H-M "C 2/C"
_symmetry_group_IT_number 15
_symmetry_cell_setting 'monoclinic'
loop_
_space_group_symop_operation_xyz
x,y,z
-x,y,1/2-z
-x,-y,-z
x,-y,1/2+z
1/2+x,1/2+y,z
1/2-x,1/2+y,1/2-z
1/2-x,1/2-y,-z
1/2+x,1/2-y,1/2+z
loop_
_atom_site_type_symbol
_atom_site_label
_atom_site_fract_x
_atom_site_fract_y
_atom_site_fract_z
Si Si1 0.255984 0.935172 0.079681
Si Si2 0.505068 0.292100 0.843337
Si Si3 0.857265 0.687198 0.164639
Si Si4 0.356911 0.524760 0.935773
Si Si5 0.859230 0.717552 0.994200
Si Si6 0.004660 0.523180 0.342928
Si Si7 0.159589 0.161044 0.332817
Si Si8 0.801626 0.910050 0.210291
O O1 0.223235 0.950497 0.121895
O O2 0.324836 0.825796 0.163603
O O3 0.284526 0.085303 0.082856
O O4 0.186778 0.877216 0.947752
O O5 0.500000 0.281871 0.750000
O O6 0.429453 0.365484 0.782827
O O7 0.511158 0.134006 0.884336
O O8 0.576258 0.383098 0.950862
O O9 0.930568 0.603520 0.281561
O O10 0.848821 0.819384 0.208562
O O11 0.863252 0.742420 0.087698
O O12 0.377164 0.360758 0.971948
O O13 0.348699 0.573634 0.841928
O O14 0.779120 0.657024 0.872102
O O15 0.921420 0.607165 0.042521
O O16 0.000000 0.513921 0.250000
O O17 0.207146 0.067304 0.333124
#
# Coordination Sequence:
#
# PCOD8152044 Si02
#       8
#     8   8   8   8   8   8   8   8
#     4  11  22  42  71  99 128 171 228 267 330 389
#     4  11  23  42  67  98 134 170 219 272 336 392
#     4  11  21  46  71  99 126 178 229 270 318 401
#     4  12  28  42  63  99 134 175 215 278 338 391
#     4  11  24  44  69  96 134 174 222 271 331 391
#     4   9  22  40  68  99 127 166 218 277 326 385
#     4  11  24  40  69 100 131 171 218 279 320 397
#     4  12  27  42  66  95 135 174 225 274 330 396
#
# _framework density 20.991216000000001
#
# number of rings (size 3 to 8) (size 9 to 14) (size 15 to 20)
#    0.000    1.000    5.000    1.125    5.250    1.000 
#    0.000    0.625    0.000    0.000    0.000    0.000 
#    0.000    0.000    0.000    0.000    0.000    0.000 
#
# Total GULP energy -396902.995554 kJ/mol
# GULP energy per Si atom -12403.218611 kJ/mol
# Density = 2.094344 g / cm^3
# Si number density = 20.991216 Si / 1000 Ang^3
#
#
#
# Elastic Constant Matrix: (Units=GPa)
#
#
# Indices 1 2 3 4 5 6 
#
# 1 54.7495 26.6737 34.5076 0.0000 13.6265 0.0000
# 2 26.6737 121.0093 56.3484 0.0000 3.0341 0.0000
# 3 34.5076 56.3484 90.7544 0.0000 9.4875 0.0000
# 4 0.0000 0.0000 0.0000 10.7831 0.0000 4.9413
# 5 13.6265 3.0341 9.4875 0.0000 34.8905 0.0000
# 6 0.0000 0.0000 0.0000 4.9413 0.0000 23.3356
#
#
#
# Elastic Compliance Matrix: (Units=1/GPa)
#
#
# Indices 1 2 3 4 5 6 
#
# 1 0.026154 -0.001858 -0.007967 0.000000 -0.007887 0.000000
# 2 -0.001858 0.011789 -0.006775 0.000000 0.001542 0.000000
# 3 -0.007967 -0.006775 0.018390 0.000000 -0.001300 0.000000
# 4 0.000000 0.000000 0.000000 0.102703 0.000000 -0.021748
# 5 -0.007887 0.001542 -0.001300 0.000000 0.031961 0.000000
# 6 0.000000 0.000000 0.000000 -0.021748 0.000000 0.047458
#
#
# Mechanical properties :
#
#
# Convention : Reuss Voigt Hill
#
# Bulk Modulus (GPa) = 43.22370 55.73030 49.47700
# Shear Modulus (GPa) = 17.89767 23.73408 20.81588
#
# Velocity S-wave (km/s) = 2.92314 3.36619 3.15246
# Velocity P-wave (km/s) = 5.65942 6.45874 6.07225
#
# Compressibility (1/GPa) = 0.02313546
#
# Stress axis : x y z
#
# Youngs Moduli (GPa) = 38.23469 84.82259 54.37647
#
# Poissons Ratio (x) = 0.15756 0.43321
# Poissons Ratio (y) = 0.07102 0.36839
# Poissons Ratio (z) = 0.30461 0.57466
#
# Static dielectric constant tensor:
#      x y z
#    x 3.744740 0.000000 0.157530 
#    y 0.000000 4.013160 0.000000 
#    z 0.157530 0.000000 3.578980 
# 
# 
# High freq. dielectric constant tensor:
#      x y z
#    x 1.815180 0.000000 0.019850 
#    y 0.000000 1.840060 0.000000 
#    z 0.019850 0.000000 1.805240 
# 
# From -- ./inp_files/224655.got.cif
#   From: 2010.06.25/outbox.cif.g09.slc.cpg/sg15_113_cif.got.tgz:224655.got - 2010.06.28 07:06:18.
