data_PCOD8152066
_publ_section_title
;
Structure prediction by ZEFSAII (Michael W. Deem and Ramdas Pophale) SiO2 
 PCOD8152066
Probable space group: C 2/C
;
_chemical_formula_sum "Si O2"
_cell_formula_units_Z 64
_cell_length_a 13.133674
_cell_length_b 23.214665
_cell_length_c 10.967507
_cell_angle_alpha 90.000000
_cell_angle_beta 81.195983
_cell_angle_gamma 90.000000
_cell_volume 3304.526060
_symmetry_space_group_name_H-M "C 2/C"
_symmetry_group_IT_number 15
_symmetry_cell_setting 'monoclinic'
loop_
_space_group_symop_operation_xyz
x,y,z
-x,y,1/2-z
-x,-y,-z
x,-y,1/2+z
1/2+x,1/2+y,z
1/2-x,1/2+y,1/2-z
1/2-x,1/2-y,-z
1/2+x,1/2-y,1/2+z
loop_
_atom_site_type_symbol
_atom_site_label
_atom_site_fract_x
_atom_site_fract_y
_atom_site_fract_z
Si Si1 0.172000 0.337231 0.642075
Si Si2 0.629472 0.760498 0.038226
Si Si3 0.051386 0.233107 0.566955
Si Si4 0.097639 0.446632 0.798763
Si Si5 0.835788 0.237977 0.208263
Si Si6 0.656016 0.069166 0.781061
Si Si7 0.216776 0.841828 0.134254
Si Si8 0.443267 0.108570 0.935887
O O1 0.078214 0.292651 0.632714
O O2 0.135582 0.398176 0.698443
O O3 0.249610 0.312008 0.728717
O O4 0.234000 0.344672 0.507293
O O5 0.600134 0.735622 0.177494
O O6 0.587448 0.825312 0.042264
O O7 0.750000 0.750000 0.000000
O O8 0.571410 0.727913 0.935692
O O9 0.093448 0.232368 0.422033
O O10 0.097770 0.179432 0.636785
O O11 0.172660 0.501173 0.803643
O O12 0.000000 0.475698 0.750000
O O13 0.067927 0.421287 0.932963
O O14 0.776002 0.298238 0.211754
O O15 0.765738 0.096577 0.803893
O O16 0.561913 0.100069 0.872136
O O17 0.637067 0.079166 0.641556
#
# Coordination Sequence:
#
# PCOD8152066 Si02
#       8
#     8   8   8   8   8   8   8   8
#     4   9  19  33  54  80 111 146 179 236 277 325
#     4  12  22  33  53  85 119 143 177 236 297 340
#     4   9  19  34  57  79 108 153 188 222 280 342
#     4  12  22  33  50  81 121 147 184 233 287 335
#     4   9  17  33  55  78 107 150 189 220 272 344
#     4  11  22  35  56  76 107 161 192 223 266 344
#     4   9  17  35  55  75 105 146 197 219 259 341
#     4  11  23  36  51  80 115 151 186 228 284 337
#
# _framework density 19.367374999999999
#
# number of rings (size 3 to 8) (size 9 to 14) (size 15 to 20)
#    0.000    1.750    2.500    6.000    3.500    0.000 
#    0.000    1.875    0.000    0.000    0.000    3.500 
#    7.500    0.000    0.000    0.000    0.000    0.000 
#
# Total GULP energy -396464.311852 kJ/mol
# GULP energy per Si atom -12389.509745 kJ/mol
# Density = 1.932329 g / cm^3
# Si number density = 19.367375 Si / 1000 Ang^3
#
#
#
# Elastic Constant Matrix: (Units=GPa)
#
#
# Indices 1 2 3 4 5 6 
#
# 1 102.1861 51.9724 25.9875 0.0000 23.4450 0.0000
# 2 51.9724 111.6158 21.8410 0.0000 14.6031 0.0000
# 3 25.9875 21.8410 53.0068 0.0000 20.0078 0.0000
# 4 0.0000 0.0000 0.0000 32.7395 0.0000 6.5814
# 5 23.4450 14.6031 20.0078 0.0000 31.0912 0.0000
# 6 0.0000 0.0000 0.0000 6.5814 0.0000 24.8397
#
#
#
# Elastic Compliance Matrix: (Units=1/GPa)
#
#
# Indices 1 2 3 4 5 6 
#
# 1 0.014804 -0.005514 -0.002311 0.000000 -0.007086 0.000000
# 2 -0.005514 0.011965 -0.002212 0.000000 -0.000038 0.000000
# 3 -0.002311 -0.002212 0.026232 0.000000 -0.014099 0.000000
# 4 0.000000 0.000000 0.000000 0.032262 0.000000 -0.008548
# 5 -0.007086 -0.000038 -0.014099 0.000000 0.046598 0.000000
# 6 0.000000 0.000000 0.000000 -0.008548 0.000000 0.042523
#
#
# Mechanical properties :
#
#
# Convention : Reuss Voigt Hill
#
# Bulk Modulus (GPa) = 30.37142 51.82338 41.09740
# Shear Modulus (GPa) = 24.33874 28.86795 26.60335
#
# Velocity S-wave (km/s) = 3.54882 3.86495 3.71025
# Velocity P-wave (km/s) = 5.70158 6.83617 6.29449
#
# Compressibility (1/GPa) = 0.03292569
#
# Stress axis : x y z
#
# Youngs Moduli (GPa) = 67.54888 83.57937 38.12163
#
# Poissons Ratio (x) = 0.46085 0.08811
# Poissons Ratio (y) = 0.37246 0.08434
# Poissons Ratio (z) = 0.15612 0.18490
#
# Static dielectric constant tensor:
#      x y z
#    x 3.888390 0.000000 0.393590 
#    y 0.000000 3.727080 0.000000 
#    z 0.393590 0.000000 3.718580 
# 
# 
# High freq. dielectric constant tensor:
#      x y z
#    x 1.729190 0.000000 0.026900 
#    y 0.000000 1.730520 0.000000 
#    z 0.026900 0.000000 1.771630 
# 
# From -- ./inp_files/90799.got.cif
#   From: 2010.06.25/outbox.cif.g09.slc.cpg/sg15_46_cif.got.tgz:90799.got - 2010.06.28 07:06:18.
