data_PCOD8152426
_publ_section_title
;
Structure prediction by ZEFSAII (Michael W. Deem and Ramdas Pophale) SiO2 
 PCOD8152426
Probable space group: C 2/C
;
_chemical_formula_sum "Si O2"
_cell_formula_units_Z 64
_cell_length_a 18.408167
_cell_length_b 12.978969
_cell_length_c 25.064894
_cell_angle_alpha 90.000000
_cell_angle_beta 30.041458
_cell_angle_gamma 90.000000
_cell_volume 2997.991888
_symmetry_space_group_name_H-M "C 2/C"
_symmetry_group_IT_number 15
_symmetry_cell_setting 'monoclinic'
loop_
_space_group_symop_operation_xyz
x,y,z
-x,y,1/2-z
-x,-y,-z
x,-y,1/2+z
1/2+x,1/2+y,z
1/2-x,1/2+y,1/2-z
1/2-x,1/2-y,-z
1/2+x,1/2-y,1/2+z
loop_
_atom_site_type_symbol
_atom_site_label
_atom_site_fract_x
_atom_site_fract_y
_atom_site_fract_z
Si Si1 0.813946 0.275244 0.626853
Si Si2 0.360128 0.068098 0.190328
Si Si3 0.000349 0.273323 0.190940
Si Si4 0.429888 0.102548 0.958637
Si Si5 0.946216 0.328210 0.843872
Si Si6 0.380878 0.434390 0.869313
Si Si7 0.908509 0.060321 0.600515
Si Si8 0.387358 0.380638 0.437485
O O1 0.849342 0.333270 0.659169
O O2 0.646572 0.294993 0.719025
O O3 0.920008 0.311700 0.511437
O O4 0.821290 0.152111 0.627697
O O5 0.447659 0.101149 0.187747
O O6 0.448265 0.979810 0.102641
O O7 0.201837 0.021272 0.303015
O O8 0.000000 0.328677 0.250000
O O9 0.023300 0.352531 0.128724
O O10 0.124158 0.185326 0.109100
O O11 0.279418 0.040249 0.050659
O O12 0.948457 0.210671 0.862020
O O13 0.000000 0.331177 0.750000
O O14 0.784005 0.371339 0.945767
O O15 0.500000 0.457968 0.750000
O O16 0.420033 0.507936 0.892893
O O17 0.021939 0.119461 0.566110
O O18 0.000000 0.000000 0.500000
#
# Coordination Sequence:
#
# PCOD8152426 Si02
#       8
#     8   8   8   8   8   8   8   8
#     4  12  26  48  69 105 143 187 238 290 359 429
#     4  12  26  50  70 103 147 187 239 293 363 427
#     4  11  24  44  70 103 142 181 230 291 349 424
#     4  12  25  45  71 103 139 188 231 291 356 430
#     4  11  24  47  72 102 138 188 239 296 355 424
#     4  11  22  41  69 102 131 177 235 284 347 412
#     4  12  28  45  73 107 142 190 234 297 364 423
#     4  11  24  46  71  99 141 178 241 295 348 429
#
# _framework density 21.347624
#
# number of rings (size 3 to 8) (size 9 to 14) (size 15 to 20)
#    0.000    0.500    6.250    2.625    3.500    0.500 
#    2.250    0.000    0.000    0.000    0.000    0.000 
#    0.000    0.000    0.000    0.000    0.000    0.000 
#
# Total GULP energy -396827.206082 kJ/mol
# GULP energy per Si atom -12400.850190 kJ/mol
# Density = 2.129904 g / cm^3
# Si number density = 21.347624 Si / 1000 Ang^3
#
#
#
# Elastic Constant Matrix: (Units=GPa)
#
#
# Indices 1 2 3 4 5 6 
#
# 1 107.7619 23.3015 46.0305 0.0002 6.4212 0.0004
# 2 23.3015 90.5492 46.6501 -0.0022 13.7923 -0.0006
# 3 46.0305 46.6501 121.0261 -0.0077 9.0559 -0.0016
# 4 0.0002 -0.0022 -0.0077 24.1656 0.0016 7.4501
# 5 6.4212 13.7923 9.0559 0.0016 40.3130 -0.0002
# 6 0.0004 -0.0006 -0.0016 7.4501 -0.0002 39.2363
#
#
#
# Elastic Compliance Matrix: (Units=1/GPa)
#
#
# Indices 1 2 3 4 5 6 
#
# 1 0.011148 -0.000763 -0.003898 -0.000001 -0.000639 0.000000
# 2 -0.000763 0.014360 -0.004970 0.000000 -0.003675 0.000000
# 3 -0.003898 -0.004970 0.011684 0.000003 -0.000303 0.000000
# 4 -0.000001 0.000000 0.000003 0.043954 -0.000002 -0.008346
# 5 -0.000639 -0.003675 -0.000303 -0.000002 0.026233 0.000001
# 6 0.000000 0.000000 0.000000 -0.008346 0.000001 0.027071
#
#
# Mechanical properties :
#
#
# Convention : Reuss Voigt Hill
#
# Bulk Modulus (GPa) = 55.77397 61.25574 58.51485
# Shear Modulus (GPa) = 31.31078 34.29997 32.80538
#
# Velocity S-wave (km/s) = 3.83392 4.01276 3.92436
# Velocity P-wave (km/s) = 6.76623 7.08705 6.92850
#
# Compressibility (1/GPa) = 0.01792951
#
# Stress axis : x y z
#
# Youngs Moduli (GPa) = 89.70363 69.63582 85.59002
#
# Poissons Ratio (x) = 0.05315 0.33362
# Poissons Ratio (y) = 0.06847 0.42538
# Poissons Ratio (z) = 0.34966 0.34609
#
# Static dielectric constant tensor:
#      x y z
#    x 3.479730 0.000030 0.426800 
#    y 0.000030 3.730840 -0.000050 
#    z 0.426800 -0.000050 3.406290 
# 
# 
# High freq. dielectric constant tensor:
#      x y z
#    x 1.844530 0.000000 -0.006570 
#    y 0.000000 1.841560 0.000000 
#    z -0.006570 0.000000 1.847820 
# 
# From -- ./inp_files/277643.got.cif
#   From: 2010.06.25/outbox.cif.g09.slc.cpg/sg15_139_cif.got.tgz:277643.got - 2010.06.28 07:06:18.
