data_PCOD8152382
_publ_section_title
;
Structure prediction by ZEFSAII (Michael W. Deem and Ramdas Pophale) SiO2 
 PCOD8152382
Probable space group: C 2/C
;
_chemical_formula_sum "Si O2"
_cell_formula_units_Z 40
_cell_length_a 13.296658
_cell_length_b 14.583280
_cell_length_c 11.626126
_cell_angle_alpha 90.000000
_cell_angle_beta 57.228989
_cell_angle_gamma 90.000000
_cell_volume 1895.598685
_symmetry_space_group_name_H-M "C 2/C"
_symmetry_group_IT_number 15
_symmetry_cell_setting 'monoclinic'
loop_
_space_group_symop_operation_xyz
x,y,z
-x,y,1/2-z
-x,-y,-z
x,-y,1/2+z
1/2+x,1/2+y,z
1/2-x,1/2+y,1/2-z
1/2-x,1/2-y,-z
1/2+x,1/2-y,1/2+z
loop_
_atom_site_type_symbol
_atom_site_label
_atom_site_fract_x
_atom_site_fract_y
_atom_site_fract_z
Si Si1 0.500000 0.249349 0.750000
Si Si2 0.500000 0.449900 0.250000
Si Si3 0.949203 0.582790 0.400149
Si Si4 0.793116 0.147361 0.005188
Si Si5 0.659610 0.396997 0.760679
Si Si6 0.407067 0.114537 0.984162
O O1 0.581292 0.308231 0.783520
O O2 0.590090 0.189622 0.617162
O O3 0.419879 0.380336 0.373759
O O4 0.422067 0.512504 0.210068
O O5 0.806451 0.586273 0.495008
O O6 0.978130 0.475463 0.396407
O O7 0.000000 0.621727 0.250000
O O8 0.013398 0.646388 0.455936
O O9 0.794239 0.117931 0.138504
O O10 0.750000 0.250000 0.000000
O O11 0.770911 0.403188 0.604996
#
# Coordination Sequence:
#
# PCOD8152382 Si02
#       6
#     4   4   8   8   8   8
#     4  11  24  40  63 100 134 178 225 276 334 405
#     4  11  26  48  69 100 138 186 225 278 350 417
#     4  11  22  41  69  95 131 168 224 279 340 400
#     4  12  26  44  69 102 134 177 228 286 338 406
#     4  11  24  45  67  96 140 180 227 275 343 411
#     4  11  22  41  66  98 129 176 223 277 336 405
#
# _framework density 21.101513000000001
#
# number of rings (size 3 to 8) (size 9 to 14) (size 15 to 20)
#    0.000    0.800    5.000    2.400    1.400    1.600 
#    3.600    0.000    0.000    0.000    0.000    0.000 
#    0.000    0.000    0.000    0.000    0.000    0.000 
#
# Total GULP energy -247917.533531 kJ/mol
# GULP energy per Si atom -12395.876677 kJ/mol
# Density = 2.105348 g / cm^3
# Si number density = 21.101513 Si / 1000 Ang^3
#
#
#
# Elastic Constant Matrix: (Units=GPa)
#
#
# Indices 1 2 3 4 5 6 
#
# 1 104.7749 32.2805 23.3360 0.0000 -10.6346 0.0000
# 2 32.2805 102.5087 43.7092 0.0000 2.4649 0.0000
# 3 23.3360 43.7092 113.8707 0.0000 -18.0411 0.0000
# 4 0.0000 0.0000 0.0000 27.9078 0.0000 -6.7163
# 5 -10.6346 2.4649 -18.0411 0.0000 36.0208 0.0000
# 6 0.0000 0.0000 0.0000 -6.7163 0.0000 27.7435
#
#
#
# Elastic Compliance Matrix: (Units=1/GPa)
#
#
# Indices 1 2 3 4 5 6 
#
# 1 0.011008 -0.003351 -0.000455 0.000000 0.003252 0.000000
# 2 -0.003351 0.013058 -0.005022 0.000000 -0.004398 0.000000
# 3 -0.000455 -0.005022 0.011770 0.000000 0.006105 0.000000
# 4 0.000000 0.000000 0.000000 0.038049 0.000000 0.009211
# 5 0.003252 -0.004398 0.006105 0.000000 0.032080 0.000000
# 6 0.000000 0.000000 0.000000 0.009211 0.000000 0.038274
#
#
# Mechanical properties :
#
#
# Convention : Reuss Voigt Hill
#
# Bulk Modulus (GPa) = 55.00462 57.75617 56.38039
# Shear Modulus (GPa) = 29.76992 33.12299 31.44645
#
# Velocity S-wave (km/s) = 3.76013 3.96624 3.86456
# Velocity P-wave (km/s) = 6.70632 6.95735 6.83299
#
# Compressibility (1/GPa) = 0.01818029
#
# Stress axis : x y z
#
# Youngs Moduli (GPa) = 90.84378 76.58301 84.96150
#
# Poissons Ratio (x) = 0.25662 0.03862
# Poissons Ratio (y) = 0.30440 0.42671
# Poissons Ratio (z) = 0.04129 0.38463
#
# Static dielectric constant tensor:
#      x y z
#    x 4.076940 0.000000 0.046980 
#    y 0.000000 3.705570 0.000000 
#    z 0.046980 0.000000 3.707610 
# 
# 
# High freq. dielectric constant tensor:
#      x y z
#    x 1.842460 0.000000 -0.001470 
#    y 0.000000 1.822990 0.000000 
#    z -0.001470 0.000000 1.831090 
# 
# From -- ./inp_files/86033.got.cif
#   From: 2010.06.25/outbox.cif.g09.slc.cpg/sg15_44_cif.got.tgz:86033.got - 2010.06.28 07:06:18.
