data_PCOD8152190
_publ_section_title
;
Structure prediction by ZEFSAII (Michael W. Deem and Ramdas Pophale) SiO2 
 PCOD8152190
Probable space group: C 2/C
;
_chemical_formula_sum "Si O2"
_cell_formula_units_Z 40
_cell_length_a 8.279803
_cell_length_b 22.451457
_cell_length_c 17.488409
_cell_angle_alpha 90.000000
_cell_angle_beta 33.731812
_cell_angle_gamma 90.000000
_cell_volume 1805.291790
_symmetry_space_group_name_H-M "C 2/C"
_symmetry_group_IT_number 15
_symmetry_cell_setting 'monoclinic'
loop_
_space_group_symop_operation_xyz
x,y,z
-x,y,1/2-z
-x,-y,-z
x,-y,1/2+z
1/2+x,1/2+y,z
1/2-x,1/2+y,1/2-z
1/2-x,1/2-y,-z
1/2+x,1/2-y,1/2+z
loop_
_atom_site_type_symbol
_atom_site_label
_atom_site_fract_x
_atom_site_fract_y
_atom_site_fract_z
Si Si1 0.083515 0.380951 0.534675
Si Si2 0.877031 0.617729 0.942784
Si Si3 0.750069 0.828422 0.710032
Si Si4 0.390220 0.308861 0.211725
Si Si5 0.676429 0.009188 0.104199
O O1 0.340772 0.330686 0.448076
O O2 0.173290 0.443671 0.536213
O O3 0.980858 0.386874 0.488789
O O4 0.794834 0.360563 0.692014
O O5 0.925951 0.553124 0.889062
O O6 0.095059 0.657383 0.806236
O O7 0.563699 0.650083 0.055839
O O8 0.500000 0.849771 0.750000
O O9 0.704753 0.759357 0.747143
O O10 0.500000 0.331449 0.250000
O O11 0.500000 0.028699 0.250000
O O12 0.000000 0.000000 0.000000
#
# Coordination Sequence:
#
# PCOD8152190 Si02
#       5
#     8   8   8   8   8
#     4  11  22  41  64  91 124 163 207 256 308 367
#     4  11  23  41  64  91 123 164 208 254 308 369
#     4  11  22  39  62  92 127 163 203 253 307 367
#     4   9  21  39  62  91 124 160 204 253 307 367
#     4  12  25  42  63  91 125 164 208 258 312 368
#
# _framework density 22.157083
#
# number of rings (size 3 to 8) (size 9 to 14) (size 15 to 20)
#    0.000    1.200    0.000    6.600    0.000    0.000 
#    0.000   14.000    0.000    0.000    0.000    0.000 
#    0.000    0.000    0.000    0.000    0.000    0.000 
#
# Total GULP energy -247768.702569 kJ/mol
# GULP energy per Si atom -12388.435128 kJ/mol
# Density = 2.210665 g / cm^3
# Si number density = 22.157083 Si / 1000 Ang^3
#
#
#
# Elastic Constant Matrix: (Units=GPa)
#
#
# Indices 1 2 3 4 5 6 
#
# 1 88.0057 21.2044 17.8725 0.0137 -9.7836 0.0200
# 2 21.2044 92.2360 7.6001 0.0161 -10.1543 0.0186
# 3 17.8725 7.6001 86.9857 0.0314 -21.3676 0.0553
# 4 0.0137 0.0161 0.0314 36.0807 -0.0066 -10.6821
# 5 -9.7836 -10.1543 -21.3676 -0.0066 34.2857 -0.0126
# 6 0.0200 0.0186 0.0553 -10.6821 -0.0126 18.7571
#
#
#
# Elastic Compliance Matrix: (Units=1/GPa)
#
#
# Indices 1 2 3 4 5 6 
#
# 1 0.012554 -0.002548 -0.001963 -0.000003 0.001605 -0.000006
# 2 -0.002548 0.011727 0.000205 -0.000007 0.002874 -0.000012
# 3 -0.001963 0.000205 0.013884 -0.000024 0.008154 -0.000047
# 4 -0.000003 -0.000007 -0.000024 0.033336 -0.000005 0.018985
# 5 0.001605 0.002874 0.008154 -0.000005 0.035557 -0.000007
# 6 -0.000006 -0.000012 -0.000047 0.018985 -0.000007 0.064125
#
#
# Mechanical properties :
#
#
# Convention : Reuss Voigt Hill
#
# Bulk Modulus (GPa) = 33.83611 40.06459 36.95035
# Shear Modulus (GPa) = 26.36492 32.52807 29.44649
#
# Velocity S-wave (km/s) = 3.45325 3.83569 3.64948
# Velocity P-wave (km/s) = 5.58606 6.14313 5.87121
#
# Compressibility (1/GPa) = 0.02955422
#
# Stress axis : x y z
#
# Youngs Moduli (GPa) = 79.65789 85.27374 72.02302
#
# Poissons Ratio (x) = 0.21725 0.14135
# Poissons Ratio (y) = 0.20294 -0.01475
# Poissons Ratio (z) = 0.15634 -0.01746
#
# Static dielectric constant tensor:
#      x y z
#    x 3.892740 -0.000030 -0.113610 
#    y -0.000030 3.768980 0.000040 
#    z -0.113610 0.000040 4.336280 
# 
# 
# High freq. dielectric constant tensor:
#      x y z
#    x 1.869830 0.000000 -0.005240 
#    y 0.000000 1.887140 0.000000 
#    z -0.005240 0.000000 1.885600 
# 
# From -- ./inp_files/137099.got.cif
#   From: 2010.06.25/outbox.cif.g09.slc.cpg/sg15_69_cif.got.tgz:137099.got - 2010.06.28 07:06:18.
