data_PCOD8152467
_publ_section_title
;
Structure prediction by ZEFSAII (Michael W. Deem and Ramdas Pophale) SiO2 
 PCOD8152467
Probable space group: C 2/C
;
_chemical_formula_sum "Si O2"
_cell_formula_units_Z 56
_cell_length_a 15.492765
_cell_length_b 9.369582
_cell_length_c 21.271798
_cell_angle_alpha 90.000000
_cell_angle_beta 116.715361
_cell_angle_gamma 90.000000
_cell_volume 2758.206702
_symmetry_space_group_name_H-M "C 2/C"
_symmetry_group_IT_number 15
_symmetry_cell_setting 'monoclinic'
loop_
_space_group_symop_operation_xyz
x,y,z
-x,y,1/2-z
-x,-y,-z
x,-y,1/2+z
1/2+x,1/2+y,z
1/2-x,1/2+y,1/2-z
1/2-x,1/2-y,-z
1/2+x,1/2-y,1/2+z
loop_
_atom_site_type_symbol
_atom_site_label
_atom_site_fract_x
_atom_site_fract_y
_atom_site_fract_z
Si Si1 0.100362 0.244612 0.815234
Si Si2 0.268914 0.546251 0.330395
Si Si3 0.884518 0.357059 0.044558
Si Si4 0.900837 0.290133 0.411384
Si Si5 0.255471 0.261825 0.398949
Si Si6 0.734259 0.508287 0.814588
Si Si7 0.357660 0.189836 0.035888
O O1 0.174929 0.368124 0.821280
O O2 0.137630 0.091385 0.803751
O O3 0.086392 0.242658 0.886186
O O4 0.000000 0.282068 0.750000
O O5 0.363169 0.646782 0.365377
O O6 0.284957 0.413907 0.381328
O O7 0.254504 0.486458 0.256205
O O8 0.836948 0.269790 0.085817
O O9 0.854196 0.520355 0.041133
O O10 0.998999 0.336525 0.086668
O O11 0.848292 0.295950 0.966461
O O12 0.826328 0.419095 0.377257
O O13 0.912075 0.263957 0.489945
O O14 0.226876 0.155081 0.333652
O O15 0.250000 0.250000 0.000000
#
# Coordination Sequence:
#
# PCOD8152467 Si02
#       7
#     8   8   8   8   8   8   8
#     4  11  25  43  67  97 128 176 220 264 333 396
#     4  11  24  43  63  95 132 176 215 270 333 392
#     4  11  24  39  67  98 127 167 220 278 328 387
#     4  11  24  42  68  97 125 176 227 268 322 398
#     4  11  22  42  65  93 132 170 212 272 340 382
#     4  11  24  43  65  92 133 172 216 274 329 387
#     4  12  20  44  70  95 131 168 224 272 325 394
#
# _framework density 20.303048
#
# number of rings (size 3 to 8) (size 9 to 14) (size 15 to 20)
#    0.000    0.857    5.714    2.143    2.000    4.000 
#    0.000    2.143    0.000    0.000    0.000    0.000 
#    0.000    0.000    0.000    0.000    0.000    0.000 
#
# Total GULP energy -347362.822236 kJ/mol
# GULP energy per Si atom -12405.815080 kJ/mol
# Density = 2.025684 g / cm^3
# Si number density = 20.303048 Si / 1000 Ang^3
#
#
#
# Elastic Constant Matrix: (Units=GPa)
#
#
# Indices 1 2 3 4 5 6 
#
# 1 80.6328 28.5270 36.4651 0.0000 5.3781 0.0000
# 2 28.5270 116.1072 24.6440 0.0000 11.6345 0.0000
# 3 36.4651 24.6440 113.1421 0.0000 -8.1283 0.0000
# 4 0.0000 0.0000 0.0000 23.8030 0.0000 -8.5948
# 5 5.3781 11.6345 -8.1283 0.0000 37.6052 0.0000
# 6 0.0000 0.0000 0.0000 -8.5948 0.0000 21.7477
#
#
#
# Elastic Compliance Matrix: (Units=1/GPa)
#
#
# Indices 1 2 3 4 5 6 
#
# 1 0.015577 -0.002602 -0.004628 0.000000 -0.002423 0.000000
# 2 -0.002602 0.009879 -0.001530 0.000000 -0.003015 0.000000
# 3 -0.004628 -0.001530 0.010914 0.000000 0.003494 0.000000
# 4 0.000000 0.000000 0.000000 0.049004 0.000000 0.019367
# 5 -0.002423 -0.003015 0.003494 0.000000 0.028627 0.000000
# 6 0.000000 0.000000 0.000000 0.019367 0.000000 0.053636
#
#
# Mechanical properties :
#
#
# Convention : Reuss Voigt Hill
#
# Bulk Modulus (GPa) = 53.04783 54.35048 53.69916
# Shear Modulus (GPa) = 26.11796 31.31426 28.71611
#
# Velocity S-wave (km/s) = 3.59054 3.93153 3.76490
# Velocity P-wave (km/s) = 6.58590 6.88745 6.73836
#
# Compressibility (1/GPa) = 0.01885091
#
# Stress axis : x y z
#
# Youngs Moduli (GPa) = 64.19767 101.22637 91.62451
#
# Poissons Ratio (x) = 0.26341 0.42400
# Poissons Ratio (y) = 0.16705 0.14016
# Poissons Ratio (z) = 0.29708 0.15485
#
# Static dielectric constant tensor:
#      x y z
#    x 3.648860 0.000000 -0.231900 
#    y 0.000000 3.769980 0.000000 
#    z -0.231900 0.000000 3.826290 
# 
# 
# High freq. dielectric constant tensor:
#      x y z
#    x 1.787500 0.000000 -0.014800 
#    y 0.000000 1.802610 0.000000 
#    z -0.014800 0.000000 1.800770 
# 
# From -- ./inp_files/276597.got.cif
#   From: 2010.06.25/outbox.cif.g09.slc.cpg/sg15_139_cif.got.tgz:276597.got - 2010.06.28 07:06:18.
