data_PCOD8152280
_publ_section_title
;
Structure prediction by ZEFSAII (Michael W. Deem and Ramdas Pophale) SiO2 
 PCOD8152280
Probable space group: C 2/C
;
_chemical_formula_sum "Si O2"
_cell_formula_units_Z 48
_cell_length_a 17.046885
_cell_length_b 18.254962
_cell_length_c 14.902085
_cell_angle_alpha 90.000000
_cell_angle_beta 29.050581
_cell_angle_gamma 90.000000
_cell_volume 2251.827807
_symmetry_space_group_name_H-M "C 2/C"
_symmetry_group_IT_number 15
_symmetry_cell_setting 'monoclinic'
loop_
_space_group_symop_operation_xyz
x,y,z
-x,y,1/2-z
-x,-y,-z
x,-y,1/2+z
1/2+x,1/2+y,z
1/2-x,1/2+y,1/2-z
1/2-x,1/2-y,-z
1/2+x,1/2-y,1/2+z
loop_
_atom_site_type_symbol
_atom_site_label
_atom_site_fract_x
_atom_site_fract_y
_atom_site_fract_z
Si Si1 0.437616 0.106603 0.214091
Si Si2 0.062977 0.329456 0.413789
Si Si3 0.062388 0.106609 0.589321
Si Si4 0.937026 0.829459 0.039741
Si Si5 0.937183 0.552039 0.907428
Si Si6 0.937188 0.052036 0.218204
O O1 0.500000 0.127401 0.250000
O O2 0.250004 0.125215 0.392812
O O3 0.465387 0.021151 0.164980
O O4 0.535063 0.156627 0.046876
O O5 0.250001 0.336738 0.202151
O O6 0.000007 0.249998 0.448973
O O7 0.961366 0.388408 0.459853
O O8 0.000000 0.127416 0.750000
O O9 0.964941 0.156627 0.616997
O O10 0.034623 0.021155 0.595757
O O11 0.038622 0.888418 0.882601
O O12 0.000000 0.584113 0.750000
O O13 0.749999 0.530907 0.086633
O O14 0.000000 0.084115 0.250000
#
# Coordination Sequence:
#
# PCOD8152280 Si02
#       6
#     8   8   8   8   8   8
#     4  11  22  40  64  92 121 157 200 248 297 351
#     4  12  25  42  61  88 122 160 200 246 299 358
#     4  11  22  40  64  92 121 157 200 248 297 351
#     4  12  25  42  61  88 122 160 200 246 299 358
#     4  11  22  40  64  92 121 157 200 248 297 351
#     4  11  22  40  64  92 121 157 200 248 297 351
#
# _framework density 21.316016999999999
#
# number of rings (size 3 to 8) (size 9 to 14) (size 15 to 20)
#    0.000    0.667    0.000   12.000    0.000    1.333 
#    0.000    6.667    0.000    0.000    0.000    0.000 
#    0.000    0.000    0.000    0.000    0.000    0.000 
#
# Total GULP energy -297827.091985 kJ/mol
# GULP energy per Si atom -12409.462166 kJ/mol
# Density = 2.126750 g / cm^3
# Si number density = 21.316017 Si / 1000 Ang^3
#
#
#
# Elastic Constant Matrix: (Units=GPa)
#
#
# Indices 1 2 3 4 5 6 
#
# 1 76.5403 6.3445 10.6687 0.0184 -10.2257 -0.0029
# 2 6.3445 36.4767 4.9932 0.0259 1.3761 -0.0126
# 3 10.6687 4.9932 97.8875 0.0178 -11.5760 -0.0109
# 4 0.0184 0.0259 0.0178 27.0786 0.0003 -9.7818
# 5 -10.2257 1.3761 -11.5760 0.0003 39.3097 0.0121
# 6 -0.0029 -0.0126 -0.0109 -9.7818 0.0121 17.4793
#
#
#
# Elastic Compliance Matrix: (Units=1/GPa)
#
#
# Indices 1 2 3 4 5 6 
#
# 1 0.013856 -0.002403 -0.000986 -0.000009 0.003398 -0.000008
# 2 -0.002403 0.028102 -0.001411 -0.000021 -0.002024 0.000008
# 3 -0.000986 -0.001411 0.010745 -0.000005 0.002957 0.000001
# 4 -0.000009 -0.000021 -0.000005 0.046287 -0.000011 0.025903
# 5 0.003398 -0.002024 0.002957 -0.000011 0.027265 -0.000024
# 6 -0.000008 0.000008 0.000001 0.025903 -0.000024 0.071706
#
#
# Mechanical properties :
#
#
# Convention : Reuss Voigt Hill
#
# Bulk Modulus (GPa) = 23.20016 28.32414 25.76215
# Shear Modulus (GPa) = 22.52982 29.36671 25.94826
#
# Velocity S-wave (km/s) = 3.25459 3.71574 3.49279
# Velocity P-wave (km/s) = 5.00307 5.63254 5.32711
#
# Compressibility (1/GPa) = 0.04310315
#
# Stress axis : x y z
#
# Youngs Moduli (GPa) = 72.17293 35.58424 93.06724
#
# Poissons Ratio (x) = 0.08552 0.09173
# Poissons Ratio (y) = 0.17345 0.13131
# Poissons Ratio (z) = 0.07114 0.05021
#
# Static dielectric constant tensor:
#      x y z
#    x 3.938680 -0.000010 0.026030 
#    y -0.000010 3.701330 0.000020 
#    z 0.026030 0.000020 3.913110 
# 
# 
# High freq. dielectric constant tensor:
#      x y z
#    x 1.847910 0.000000 -0.004860 
#    y 0.000000 1.826520 0.000000 
#    z -0.004860 0.000000 1.852660 
# 
# From -- ./inp_files/163190.got.cif
#   From: 2010.06.25/outbox.cif.g09.slc.cpg/sg15_82_cif.got.tgz:163190.got - 2010.06.28 07:06:18.
