data_PCOD8152167
_publ_section_title
;
Structure prediction by ZEFSAII (Michael W. Deem and Ramdas Pophale) SiO2 
 PCOD8152167
Probable space group: C 2/C
;
_chemical_formula_sum "Si O2"
_cell_formula_units_Z 44
_cell_length_a 18.234179
_cell_length_b 13.067000
_cell_length_c 9.016527
_cell_angle_alpha 90.000000
_cell_angle_beta 76.357735
_cell_angle_gamma 90.000000
_cell_volume 2087.721688
_symmetry_space_group_name_H-M "C 2/C"
_symmetry_group_IT_number 15
_symmetry_cell_setting 'monoclinic'
loop_
_space_group_symop_operation_xyz
x,y,z
-x,y,1/2-z
-x,-y,-z
x,-y,1/2+z
1/2+x,1/2+y,z
1/2-x,1/2+y,1/2-z
1/2-x,1/2-y,-z
1/2+x,1/2-y,1/2+z
loop_
_atom_site_type_symbol
_atom_site_label
_atom_site_fract_x
_atom_site_fract_y
_atom_site_fract_z
Si Si1 0.306797 0.421587 0.649950
Si Si2 0.351160 0.617936 0.790662
Si Si3 0.778621 0.275973 0.325936
Si Si4 0.055795 0.568527 0.065787
Si Si5 0.350944 0.976064 0.240089
Si Si6 0.500000 0.256108 0.250000
O O1 0.356202 0.513055 0.695173
O O2 0.329603 0.407702 0.469247
O O3 0.324216 0.317944 0.731603
O O4 0.218105 0.445277 0.715310
O O5 0.288315 0.692576 0.753324
O O6 0.431388 0.672257 0.734343
O O7 0.750000 0.250000 0.500000
O O8 0.834081 0.370485 0.332068
O O9 0.073983 0.527053 0.223288
O O10 0.026080 0.684787 0.098452
O O11 0.134434 0.558574 0.937332
O O12 0.000000 0.500000 0.000000
#
# Coordination Sequence:
#
# PCOD8152167 Si02
#       6
#     8   8   8   8   8   4
#     4  11  22  44  67  98 134 171 237 283 339 396
#     4  11  25  43  67 100 133 186 224 280 342 401
#     4  11  22  38  68 100 129 170 228 287 338 394
#     4  12  23  41  62  96 131 170 214 270 341 404
#     4  11  22  39  66  94 127 166 217 285 329 381
#     4  12  26  44  68  92 148 180 226 266 340 428
#
# _framework density 21.075607000000002
#
# number of rings (size 3 to 8) (size 9 to 14) (size 15 to 20)
#    0.000    0.727    1.818    8.182    2.545    0.727 
#    0.000    0.000    0.000    0.000    0.000    0.000 
#    0.000    0.000    0.000    0.000    0.000    0.000 
#
# Total GULP energy -272807.764211 kJ/mol
# GULP energy per Si atom -12400.352919 kJ/mol
# Density = 2.102764 g / cm^3
# Si number density = 21.075607 Si / 1000 Ang^3
#
#
#
# Elastic Constant Matrix: (Units=GPa)
#
#
# Indices 1 2 3 4 5 6 
#
# 1 97.5028 49.0431 18.4907 0.0000 4.9400 0.0000
# 2 49.0431 133.6473 35.0636 0.0000 7.0120 0.0000
# 3 18.4907 35.0636 154.7003 0.0000 -5.2506 0.0000
# 4 0.0000 0.0000 0.0000 48.8389 0.0000 -3.1854
# 5 4.9400 7.0120 -5.2506 0.0000 28.1564 0.0000
# 6 0.0000 0.0000 0.0000 -3.1854 0.0000 46.6572
#
#
#
# Elastic Compliance Matrix: (Units=1/GPa)
#
#
# Indices 1 2 3 4 5 6 
#
# 1 0.012653 -0.004435 -0.000548 0.000000 -0.001218 0.000000
# 2 -0.004435 0.009665 -0.001727 0.000000 -0.001951 0.000000
# 3 -0.000548 -0.001727 0.006983 0.000000 0.001828 0.000000
# 4 0.000000 0.000000 0.000000 0.020567 0.000000 0.001404
# 5 -0.001218 -0.001951 0.001828 0.000000 0.036556 0.000000
# 6 0.000000 0.000000 0.000000 0.001404 0.000000 0.021529
#
#
# Mechanical properties :
#
#
# Convention : Reuss Voigt Hill
#
# Bulk Modulus (GPa) = 62.97114 65.67167 64.32141
# Shear Modulus (GPa) = 39.47337 43.61403 41.54370
#
# Velocity S-wave (km/s) = 4.33244 4.55401 4.44461
# Velocity P-wave (km/s) = 7.41420 7.67331 7.54487
#
# Compressibility (1/GPa) = 0.01588029
#
# Stress axis : x y z
#
# Youngs Moduli (GPa) = 79.03444 103.46248 143.20292
#
# Poissons Ratio (x) = 0.45888 0.07853
# Poissons Ratio (y) = 0.35054 0.24728
# Poissons Ratio (z) = 0.04334 0.17866
#
# Static dielectric constant tensor:
#      x y z
#    x 2.422850 0.000000 0.010850 
#    y 0.000000 3.723850 0.000000 
#    z 0.010850 0.000000 4.258350 
# 
# 
# High freq. dielectric constant tensor:
#      x y z
#    x 1.813130 0.000000 -0.008490 
#    y 0.000000 1.839650 0.000000 
#    z -0.008490 0.000000 1.844570 
# 
# From -- ./inp_files/47078.got.cif
#   From: 2010.06.25/outbox.cif.g09.slc.cpg/sg15_24_cif.got.tgz:47078.got - 2010.06.28 07:06:18.
