data_PCOD8152093
_publ_section_title
;
Structure prediction by ZEFSAII (Michael W. Deem and Ramdas Pophale) SiO2 
 PCOD8152093
Probable space group: C 2/C
;
_chemical_formula_sum "Si O2"
_cell_formula_units_Z 28
_cell_length_a 10.842227
_cell_length_b 14.624854
_cell_length_c 10.104814
_cell_angle_alpha 90.000000
_cell_angle_beta 121.840610
_cell_angle_gamma 90.000000
_cell_volume 1361.167113
_symmetry_space_group_name_H-M "C 2/C"
_symmetry_group_IT_number 15
_symmetry_cell_setting 'monoclinic'
loop_
_space_group_symop_operation_xyz
x,y,z
-x,y,1/2-z
-x,-y,-z
x,-y,1/2+z
1/2+x,1/2+y,z
1/2-x,1/2+y,1/2-z
1/2-x,1/2-y,-z
1/2+x,1/2-y,1/2+z
loop_
_atom_site_type_symbol
_atom_site_label
_atom_site_fract_x
_atom_site_fract_y
_atom_site_fract_z
Si Si1 0.595831 0.480431 0.426201
Si Si2 0.279457 0.846917 0.953417
Si Si3 0.654414 0.107956 0.293705
Si Si4 0.500000 0.063270 0.750000
O O1 0.500000 0.442765 0.250000
O O2 0.500000 0.500000 0.500000
O O3 0.659965 0.578560 0.422156
O O4 0.717658 0.401021 0.523217
O O5 0.286473 0.837704 0.798963
O O6 0.250000 0.750000 0.000000
O O7 0.435847 0.875603 0.097269
O O8 0.500000 0.154549 0.250000
O O9 0.619380 0.000589 0.242551
#
# Coordination Sequence:
#
# PCOD8152093 Si02
#       4
#     8   8   8   4
#     4  11  22  38  65  92 124 164 209 252 301 372
#     4  11  22  36  61  91 125 157 202 265 312 354
#     4   9  20  38  63  86 120 165 217 240 301 380
#     4   8  20  34  60  82 116 162 206 240 296 372
#
# _framework density 20.570581000000001
#
# number of rings (size 3 to 8) (size 9 to 14) (size 15 to 20)
#    0.857    1.143    2.857    0.857    2.000    0.000 
#    0.000    1.429    0.000    5.143    0.000    0.000 
#    0.000    0.000    0.000    0.000    0.000    0.000 
#
# Total GULP energy -173432.855196 kJ/mol
# GULP energy per Si atom -12388.061085 kJ/mol
# Density = 2.052376 g / cm^3
# Si number density = 20.570581 Si / 1000 Ang^3
#
#
#
# Elastic Constant Matrix: (Units=GPa)
#
#
# Indices 1 2 3 4 5 6 
#
# 1 119.1198 17.2197 61.7284 0.0000 -9.7152 0.0000
# 2 17.2197 58.0009 37.3331 0.0000 -8.5735 0.0000
# 3 61.7284 37.3331 173.4891 0.0000 8.4596 0.0000
# 4 0.0000 0.0000 0.0000 12.8533 0.0000 -13.1888
# 5 -9.7152 -8.5735 8.4596 0.0000 44.9719 0.0000
# 6 0.0000 0.0000 0.0000 -13.1888 0.0000 15.7426
#
#
#
# Elastic Compliance Matrix: (Units=1/GPa)
#
#
# Indices 1 2 3 4 5 6 
#
# 1 0.010695 -0.000218 -0.003905 0.000000 0.003003 0.000000
# 2 -0.000218 0.021038 -0.004686 0.000000 0.004845 0.000000
# 3 -0.003905 -0.004686 0.008323 0.000000 -0.003303 0.000000
# 4 0.000000 0.000000 0.000000 0.554329 0.000000 0.464407
# 5 0.003003 0.004845 -0.003303 0.000000 0.024430 0.000000
# 6 0.000000 0.000000 0.000000 0.464407 0.000000 0.452593
#
#
# Mechanical properties :
#
#
# Convention : Reuss Voigt Hill
#
# Bulk Modulus (GPa) = 44.56606 64.79691 54.68148
# Shear Modulus (GPa) = 4.55994 30.33547 17.44771
#
# Velocity S-wave (km/s) = 1.49048 3.84435 2.91553
# Velocity P-wave (km/s) = 4.96730 7.16056 6.16229
#
# Compressibility (1/GPa) = 0.02243860
#
# Stress axis : x y z
#
# Youngs Moduli (GPa) = 93.50282 47.53269 120.15131
#
# Poissons Ratio (x) = 0.01035 0.46918
# Poissons Ratio (y) = 0.02036 0.56303
# Poissons Ratio (z) = 0.36512 0.22274
#
# Static dielectric constant tensor:
#      x y z
#    x 3.928640 0.000000 0.399220 
#    y 0.000000 3.245810 0.000000 
#    z 0.399220 0.000000 4.001540 
# 
# 
# High freq. dielectric constant tensor:
#      x y z
#    x 1.807050 0.000000 0.016630 
#    y 0.000000 1.757570 0.000000 
#    z 0.016630 0.000000 1.816800 
# 
# From -- ./inp_files/27456.got.cif
#   From: 2010.06.25/outbox.cif.g09.slc.cpg/sg15_14_cif.got.tgz:27456.got - 2010.06.28 07:06:18.
