data_PCOD8152446
_publ_section_title
;
Structure prediction by ZEFSAII (Michael W. Deem and Ramdas Pophale) SiO2 
 PCOD8152446
Probable space group: C 2/C
;
_chemical_formula_sum "Si O2"
_cell_formula_units_Z 64
_cell_length_a 22.543526
_cell_length_b 11.675851
_cell_length_c 12.018677
_cell_angle_alpha 90.000000
_cell_angle_beta 118.036782
_cell_angle_gamma 90.000000
_cell_volume 2792.245645
_symmetry_space_group_name_H-M "C 2/C"
_symmetry_group_IT_number 15
_symmetry_cell_setting 'monoclinic'
loop_
_space_group_symop_operation_xyz
x,y,z
-x,y,1/2-z
-x,-y,-z
x,-y,1/2+z
1/2+x,1/2+y,z
1/2-x,1/2+y,1/2-z
1/2-x,1/2-y,-z
1/2+x,1/2-y,1/2+z
loop_
_atom_site_type_symbol
_atom_site_label
_atom_site_fract_x
_atom_site_fract_y
_atom_site_fract_z
Si Si1 0.238041 0.825984 0.699846
Si Si2 0.165870 0.081535 0.340575
Si Si3 0.923077 0.854582 0.209621
Si Si4 0.393221 0.811461 0.877530
Si Si5 0.361628 0.169398 0.989857
Si Si6 0.285473 0.994584 0.574756
Si Si7 0.599357 0.939274 0.189076
Si Si8 0.431802 0.767037 0.160120
O O1 0.184243 0.893562 0.728921
O O2 0.312026 0.810075 0.817684
O O3 0.207251 0.705614 0.633351
O O4 0.241013 0.894742 0.587511
O O5 0.131427 0.192430 0.361603
O O6 0.120339 0.969992 0.317954
O O7 0.237643 0.076422 0.463671
O O8 0.918464 0.792960 0.324518
O O9 0.000000 0.886631 0.250000
O O10 0.894603 0.772664 0.087758
O O11 0.420593 0.927881 0.845066
O O12 0.426289 0.801074 0.027103
O O13 0.412228 0.128090 0.937200
O O14 0.344389 0.060235 0.050524
O O15 0.321725 0.066273 0.704451
O O16 0.559177 0.880097 0.253960
O O17 0.500000 0.696711 0.250000
#
# Coordination Sequence:
#
# PCOD8152446 Si02
#       8
#     8   8   8   8   8   8   8   8
#     4  11  22  41  72 106 141 181 236 308 366 417
#     4  12  26  45  70 109 146 194 235 303 366 433
#     4  12  28  48  75 106 150 202 245 286 352 453
#     4  11  27  46  75 108 138 190 244 306 363 426
#     4  12  22  45  71 107 145 185 240 295 367 423
#     4  11  22  42  71 108 141 178 237 304 369 423
#     4  11  24  45  72 106 138 185 238 308 369 421
#     4  12  29  49  68 104 148 194 244 290 358 440
#
# _framework density 22.92062
#
# number of rings (size 3 to 8) (size 9 to 14) (size 15 to 20)
#    0.000    0.500    5.000    4.500    5.250    2.000 
#    0.000    1.875    0.000    0.000    0.000    0.000 
#    0.000    0.000    0.000    0.000    0.000    0.000 
#
# Total GULP energy -396737.338103 kJ/mol
# GULP energy per Si atom -12398.041816 kJ/mol
# Density = 2.286845 g / cm^3
# Si number density = 22.920620 Si / 1000 Ang^3
#
#
#
# Elastic Constant Matrix: (Units=GPa)
#
#
# Indices 1 2 3 4 5 6 
#
# 1 85.2285 26.4741 35.0303 0.0000 -11.8349 0.0000
# 2 26.4741 70.1845 35.8831 0.0000 -7.2786 0.0000
# 3 35.0303 35.8831 135.5257 0.0000 -16.5556 0.0000
# 4 0.0000 0.0000 0.0000 29.0231 0.0000 -3.9121
# 5 -11.8349 -7.2786 -16.5556 0.0000 37.5629 0.0000
# 6 0.0000 0.0000 0.0000 -3.9121 0.0000 28.2504
#
#
#
# Elastic Compliance Matrix: (Units=1/GPa)
#
#
# Indices 1 2 3 4 5 6 
#
# 1 0.014282 -0.003918 -0.002322 0.000000 0.002717 0.000000
# 2 -0.003918 0.017618 -0.003578 0.000000 0.000602 0.000000
# 3 -0.002322 -0.003578 0.009250 0.000000 0.002652 0.000000
# 4 0.000000 0.000000 0.000000 0.035111 0.000000 0.004862
# 5 0.002717 0.000602 0.002652 0.000000 0.028764 0.000000
# 6 0.000000 0.000000 0.000000 0.004862 0.000000 0.036071
#
#
# Mechanical properties :
#
#
# Convention : Reuss Voigt Hill
#
# Bulk Modulus (GPa) = 46.48405 53.96818 50.22612
# Shear Modulus (GPa) = 29.77886 31.87071 30.82478
#
# Velocity S-wave (km/s) = 3.60838 3.73296 3.67120
# Velocity P-wave (km/s) = 6.13881 6.49437 6.31909
#
# Compressibility (1/GPa) = 0.02151276
#
# Stress axis : x y z
#
# Youngs Moduli (GPa) = 70.01800 56.75981 108.10419
#
# Poissons Ratio (x) = 0.22240 0.25104
# Poissons Ratio (y) = 0.27434 0.38684
# Poissons Ratio (z) = 0.16260 0.20311
#
# Static dielectric constant tensor:
#      x y z
#    x 4.154530 0.000000 -0.082930 
#    y 0.000000 4.070170 0.000000 
#    z -0.082930 0.000000 4.241270 
# 
# 
# High freq. dielectric constant tensor:
#      x y z
#    x 1.903410 0.000000 -0.006840 
#    y 0.000000 1.901900 0.000000 
#    z -0.006840 0.000000 1.919880 
# 
# From -- ./inp_files/118025.got.cif
#   From: 2010.06.25/outbox.cif.g09.slc.cpg/sg15_60_cif.got.tgz:118025.got - 2010.06.28 07:06:18.
