data_PCOD8152854
_publ_section_title
;
Structure prediction by ZEFSAII (Michael W. Deem and Ramdas Pophale) SiO2 
 PCOD8152854
Probable space group: C 2/C
;
_chemical_formula_sum "Si O2"
_cell_formula_units_Z 40
_cell_length_a 26.613938
_cell_length_b 5.429034
_cell_length_c 11.980401
_cell_angle_alpha 90.000000
_cell_angle_beta 97.882002
_cell_angle_gamma 90.000000
_cell_volume 1714.670178
_symmetry_space_group_name_H-M "C 2/C"
_symmetry_group_IT_number 15
_symmetry_cell_setting 'monoclinic'
loop_
_space_group_symop_operation_xyz
x,y,z
-x,y,1/2-z
-x,-y,-z
x,-y,1/2+z
1/2+x,1/2+y,z
1/2-x,1/2+y,1/2-z
1/2-x,1/2-y,-z
1/2+x,1/2-y,1/2+z
loop_
_atom_site_type_symbol
_atom_site_label
_atom_site_fract_x
_atom_site_fract_y
_atom_site_fract_z
Si Si1 0.363896 0.191796 0.557077
Si Si2 0.599484 0.346451 0.154531
Si Si3 0.212645 0.662421 0.585273
Si Si4 0.057844 0.637381 0.735149
Si Si5 0.807474 0.018515 0.224075
O O1 0.388754 0.373135 0.473576
O O2 0.409110 0.081982 0.644648
O O3 0.322608 0.323435 0.621538
O O4 0.333210 0.988885 0.478647
O O5 0.573826 0.603936 0.183526
O O6 0.650743 0.300121 0.247257
O O7 0.564590 0.103338 0.158850
O O8 0.250000 0.750000 0.500000
O O9 0.185270 0.869236 0.649707
O O10 0.248272 0.535600 0.689807
O O11 0.000000 0.662885 0.750000
#
# Coordination Sequence:
#
# PCOD8152854 Si02
#       5
#     8   8   8   8   8
#     4  11  23  41  66  95 135 178 222 274 334 395
#     4  11  24  44  68  98 133 173 220 274 335 398
#     4  12  22  38  64  97 138 183 226 271 330 393
#     4  11  26  46  70 100 132 170 223 281 336 400
#     4  11  23  39  62  97 135 175 224 273 325 396
#
# _framework density 23.328101
#
# number of rings (size 3 to 8) (size 9 to 14) (size 15 to 20)
#    0.000    0.800    0.000    8.400    0.000    6.400 
#    0.000    0.000    0.000    0.000    0.000    0.000 
#    0.000    0.000    0.000    0.000    0.000    0.000 
#
# Total GULP energy -247828.129345 kJ/mol
# GULP energy per Si atom -12391.406467 kJ/mol
# Density = 2.327501 g / cm^3
# Si number density = 23.328101 Si / 1000 Ang^3
#
#
#
# Elastic Constant Matrix: (Units=GPa)
#
#
# Indices 1 2 3 4 5 6 
#
# 1 131.2582 42.5675 35.6376 0.0000 -10.9900 0.0000
# 2 42.5675 117.0219 42.8709 0.0000 -15.1338 0.0000
# 3 35.6376 42.8709 117.1162 0.0000 -34.1080 0.0000
# 4 0.0000 0.0000 0.0000 28.4955 0.0000 0.7181
# 5 -10.9900 -15.1338 -34.1080 0.0000 28.8231 0.0000
# 6 0.0000 0.0000 0.0000 0.7181 0.0000 32.1024
#
#
#
# Elastic Compliance Matrix: (Units=1/GPa)
#
#
# Indices 1 2 3 4 5 6 
#
# 1 0.008944 -0.002608 -0.001789 0.000000 -0.000076 0.000000
# 2 -0.002608 0.010665 -0.002700 0.000000 0.001411 0.000000
# 3 -0.001789 -0.002700 0.014434 0.000000 0.014981 0.000000
# 4 0.000000 0.000000 0.000000 0.035113 0.000000 -0.000785
# 5 -0.000076 0.001411 0.014981 0.000000 0.053134 0.000000
# 6 0.000000 0.000000 0.000000 -0.000785 0.000000 0.031168
#
#
# Mechanical properties :
#
#
# Convention : Reuss Voigt Hill
#
# Bulk Modulus (GPa) = 50.37744 67.50538 58.94141
# Shear Modulus (GPa) = 28.69139 34.17221 31.43180
#
# Velocity S-wave (km/s) = 3.51081 3.83149 3.67465
# Velocity P-wave (km/s) = 6.17061 6.96950 6.58219
#
# Compressibility (1/GPa) = 0.01985016
#
# Stress axis : x y z
#
# Youngs Moduli (GPa) = 111.81127 93.76029 69.28013
#
# Poissons Ratio (x) = 0.24450 0.12395
# Poissons Ratio (y) = 0.29157 0.18704
# Poissons Ratio (z) = 0.20004 0.25313
#
# Static dielectric constant tensor:
#      x y z
#    x 4.757660 0.000000 -0.190820 
#    y 0.000000 4.087790 0.000000 
#    z -0.190820 0.000000 4.548690 
# 
# 
# High freq. dielectric constant tensor:
#      x y z
#    x 1.932210 0.000000 -0.009060 
#    y 0.000000 1.912090 0.000000 
#    z -0.009060 0.000000 1.941840 
# 
# From -- ./inp_files/120808.got.cif
#   From: 2010.06.25/outbox.cif.g09.slc.cpg/sg15_61_cif.got.tgz:120808.got - 2010.06.28 07:06:18.
