data_PCOD8152872
_publ_section_title
;
Structure prediction by ZEFSAII (Michael W. Deem and Ramdas Pophale) SiO2 
 PCOD8152872
Probable space group: C 2/C
;
_chemical_formula_sum "Si O2"
_cell_formula_units_Z 52
_cell_length_a 32.834844
_cell_length_b 13.274682
_cell_length_c 9.907337
_cell_angle_alpha 90.000000
_cell_angle_beta 146.332040
_cell_angle_gamma 90.000000
_cell_volume 2393.992996
_symmetry_space_group_name_H-M "C 2/C"
_symmetry_group_IT_number 15
_symmetry_cell_setting 'monoclinic'
loop_
_space_group_symop_operation_xyz
x,y,z
-x,y,1/2-z
-x,-y,-z
x,-y,1/2+z
1/2+x,1/2+y,z
1/2-x,1/2+y,1/2-z
1/2-x,1/2-y,-z
1/2+x,1/2-y,1/2+z
loop_
_atom_site_type_symbol
_atom_site_label
_atom_site_fract_x
_atom_site_fract_y
_atom_site_fract_z
Si Si1 0.496223 0.793691 0.971287
Si Si2 0.764855 0.466018 0.930082
Si Si3 0.189202 0.077915 0.498552
Si Si4 0.380225 0.110965 0.338095
Si Si5 0.838907 0.290504 0.982964
Si Si6 0.000000 0.543561 0.250000
Si Si7 0.475531 0.420604 0.039755
O O1 0.573599 0.785031 0.258601
O O2 0.431724 0.810446 0.901247
O O3 0.494516 0.887764 0.866391
O O4 0.483162 0.686998 0.861813
O O5 0.698373 0.494667 0.643318
O O6 0.744030 0.449544 0.028644
O O7 0.824530 0.555633 0.082615
O O8 0.802348 0.363286 0.989810
O O9 0.202594 0.185025 0.608120
O O10 0.111388 0.085378 0.211003
O O11 0.329150 0.171977 0.302721
O O12 0.428252 0.026448 0.547909
O O13 0.500000 0.465385 0.250000
O O14 0.500000 0.500000 0.000000
#
# Coordination Sequence:
#
# PCOD8152872 Si02
#       7
#     8   8   8   8   8   4   8
#     4  11  23  39  69 105 138 173 231 285 345 400
#     4  12  24  46  65 101 138 185 223 279 342 413
#     4  11  27  45  70  97 137 180 229 278 342 416
#     4  12  23  38  71 102 142 179 220 284 346 408
#     4  11  23  44  65  98 139 182 228 277 339 403
#     4  12  20  38  66 106 136 176 220 278 350 404
#     4  11  25  49  74  99 131 179 235 290 338 397
#
# _framework density 21.721032000000001
#
# number of rings (size 3 to 8) (size 9 to 14) (size 15 to 20)
#    0.000    0.615    5.385    2.769    0.000    4.308 
#    5.538    0.000    0.000    0.000    0.000    0.000 
#    0.000    0.000    0.000    0.000    0.000    0.000 
#
# Total GULP energy -322438.191871 kJ/mol
# GULP energy per Si atom -12401.468918 kJ/mol
# Density = 2.167159 g / cm^3
# Si number density = 21.721032 Si / 1000 Ang^3
#
#
#
# Elastic Constant Matrix: (Units=GPa)
#
#
# Indices 1 2 3 4 5 6 
#
# 1 108.1585 58.7676 7.4302 0.0000 -11.6142 0.0000
# 2 58.7676 99.1987 25.5107 0.0000 -0.4711 0.0000
# 3 7.4302 25.5107 60.1788 0.0000 -3.4157 0.0000
# 4 0.0000 0.0000 0.0000 22.4914 0.0000 -11.5717
# 5 -11.6142 -0.4711 -3.4157 0.0000 31.1483 0.0000
# 6 0.0000 0.0000 0.0000 -11.5717 0.0000 34.7853
#
#
#
# Elastic Compliance Matrix: (Units=1/GPa)
#
#
# Indices 1 2 3 4 5 6 
#
# 1 0.014763 -0.009352 0.002461 0.000000 0.005633 0.000000
# 2 -0.009352 0.017243 -0.006378 0.000000 -0.003926 0.000000
# 3 0.002461 -0.006378 0.019183 0.000000 0.002925 0.000000
# 4 0.000000 0.000000 0.000000 0.053642 0.000000 0.017845
# 5 0.005633 -0.003926 0.002925 0.000000 0.034466 0.000000
# 6 0.000000 0.000000 0.000000 0.017845 0.000000 0.034684
#
#
# Mechanical properties :
#
#
# Convention : Reuss Voigt Hill
#
# Bulk Modulus (GPa) = 40.56474 50.10590 45.33532
# Shear Modulus (GPa) = 23.95383 29.40682 26.68033
#
# Velocity S-wave (km/s) = 3.32444 3.68345 3.50854
# Velocity P-wave (km/s) = 5.78375 6.41938 6.10983
#
# Compressibility (1/GPa) = 0.02465195
#
# Stress axis : x y z
#
# Youngs Moduli (GPa) = 67.73710 57.99557 52.13006
#
# Poissons Ratio (x) = 0.54239 -0.12832
# Poissons Ratio (y) = 0.63349 0.33246
# Poissons Ratio (z) = -0.16673 0.36987
#
# Static dielectric constant tensor:
#      x y z
#    x 3.800090 0.000000 -0.108570 
#    y 0.000000 4.073960 0.000000 
#    z -0.108570 0.000000 3.398190 
# 
# 
# High freq. dielectric constant tensor:
#      x y z
#    x 1.858420 0.000000 -0.008290 
#    y 0.000000 1.859480 0.000000 
#    z -0.008290 0.000000 1.852810 
# 
# From -- ./inp_files/70207.got.cif
#   From: 2010.06.25/outbox.cif.g09.slc.cpg/sg15_36_cif.got.tgz:70207.got - 2010.06.28 07:06:18.
