data_PCOD8152212
_publ_section_title
;
Structure prediction by ZEFSAII (Michael W. Deem and Ramdas Pophale) SiO2 
 PCOD8152212
Probable space group: C 2/C
;
_chemical_formula_sum "Si O2"
_cell_formula_units_Z 40
_cell_length_a 10.196384
_cell_length_b 9.825179
_cell_length_c 20.406022
_cell_angle_alpha 90.000000
_cell_angle_beta 114.073213
_cell_angle_gamma 90.000000
_cell_volume 1866.498584
_symmetry_space_group_name_H-M "C 2/C"
_symmetry_group_IT_number 15
_symmetry_cell_setting 'monoclinic'
loop_
_space_group_symop_operation_xyz
x,y,z
-x,y,1/2-z
-x,-y,-z
x,-y,1/2+z
1/2+x,1/2+y,z
1/2-x,1/2+y,1/2-z
1/2-x,1/2-y,-z
1/2+x,1/2-y,1/2+z
loop_
_atom_site_type_symbol
_atom_site_label
_atom_site_fract_x
_atom_site_fract_y
_atom_site_fract_z
Si Si1 0.277649 0.225004 0.176605
Si Si2 0.567713 0.228833 0.160329
Si Si3 0.386272 0.487638 0.417049
Si Si4 0.322685 0.105946 0.525179
Si Si5 0.861601 0.528950 0.906781
O O1 0.415959 0.191883 0.161179
O O2 0.308430 0.213310 0.259888
O O3 0.242132 0.384185 0.160003
O O4 0.143995 0.128729 0.127894
O O5 0.563890 0.376868 0.125973
O O6 0.601743 0.119433 0.112259
O O7 0.500000 0.500000 0.500000
O O8 0.232291 0.448075 0.416326
O O9 0.250000 0.250000 0.500000
O O10 0.494410 0.119261 0.556959
O O11 0.280967 0.997117 0.459645
#
# Coordination Sequence:
#
# PCOD8152212 Si02
#       5
#     8   8   8   8   8
#     4  11  25  43  65  96 129 175 220 266 325 395
#     4  11  24  45  65  92 135 175 215 266 332 394
#     4  12  24  41  70 100 133 169 223 276 325 386
#     4  11  22  39  64  97 128 162 214 270 326 379
#     4  11  23  41  67  91 129 171 211 266 327 382
#
# _framework density 21.430501
#
# number of rings (size 3 to 8) (size 9 to 14) (size 15 to 20)
#    0.000    0.800    4.000    3.600    2.800    1.600 
#    0.000    0.000    0.000    0.000    0.000    0.000 
#    0.000    0.000    0.000    0.000    0.000    0.000 
#
# Total GULP energy -247960.850184 kJ/mol
# GULP energy per Si atom -12398.042509 kJ/mol
# Density = 2.138172 g / cm^3
# Si number density = 21.430501 Si / 1000 Ang^3
#
#
#
# Elastic Constant Matrix: (Units=GPa)
#
#
# Indices 1 2 3 4 5 6 
#
# 1 46.5531 21.1975 25.1029 0.0000 -1.6243 0.0000
# 2 21.1975 104.4132 40.6247 0.0000 13.0075 0.0000
# 3 25.1029 40.6247 124.6102 0.0000 12.4417 0.0000
# 4 0.0000 0.0000 0.0000 38.8097 0.0000 5.0402
# 5 -1.6243 13.0075 12.4417 0.0000 35.8457 0.0000
# 6 0.0000 0.0000 0.0000 5.0402 0.0000 34.5479
#
#
#
# Elastic Compliance Matrix: (Units=1/GPa)
#
#
# Indices 1 2 3 4 5 6 
#
# 1 0.025792 -0.004088 -0.004276 0.000000 0.004136 0.000000
# 2 -0.004088 0.011902 -0.002701 0.000000 -0.003567 0.000000
# 3 -0.004276 -0.002701 0.010036 0.000000 -0.002697 0.000000
# 4 0.000000 0.000000 0.000000 0.026264 0.000000 -0.003832
# 5 0.004136 -0.003567 -0.002697 0.000000 0.030315 0.000000
# 6 0.000000 0.000000 0.000000 -0.003832 0.000000 0.029504
#
#
# Mechanical properties :
#
#
# Convention : Reuss Voigt Hill
#
# Bulk Modulus (GPa) = 39.06012 49.93631 44.49821
# Shear Modulus (GPa) = 30.39914 34.41743 32.40829
#
# Velocity S-wave (km/s) = 3.77038 4.01184 3.89299
# Velocity P-wave (km/s) = 6.10085 6.69417 6.40439
#
# Compressibility (1/GPa) = 0.02560156
#
# Stress axis : x y z
#
# Youngs Moduli (GPa) = 38.77112 84.01696 99.63880
#
# Poissons Ratio (x) = 0.34344 0.42608
# Poissons Ratio (y) = 0.15849 0.26910
# Poissons Ratio (z) = 0.16579 0.22691
#
# Static dielectric constant tensor:
#      x y z
#    x 4.029710 0.000000 -0.044600 
#    y 0.000000 3.865530 0.000000 
#    z -0.044600 0.000000 3.947410 
# 
# 
# High freq. dielectric constant tensor:
#      x y z
#    x 1.839540 0.000000 -0.004340 
#    y 0.000000 1.849840 0.000000 
#    z -0.004340 0.000000 1.843640 
# 
# From -- ./inp_files/235929.got.cif
#   From: 2010.06.25/outbox.cif.g09.slc.cpg/sg15_118_cif.got.tgz:235929.got - 2010.06.28 07:06:18.
