data_PCOD8152720
_publ_section_title
;
Structure prediction by ZEFSAII (Michael W. Deem and Ramdas Pophale) SiO2 
 PCOD8152720
Probable space group: C 2/C
;
_chemical_formula_sum "Si O2"
_cell_formula_units_Z 44
_cell_length_a 17.683771
_cell_length_b 15.408642
_cell_length_c 9.504220
_cell_angle_alpha 90.000000
_cell_angle_beta 46.497116
_cell_angle_gamma 90.000000
_cell_volume 1878.439401
_symmetry_space_group_name_H-M "C 2/C"
_symmetry_group_IT_number 15
_symmetry_cell_setting 'monoclinic'
loop_
_space_group_symop_operation_xyz
x,y,z
-x,y,1/2-z
-x,-y,-z
x,-y,1/2+z
1/2+x,1/2+y,z
1/2-x,1/2+y,1/2-z
1/2-x,1/2-y,-z
1/2+x,1/2-y,1/2+z
loop_
_atom_site_type_symbol
_atom_site_label
_atom_site_fract_x
_atom_site_fract_y
_atom_site_fract_z
Si Si1 0.969416 0.267177 0.055174
Si Si2 0.000000 0.164898 0.750000
Si Si3 0.170815 0.136311 0.102395
Si Si4 0.821431 0.347332 0.656300
Si Si5 0.199733 0.939399 0.023340
Si Si6 0.236974 0.324910 0.303221
O O1 0.927082 0.190232 0.210797
O O2 0.879299 0.329518 0.110509
O O3 0.028339 0.222434 0.848974
O O4 0.054590 0.331200 0.017536
O O5 0.899821 0.108021 0.914722
O O6 0.276143 0.156737 0.055712
O O7 0.157447 0.033086 0.122026
O O8 0.180284 0.162951 0.928598
O O9 0.763625 0.272131 0.824094
O O10 0.788670 0.435164 0.784939
O O11 0.249602 0.897982 0.098293
#
# Coordination Sequence:
#
# PCOD8152720 Si02
#       6
#     8   4   8   8   8   8
#     4  11  23  42  70 100 126 184 236 275 333 416
#     4  12  22  40  72  98 128 170 236 276 342 398
#     4  11  26  43  66 103 143 173 223 290 354 390
#     4  11  22  45  69  94 139 183 231 274 336 420
#     4  12  24  44  67 103 139 177 224 291 344 402
#     4  11  23  41  67  98 136 180 230 278 340 416
#
# _framework density 23.423698999999999
#
# number of rings (size 3 to 8) (size 9 to 14) (size 15 to 20)
#    0.000    0.727    5.455    4.909    0.000    5.091 
#    0.000    5.455    0.000    0.000    0.000    0.000 
#    0.000    0.000    0.000    0.000    0.000    0.000 
#
# Total GULP energy -272751.914037 kJ/mol
# GULP energy per Si atom -12397.814274 kJ/mol
# Density = 2.337039 g / cm^3
# Si number density = 23.423699 Si / 1000 Ang^3
#
#
#
# Elastic Constant Matrix: (Units=GPa)
#
#
# Indices 1 2 3 4 5 6 
#
# 1 87.8365 6.4563 31.2949 0.0000 -16.2996 0.0000
# 2 6.4563 65.1934 26.0809 0.0000 -2.1463 0.0000
# 3 31.2949 26.0809 79.4470 0.0000 -8.6743 0.0000
# 4 0.0000 0.0000 0.0000 27.3538 0.0000 3.9029
# 5 -16.2996 -2.1463 -8.6743 0.0000 38.7363 0.0000
# 6 0.0000 0.0000 0.0000 3.9029 0.0000 22.7240
#
#
#
# Elastic Compliance Matrix: (Units=1/GPa)
#
#
# Indices 1 2 3 4 5 6 
#
# 1 0.014106 0.000891 -0.005326 0.000000 0.004792 0.000000
# 2 0.000891 0.017718 -0.006170 0.000000 -0.000025 0.000000
# 3 -0.005326 -0.006170 0.016840 0.000000 0.001188 0.000000
# 4 0.000000 0.000000 0.000000 0.037476 0.000000 -0.006437
# 5 0.004792 -0.000025 0.001188 0.000000 0.028097 0.000000
# 6 0.000000 0.000000 0.000000 -0.006437 0.000000 0.045112
#
#
# Mechanical properties :
#
#
# Convention : Reuss Voigt Hill
#
# Bulk Modulus (GPa) = 36.42328 40.01565 38.21947
# Shear Modulus (GPa) = 26.35582 29.00581 27.68081
#
# Velocity S-wave (km/s) = 3.35801 3.52278 3.44138
# Velocity P-wave (km/s) = 5.53339 5.80234 5.66946
#
# Compressibility (1/GPa) = 0.02745496
#
# Stress axis : x y z
#
# Youngs Moduli (GPa) = 70.89119 56.43852 59.38140
#
# Poissons Ratio (x) = -0.05031 0.31626
# Poissons Ratio (y) = -0.06320 0.36641
# Poissons Ratio (z) = 0.37756 0.34825
#
# Static dielectric constant tensor:
#      x y z
#    x 4.181570 0.000000 0.069830 
#    y 0.000000 4.285250 0.000000 
#    z 0.069830 0.000000 4.083330 
# 
# 
# High freq. dielectric constant tensor:
#      x y z
#    x 1.938120 0.000000 0.008490 
#    y 0.000000 1.907850 0.000000 
#    z 0.008490 0.000000 1.925350 
# 
# From -- ./inp_files/48884.got.cif
#   From: 2010.06.25/outbox.cif.g09.slc.cpg/sg15_25_cif.got.tgz:48884.got - 2010.06.28 07:06:18.
