data_PCOD8152024
_publ_section_title
;
Structure prediction by ZEFSAII (Michael W. Deem and Ramdas Pophale) SiO2 
 PCOD8152024
Probable space group: C 2/C
;
_chemical_formula_sum "Si O2"
_cell_formula_units_Z 56
_cell_length_a 10.005945
_cell_length_b 16.084922
_cell_length_c 20.176756
_cell_angle_alpha 90.000000
_cell_angle_beta 53.220961
_cell_angle_gamma 90.000000
_cell_volume 2600.962373
_symmetry_space_group_name_H-M "C 2/C"
_symmetry_group_IT_number 15
_symmetry_cell_setting 'monoclinic'
loop_
_space_group_symop_operation_xyz
x,y,z
-x,y,1/2-z
-x,-y,-z
x,-y,1/2+z
1/2+x,1/2+y,z
1/2-x,1/2+y,1/2-z
1/2-x,1/2-y,-z
1/2+x,1/2-y,1/2+z
loop_
_atom_site_type_symbol
_atom_site_label
_atom_site_fract_x
_atom_site_fract_y
_atom_site_fract_z
Si Si1 0.699719 0.822266 0.332515
Si Si2 0.307038 0.093106 0.797497
Si Si3 0.302169 0.083862 0.232398
Si Si4 0.000000 0.843395 0.750000
Si Si5 0.397733 0.294370 0.915834
Si Si6 0.001105 0.514350 0.924010
Si Si7 0.851446 0.060706 0.524190
Si Si8 0.500000 0.776214 0.750000
O O1 0.758216 0.844573 0.239968
O O2 0.571317 0.748225 0.378448
O O3 0.611565 0.903512 0.385578
O O4 0.863507 0.787844 0.322779
O O5 0.500000 0.115718 0.750000
O O6 0.200314 0.113467 0.895025
O O7 0.294536 0.994234 0.784883
O O8 0.393128 0.165760 0.233101
O O9 0.114603 0.102616 0.264923
O O10 0.407108 0.062102 0.136616
O O11 0.118638 0.794321 0.660858
O O12 0.250000 0.250000 0.000000
O O13 0.412671 0.385408 0.943800
O O14 0.817590 0.514893 0.947410
O O15 0.000000 0.500000 0.000000
O O16 0.000000 0.000000 0.500000
#
# Coordination Sequence:
#
# PCOD8152024 Si02
#       8
#     8   8   8   4   8   8   8   4
#     4  11  26  43  71 100 139 184 236 296 357 423
#     4  11  21  45  72  97 140 194 234 283 355 429
#     4  11  23  42  73  98 141 185 238 284 357 430
#     4  12  26  43  71 106 136 188 232 284 362 423
#     4  12  25  43  69 104 143 178 238 291 354 422
#     4  11  24  46  65  97 145 188 231 290 356 428
#     4  12  25  41  72 106 137 181 238 292 347 433
#     4  12  24  45  71 110 136 178 238 310 356 417
#
# _framework density 21.530491999999999
#
# number of rings (size 3 to 8) (size 9 to 14) (size 15 to 20)
#    0.000    0.571    6.429    1.714    5.000    3.429 
#    0.000    0.714    0.000    0.000    0.000    0.000 
#    0.000    0.000    0.000    0.000    0.000    0.000 
#
# Total GULP energy -346875.999170 kJ/mol
# GULP energy per Si atom -12388.428542 kJ/mol
# Density = 2.148149 g / cm^3
# Si number density = 21.530492 Si / 1000 Ang^3
#
#
#
# Elastic Constant Matrix: (Units=GPa)
#
#
# Indices 1 2 3 4 5 6 
#
# 1 104.4449 37.1770 23.1490 -0.0003 -9.8847 -0.0006
# 2 37.1770 60.4168 19.2790 -0.0001 -12.3961 -0.0003
# 3 23.1490 19.2790 140.8504 -0.0005 19.3469 -0.0011
# 4 -0.0003 -0.0001 -0.0005 32.4688 0.0002 -11.7634
# 5 -9.8847 -12.3961 19.3469 0.0002 33.9738 0.0005
# 6 -0.0006 -0.0003 -0.0011 -11.7634 0.0005 1.9213
#
#
#
# Elastic Compliance Matrix: (Units=1/GPa)
#
#
# Indices 1 2 3 4 5 6 
#
# 1 0.012504 -0.006860 -0.001380 0.000000 0.001921 -0.000001
# 2 -0.006860 0.023545 -0.003256 0.000001 0.008449 0.000002
# 3 -0.001380 -0.003256 0.008669 -0.000002 -0.006526 -0.000005
# 4 0.000000 0.000001 -0.000002 -0.025283 0.000004 -0.154793
# 5 0.001921 0.008449 -0.006526 0.000004 0.036793 0.000011
# 6 -0.000001 0.000002 -0.000005 -0.154793 0.000011 -0.427252
#
#
# Mechanical properties :
#
#
# Convention : Reuss Voigt Hill
#
# Bulk Modulus (GPa) = 46.02666 51.65801 48.84233
# Shear Modulus (GPa) = -14.67175 28.74658 7.03741
#
# Velocity S-wave (km/s) = -2.61327 3.65794 1.80988
# Velocity P-wave (km/s) = 3.50974 6.47192 5.20596
#
# Compressibility (1/GPa) = 0.02172654
#
# Stress axis : x y z
#
# Youngs Moduli (GPa) = 79.97604 42.47135 115.35910
#
# Poissons Ratio (x) = 0.29134 0.15919
# Poissons Ratio (y) = 0.54860 0.37561
# Poissons Ratio (z) = 0.11036 0.13829
#
# Static dielectric constant tensor:
#      x y z
#    x 3.908390 0.000000 -0.121570 
#    y 0.000000 4.538860 0.000000 
#    z -0.121570 0.000000 4.376470 
# 
# 
# High freq. dielectric constant tensor:
#      x y z
#    x 1.841090 0.000000 -0.008790 
#    y 0.000000 1.849650 0.000000 
#    z -0.008790 0.000000 1.858700 
# 
# From -- ./inp_files/232615.got.cif
#   From: 2010.06.25/outbox.cif.g09.slc.cpg/sg15_117_cif.got.tgz:232615.got - 2010.06.28 07:06:18.
