data_PCOD8152600
_publ_section_title
;
Structure prediction by ZEFSAII (Michael W. Deem and Ramdas Pophale) SiO2 
 PCOD8152600
Probable space group: C 2/C
;
_chemical_formula_sum "Si O2"
_cell_formula_units_Z 56
_cell_length_a 8.758614
_cell_length_b 11.108455
_cell_length_c 34.235127
_cell_angle_alpha 90.000000
_cell_angle_beta 128.253807
_cell_angle_gamma 90.000000
_cell_volume 2615.671502
_symmetry_space_group_name_H-M "C 2/C"
_symmetry_group_IT_number 15
_symmetry_cell_setting 'monoclinic'
loop_
_space_group_symop_operation_xyz
x,y,z
-x,y,1/2-z
-x,-y,-z
x,-y,1/2+z
1/2+x,1/2+y,z
1/2-x,1/2+y,1/2-z
1/2-x,1/2-y,-z
1/2+x,1/2-y,1/2+z
loop_
_atom_site_type_symbol
_atom_site_label
_atom_site_fract_x
_atom_site_fract_y
_atom_site_fract_z
Si Si1 0.981147 0.502983 0.883492
Si Si2 0.117528 0.135728 0.418972
Si Si3 0.034041 0.389743 0.476751
Si Si4 0.123303 0.695388 0.850598
Si Si5 0.545597 0.573393 0.301438
Si Si6 0.243923 0.791795 0.593314
Si Si7 0.973231 0.911614 0.356772
O O1 0.015861 0.577628 0.928396
O O2 0.989886 0.591242 0.847574
O O3 0.152957 0.405189 0.910174
O O4 0.772178 0.441550 0.848262
O O5 0.247876 0.154375 0.478214
O O6 0.205455 0.221215 0.398938
O O7 0.894392 0.168097 0.393072
O O8 0.117486 0.996548 0.405117
O O9 0.000000 0.500000 0.500000
O O10 0.881161 0.280412 0.459458
O O11 0.998851 0.785372 0.802789
O O12 0.289870 0.629282 0.852626
O O13 0.500000 0.540322 0.250000
O O14 0.414663 0.486917 0.308467
O O15 0.406954 0.705059 0.637800
#
# Coordination Sequence:
#
# PCOD8152600 Si02
#       7
#     8   8   8   8   8   8   8
#     4  12  25  43  67  95 134 176 218 273 334 389
#     4  11  23  41  64  96 134 178 223 265 314 379
#     4  12  24  41  62  97 139 180 226 271 313 381
#     4  11  23  43  71  95 129 173 217 273 329 391
#     4  11  25  46  71  96 127 165 215 278 339 400
#     4  12  23  40  66  91 132 179 219 262 321 382
#     4  11  22  43  70  95 130 172 218 267 328 389
#
# _framework density 21.409414999999999
#
# number of rings (size 3 to 8) (size 9 to 14) (size 15 to 20)
#    0.000    0.571    7.143    1.286    0.000    3.429 
#    0.000    0.000    0.000    0.000    0.000    0.000 
#    0.000    0.000    0.000    0.000    0.000    0.000 
#
# Total GULP energy -347093.238565 kJ/mol
# GULP energy per Si atom -12396.187092 kJ/mol
# Density = 2.136069 g / cm^3
# Si number density = 21.409415 Si / 1000 Ang^3
#
#
#
# Elastic Constant Matrix: (Units=GPa)
#
#
# Indices 1 2 3 4 5 6 
#
# 1 113.8687 40.9959 27.2481 0.0000 -22.5350 0.0000
# 2 40.9959 100.5804 10.8925 0.0000 -11.6551 0.0000
# 3 27.2481 10.8925 84.8068 0.0000 -21.4096 0.0000
# 4 0.0000 0.0000 0.0000 25.0379 0.0000 -9.1955
# 5 -22.5350 -11.6551 -21.4096 0.0000 21.7611 0.0000
# 6 0.0000 0.0000 0.0000 -9.1955 0.0000 41.6180
#
#
#
# Elastic Compliance Matrix: (Units=1/GPa)
#
#
# Indices 1 2 3 4 5 6 
#
# 1 0.012311 -0.003781 -0.001015 0.000000 0.009725 0.000000
# 2 -0.003781 0.011762 0.000407 0.000000 0.002785 0.000000
# 3 -0.001015 0.000407 0.015772 0.000000 0.014685 0.000000
# 4 0.000000 0.000000 0.000000 0.043467 0.000000 0.009604
# 5 0.009725 0.002785 0.014685 0.000000 0.071964 0.000000
# 6 0.000000 0.000000 0.000000 0.009604 0.000000 0.026150
#
#
# Mechanical properties :
#
#
# Convention : Reuss Voigt Hill
#
# Bulk Modulus (GPa) = 32.18711 50.83653 41.51182
# Shear Modulus (GPa) = 24.93032 32.35802 28.64417
#
# Velocity S-wave (km/s) = 3.41611 3.89188 3.66173
# Velocity P-wave (km/s) = 5.53412 6.63266 6.10814
#
# Compressibility (1/GPa) = 0.03106834
#
# Stress axis : x y z
#
# Youngs Moduli (GPa) = 81.22980 85.01964 63.40167
#
# Poissons Ratio (x) = 0.32145 0.06433
# Poissons Ratio (y) = 0.30713 -0.02581
# Poissons Ratio (z) = 0.08242 -0.03461
#
# Static dielectric constant tensor:
#      x y z
#    x 3.921100 0.000000 -0.111440 
#    y 0.000000 4.306370 0.000000 
#    z -0.111440 0.000000 3.661780 
# 
# 
# High freq. dielectric constant tensor:
#      x y z
#    x 1.844890 0.000000 -0.015930 
#    y 0.000000 1.870520 0.000000 
#    z -0.015930 0.000000 1.802420 
# 
# From -- ./inp_files/307233.got.cif
#   From: 2010.06.25/outbox.cif.g09.slc.cpg/sg15_154_cif.got.tgz:307233.got - 2010.06.28 07:06:18.
