data_PCOD8152904
_publ_section_title
;
Structure prediction by ZEFSAII (Michael W. Deem and Ramdas Pophale) SiO2 
 PCOD8152904
Probable space group: C 2/C
;
_chemical_formula_sum "Si O2"
_cell_formula_units_Z 52
_cell_length_a 16.061546
_cell_length_b 11.425111
_cell_length_c 14.023204
_cell_angle_alpha 90.000000
_cell_angle_beta 62.654443
_cell_angle_gamma 90.000000
_cell_volume 2285.763809
_symmetry_space_group_name_H-M "C 2/C"
_symmetry_group_IT_number 15
_symmetry_cell_setting 'monoclinic'
loop_
_space_group_symop_operation_xyz
x,y,z
-x,y,1/2-z
-x,-y,-z
x,-y,1/2+z
1/2+x,1/2+y,z
1/2-x,1/2+y,1/2-z
1/2-x,1/2-y,-z
1/2+x,1/2-y,1/2+z
loop_
_atom_site_type_symbol
_atom_site_label
_atom_site_fract_x
_atom_site_fract_y
_atom_site_fract_z
Si Si1 0.105525 0.897345 0.660169
Si Si2 0.633482 0.161214 0.112559
Si Si3 0.669405 0.695262 0.422048
Si Si4 0.667865 0.823697 0.228395
Si Si5 0.356449 0.441388 0.076400
Si Si6 0.906660 0.124401 0.745836
Si Si7 0.000000 0.532603 0.750000
O O1 0.168476 0.787139 0.658027
O O2 0.107603 0.901896 0.544780
O O3 0.000000 0.871256 0.750000
O O4 0.155331 0.013837 0.681861
O O5 0.744220 0.137386 0.062545
O O6 0.617750 0.244804 0.211657
O O7 0.568320 0.047102 0.149183
O O8 0.608096 0.228825 0.028297
O O9 0.694619 0.780227 0.320842
O O10 0.616758 0.577822 0.416999
O O11 0.746276 0.914425 0.151278
O O12 0.566403 0.888026 0.282213
O O13 0.414638 0.372869 0.127303
O O14 0.000000 0.085327 0.750000
#
# Coordination Sequence:
#
# PCOD8152904 Si02
#       7
#     8   8   8   8   8   8   4
#     4  11  25  44  68 105 143 183 240 300 359 437
#     4  11  23  45  69 102 139 187 243 294 354 434
#     4  11  24  43  73  99 140 190 243 295 353 434
#     4  12  25  46  70 107 148 189 238 298 376 438
#     4  12  24  44  74 103 143 194 237 303 365 426
#     4  11  23  40  69 102 135 180 242 295 349 424
#     4  12  26  46  68 102 156 188 236 310 364 432
#
# _framework density 22.749507000000001
#
# number of rings (size 3 to 8) (size 9 to 14) (size 15 to 20)
#    0.000    0.615    7.692    0.462    0.000    4.308 
#    0.000    1.538    0.000    0.000    0.000    0.000 
#    0.000    0.000    0.000    0.000    0.000    0.000 
#
# Total GULP energy -322229.961608 kJ/mol
# GULP energy per Si atom -12393.460062 kJ/mol
# Density = 2.269773 g / cm^3
# Si number density = 22.749507 Si / 1000 Ang^3
#
#
#
# Elastic Constant Matrix: (Units=GPa)
#
#
# Indices 1 2 3 4 5 6 
#
# 1 83.4141 11.5929 27.0623 0.0000 6.5932 0.0000
# 2 11.5929 103.5758 25.9728 0.0000 7.0356 0.0000
# 3 27.0623 25.9728 141.0391 0.0000 26.9148 0.0000
# 4 0.0000 0.0000 0.0000 31.3137 0.0000 0.7855
# 5 6.5932 7.0356 26.9148 0.0000 32.4794 0.0000
# 6 0.0000 0.0000 0.0000 0.7855 0.0000 27.9505
#
#
#
# Elastic Compliance Matrix: (Units=1/GPa)
#
#
# Indices 1 2 3 4 5 6 
#
# 1 0.012867 -0.000848 -0.002197 0.000000 -0.000608 0.000000
# 2 -0.000848 0.010194 -0.001575 0.000000 -0.000731 0.000000
# 3 -0.002197 -0.001575 0.009089 0.000000 -0.006745 0.000000
# 4 0.000000 0.000000 0.000000 0.031957 0.000000 -0.000898
# 5 -0.000608 -0.000731 -0.006745 0.000000 0.036659 0.000000
# 6 0.000000 0.000000 0.000000 -0.000898 0.000000 0.035803
#
#
# Mechanical properties :
#
#
# Convention : Reuss Voigt Hill
#
# Bulk Modulus (GPa) = 43.64824 50.80945 47.22884
# Shear Modulus (GPa) = 32.58467 35.90880 34.24674
#
# Velocity S-wave (km/s) = 3.78871 3.97727 3.88414
# Velocity P-wave (km/s) = 6.19413 6.59351 6.39694
#
# Compressibility (1/GPa) = 0.02291043
#
# Stress axis : x y z
#
# Youngs Moduli (GPa) = 77.71839 98.09398 110.02452
#
# Poissons Ratio (x) = 0.08318 0.24169
# Poissons Ratio (y) = 0.06591 0.17330
# Poissons Ratio (z) = 0.17073 0.15451
#
# Static dielectric constant tensor:
#      x y z
#    x 4.269710 0.000000 -0.007380 
#    y 0.000000 4.355500 0.000000 
#    z -0.007380 0.000000 3.912260 
# 
# 
# High freq. dielectric constant tensor:
#      x y z
#    x 1.890670 0.000000 0.009720 
#    y 0.000000 1.912300 0.000000 
#    z 0.009720 0.000000 1.885390 
# 
# From -- ./inp_files/152535.got.cif
#   From: 2010.06.25/outbox.cif.g09.slc.cpg/sg15_77_cif.got.tgz:152535.got - 2010.06.28 07:06:18.
