data_PCOD8152908
_publ_section_title
;
Structure prediction by ZEFSAII (Michael W. Deem and Ramdas Pophale) SiO2 
 PCOD8152908
Probable space group: C 2/C
;
_chemical_formula_sum "Si O2"
_cell_formula_units_Z 32
_cell_length_a 30.975402
_cell_length_b 7.428950
_cell_length_c 6.752423
_cell_angle_alpha 90.000000
_cell_angle_beta 127.044292
_cell_angle_gamma 90.000000
_cell_volume 1240.222058
_symmetry_space_group_name_H-M "C 2/C"
_symmetry_group_IT_number 15
_symmetry_cell_setting 'monoclinic'
loop_
_space_group_symop_operation_xyz
x,y,z
-x,y,1/2-z
-x,-y,-z
x,-y,1/2+z
1/2+x,1/2+y,z
1/2-x,1/2+y,1/2-z
1/2-x,1/2-y,-z
1/2+x,1/2-y,1/2+z
loop_
_atom_site_type_symbol
_atom_site_label
_atom_site_fract_x
_atom_site_fract_y
_atom_site_fract_z
Si Si1 0.386650 0.849590 0.910733
Si Si2 0.701706 0.259969 0.591194
Si Si3 0.960488 0.357901 0.792380
Si Si4 0.316914 0.334441 0.517914
O O1 0.332470 0.887901 0.627982
O O2 0.430494 0.746192 0.885145
O O3 0.371910 0.725699 0.058495
O O4 0.412085 0.039348 0.043198
O O5 0.684147 0.451904 0.451750
O O6 0.765591 0.224281 0.740019
O O7 0.685864 0.240707 0.777026
O O8 0.000000 0.245063 0.750000
O O9 0.000000 0.500000 0.000000
#
# Coordination Sequence:
#
# PCOD8152908 Si02
#       4
#     8   8   8   8
#     4  11  23  40  69  93 136 171 226 278 346 382
#     4  11  25  40  63 100 144 182 225 264 329 409
#     4   9  22  42  68  96 122 168 232 288 326 392
#     4  11  25  40  63 100 144 183 224 265 327 411
#
# _framework density 25.801831
#
# number of rings (size 3 to 8) (size 9 to 14) (size 15 to 20)
#    0.000    1.500    2.500    0.750   10.500    0.000 
#    0.000    0.000    0.000   19.500    0.000    0.000 
#    0.000    0.000    0.000    0.000    0.000    0.000 
#
# Total GULP energy -198250.623873 kJ/mol
# GULP energy per Si atom -12390.663992 kJ/mol
# Density = 2.574310 g / cm^3
# Si number density = 25.801831 Si / 1000 Ang^3
#
#
#
# Elastic Constant Matrix: (Units=GPa)
#
#
# Indices 1 2 3 4 5 6 
#
# 1 225.7440 31.0257 -4.9702 0.0000 17.3663 0.0000
# 2 31.0257 44.9604 17.8807 0.0000 7.7140 0.0000
# 3 -4.9702 17.8807 132.3827 0.0000 6.9416 0.0000
# 4 0.0000 0.0000 0.0000 18.6110 0.0000 0.2289
# 5 17.3663 7.7140 6.9416 0.0000 24.2172 0.0000
# 6 0.0000 0.0000 0.0000 0.2289 0.0000 35.9111
#
#
#
# Elastic Compliance Matrix: (Units=1/GPa)
#
#
# Indices 1 2 3 4 5 6 
#
# 1 0.005128 -0.003370 0.000796 0.000000 -0.002832 0.000000
# 2 -0.003370 0.026832 -0.003482 0.000000 -0.005133 0.000000
# 3 0.000796 -0.003482 0.008148 0.000000 -0.001798 0.000000
# 4 0.000000 0.000000 0.000000 0.053736 0.000000 -0.000342
# 5 -0.002832 -0.005133 -0.001798 0.000000 0.045474 0.000000
# 6 0.000000 0.000000 0.000000 -0.000342 0.000000 0.027849
#
#
# Mechanical properties :
#
#
# Convention : Reuss Voigt Hill
#
# Bulk Modulus (GPa) = 35.71560 54.55104 45.13332
# Shear Modulus (GPa) = 26.50963 39.69124 33.10044
#
# Velocity S-wave (km/s) = 3.20884 3.92639 3.58561
# Velocity P-wave (km/s) = 5.25368 6.46093 5.88832
#
# Compressibility (1/GPa) = 0.02799897
#
# Stress axis : x y z
#
# Youngs Moduli (GPa) = 194.99534 37.26858 122.72563
#
# Poissons Ratio (x) = 0.12558 -0.09771
# Poissons Ratio (y) = 0.65705 0.42728
# Poissons Ratio (z) = -0.15525 0.12975
#
# Static dielectric constant tensor:
#      x y z
#    x 5.947850 0.000000 -0.105220 
#    y 0.000000 3.811120 0.000000 
#    z -0.105220 0.000000 4.947810 
# 
# 
# High freq. dielectric constant tensor:
#      x y z
#    x 2.082410 0.000000 -0.016210 
#    y 0.000000 1.947400 0.000000 
#    z -0.016210 0.000000 2.042050 
# 
# From -- ./inp_files/59603.got.cif
#   From: 2010.06.25/outbox.cif.g09.slc.cpg/sg15_30_cif.got.tgz:59603.got - 2010.06.28 07:06:18.
