data_PCOD8152920
_publ_section_title
;
Structure prediction by ZEFSAII (Michael W. Deem and Ramdas Pophale) SiO2 
 PCOD8152920
Probable space group: C 2/C
;
_chemical_formula_sum "Si O2"
_cell_formula_units_Z 44
_cell_length_a 20.965766
_cell_length_b 18.871337
_cell_length_c 13.478773
_cell_angle_alpha 90.000000
_cell_angle_beta 157.199516
_cell_angle_gamma 90.000000
_cell_volume 2066.624941
_symmetry_space_group_name_H-M "C 2/C"
_symmetry_group_IT_number 15
_symmetry_cell_setting 'monoclinic'
loop_
_space_group_symop_operation_xyz
x,y,z
-x,y,1/2-z
-x,-y,-z
x,-y,1/2+z
1/2+x,1/2+y,z
1/2-x,1/2+y,1/2-z
1/2-x,1/2-y,-z
1/2+x,1/2-y,1/2+z
loop_
_atom_site_type_symbol
_atom_site_label
_atom_site_fract_x
_atom_site_fract_y
_atom_site_fract_z
Si Si1 0.386810 0.300210 0.489146
Si Si2 0.852888 0.432378 0.371489
Si Si3 0.297358 0.959131 0.631657
Si Si4 0.178645 0.028591 0.268164
Si Si5 0.500000 0.638423 0.750000
Si Si6 0.606564 0.313907 0.613833
O O1 0.276070 0.368922 0.309488
O O2 0.490114 0.285566 0.536316
O O3 0.264505 0.235496 0.330050
O O4 0.500000 0.310206 0.750000
O O5 0.852240 0.470725 0.266688
O O6 0.810752 0.494079 0.386781
O O7 0.043458 0.409477 0.665952
O O8 0.162778 0.909473 0.490528
O O9 0.217525 0.001378 0.430385
O O10 0.181978 0.112312 0.258136
O O11 0.000000 0.000000 0.000000
O O12 0.492959 0.682747 0.635463
#
# Coordination Sequence:
#
# PCOD8152920 Si02
#       6
#     8   8   8   8   4   8
#     4  12  28  49  72 106 150 196 244 305 367 440
#     4  11  24  41  70 104 139 182 245 295 358 421
#     4  11  23  40  72 107 139 180 240 307 350 431
#     4  12  21  43  72 102 137 188 241 293 364 419
#     4  12  24  48  74 102 152 190 240 300 366 442
#     4  12  28  46  75 105 146 200 243 293 372 433
#
# _framework density 21.290752999999999
#
# number of rings (size 3 to 8) (size 9 to 14) (size 15 to 20)
#    0.000    0.364    5.455    2.182    3.818    2.182 
#    3.273    0.000    0.000    0.000    0.000    0.000 
#    0.000    0.000    0.000    0.000    0.000    0.000 
#
# Total GULP energy -272559.200716 kJ/mol
# GULP energy per Si atom -12389.054578 kJ/mol
# Density = 2.124229 g / cm^3
# Si number density = 21.290753 Si / 1000 Ang^3
#
#
#
# Elastic Constant Matrix: (Units=GPa)
#
#
# Indices 1 2 3 4 5 6 
#
# 1 143.9065 35.0388 59.4818 0.0000 9.8643 0.0000
# 2 35.0388 98.8698 36.9174 0.0000 21.1405 0.0000
# 3 59.4818 36.9174 147.9394 0.0000 11.8207 0.0000
# 4 0.0000 0.0000 0.0000 26.4653 0.0000 14.3458
# 5 9.8643 21.1405 11.8207 0.0000 52.6223 0.0000
# 6 0.0000 0.0000 0.0000 14.3458 0.0000 45.0907
#
#
#
# Elastic Compliance Matrix: (Units=1/GPa)
#
#
# Indices 1 2 3 4 5 6 
#
# 1 0.008664 -0.001914 -0.002991 0.000000 -0.000183 0.000000
# 2 -0.001914 0.012434 -0.001999 0.000000 -0.004188 0.000000
# 3 -0.002991 -0.001999 0.008505 0.000000 -0.000547 0.000000
# 4 0.000000 0.000000 0.000000 0.045660 0.000000 -0.014527
# 5 -0.000183 -0.004188 -0.000547 0.000000 0.020843 0.000000
# 6 0.000000 0.000000 0.000000 -0.014527 0.000000 0.026799
#
#
# Mechanical properties :
#
#
# Convention : Reuss Voigt Hill
#
# Bulk Modulus (GPa) = 63.31261 72.62130 67.96695
# Shear Modulus (GPa) = 35.21663 42.12083 38.66873
#
# Velocity S-wave (km/s) = 4.07145 4.45270 4.26634
# Velocity P-wave (km/s) = 7.20444 7.78581 7.50076
#
# Compressibility (1/GPa) = 0.01579464
#
# Stress axis : x y z
#
# Youngs Moduli (GPa) = 115.42026 80.42183 117.58335
#
# Poissons Ratio (x) = 0.15396 0.35171
# Poissons Ratio (y) = 0.22096 0.23500
# Poissons Ratio (z) = 0.34524 0.16073
#
# Static dielectric constant tensor:
#      x y z
#    x 4.292750 0.000000 -0.008560 
#    y 0.000000 3.627840 0.000000 
#    z -0.008560 0.000000 4.086570 
# 
# 
# High freq. dielectric constant tensor:
#      x y z
#    x 1.859860 0.000000 0.000850 
#    y 0.000000 1.823010 0.000000 
#    z 0.000850 0.000000 1.854720 
# 
# From -- ./inp_files/174297.got.cif
#   From: 2010.06.25/outbox.cif.g09.slc.cpg/sg15_88_cif.got.tgz:174297.got - 2010.06.28 07:06:18.
