data_PCOD8152768
_publ_section_title
;
Structure prediction by ZEFSAII (Michael W. Deem and Ramdas Pophale) SiO2 
 PCOD8152768
Probable space group: C 2/C
;
_chemical_formula_sum "Si O2"
_cell_formula_units_Z 48
_cell_length_a 27.229393
_cell_length_b 9.542844
_cell_length_c 13.483107
_cell_angle_alpha 90.000000
_cell_angle_beta 37.237506
_cell_angle_gamma 90.000000
_cell_volume 2120.057095
_symmetry_space_group_name_H-M "C 2/C"
_symmetry_group_IT_number 15
_symmetry_cell_setting 'monoclinic'
loop_
_space_group_symop_operation_xyz
x,y,z
-x,y,1/2-z
-x,-y,-z
x,-y,1/2+z
1/2+x,1/2+y,z
1/2-x,1/2+y,1/2-z
1/2-x,1/2-y,-z
1/2+x,1/2-y,1/2+z
loop_
_atom_site_type_symbol
_atom_site_label
_atom_site_fract_x
_atom_site_fract_y
_atom_site_fract_z
Si Si1 0.617263 0.610776 0.277629
Si Si2 0.145463 0.959711 0.517466
Si Si3 0.085187 0.573487 0.342745
Si Si4 0.316209 0.856034 0.211574
Si Si5 0.566580 0.349906 0.463113
Si Si6 0.592664 0.228055 0.121555
O O1 0.674881 0.699177 0.258507
O O2 0.620915 0.449841 0.306036
O O3 0.524126 0.660869 0.435126
O O4 0.645995 0.625300 0.118931
O O5 0.142733 0.125983 0.543298
O O6 0.225392 0.904797 0.331333
O O7 0.069891 0.910217 0.569968
O O8 0.153764 0.458143 0.249160
O O9 0.101257 0.693567 0.399139
O O10 0.096539 0.639306 0.215867
O O11 0.000000 0.500000 0.500000
O O12 0.370005 0.868374 0.025413
O O13 0.500000 0.267784 0.250000
#
# Coordination Sequence:
#
# PCOD8152768 Si02
#       6
#     8   8   8   8   8   8
#     4  11  22  46  71 103 145 190 242 297 357 441
#     4  12  27  43  74 109 148 191 244 306 381 432
#     4  12  25  47  73 106 142 190 246 304 368 436
#     4  12  28  46  70 110 151 184 243 316 369 438
#     4  11  23  42  77 104 137 191 254 287 354 453
#     4  12  24  49  78 101 145 201 247 304 370 444
#
# _framework density 22.640899000000001
#
# number of rings (size 3 to 8) (size 9 to 14) (size 15 to 20)
#    0.000    0.333    6.667    2.000    2.333    3.333 
#    3.000    0.000    0.000    0.000    0.000    0.000 
#    0.000    0.000    0.000    0.000    0.000    0.000 
#
# Total GULP energy -297614.842331 kJ/mol
# GULP energy per Si atom -12400.618430 kJ/mol
# Density = 2.258937 g / cm^3
# Si number density = 22.640899 Si / 1000 Ang^3
#
#
#
# Elastic Constant Matrix: (Units=GPa)
#
#
# Indices 1 2 3 4 5 6 
#
# 1 85.7626 32.4384 32.3561 0.0000 23.4410 0.0000
# 2 32.4384 125.8944 44.5735 -0.0001 3.6639 0.0000
# 3 32.3561 44.5735 104.3999 0.0000 19.4521 0.0000
# 4 0.0000 -0.0001 0.0000 36.1529 0.0000 0.7548
# 5 23.4410 3.6639 19.4521 0.0000 44.1363 0.0000
# 6 0.0000 0.0000 0.0000 0.7548 0.0000 42.2280
#
#
#
# Elastic Compliance Matrix: (Units=1/GPa)
#
#
# Indices 1 2 3 4 5 6 
#
# 1 0.015564 -0.003018 -0.002224 0.000000 -0.007035 0.000000
# 2 -0.003018 0.009990 -0.003785 0.000000 0.002442 0.000000
# 3 -0.002224 -0.003785 0.012643 0.000000 -0.004077 0.000000
# 4 0.000000 0.000000 0.000000 0.027671 0.000000 -0.000495
# 5 -0.007035 0.002442 -0.004077 0.000000 0.027988 0.000000
# 6 0.000000 0.000000 0.000000 -0.000495 0.000000 0.023690
#
#
# Mechanical properties :
#
#
# Convention : Reuss Voigt Hill
#
# Bulk Modulus (GPa) = 49.64516 59.42143 54.53330
# Shear Modulus (GPa) = 35.13392 38.28271 36.70831
#
# Velocity S-wave (km/s) = 3.94355 4.11647 4.03094
# Velocity P-wave (km/s) = 6.53531 6.99256 6.76780
#
# Compressibility (1/GPa) = 0.02014295
#
# Stress axis : x y z
#
# Youngs Moduli (GPa) = 64.25260 100.10306 79.09281
#
# Poissons Ratio (x) = 0.30210 0.17592
# Poissons Ratio (y) = 0.19391 0.29934
# Poissons Ratio (z) = 0.14291 0.37886
#
# Static dielectric constant tensor:
#      x y z
#    x 4.228790 0.000000 0.015280 
#    y 0.000000 4.130480 0.000000 
#    z 0.015280 0.000000 4.010560 
# 
# 
# High freq. dielectric constant tensor:
#      x y z
#    x 1.894480 0.000000 0.011130 
#    y 0.000000 1.900170 0.000000 
#    z 0.011130 0.000000 1.885560 
# 
# From -- ./inp_files/176867.got.cif
#   From: 2010.06.25/outbox.cif.g09.slc.cpg/sg15_89_cif.got.tgz:176867.got - 2010.06.28 07:06:18.
