data_PCOD8152002
_publ_section_title
;
Structure prediction by ZEFSAII (Michael W. Deem and Ramdas Pophale) SiO2 
 PCOD8152002
Probable space group: C 2/C
;
_chemical_formula_sum "Si O2"
_cell_formula_units_Z 64
_cell_length_a 18.139873
_cell_length_b 8.920957
_cell_length_c 30.085135
_cell_angle_alpha 90.000000
_cell_angle_beta 37.127652
_cell_angle_gamma 90.000000
_cell_volume 2938.608542
_symmetry_space_group_name_H-M "C 2/C"
_symmetry_group_IT_number 15
_symmetry_cell_setting 'monoclinic'
loop_
_space_group_symop_operation_xyz
x,y,z
-x,y,1/2-z
-x,-y,-z
x,-y,1/2+z
1/2+x,1/2+y,z
1/2-x,1/2+y,1/2-z
1/2-x,1/2-y,-z
1/2+x,1/2-y,1/2+z
loop_
_atom_site_type_symbol
_atom_site_label
_atom_site_fract_x
_atom_site_fract_y
_atom_site_fract_z
Si Si1 0.708818 0.364381 0.229087
Si Si2 0.637453 0.673065 0.934600
Si Si3 0.851813 0.668642 0.162844
Si Si4 0.031070 0.987535 0.688294
Si Si5 0.828182 0.731079 0.918395
Si Si6 0.866228 0.836057 0.586221
Si Si7 0.605840 0.076143 0.079884
Si Si8 0.744552 0.675904 0.568006
O O1 0.766085 0.526728 0.201048
O O2 0.711179 0.299805 0.278015
O O3 0.569634 0.394466 0.280635
O O4 0.785361 0.246714 0.162266
O O5 0.622022 0.780298 0.899782
O O6 0.744366 0.733121 0.914809
O O7 0.671610 0.509380 0.899239
O O8 0.512395 0.674174 0.024023
O O9 0.970964 0.620834 0.131857
O O10 0.066582 0.858819 0.635602
O O11 0.000000 0.908323 0.750000
O O12 0.151318 0.083431 0.642995
O O13 0.897797 0.572977 0.888754
O O14 0.750000 0.750000 0.000000
O O15 0.844082 0.760848 0.549241
O O16 0.666129 0.209104 0.077661
O O17 0.686325 0.055305 0.996509
#
# Coordination Sequence:
#
# PCOD8152002 Si02
#       8
#     8   8   8   8   8   8   8   8
#     4  12  28  45  70 101 147 187 230 289 355 435
#     4  11  26  47  73 106 142 185 236 299 353 424
#     4  12  27  47  69 104 143 188 236 285 361 425
#     4  12  25  45  70 101 146 188 234 293 362 429
#     4  12  27  45  71 109 141 182 241 302 355 417
#     4  11  24  45  75 105 143 184 235 293 360 422
#     4  11  24  44  73 103 137 185 238 297 344 423
#     4  11  21  44  73 102 136 183 243 288 349 421
#
# _framework density 21.779014
#
# number of rings (size 3 to 8) (size 9 to 14) (size 15 to 20)
#    0.000    0.500    6.250    1.500    3.500    2.500 
#    2.250    0.625    0.000    0.000    0.000    0.000 
#    0.000    0.000    0.000    0.000    0.000    0.000 
#
# Total GULP energy -396792.521535 kJ/mol
# GULP energy per Si atom -12399.766298 kJ/mol
# Density = 2.172944 g / cm^3
# Si number density = 21.779014 Si / 1000 Ang^3
#
#
#
# Elastic Constant Matrix: (Units=GPa)
#
#
# Indices 1 2 3 4 5 6 
#
# 1 82.0571 16.5017 16.5826 -0.0063 2.0067 0.0193
# 2 16.5017 111.2896 43.0307 -0.0051 1.4099 0.0038
# 3 16.5826 43.0307 109.0749 0.0015 8.1631 0.0011
# 4 -0.0063 -0.0051 0.0015 42.8445 -0.0003 0.6372
# 5 2.0067 1.4099 8.1631 -0.0003 37.5978 -0.0037
# 6 0.0193 0.0038 0.0011 0.6372 -0.0037 38.4909
#
#
#
# Elastic Compliance Matrix: (Units=1/GPa)
#
#
# Indices 1 2 3 4 5 6 
#
# 1 0.012745 -0.001352 -0.001379 0.000002 -0.000330 -0.000006
# 2 -0.001352 0.010756 -0.004079 0.000001 0.000555 0.000000
# 3 -0.001379 -0.004079 0.011151 -0.000001 -0.002195 0.000001
# 4 0.000002 0.000001 -0.000001 0.023346 0.000000 -0.000386
# 5 -0.000330 0.000555 -0.002195 0.000000 0.027071 0.000003
# 6 -0.000006 0.000000 0.000001 -0.000386 0.000003 0.025987
#
#
# Mechanical properties :
#
#
# Convention : Reuss Voigt Hill
#
# Bulk Modulus (GPa) = 47.54928 50.51684 49.03306
# Shear Modulus (GPa) = 37.96832 38.87375 38.42103
#
# Velocity S-wave (km/s) = 4.17987 4.22941 4.20471
# Velocity P-wave (km/s) = 6.72124 6.86266 6.79232
#
# Compressibility (1/GPa) = 0.02103081
#
# Stress axis : x y z
#
# Youngs Moduli (GPa) = 78.45951 92.96824 89.67561
#
# Poissons Ratio (x) = 0.12572 0.12371
# Poissons Ratio (y) = 0.10610 0.36582
# Poissons Ratio (z) = 0.10823 0.37925
#
# Static dielectric constant tensor:
#      x y z
#    x 3.098480 -0.000010 0.392690 
#    y -0.000010 4.014820 0.000000 
#    z 0.392690 0.000000 3.863200 
# 
# 
# High freq. dielectric constant tensor:
#      x y z
#    x 1.858030 0.000000 -0.002970 
#    y 0.000000 1.867020 0.000000 
#    z -0.002970 0.000000 1.862990 
# 
# From -- ./inp_files/315695.got.cif
#   From: 2010.06.25/outbox.cif.g09.slc.cpg/sg15_158_cif.got.tgz:315695.got - 2010.06.28 07:06:18.
