data_PCOD8152539
_publ_section_title
;
Structure prediction by ZEFSAII (Michael W. Deem and Ramdas Pophale) SiO2 
 PCOD8152539
Probable space group: C 2/C
;
_chemical_formula_sum "Si O2"
_cell_formula_units_Z 64
_cell_length_a 29.146947
_cell_length_b 11.684340
_cell_length_c 8.359927
_cell_angle_alpha 90.000000
_cell_angle_beta 93.629132
_cell_angle_gamma 90.000000
_cell_volume 2841.371145
_symmetry_space_group_name_H-M "C 2/C"
_symmetry_group_IT_number 15
_symmetry_cell_setting 'monoclinic'
loop_
_space_group_symop_operation_xyz
x,y,z
-x,y,1/2-z
-x,-y,-z
x,-y,1/2+z
1/2+x,1/2+y,z
1/2-x,1/2+y,1/2-z
1/2-x,1/2-y,-z
1/2+x,1/2-y,1/2+z
loop_
_atom_site_type_symbol
_atom_site_label
_atom_site_fract_x
_atom_site_fract_y
_atom_site_fract_z
Si Si1 0.675060 0.157493 0.567385
Si Si2 0.400426 0.972460 0.978057
Si Si3 0.118005 0.162741 0.871425
Si Si4 0.246386 0.942003 0.589094
Si Si5 0.777219 0.352251 0.934566
Si Si6 0.552896 0.142916 0.304643
Si Si7 0.141665 0.730486 0.895551
Si Si8 0.356275 0.462866 0.444626
O O1 0.654739 0.240605 0.427079
O O2 0.729614 0.143529 0.537607
O O3 0.669447 0.220806 0.736004
O O4 0.649089 0.034880 0.556475
O O5 0.415594 0.920365 0.815406
O O6 0.399267 0.864498 0.105722
O O7 0.438511 0.067668 0.034394
O O8 0.069616 0.225529 0.826453
O O9 0.137302 0.088413 0.728399
O O10 0.109535 0.069390 0.011235
O O11 0.253994 0.895887 0.768106
O O12 0.276450 0.055437 0.577405
O O13 0.193858 0.976943 0.540393
O O14 0.750000 0.250000 0.000000
O O15 0.829621 0.308247 0.937698
O O16 0.500000 0.145964 0.250000
O O17 0.131049 0.864110 0.921449
#
# Coordination Sequence:
#
# PCOD8152539 Si02
#       8
#     8   8   8   8   8   8   8   8
#     4  11  25  42  69 100 135 182 235 287 346 402
#     4  11  22  42  72 104 139 175 213 281 358 416
#     4  11  26  45  72  99 136 186 230 287 349 409
#     4  12  26  43  61  95 135 181 242 291 333 391
#     4  12  26  42  61  90 131 179 237 289 335 391
#     4  11  24  46  75 109 140 169 220 286 356 431
#     4  12  23  43  68  94 135 186 231 282 347 405
#     4  12  25  46  67  95 140 190 241 286 332 406
#
# _framework density 22.524336000000002
#
# number of rings (size 3 to 8) (size 9 to 14) (size 15 to 20)
#    0.000    0.500    5.000    3.375    3.500    0.500 
#    0.000    1.875    0.000    0.000    0.000    0.000 
#    0.000    0.000    0.000    0.000    0.000    0.000 
#
# Total GULP energy -396431.161120 kJ/mol
# GULP energy per Si atom -12388.473785 kJ/mol
# Density = 2.247307 g / cm^3
# Si number density = 22.524336 Si / 1000 Ang^3
#
#
#
# Elastic Constant Matrix: (Units=GPa)
#
#
# Indices 1 2 3 4 5 6 
#
# 1 75.7310 46.8797 9.2840 0.0000 10.7978 0.0000
# 2 46.8797 142.2176 47.6551 0.0000 0.7470 0.0000
# 3 9.2840 47.6551 97.2154 0.0000 -6.6313 0.0000
# 4 0.0000 0.0000 0.0000 45.4761 0.0000 5.6661
# 5 10.7978 0.7470 -6.6313 0.0000 21.1286 0.0000
# 6 0.0000 0.0000 0.0000 5.6661 0.0000 22.1271
#
#
#
# Elastic Compliance Matrix: (Units=1/GPa)
#
#
# Indices 1 2 3 4 5 6 
#
# 1 0.018217 -0.006189 0.000689 0.000000 -0.008875 0.000000
# 2 -0.006189 0.010571 -0.004497 0.000000 0.001378 0.000000
# 3 0.000689 -0.004497 0.012683 0.000000 0.003788 0.000000
# 4 0.000000 0.000000 0.000000 0.022714 0.000000 -0.005816
# 5 -0.008875 0.001378 0.003788 0.000000 0.053005 0.000000
# 6 0.000000 0.000000 0.000000 -0.005816 0.000000 0.046683
#
#
# Mechanical properties :
#
#
# Convention : Reuss Voigt Hill
#
# Bulk Modulus (GPa) = 46.56147 58.08906 52.32526
# Shear Modulus (GPa) = 26.17437 31.83605 29.00521
#
# Velocity S-wave (km/s) = 3.41258 3.76361 3.59239
# Velocity P-wave (km/s) = 6.02031 6.68818 6.36301
#
# Compressibility (1/GPa) = 0.02147699
#
# Stress axis : x y z
#
# Youngs Moduli (GPa) = 54.89460 94.59626 78.84289
#
# Poissons Ratio (x) = 0.58546 -0.05431
# Poissons Ratio (y) = 0.33975 0.35456
# Poissons Ratio (z) = -0.03781 0.42540
#
# Static dielectric constant tensor:
#      x y z
#    x 6.588680 0.000000 1.268510 
#    y 0.000000 4.769860 0.000000 
#    z 1.268510 0.000000 4.548010 
# 
# 
# High freq. dielectric constant tensor:
#      x y z
#    x 1.830860 0.000000 -0.000040 
#    y 0.000000 1.924600 0.000000 
#    z -0.000040 0.000000 1.894340 
# 
# From -- ./inp_files/69365.got.cif
#   From: 2010.06.25/outbox.cif.g09.slc.cpg/sg15_35_cif.got.tgz:69365.got - 2010.06.28 07:06:18.
