data_PCOD8152332
_publ_section_title
;
Structure prediction by ZEFSAII (Michael W. Deem and Ramdas Pophale) SiO2 
 PCOD8152332
Probable space group: C 2/C
;
_chemical_formula_sum "Si O2"
_cell_formula_units_Z 64
_cell_length_a 17.770779
_cell_length_b 10.872646
_cell_length_c 30.657704
_cell_angle_alpha 90.000000
_cell_angle_beta 30.326737
_cell_angle_gamma 90.000000
_cell_volume 2990.975950
_symmetry_space_group_name_H-M "C 2/C"
_symmetry_group_IT_number 15
_symmetry_cell_setting 'monoclinic'
loop_
_space_group_symop_operation_xyz
x,y,z
-x,y,1/2-z
-x,-y,-z
x,-y,1/2+z
1/2+x,1/2+y,z
1/2-x,1/2+y,1/2-z
1/2-x,1/2-y,-z
1/2+x,1/2-y,1/2+z
loop_
_atom_site_type_symbol
_atom_site_label
_atom_site_fract_x
_atom_site_fract_y
_atom_site_fract_z
Si Si1 0.857000 0.548462 0.794987
Si Si2 0.828672 0.267673 0.582095
Si Si3 0.256037 0.536674 0.448355
Si Si4 0.979425 0.430468 0.138621
Si Si5 0.377321 0.347298 0.591638
Si Si6 0.528993 0.652967 0.357798
Si Si7 0.336197 0.365238 0.331440
Si Si8 0.233626 0.549832 0.319200
O O1 0.814181 0.688147 0.830086
O O2 0.717409 0.462713 0.878305
O O3 0.000000 0.505552 0.750000
O O4 0.905266 0.526130 0.720704
O O5 0.791922 0.341108 0.555546
O O6 0.872889 0.367467 0.596832
O O7 0.966396 0.173677 0.510806
O O8 0.129339 0.500054 0.547513
O O9 0.403899 0.561121 0.402471
O O10 0.282084 0.416128 0.405458
O O11 0.030660 0.290310 0.116749
O O12 0.859124 0.448840 0.160768
O O13 0.422036 0.378575 0.618278
O O14 0.280524 0.225998 0.632044
O O15 0.679660 0.642578 0.255055
O O16 0.500000 0.303321 0.250000
O O17 0.351551 0.481340 0.291341
#
# Coordination Sequence:
#
# PCOD8152332 Si02
#       8
#     8   8   8   8   8   8   8   8
#     4  12  27  43  65  92 130 179 218 269 334 399
#     4  11  24  42  68  96 132 166 221 276 334 393
#     4  11  24  40  69 102 126 168 225 281 324 394
#     4  12  23  42  66  96 135 166 216 278 333 393
#     4  12  25  43  65  94 135 174 216 272 335 399
#     4  12  22  39  63  99 129 170 217 269 334 383
#     4  11  22  42  69  96 136 175 219 274 335 397
#     4  11  22  40  68  99 127 173 217 271 335 402
#
# _framework density 21.397697999999998
#
# number of rings (size 3 to 8) (size 9 to 14) (size 15 to 20)
#    0.000    0.500    6.250    2.625    1.750    2.000 
#    0.000    0.000    0.000    2.250    0.000    0.000 
#    0.000    0.000    0.000    0.000    0.000    0.000 
#
# Total GULP energy -396686.276025 kJ/mol
# GULP energy per Si atom -12396.446126 kJ/mol
# Density = 2.134900 g / cm^3
# Si number density = 21.397698 Si / 1000 Ang^3
#
#
#
# Elastic Constant Matrix: (Units=GPa)
#
#
# Indices 1 2 3 4 5 6 
#
# 1 119.3984 26.9160 41.5094 0.0000 -5.9947 0.0014
# 2 26.9160 52.7421 18.9303 0.0000 4.8262 0.0015
# 3 41.5094 18.9303 116.8087 0.0005 3.8030 0.0000
# 4 0.0000 0.0000 0.0005 31.8740 -0.0001 -3.1411
# 5 -5.9947 4.8262 3.8030 -0.0001 31.5902 0.0001
# 6 0.0014 0.0015 0.0000 -3.1411 0.0001 22.0646
#
#
#
# Elastic Compliance Matrix: (Units=1/GPa)
#
#
# Indices 1 2 3 4 5 6 
#
# 1 0.010660 -0.004596 -0.003145 0.000000 0.003104 0.000000
# 2 -0.004596 0.022343 -0.001856 0.000000 -0.004062 -0.000001
# 3 -0.003145 -0.001856 0.010029 0.000000 -0.001521 0.000000
# 4 0.000000 0.000000 0.000000 0.031820 0.000000 0.004530
# 5 0.003104 -0.004062 -0.001521 0.000000 0.033048 0.000000
# 6 0.000000 -0.000001 0.000000 0.004530 0.000000 0.045966
#
#
# Mechanical properties :
#
#
# Convention : Reuss Voigt Hill
#
# Bulk Modulus (GPa) = 41.94521 51.51783 46.73152
# Shear Modulus (GPa) = 27.62352 30.54533 29.08442
#
# Velocity S-wave (km/s) = 3.59689 3.78233 3.69078
# Velocity P-wave (km/s) = 6.07416 6.57292 6.32846
#
# Compressibility (1/GPa) = 0.02384063
#
# Stress axis : x y z
#
# Youngs Moduli (GPa) = 93.80538 44.75623 99.71397
#
# Poissons Ratio (x) = 0.20569 0.31356
# Poissons Ratio (y) = 0.43110 0.18503
# Poissons Ratio (z) = 0.29498 0.08305
#
# Static dielectric constant tensor:
#      x y z
#    x 3.865150 0.000000 0.110610 
#    y 0.000000 3.641020 0.000000 
#    z 0.110610 0.000000 3.959720 
# 
# 
# High freq. dielectric constant tensor:
#      x y z
#    x 1.842630 0.000000 0.000830 
#    y 0.000000 1.822840 0.000000 
#    z 0.000830 0.000000 1.851680 
# 
# From -- ./inp_files/316171.got.cif
#   From: 2010.06.25/outbox.cif.g09.slc.cpg/sg15_159_cif.got.tgz:316171.got - 2010.06.28 07:06:18.
