data_PCOD8152973
_publ_section_title
;
Structure prediction by ZEFSAII (Michael W. Deem and Ramdas Pophale) SiO2 
 PCOD8152973
Probable space group: C 2/C
;
_chemical_formula_sum "Si O2"
_cell_formula_units_Z 60
_cell_length_a 17.013284
_cell_length_b 26.524909
_cell_length_c 11.284467
_cell_angle_alpha 90.000000
_cell_angle_beta 32.372174
_cell_angle_gamma 90.000000
_cell_volume 2726.559638
_symmetry_space_group_name_H-M "C 2/C"
_symmetry_group_IT_number 15
_symmetry_cell_setting 'monoclinic'
loop_
_space_group_symop_operation_xyz
x,y,z
-x,y,1/2-z
-x,-y,-z
x,-y,1/2+z
1/2+x,1/2+y,z
1/2-x,1/2+y,1/2-z
1/2-x,1/2-y,-z
1/2+x,1/2-y,1/2+z
loop_
_atom_site_type_symbol
_atom_site_label
_atom_site_fract_x
_atom_site_fract_y
_atom_site_fract_z
Si Si1 0.487134 0.348621 0.135279
Si Si2 0.325404 0.577556 0.484402
Si Si3 0.847639 0.519400 0.241856
Si Si4 0.620018 0.791986 0.998816
Si Si5 0.795790 0.358576 0.151175
Si Si6 0.750477 0.897239 0.818521
Si Si7 0.500000 0.928701 0.750000
Si Si8 0.087825 0.253191 0.423685
O O1 0.500000 0.371959 0.250000
O O2 0.321870 0.354910 0.303396
O O3 0.584662 0.379928 0.919032
O O4 0.544692 0.290957 0.069923
O O5 0.500000 0.578629 0.250000
O O6 0.275140 0.524159 0.601871
O O7 0.273297 0.623292 0.635945
O O8 0.246400 0.583371 0.458307
O O9 0.793114 0.561226 0.220505
O O10 0.875043 0.538867 0.341301
O O11 0.000000 0.500000 0.000000
O O12 0.500000 0.782203 0.250000
O O13 0.559625 0.763176 0.961370
O O14 0.635811 0.851296 0.952300
O O15 0.776849 0.766769 0.830988
O O16 0.866145 0.303718 0.069573
O O17 0.923079 0.396404 0.950228
#
# Coordination Sequence:
#
# PCOD8152973 Si02
#       8
#     8   8   8   8   8   8   4   8
#     4  11  25  47  70 101 145 190 239 299 358 438
#     4  12  27  48  78 105 144 190 241 308 364 432
#     4  12  26  47  72 106 144 184 244 299 371 435
#     4  11  23  41  69 104 141 193 234 296 360 427
#     4  12  25  47  72 107 148 189 245 294 366 433
#     4  11  26  47  71 105 144 184 244 300 365 429
#     4  12  26  46  72 106 144 194 232 304 366 438
#     4  11  24  43  67 106 144 187 243 295 356 427
#
# _framework density 22.005752999999999
#
# number of rings (size 3 to 8) (size 9 to 14) (size 15 to 20)
#    0.000    0.533    4.000    3.600    2.800    5.333 
#    0.000    0.000    0.000    0.000    0.000    0.000 
#    0.000    0.000    0.000    0.000    0.000    0.000 
#
# Total GULP energy -372096.024252 kJ/mol
# GULP energy per Si atom -12403.200808 kJ/mol
# Density = 2.195567 g / cm^3
# Si number density = 22.005753 Si / 1000 Ang^3
#
#
#
# Elastic Constant Matrix: (Units=GPa)
#
#
# Indices 1 2 3 4 5 6 
#
# 1 114.2914 30.8911 10.8397 0.0008 3.6190 0.0003
# 2 30.8911 98.5480 12.4802 0.0000 -3.2808 0.0002
# 3 10.8397 12.4802 82.5118 0.0019 -2.6305 0.0007
# 4 0.0008 0.0000 0.0019 6.7282 -0.0012 -14.5053
# 5 3.6190 -3.2808 -2.6305 -0.0012 38.0200 -0.0003
# 6 0.0003 0.0002 0.0007 -14.5053 -0.0003 30.8021
#
#
#
# Elastic Compliance Matrix: (Units=1/GPa)
#
#
# Indices 1 2 3 4 5 6 
#
# 1 0.009671 -0.002964 -0.000862 0.000085 -0.001236 0.000040
# 2 -0.002964 0.011277 -0.001279 -0.000058 0.001167 -0.000027
# 3 -0.000862 -0.001279 0.012453 0.000245 0.000833 0.000115
# 4 0.000085 -0.000058 0.000245 -9.743987 -0.000350 -4.588636
# 5 -0.001236 0.001167 0.000833 -0.000350 0.026578 -0.000165
# 6 0.000040 -0.000027 0.000115 -4.588636 -0.000165 -2.128414
#
#
# Mechanical properties :
#
#
# Convention : Reuss Voigt Hill
#
# Bulk Modulus (GPa) = 43.11779 44.86368 43.99073
# Shear Modulus (GPa) = -0.42393 31.18607 15.38107
#
# Velocity S-wave (km/s) = -0.43939 3.76863 2.64665
# Velocity P-wave (km/s) = 4.40216 6.27441 5.41974
#
# Compressibility (1/GPa) = 0.02319229
#
# Stress axis : x y z
#
# Youngs Moduli (GPa) = 103.39707 88.67468 80.30380
#
# Poissons Ratio (x) = 0.26280 0.06920
# Poissons Ratio (y) = 0.30643 0.10272
# Poissons Ratio (z) = 0.08910 0.11343
#
# Static dielectric constant tensor:
#      x y z
#    x 3.759120 0.000000 -0.022070 
#    y 0.000000 3.098000 0.000000 
#    z -0.022070 0.000000 3.982770 
# 
# 
# High freq. dielectric constant tensor:
#      x y z
#    x 1.869100 0.000000 -0.006290 
#    y 0.000000 1.875730 0.000000 
#    z -0.006290 0.000000 1.873750 
# 
# From -- ./inp_files/108428.got.cif
#   From: 2010.06.25/outbox.cif.g09.slc.cpg/sg15_55_cif.got.tgz:108428.got - 2010.06.28 07:06:18.
