data_PCOD8152564
_publ_section_title
;
Structure prediction by ZEFSAII (Michael W. Deem and Ramdas Pophale) SiO2 
 PCOD8152564
Probable space group: C 2/C
;
_chemical_formula_sum "Si O2"
_cell_formula_units_Z 52
_cell_length_a 15.068351
_cell_length_b 7.631163
_cell_length_c 24.303602
_cell_angle_alpha 90.000000
_cell_angle_beta 122.294435
_cell_angle_gamma 90.000000
_cell_volume 2362.354261
_symmetry_space_group_name_H-M "C 2/C"
_symmetry_group_IT_number 15
_symmetry_cell_setting 'monoclinic'
loop_
_space_group_symop_operation_xyz
x,y,z
-x,y,1/2-z
-x,-y,-z
x,-y,1/2+z
1/2+x,1/2+y,z
1/2-x,1/2+y,1/2-z
1/2-x,1/2-y,-z
1/2+x,1/2-y,1/2+z
loop_
_atom_site_type_symbol
_atom_site_label
_atom_site_fract_x
_atom_site_fract_y
_atom_site_fract_z
Si Si1 0.882644 0.458911 0.944426
Si Si2 0.817541 0.613591 0.224698
Si Si3 0.062935 0.888875 0.864056
Si Si4 0.872154 0.652895 0.830952
Si Si5 0.231193 0.046330 0.990966
Si Si6 0.500000 0.643617 0.750000
Si Si7 0.251948 0.848313 0.111506
O O1 0.850269 0.596052 0.886524
O O2 0.814823 0.469958 0.976731
O O3 0.857132 0.260465 0.915490
O O4 0.000000 0.500000 0.000000
O O5 0.879567 0.516105 0.294018
O O6 0.724773 0.727994 0.220807
O O7 0.897319 0.735583 0.217729
O O8 0.763564 0.476083 0.166355
O O9 0.149511 0.784694 0.857136
O O10 0.981498 0.754354 0.863792
O O11 0.115005 0.998695 0.931022
O O12 0.002696 0.023402 0.804791
O O13 0.250000 0.250000 0.000000
O O14 0.249536 0.961037 0.055651
#
# Coordination Sequence:
#
# PCOD8152564 Si02
#       7
#     8   8   8   8   8   4   8
#     4  11  23  40  64  93 126 164 207 258 314 369
#     4  12  25  42  64  92 126 166 208 258 313 371
#     4  11  23  41  64  92 124 164 210 257 309 370
#     4  12  24  41  62  94 128 163 205 261 316 370
#     4  11  23  41  65  92 125 166 211 256 307 373
#     4  12  24  42  64  92 124 168 214 256 306 376
#     4  11  22  43  65  90 125 169 211 256 309 374
#
# _framework density 22.011939999999999
#
# number of rings (size 3 to 8) (size 9 to 14) (size 15 to 20)
#    0.000    0.615    0.000   11.077    0.000    2.462 
#    0.000    3.077    0.000    0.000    0.000    0.000 
#    0.000    0.000    0.000    0.000    0.000    0.000 
#
# Total GULP energy -322532.187670 kJ/mol
# GULP energy per Si atom -12405.084141 kJ/mol
# Density = 2.196184 g / cm^3
# Si number density = 22.011940 Si / 1000 Ang^3
#
#
#
# Elastic Constant Matrix: (Units=GPa)
#
#
# Indices 1 2 3 4 5 6 
#
# 1 84.1499 31.3307 22.2637 0.0000 15.8699 0.0000
# 2 31.3307 123.9439 39.0138 0.0000 10.8070 0.0000
# 3 22.2637 39.0138 98.5075 0.0000 9.4662 0.0000
# 4 0.0000 0.0000 0.0000 43.2885 0.0000 5.3737
# 5 15.8699 10.8070 9.4662 0.0000 31.1678 0.0000
# 6 0.0000 0.0000 0.0000 5.3737 0.0000 45.4471
#
#
#
# Elastic Compliance Matrix: (Units=1/GPa)
#
#
# Indices 1 2 3 4 5 6 
#
# 1 0.014410 -0.002604 -0.001655 0.000000 -0.005931 0.000000
# 2 -0.002604 0.009830 -0.003198 0.000000 -0.001111 0.000000
# 3 -0.001655 -0.003198 0.011953 0.000000 -0.001679 0.000000
# 4 0.000000 0.000000 0.000000 0.023445 0.000000 -0.002772
# 5 -0.005931 -0.001111 -0.001679 0.000000 0.036000 0.000000
# 6 0.000000 0.000000 0.000000 -0.002772 0.000000 0.022331
#
#
# Mechanical properties :
#
#
# Convention : Reuss Voigt Hill
#
# Bulk Modulus (GPa) = 46.99622 54.64640 50.82131
# Shear Modulus (GPa) = 35.72025 38.24688 36.98356
#
# Velocity S-wave (km/s) = 4.03273 4.17292 4.10342
# Velocity P-wave (km/s) = 6.56358 6.93522 6.75196
#
# Compressibility (1/GPa) = 0.02127831
#
# Stress axis : x y z
#
# Youngs Moduli (GPa) = 69.39755 101.73015 83.65797
#
# Poissons Ratio (x) = 0.26493 0.13848
# Poissons Ratio (y) = 0.18073 0.26752
# Poissons Ratio (z) = 0.11488 0.32531
#
# Static dielectric constant tensor:
#      x y z
#    x 3.940390 0.000000 0.093270 
#    y 0.000000 4.238400 0.000000 
#    z 0.093270 0.000000 4.039870 
# 
# 
# High freq. dielectric constant tensor:
#      x y z
#    x 1.860420 0.000000 0.001250 
#    y 0.000000 1.884090 0.000000 
#    z 0.001250 0.000000 1.880090 
# 
# From -- ./inp_files/272897.got.cif
#   From: 2010.06.25/outbox.cif.g09.slc.cpg/sg15_137_cif.got.tgz:272897.got - 2010.06.28 07:06:18.
