data_PCOD8152666
_publ_section_title
;
Structure prediction by ZEFSAII (Michael W. Deem and Ramdas Pophale) SiO2 
 PCOD8152666
Probable space group: C 2/C
;
_chemical_formula_sum "Si O2"
_cell_formula_units_Z 56
_cell_length_a 22.980094
_cell_length_b 7.731303
_cell_length_c 22.065617
_cell_angle_alpha 90.000000
_cell_angle_beta 39.670875
_cell_angle_gamma 90.000000
_cell_volume 2502.635204
_symmetry_space_group_name_H-M "C 2/C"
_symmetry_group_IT_number 15
_symmetry_cell_setting 'monoclinic'
loop_
_space_group_symop_operation_xyz
x,y,z
-x,y,1/2-z
-x,-y,-z
x,-y,1/2+z
1/2+x,1/2+y,z
1/2-x,1/2+y,1/2-z
1/2-x,1/2-y,-z
1/2+x,1/2-y,1/2+z
loop_
_atom_site_type_symbol
_atom_site_label
_atom_site_fract_x
_atom_site_fract_y
_atom_site_fract_z
Si Si1 0.927870 0.243922 0.186523
Si Si2 0.850613 0.579155 0.640854
Si Si3 0.695304 0.808189 0.723807
Si Si4 0.751748 0.052463 0.980687
Si Si5 0.752096 0.387896 0.389815
Si Si6 0.888698 0.591492 0.992816
Si Si7 0.420364 0.587101 0.766226
O O1 0.892829 0.258448 0.144563
O O2 0.853462 0.327133 0.290560
O O3 0.950972 0.050495 0.190264
O O4 0.021189 0.349573 0.113773
O O5 0.749148 0.635467 0.700776
O O6 0.846280 0.408778 0.685991
O O7 0.910985 0.525807 0.534179
O O8 0.613647 0.756397 0.742955
O O9 0.766288 0.933281 0.631340
O O10 0.838193 0.004229 0.870394
O O11 0.660774 0.028145 0.015731
O O12 0.750000 0.250000 0.000000
O O13 0.752940 0.919122 0.034833
O O14 0.675363 0.249541 0.433325
O O15 0.500000 0.635831 0.750000
#
# Coordination Sequence:
#
# PCOD8152666 Si02
#       7
#     8   8   8   8   8   8   8
#     4  11  26  42  70 105 134 188 228 287 353 416
#     4  11  22  44  70 103 142 180 241 283 348 432
#     4  11  22  44  73 101 137 190 230 292 363 409
#     4  12  24  44  69  99 143 187 229 287 353 414
#     4  11  23  43  69 103 137 186 232 288 354 418
#     4  12  24  44  71 103 143 183 236 291 350 423
#     4  12  25  45  68 105 144 180 236 289 355 422
#
# _framework density 22.376415000000001
#
# number of rings (size 3 to 8) (size 9 to 14) (size 15 to 20)
#    0.000    0.571    4.286    4.286    2.000    2.286 
#    0.000    7.143    0.000    0.000    0.000    0.000 
#    0.000    0.000    0.000    0.000    0.000    0.000 
#
# Total GULP energy -347196.939289 kJ/mol
# GULP energy per Si atom -12399.890689 kJ/mol
# Density = 2.232549 g / cm^3
# Si number density = 22.376415 Si / 1000 Ang^3
#
#
#
# Elastic Constant Matrix: (Units=GPa)
#
#
# Indices 1 2 3 4 5 6 
#
# 1 140.4809 48.1607 28.8292 -0.0034 0.1770 -0.0015
# 2 48.1607 93.2071 19.6289 -0.0152 3.8463 0.0047
# 3 28.8292 19.6289 92.1275 0.0013 -5.9687 -0.0005
# 4 -0.0034 -0.0152 0.0013 30.3845 0.0068 9.1079
# 5 0.1770 3.8463 -5.9687 0.0068 43.9760 -0.0045
# 6 -0.0015 0.0047 -0.0005 9.1079 -0.0045 42.7633
#
#
#
# Elastic Compliance Matrix: (Units=1/GPa)
#
#
# Indices 1 2 3 4 5 6 
#
# 1 0.008959 -0.004233 -0.001897 -0.000001 0.000077 0.000001
# 2 -0.004233 0.013309 -0.001599 0.000008 -0.001364 -0.000003
# 3 -0.001897 -0.001599 0.011903 -0.000002 0.001763 0.000001
# 4 -0.000001 0.000008 -0.000002 0.035156 -0.000007 -0.007488
# 5 0.000077 -0.001364 0.001763 -0.000007 0.023098 0.000004
# 6 0.000001 -0.000003 0.000001 -0.007488 0.000004 0.024979
#
#
# Mechanical properties :
#
#
# Convention : Reuss Voigt Hill
#
# Bulk Modulus (GPa) = 53.43865 57.67256 55.55561
# Shear Modulus (GPa) = 35.94559 38.70456 37.32507
#
# Velocity S-wave (km/s) = 4.01235 4.16348 4.08861
# Velocity P-wave (km/s) = 6.73786 6.99590 6.86809
#
# Compressibility (1/GPa) = 0.01871305
#
# Stress axis : x y z
#
# Youngs Moduli (GPa) = 111.62440 75.13709 84.01219
#
# Poissons Ratio (x) = 0.31803 0.15934
# Poissons Ratio (y) = 0.47248 0.13438
# Poissons Ratio (z) = 0.21171 0.12018
#
# Static dielectric constant tensor:
#      x y z
#    x 4.229340 -0.000050 0.184640 
#    y -0.000050 4.070260 0.000040 
#    z 0.184640 0.000040 4.044940 
# 
# 
# High freq. dielectric constant tensor:
#      x y z
#    x 1.889930 0.000000 0.016110 
#    y 0.000000 1.884370 0.000000 
#    z 0.016110 0.000000 1.876070 
# 
# From -- ./inp_files/281471.got.cif
#   From: 2010.06.25/outbox.cif.g09.slc.cpg/sg15_141_cif.got.tgz:281471.got - 2010.06.28 07:06:18.
