data_PCOD8152553
_publ_section_title
;
Structure prediction by ZEFSAII (Michael W. Deem and Ramdas Pophale) SiO2 
 PCOD8152553
Probable space group: C 2/C
;
_chemical_formula_sum "Si O2"
_cell_formula_units_Z 48
_cell_length_a 10.815268
_cell_length_b 11.049314
_cell_length_c 22.136614
_cell_angle_alpha 90.000000
_cell_angle_beta 126.724697
_cell_angle_gamma 90.000000
_cell_volume 2120.298741
_symmetry_space_group_name_H-M "C 2/C"
_symmetry_group_IT_number 15
_symmetry_cell_setting 'monoclinic'
loop_
_space_group_symop_operation_xyz
x,y,z
-x,y,1/2-z
-x,-y,-z
x,-y,1/2+z
1/2+x,1/2+y,z
1/2-x,1/2+y,1/2-z
1/2-x,1/2-y,-z
1/2+x,1/2-y,1/2+z
loop_
_atom_site_type_symbol
_atom_site_label
_atom_site_fract_x
_atom_site_fract_y
_atom_site_fract_z
Si Si1 0.083719 0.339563 0.336633
Si Si2 0.422965 0.942071 0.579429
Si Si3 0.965217 0.185034 0.397894
Si Si4 0.107148 0.066016 0.929533
Si Si5 0.417984 0.250908 0.443890
Si Si6 0.132091 0.753269 0.336660
O O1 0.028933 0.439173 0.369606
O O2 0.265717 0.322459 0.377681
O O3 0.000000 0.369816 0.250000
O O4 0.029790 0.213997 0.350168
O O5 0.279657 0.978130 0.494750
O O6 0.562680 0.884553 0.579409
O O7 0.369198 0.846464 0.612624
O O8 0.792935 0.235898 0.349577
O O9 0.068802 0.251548 0.479673
O O10 0.982622 0.039979 0.405564
O O11 0.107774 0.115019 0.860618
O O12 0.064581 0.173483 0.963110
O O13 0.000000 0.730157 0.250000
#
# Coordination Sequence:
#
# PCOD8152553 Si02
#       6
#     8   8   8   8   8   8
#     4  12  29  44  62 102 144 178 222 286 354 406
#     4  11  22  44  74  97 132 179 231 285 336 417
#     4  12  24  43  70  96 138 181 222 283 343 411
#     4  11  22  42  74  99 131 177 235 284 334 410
#     4  11  22  44  70  99 130 177 235 276 337 419
#     4  11  24  43  67 102 135 177 234 283 344 404
#
# _framework density 22.63832
#
# number of rings (size 3 to 8) (size 9 to 14) (size 15 to 20)
#    0.000    0.667    5.000    3.500    4.667    2.667 
#    0.000    0.000    0.000    0.000    0.000    0.000 
#    0.000    0.000    0.000    0.000    0.000    0.000 
#
# Total GULP energy -297559.818010 kJ/mol
# GULP energy per Si atom -12398.325750 kJ/mol
# Density = 2.258679 g / cm^3
# Si number density = 22.638320 Si / 1000 Ang^3
#
#
#
# Elastic Constant Matrix: (Units=GPa)
#
#
# Indices 1 2 3 4 5 6 
#
# 1 78.9276 43.2897 41.8609 0.0000 3.8813 0.0000
# 2 43.2897 64.6744 42.9538 0.0000 -2.9800 0.0000
# 3 41.8609 42.9538 102.0594 0.0000 25.6579 0.0000
# 4 0.0000 0.0000 0.0000 9.2771 0.0000 -4.3291
# 5 3.8813 -2.9800 25.6579 0.0000 31.1784 0.0000
# 6 0.0000 0.0000 0.0000 -4.3291 0.0000 47.8999
#
#
#
# Elastic Compliance Matrix: (Units=1/GPa)
#
#
# Indices 1 2 3 4 5 6 
#
# 1 0.021021 -0.011867 -0.003385 0.000000 -0.000966 0.000000
# 2 -0.011867 0.032394 -0.012503 0.000000 0.014862 0.000000
# 3 -0.003385 -0.012503 0.020985 0.000000 -0.018043 0.000000
# 4 0.000000 0.000000 0.000000 0.112539 0.000000 0.010171
# 5 -0.000966 0.014862 -0.018043 0.000000 0.048462 0.000000
# 6 0.000000 0.000000 0.000000 0.010171 0.000000 0.021796
#
#
# Mechanical properties :
#
#
# Convention : Reuss Voigt Hill
#
# Bulk Modulus (GPa) = 52.93667 55.76336 54.35002
# Shear Modulus (GPa) = 15.67387 25.50820 20.59103
#
# Velocity S-wave (km/s) = 2.63413 3.36038 3.01917
# Velocity P-wave (km/s) = 5.71716 6.30412 6.01780
#
# Compressibility (1/GPa) = 0.01889050
#
# Stress axis : x y z
#
# Youngs Moduli (GPa) = 47.57078 30.87021 47.65416
#
# Poissons Ratio (x) = 0.36633 0.16131
# Poissons Ratio (y) = 0.56452 0.59580
# Poissons Ratio (z) = 0.16103 0.38596
#
# Static dielectric constant tensor:
#      x y z
#    x 4.131490 0.000000 -0.118740 
#    y 0.000000 4.167490 0.000000 
#    z -0.118740 0.000000 3.929300 
# 
# 
# High freq. dielectric constant tensor:
#      x y z
#    x 1.896930 0.000000 -0.007920 
#    y 0.000000 1.894600 0.000000 
#    z -0.007920 0.000000 1.881430 
# 
# From -- ./inp_files/237747.got.cif
#   From: 2010.06.25/outbox.cif.g09.slc.cpg/sg15_119_cif.got.tgz:237747.got - 2010.06.28 07:06:18.
