data_PCOD8152588
_publ_section_title
;
Structure prediction by ZEFSAII (Michael W. Deem and Ramdas Pophale) SiO2 
 PCOD8152588
Probable space group: C 2/C
;
_chemical_formula_sum "Si O2"
_cell_formula_units_Z 60
_cell_length_a 12.175561
_cell_length_b 21.465018
_cell_length_c 18.775573
_cell_angle_alpha 90.000000
_cell_angle_beta 146.210530
_cell_angle_gamma 90.000000
_cell_volume 2728.976672
_symmetry_space_group_name_H-M "C 2/C"
_symmetry_group_IT_number 15
_symmetry_cell_setting 'monoclinic'
loop_
_space_group_symop_operation_xyz
x,y,z
-x,y,1/2-z
-x,-y,-z
x,-y,1/2+z
1/2+x,1/2+y,z
1/2-x,1/2+y,1/2-z
1/2-x,1/2-y,-z
1/2+x,1/2-y,1/2+z
loop_
_atom_site_type_symbol
_atom_site_label
_atom_site_fract_x
_atom_site_fract_y
_atom_site_fract_z
Si Si1 0.954569 0.221435 0.643287
Si Si2 0.710944 0.590656 0.974609
Si Si3 0.804190 0.958968 0.607836
Si Si4 0.136685 0.584529 0.152762
Si Si5 0.500000 0.797258 0.250000
Si Si6 0.309618 0.284923 0.750258
Si Si7 0.614960 0.561923 0.078374
Si Si8 0.667615 0.354981 0.991942
O O1 0.750000 0.250000 0.500000
O O2 0.943591 0.146187 0.627054
O O3 0.000000 0.236849 0.750000
O O4 0.148962 0.251865 0.713511
O O5 0.656556 0.525414 0.908096
O O6 0.731617 0.583384 0.070828
O O7 0.921653 0.608701 0.056798
O O8 0.639668 0.959293 0.583367
O O9 0.769123 0.905836 0.531913
O O10 0.000000 0.936743 0.750000
O O11 0.253653 0.646265 0.196082
O O12 0.235673 0.550734 0.274742
O O13 0.676637 0.757149 0.311657
O O14 0.610629 0.838350 0.367390
O O15 0.535668 0.293925 0.900894
O O16 0.454059 0.614091 0.009240
O O17 0.500000 0.500000 0.000000
#
# Coordination Sequence:
#
# PCOD8152588 Si02
#       8
#     8   8   8   8   4   8   8   8
#     4  12  29  47  75 107 149 196 250 306 364 445
#     4  12  25  43  70 109 142 186 247 299 366 432
#     4  12  22  46  69 101 145 188 235 295 365 441
#     4  11  24  41  73 100 141 195 238 292 368 437
#     4  12  26  44  70 110 140 182 242 312 350 422
#     4  11  24  46  73 101 145 188 244 290 370 427
#     4  11  22  43  69 101 139 186 233 296 358 438
#     4  11  25  43  73 103 141 189 238 296 368 431
#
# _framework density 21.986263000000001
#
# number of rings (size 3 to 8) (size 9 to 14) (size 15 to 20)
#    0.000    0.533    5.333    3.200    5.600    2.133 
#    0.000    2.667    0.000    0.000    0.000    0.000 
#    0.000    0.000    0.000    0.000    0.000    0.000 
#
# Total GULP energy -371678.283352 kJ/mol
# GULP energy per Si atom -12389.276112 kJ/mol
# Density = 2.193622 g / cm^3
# Si number density = 21.986263 Si / 1000 Ang^3
#
#
#
# Elastic Constant Matrix: (Units=GPa)
#
#
# Indices 1 2 3 4 5 6 
#
# 1 143.4159 39.0373 34.7695 0.0005 -23.7324 0.0005
# 2 39.0373 107.6493 57.4501 0.0073 -17.3037 -0.0007
# 3 34.7695 57.4501 110.1615 -0.0092 -2.8806 0.0041
# 4 0.0005 0.0073 -0.0092 24.2926 -0.0007 -0.4964
# 5 -23.7324 -17.3037 -2.8806 -0.0007 33.9966 0.0007
# 6 0.0005 -0.0007 0.0041 -0.4964 0.0007 36.5862
#
#
#
# Elastic Compliance Matrix: (Units=1/GPa)
#
#
# Indices 1 2 3 4 5 6 
#
# 1 0.008652 -0.001264 -0.001935 0.000000 0.005232 0.000000
# 2 -0.001264 0.014404 -0.006960 -0.000007 0.005859 0.000001
# 3 -0.001935 -0.006960 0.013219 0.000007 -0.003773 -0.000001
# 4 0.000000 -0.000007 0.000007 0.041176 -0.000002 0.000559
# 5 0.005232 0.005859 -0.003773 -0.000002 0.035730 0.000000
# 6 0.000000 0.000001 -0.000001 0.000559 0.000000 0.027340
#
#
# Mechanical properties :
#
#
# Convention : Reuss Voigt Hill
#
# Bulk Modulus (GPa) = 62.66375 69.30451 65.98413
# Shear Modulus (GPa) = 30.09211 34.30639 32.19925
#
# Velocity S-wave (km/s) = 3.70358 3.95442 3.83105
# Velocity P-wave (km/s) = 6.84484 7.24155 7.04599
#
# Compressibility (1/GPa) = 0.01595819
#
# Stress axis : x y z
#
# Youngs Moduli (GPa) = 115.58518 69.42652 75.64840
#
# Poissons Ratio (x) = 0.08774 0.14636
# Poissons Ratio (y) = 0.14607 0.52648
# Poissons Ratio (z) = 0.22363 0.48318
#
# Static dielectric constant tensor:
#      x y z
#    x 3.804670 0.000060 0.258480 
#    y 0.000060 4.528650 -0.000040 
#    z 0.258480 -0.000040 3.690510 
# 
# 
# High freq. dielectric constant tensor:
#      x y z
#    x 1.883580 0.000000 -0.003870 
#    y 0.000000 1.873570 0.000000 
#    z -0.003870 0.000000 1.857990 
# 
# From -- ./inp_files/200549.got.cif
#   From: 2010.06.25/outbox.cif.g09.slc.cpg/sg15_101_cif.got.tgz:200549.got - 2010.06.28 07:06:18.
