data_PCOD8152706
_publ_section_title
;
Structure prediction by ZEFSAII (Michael W. Deem and Ramdas Pophale) SiO2 
 PCOD8152706
Probable space group: C 2/C
;
_chemical_formula_sum "Si O2"
_cell_formula_units_Z 44
_cell_length_a 8.388970
_cell_length_b 12.062203
_cell_length_c 20.854328
_cell_angle_alpha 90.000000
_cell_angle_beta 121.244932
_cell_angle_gamma 90.000000
_cell_volume 1804.164488
_symmetry_space_group_name_H-M "C 2/C"
_symmetry_group_IT_number 15
_symmetry_cell_setting 'monoclinic'
loop_
_space_group_symop_operation_xyz
x,y,z
-x,y,1/2-z
-x,-y,-z
x,-y,1/2+z
1/2+x,1/2+y,z
1/2-x,1/2+y,1/2-z
1/2-x,1/2-y,-z
1/2+x,1/2-y,1/2+z
loop_
_atom_site_type_symbol
_atom_site_label
_atom_site_fract_x
_atom_site_fract_y
_atom_site_fract_z
Si Si1 0.879866 0.460677 0.600893
Si Si2 0.860395 0.717453 0.391037
Si Si3 0.852428 0.094316 0.560599
Si Si4 0.996844 0.674295 0.557252
Si Si5 0.500000 0.330854 0.750000
Si Si6 0.608508 0.599744 0.143890
O O1 0.718392 0.394810 0.527291
O O2 0.887223 0.589195 0.581122
O O3 0.804406 0.449949 0.658059
O O4 0.073240 0.397722 0.627962
O O5 0.863609 0.710543 0.469620
O O6 0.650300 0.741087 0.322384
O O7 0.991155 0.814981 0.392414
O O8 0.674670 0.106981 0.568752
O O9 0.931644 0.972216 0.586251
O O10 0.073054 0.775628 0.613840
O O11 0.383496 0.404153 0.776926
#
# Coordination Sequence:
#
# PCOD8152706 Si02
#       6
#     8   8   8   8   4   8
#     4  11  22  44  79 108 134 185 237 304 365 410
#     4  11  23  48  71 107 150 185 240 294 364 424
#     4  11  22  45  76 108 140 181 233 307 359 416
#     4  11  23  46  81 108 140 180 242 309 348 426
#     4  12  30  46  62 104 152 198 242 292 354 446
#     4  12  26  47  69 109 141 187 244 293 365 420
#
# _framework density 24.388020999999998
#
# number of rings (size 3 to 8) (size 9 to 14) (size 15 to 20)
#    0.000    0.727    3.636    6.000    2.545    2.182 
#    6.545    0.000    0.000    0.000    0.000    0.000 
#    0.000    0.000    0.000    0.000    0.000    0.000 
#
# Total GULP energy -272814.265785 kJ/mol
# GULP energy per Si atom -12400.648445 kJ/mol
# Density = 2.433251 g / cm^3
# Si number density = 24.388021 Si / 1000 Ang^3
#
#
#
# Elastic Constant Matrix: (Units=GPa)
#
#
# Indices 1 2 3 4 5 6 
#
# 1 96.9960 35.4820 67.4744 0.0000 -29.3357 0.0000
# 2 35.4820 103.7850 21.0473 0.0000 -3.4443 0.0000
# 3 67.4744 21.0473 74.5503 0.0000 -2.7581 0.0000
# 4 0.0000 0.0000 0.0000 14.9557 0.0000 5.0875
# 5 -29.3357 -3.4443 -2.7581 0.0000 53.7903 0.0000
# 6 0.0000 0.0000 0.0000 5.0875 0.0000 42.5223
#
#
#
# Elastic Compliance Matrix: (Units=1/GPa)
#
#
# Indices 1 2 3 4 5 6 
#
# 1 0.049566 -0.007660 -0.041796 0.000000 0.024398 0.000000
# 2 -0.007660 0.011418 0.003588 0.000000 -0.003262 0.000000
# 3 -0.041796 0.003588 0.049489 0.000000 -0.020027 0.000000
# 4 0.000000 0.000000 0.000000 0.069701 0.000000 -0.008339
# 5 0.024398 -0.003262 -0.020027 0.000000 0.030661 0.000000
# 6 0.000000 0.000000 0.000000 -0.008339 0.000000 0.024515
#
#
# Mechanical properties :
#
#
# Convention : Reuss Voigt Hill
#
# Bulk Modulus (GPa) = 53.36809 58.14875 55.75842
# Shear Modulus (GPa) = 15.00015 32.34219 23.67117
#
# Velocity S-wave (km/s) = 2.48274 3.64559 3.11884
# Velocity P-wave (km/s) = 5.49082 6.45099 5.99017
#
# Compressibility (1/GPa) = 0.01873779
#
# Stress axis : x y z
#
# Youngs Moduli (GPa) = 20.17516 87.58079 20.20660
#
# Poissons Ratio (x) = 0.67085 0.84456
# Poissons Ratio (y) = 0.15454 -0.07251
# Poissons Ratio (z) = 0.84324 -0.31428
#
# Static dielectric constant tensor:
#      x y z
#    x 4.751460 0.000000 -0.233320 
#    y 0.000000 4.216960 0.000000 
#    z -0.233320 0.000000 4.178200 
# 
# 
# High freq. dielectric constant tensor:
#      x y z
#    x 1.996440 0.000000 -0.005110 
#    y 0.000000 1.967400 0.000000 
#    z -0.005110 0.000000 1.934560 
# 
# From -- ./inp_files/263612.got.cif
#   From: 2010.06.25/outbox.cif.g09.slc.cpg/sg15_132_cif.got.tgz:263612.got - 2010.06.28 07:06:18.
