data_PCOD8152327
_publ_section_title
;
Structure prediction by ZEFSAII (Michael W. Deem and Ramdas Pophale) SiO2 
 PCOD8152327
Probable space group: C 2/C
;
_chemical_formula_sum "Si O2"
_cell_formula_units_Z 48
_cell_length_a 12.840777
_cell_length_b 21.511074
_cell_length_c 12.183769
_cell_angle_alpha 90.000000
_cell_angle_beta 43.697945
_cell_angle_gamma 90.000000
_cell_volume 2324.999641
_symmetry_space_group_name_H-M "C 2/C"
_symmetry_group_IT_number 15
_symmetry_cell_setting 'monoclinic'
loop_
_space_group_symop_operation_xyz
x,y,z
-x,y,1/2-z
-x,-y,-z
x,-y,1/2+z
1/2+x,1/2+y,z
1/2-x,1/2+y,1/2-z
1/2-x,1/2-y,-z
1/2+x,1/2-y,1/2+z
loop_
_atom_site_type_symbol
_atom_site_label
_atom_site_fract_x
_atom_site_fract_y
_atom_site_fract_z
Si Si1 0.840708 0.349481 0.195880
Si Si2 0.168037 0.381010 0.888753
Si Si3 0.153254 0.770393 0.675534
Si Si4 0.178558 0.440661 0.105772
Si Si5 0.675189 0.919785 0.644397
Si Si6 0.176894 0.187792 0.605045
O O1 0.897908 0.290488 0.220211
O O2 0.758638 0.399540 0.339790
O O3 0.726467 0.327169 0.190629
O O4 0.987368 0.378365 0.027282
O O5 0.248630 0.314154 0.819866
O O6 0.207526 0.418290 0.749413
O O7 0.234420 0.414162 0.946624
O O8 0.250000 0.750000 0.500000
O O9 0.000000 0.803628 0.750000
O O10 0.230416 0.511870 0.067899
O O11 0.000000 0.435074 0.250000
O O12 0.500000 0.907174 0.750000
O O13 0.780330 0.869896 0.504675
O O14 0.250000 0.250000 0.500000
O O15 0.000000 0.198310 0.750000
#
# Coordination Sequence:
#
# PCOD8152327 Si02
#       6
#     8   8   8   8   8   8
#     4  11  22  40  68  94 133 169 219 271 322 386
#     4  11  22  41  66  98 133 167 219 271 321 385
#     4  12  22  38  63  96 131 165 213 268 328 383
#     4   9  21  38  67 102 127 171 220 269 319 379
#     4  11  23  42  71  99 127 173 222 266 322 384
#     4  12  28  46  67  96 134 174 219 268 329 394
#
# _framework density 20.645166
#
# number of rings (size 3 to 8) (size 9 to 14) (size 15 to 20)
#    0.000    1.000    5.000    2.000    4.667    3.333 
#    0.000    1.667    0.000    0.000    0.000    0.000 
#    0.000    0.000    0.000    0.000    0.000    0.000 
#
# Total GULP energy -297620.697169 kJ/mol
# GULP energy per Si atom -12400.862382 kJ/mol
# Density = 2.059818 g / cm^3
# Si number density = 20.645166 Si / 1000 Ang^3
#
#
#
# Elastic Constant Matrix: (Units=GPa)
#
#
# Indices 1 2 3 4 5 6 
#
# 1 115.7420 39.5639 53.2302 0.0000 14.5538 0.0000
# 2 39.5639 142.7148 48.4419 0.0000 11.7863 0.0000
# 3 53.2302 48.4419 95.4550 0.0000 10.2384 0.0000
# 4 0.0000 0.0000 0.0000 26.0736 0.0000 1.7545
# 5 14.5538 11.7863 10.2384 0.0000 41.1138 0.0000
# 6 0.0000 0.0000 0.0000 1.7545 0.0000 30.0728
#
#
#
# Elastic Compliance Matrix: (Units=1/GPa)
#
#
# Indices 1 2 3 4 5 6 
#
# 1 0.012041 -0.001141 -0.005870 0.000000 -0.002473 0.000000
# 2 -0.001141 0.008652 -0.003628 0.000000 -0.001173 0.000000
# 3 -0.005870 -0.003628 0.015675 0.000000 -0.000785 0.000000
# 4 0.000000 0.000000 0.000000 0.038504 0.000000 -0.002246
# 5 -0.002473 -0.001173 -0.000785 0.000000 0.025730 0.000000
# 6 0.000000 0.000000 0.000000 -0.002246 0.000000 0.033384
#
#
# Mechanical properties :
#
#
# Convention : Reuss Voigt Hill
#
# Bulk Modulus (GPa) = 66.27681 70.70932 68.49306
# Shear Modulus (GPa) = 31.19263 33.63043 32.41153
#
# Velocity S-wave (km/s) = 3.89124 4.04043 3.96654
# Velocity P-wave (km/s) = 7.23612 7.48939 7.36385
#
# Compressibility (1/GPa) = 0.01508823
#
# Stress axis : x y z
#
# Youngs Moduli (GPa) = 83.05200 115.58261 63.79522
#
# Poissons Ratio (x) = 0.13191 0.37448
# Poissons Ratio (y) = 0.09478 0.23148
# Poissons Ratio (z) = 0.48751 0.41939
#
# Static dielectric constant tensor:
#      x y z
#    x 3.434420 0.000000 0.459420 
#    y 0.000000 4.230680 0.000000 
#    z 0.459420 0.000000 3.449310 
# 
# 
# High freq. dielectric constant tensor:
#      x y z
#    x 1.801750 0.000000 0.023990 
#    y 0.000000 1.813430 0.000000 
#    z 0.023990 0.000000 1.802090 
# 
# From -- ./inp_files/89386.got.cif
#   From: 2010.06.25/outbox.cif.g09.slc.cpg/sg15_45_cif.got.tgz:89386.got - 2010.06.28 07:06:18.
