data_PCOD8152758
_publ_section_title
;
Structure prediction by ZEFSAII (Michael W. Deem and Ramdas Pophale) SiO2 
 PCOD8152758
Probable space group: C 2/C
;
_chemical_formula_sum "Si O2"
_cell_formula_units_Z 60
_cell_length_a 10.837710
_cell_length_b 8.726857
_cell_length_c 29.230548
_cell_angle_alpha 90.000000
_cell_angle_beta 110.080454
_cell_angle_gamma 90.000000
_cell_volume 2596.544165
_symmetry_space_group_name_H-M "C 2/C"
_symmetry_group_IT_number 15
_symmetry_cell_setting 'monoclinic'
loop_
_space_group_symop_operation_xyz
x,y,z
-x,y,1/2-z
-x,-y,-z
x,-y,1/2+z
1/2+x,1/2+y,z
1/2-x,1/2+y,1/2-z
1/2-x,1/2-y,-z
1/2+x,1/2-y,1/2+z
loop_
_atom_site_type_symbol
_atom_site_label
_atom_site_fract_x
_atom_site_fract_y
_atom_site_fract_z
Si Si1 0.635627 0.298736 0.375222
Si Si2 0.637989 0.709875 0.215556
Si Si3 0.367866 0.175589 0.486294
Si Si4 0.500000 0.071206 0.750000
Si Si5 0.213714 0.014658 0.803338
Si Si6 0.230290 0.477259 0.833420
Si Si7 0.841739 0.335512 0.476105
Si Si8 0.138877 0.278732 0.621014
O O1 0.616282 0.418299 0.330559
O O2 0.761941 0.356278 0.419228
O O3 0.505893 0.289819 0.389356
O O4 0.667971 0.124423 0.365071
O O5 0.511940 0.819812 0.206171
O O6 0.752517 0.837479 0.223148
O O7 0.646168 0.611894 0.263140
O O8 0.637052 0.602928 0.170345
O O9 0.250000 0.250000 0.500000
O O10 0.514966 0.245726 0.514795
O O11 0.338197 0.186087 0.428881
O O12 0.371661 0.999499 0.502511
O O13 0.629634 0.972201 0.776689
O O14 0.335968 0.928833 0.844351
O O15 0.256735 0.646951 0.853523
O O16 0.750000 0.250000 0.500000
#
# Coordination Sequence:
#
# PCOD8152758 Si02
#       8
#     8   8   8   4   8   8   8   8
#     4  11  26  44  72 101 138 183 232 292 345 423
#     4  11  23  43  64  94 132 179 226 279 342 403
#     4  11  27  46  74 106 142 186 230 296 361 431
#     4  12  22  42  64  88 138 174 222 276 342 392
#     4  11  22  46  65  98 138 177 232 286 342 407
#     4  11  27  42  65 100 132 184 227 284 342 411
#     4  11  24  49  71 103 144 184 228 292 366 425
#     4  12  24  46  69 104 138 176 240 286 348 422
#
# _framework density 23.107637
#
# number of rings (size 3 to 8) (size 9 to 14) (size 15 to 20)
#    0.000    0.800    5.333    0.800    3.733    1.600 
#    4.800    0.000    0.000    0.000    0.000    0.000 
#    0.000    0.000    0.000    0.000    0.000    0.000 
#
# Total GULP energy -371659.534121 kJ/mol
# GULP energy per Si atom -12388.651137 kJ/mol
# Density = 2.305504 g / cm^3
# Si number density = 23.107637 Si / 1000 Ang^3
#
#
#
# Elastic Constant Matrix: (Units=GPa)
#
#
# Indices 1 2 3 4 5 6 
#
# 1 139.2145 39.7033 27.7509 0.0000 -9.7305 0.0000
# 2 39.7033 103.8577 30.6157 0.0000 -8.5611 0.0000
# 3 27.7509 30.6157 76.1480 0.0000 -7.0501 0.0000
# 4 0.0000 0.0000 0.0000 31.8564 0.0000 -10.2464
# 5 -9.7305 -8.5611 -7.0501 0.0000 36.4820 0.0000
# 6 0.0000 0.0000 0.0000 -10.2464 0.0000 27.6991
#
#
#
# Elastic Compliance Matrix: (Units=1/GPa)
#
#
# Indices 1 2 3 4 5 6 
#
# 1 0.008376 -0.002532 -0.001917 0.000000 0.001269 0.000000
# 2 -0.002532 0.011799 -0.003693 0.000000 0.001380 0.000000
# 3 -0.001917 -0.003693 0.015465 0.000000 0.001611 0.000000
# 4 0.000000 0.000000 0.000000 0.035630 0.000000 0.013180
# 5 0.001269 0.001380 0.001611 0.000000 0.028384 0.000000
# 6 0.000000 0.000000 0.000000 0.013180 0.000000 0.040978
#
#
# Mechanical properties :
#
#
# Convention : Reuss Voigt Hill
#
# Bulk Modulus (GPa) = 51.66587 57.26224 54.46405
# Shear Modulus (GPa) = 30.60547 33.95085 32.27816
#
# Velocity S-wave (km/s) = 3.64328 3.83724 3.74152
# Velocity P-wave (km/s) = 6.33288 6.66835 6.50278
#
# Compressibility (1/GPa) = 0.01935514
#
# Stress axis : x y z
#
# Youngs Moduli (GPa) = 119.38550 84.75217 64.66256
#
# Poissons Ratio (x) = 0.21463 0.12395
# Poissons Ratio (y) = 0.30233 0.23882
# Poissons Ratio (z) = 0.22885 0.31301
#
# Static dielectric constant tensor:
#      x y z
#    x 4.166800 0.000000 -0.117510 
#    y 0.000000 4.325340 0.000000 
#    z -0.117510 0.000000 4.131390 
# 
# 
# High freq. dielectric constant tensor:
#      x y z
#    x 1.920670 0.000000 -0.017000 
#    y 0.000000 1.925430 0.000000 
#    z -0.017000 0.000000 1.895050 
# 
# From -- ./inp_files/310344.got.cif
#   From: 2010.06.25/outbox.cif.g09.slc.cpg/sg15_156_cif.got.tgz:310344.got - 2010.06.28 07:06:18.
