data_PCOD8152918
_publ_section_title
;
Structure prediction by ZEFSAII (Michael W. Deem and Ramdas Pophale) SiO2 
 PCOD8152918
Probable space group: C 2/C
;
_chemical_formula_sum "Si O2"
_cell_formula_units_Z 48
_cell_length_a 11.248547
_cell_length_b 15.327397
_cell_length_c 24.055488
_cell_angle_alpha 90.000000
_cell_angle_beta 146.778640
_cell_angle_gamma 90.000000
_cell_volume 2272.273452
_symmetry_space_group_name_H-M "C 2/C"
_symmetry_group_IT_number 15
_symmetry_cell_setting 'monoclinic'
loop_
_space_group_symop_operation_xyz
x,y,z
-x,y,1/2-z
-x,-y,-z
x,-y,1/2+z
1/2+x,1/2+y,z
1/2-x,1/2+y,1/2-z
1/2-x,1/2-y,-z
1/2+x,1/2-y,1/2+z
loop_
_atom_site_type_symbol
_atom_site_label
_atom_site_fract_x
_atom_site_fract_y
_atom_site_fract_z
Si Si1 0.500000 0.406859 0.750000
Si Si2 0.277381 0.744993 0.102252
Si Si3 0.809034 0.521599 0.799515
Si Si4 0.916406 0.701481 0.876083
Si Si5 0.000000 0.290413 0.750000
Si Si6 0.802307 0.566375 0.099043
Si Si7 0.167065 0.912802 0.125682
O O1 0.676268 0.346879 0.850029
O O2 0.611833 0.469668 0.749217
O O3 0.475390 0.767152 0.138789
O O4 0.256153 0.819272 0.140815
O O5 0.052239 0.739108 0.980854
O O6 0.909462 0.596501 0.878209
O O7 0.727638 0.570902 0.712683
O O8 0.996580 0.451436 0.862453
O O9 0.666938 0.733036 0.779460
O O10 0.848002 0.346906 0.650964
O O11 0.778037 0.485515 0.131061
O O12 0.591630 0.581423 0.979498
#
# Coordination Sequence:
#
# PCOD8152918 Si02
#       7
#     4   8   8   8   4   8   8
#     4  12  29  43  68  98 144 178 222 275 345 398
#     4  11  24  46  69 103 131 183 224 278 336 408
#     4  12  25  46  66  99 135 183 217 278 334 405
#     4  11  25  42  73  96 142 176 224 276 342 399
#     4  12  21  43  62 106 132 176 222 279 329 392
#     4  11  23  40  72 100 132 169 229 281 323 396
#     4  11  23  43  71 101 129 175 230 276 332 391
#
# _framework density 21.124219
#
# number of rings (size 3 to 8) (size 9 to 14) (size 15 to 20)
#    0.000    0.667    5.000    2.500    2.333    0.667 
#    3.000    1.667    0.000    0.000    0.000    0.000 
#    0.000    0.000    0.000    0.000    0.000    0.000 
#
# Total GULP energy -297734.090414 kJ/mol
# GULP energy per Si atom -12405.587101 kJ/mol
# Density = 2.107614 g / cm^3
# Si number density = 21.124219 Si / 1000 Ang^3
#
#
#
# Elastic Constant Matrix: (Units=GPa)
#
#
# Indices 1 2 3 4 5 6 
#
# 1 116.5417 52.6258 56.7650 0.0001 15.9627 0.0000
# 2 52.6258 91.1526 24.9669 -0.0003 -3.1272 -0.0001
# 3 56.7650 24.9669 95.5770 0.0002 11.0367 0.0000
# 4 0.0001 -0.0003 0.0002 48.7357 -0.0002 4.0446
# 5 15.9627 -3.1272 11.0367 -0.0002 22.9917 -0.0001
# 6 0.0000 -0.0001 0.0000 4.0446 -0.0001 40.8671
#
#
#
# Elastic Compliance Matrix: (Units=1/GPa)
#
#
# Indices 1 2 3 4 5 6 
#
# 1 0.016926 -0.008242 -0.006790 0.000000 -0.009614 0.000000
# 2 -0.008242 0.016067 -0.000227 0.000000 0.008017 0.000000
# 3 -0.006790 -0.000227 0.014836 0.000000 -0.002439 0.000000
# 4 0.000000 0.000000 0.000000 0.020689 0.000000 -0.002048
# 5 -0.009614 0.008017 -0.002439 0.000000 0.052430 0.000000
# 6 0.000000 0.000000 0.000000 -0.002048 0.000000 0.024672
#
#
# Mechanical properties :
#
#
# Convention : Reuss Voigt Hill
#
# Bulk Modulus (GPa) = 57.76890 63.55407 60.66148
# Shear Modulus (GPa) = 27.48625 33.77980 30.63302
#
# Velocity S-wave (km/s) = 3.61109 4.00322 3.81220
# Velocity P-wave (km/s) = 6.69277 7.17766 6.93946
#
# Compressibility (1/GPa) = 0.01731035
#
# Stress axis : x y z
#
# Youngs Moduli (GPa) = 59.07906 62.24098 67.40203
#
# Poissons Ratio (x) = 0.51301 0.45764
# Poissons Ratio (y) = 0.48695 0.01533
# Poissons Ratio (z) = 0.40113 0.01415
#
# Static dielectric constant tensor:
#      x y z
#    x 3.733250 0.000000 0.108310 
#    y 0.000000 3.864020 0.000000 
#    z 0.108310 0.000000 3.831420 
# 
# 
# High freq. dielectric constant tensor:
#      x y z
#    x 1.822970 0.000000 0.011560 
#    y 0.000000 1.837260 0.000000 
#    z 0.011560 0.000000 1.839280 
# 
# From -- ./inp_files/182477.got.cif
#   From: 2010.06.25/outbox.cif.g09.slc.cpg/sg15_92_cif.got.tgz:182477.got - 2010.06.28 07:06:18.
