data_PCOD8152703
_publ_section_title
;
Structure prediction by ZEFSAII (Michael W. Deem and Ramdas Pophale) SiO2 
 PCOD8152703
Probable space group: C 2/C
;
_chemical_formula_sum "Si O2"
_cell_formula_units_Z 64
_cell_length_a 13.823023
_cell_length_b 11.653137
_cell_length_c 26.701683
_cell_angle_alpha 90.000000
_cell_angle_beta 140.077677
_cell_angle_gamma 90.000000
_cell_volume 2760.256021
_symmetry_space_group_name_H-M "C 2/C"
_symmetry_group_IT_number 15
_symmetry_cell_setting 'monoclinic'
loop_
_space_group_symop_operation_xyz
x,y,z
-x,y,1/2-z
-x,-y,-z
x,-y,1/2+z
1/2+x,1/2+y,z
1/2-x,1/2+y,1/2-z
1/2-x,1/2-y,-z
1/2+x,1/2-y,1/2+z
loop_
_atom_site_type_symbol
_atom_site_label
_atom_site_fract_x
_atom_site_fract_y
_atom_site_fract_z
Si Si1 0.423000 0.930852 0.834982
Si Si2 0.617334 0.457557 0.213645
Si Si3 0.365395 0.765984 0.725932
Si Si4 0.414738 0.659142 0.166295
Si Si5 0.428541 0.315591 0.949322
Si Si6 0.084425 0.392875 0.555361
Si Si7 0.387238 0.085820 0.658592
Si Si8 0.934242 0.050659 0.916128
O O1 0.340293 0.836400 0.766972
O O2 0.465021 0.875786 0.905901
O O3 0.294184 0.024492 0.793241
O O4 0.566051 0.993181 0.865809
O O5 0.575674 0.362093 0.237997
O O6 0.516487 0.572237 0.174802
O O7 0.594112 0.400428 0.150020
O O8 0.500000 0.829091 0.750000
O O9 0.227190 0.763738 0.632373
O O10 0.500000 0.689887 0.250000
O O11 0.262804 0.591820 0.120605
O O12 0.390390 0.786882 0.133380
O O13 0.480366 0.415332 0.931136
O O14 0.544838 0.212883 0.003254
O O15 0.427683 0.379891 0.003483
O O16 0.000000 0.500000 0.500000
O O17 0.500000 0.074175 0.750000
O O18 0.219005 0.060603 0.611598
#
# Coordination Sequence:
#
# PCOD8152703 Si02
#       8
#     8   8   8   8   8   8   8   8
#     4  12  25  45  76 107 139 195 250 289 366 435
#     4  12  25  43  75 106 139 194 245 297 358 443
#     4  12  27  47  73 106 146 188 248 299 363 443
#     4  11  25  45  72 103 143 192 244 292 363 437
#     4  11  24  46  73 102 149 192 230 313 367 424
#     4  12  27  49  71 108 154 191 235 312 374 432
#     4  11  22  44  76 106 140 188 250 305 348 439
#     4  11  23  47  75 107 146 187 246 302 371 426
#
# _framework density 23.186254999999999
#
# number of rings (size 3 to 8) (size 9 to 14) (size 15 to 20)
#    0.000    0.500    5.000    3.000    3.500    1.000 
#    6.750    4.375    0.000    0.000    0.000    0.000 
#    0.000    0.000    0.000    0.000    0.000    0.000 
#
# Total GULP energy -396484.486653 kJ/mol
# GULP energy per Si atom -12390.140208 kJ/mol
# Density = 2.313348 g / cm^3
# Si number density = 23.186255 Si / 1000 Ang^3
#
#
#
# Elastic Constant Matrix: (Units=GPa)
#
#
# Indices 1 2 3 4 5 6 
#
# 1 97.4842 26.5912 42.5095 0.0000 -1.5493 0.0000
# 2 26.5912 119.6069 40.1765 0.0000 0.1735 0.0000
# 3 42.5095 40.1765 133.9061 0.0000 -7.3954 0.0000
# 4 0.0000 0.0000 0.0000 44.7843 0.0000 1.2975
# 5 -1.5493 0.1735 -7.3954 0.0000 16.1848 0.0000
# 6 0.0000 0.0000 0.0000 1.2975 0.0000 27.5469
#
#
#
# Elastic Compliance Matrix: (Units=1/GPa)
#
#
# Indices 1 2 3 4 5 6 
#
# 1 0.012166 -0.001557 -0.003416 0.000000 -0.000380 0.000000
# 2 -0.001557 0.009528 -0.002440 0.000000 -0.001366 0.000000
# 3 -0.003416 -0.002440 0.009508 0.000000 0.004044 0.000000
# 4 0.000000 0.000000 0.000000 0.022360 0.000000 -0.001053
# 5 -0.000380 -0.001366 0.004044 0.000000 0.063612 0.000000
# 6 0.000000 0.000000 0.000000 -0.001053 0.000000 0.036351
#
#
# Mechanical properties :
#
#
# Convention : Reuss Voigt Hill
#
# Bulk Modulus (GPa) = 61.06300 63.28351 62.17326
# Shear Modulus (GPa) = 28.76686 33.81786 31.29236
#
# Velocity S-wave (km/s) = 3.52616 3.82321 3.67769
# Velocity P-wave (km/s) = 6.55526 6.84413 6.70125
#
# Compressibility (1/GPa) = 0.01637653
#
# Stress axis : x y z
#
# Youngs Moduli (GPa) = 82.19380 104.94883 105.17632
#
# Poissons Ratio (x) = 0.16338 0.35930
# Poissons Ratio (y) = 0.12796 0.25664
# Poissons Ratio (z) = 0.28079 0.25609
#
# Static dielectric constant tensor:
#      x y z
#    x 3.898590 0.000000 -0.107080 
#    y 0.000000 4.563270 0.000000 
#    z -0.107080 0.000000 4.307640 
# 
# 
# High freq. dielectric constant tensor:
#      x y z
#    x 1.887280 0.000000 -0.003880 
#    y 0.000000 1.933760 0.000000 
#    z -0.003880 0.000000 1.925480 
# 
# From -- ./inp_files/296155.got.cif
#   From: 2010.06.25/outbox.cif.g09.slc.cpg/sg15_149_cif.got.tgz:296155.got - 2010.06.28 07:06:18.
