data_PCOD8152714
_publ_section_title
;
Structure prediction by ZEFSAII (Michael W. Deem and Ramdas Pophale) SiO2 
 PCOD8152714
Probable space group: C 2/C
;
_chemical_formula_sum "Si O2"
_cell_formula_units_Z 56
_cell_length_a 19.823199
_cell_length_b 14.445955
_cell_length_c 8.786116
_cell_angle_alpha 90.000000
_cell_angle_beta 85.822872
_cell_angle_gamma 90.000000
_cell_volume 2509.352952
_symmetry_space_group_name_H-M "C 2/C"
_symmetry_group_IT_number 15
_symmetry_cell_setting 'monoclinic'
loop_
_space_group_symop_operation_xyz
x,y,z
-x,y,1/2-z
-x,-y,-z
x,-y,1/2+z
1/2+x,1/2+y,z
1/2-x,1/2+y,1/2-z
1/2-x,1/2-y,-z
1/2+x,1/2-y,1/2+z
loop_
_atom_site_type_symbol
_atom_site_label
_atom_site_fract_x
_atom_site_fract_y
_atom_site_fract_z
Si Si1 0.837348 0.582186 0.292275
Si Si2 0.440512 0.708662 0.479413
Si Si3 0.000000 0.345085 0.250000
Si Si4 0.924396 0.468650 0.061221
Si Si5 0.802543 0.758559 0.127475
Si Si6 0.793217 0.967084 0.118414
Si Si7 0.000000 0.101111 0.750000
Si Si8 0.386197 0.538150 0.331378
O O1 0.877139 0.551482 0.132065
O O2 0.888323 0.586863 0.428565
O O3 0.799494 0.680705 0.262496
O O4 0.780572 0.507816 0.346897
O O5 0.488528 0.785525 0.402456
O O6 0.373662 0.761078 0.538493
O O7 0.472030 0.664959 0.623102
O O8 0.425091 0.633503 0.351340
O O9 0.934517 0.404866 0.210720
O O10 0.000000 0.500000 0.000000
O O11 0.796284 0.863667 0.193606
O O12 0.750000 0.750000 0.000000
O O13 0.854979 0.030362 0.169501
O O14 0.816034 0.965330 0.939505
O O15 0.058324 0.042027 0.657742
#
# Coordination Sequence:
#
# PCOD8152714 Si02
#       8
#     8   8   4   8   8   8   4   8
#     4  12  25  47  75 102 143 192 235 299 360 421
#     4  11  26  42  68 104 139 182 228 289 354 419
#     4  12  27  42  69 108 138 178 240 295 337 436
#     4  12  25  47  72 105 143 185 239 295 359 422
#     4  11  24  46  73  98 139 186 233 289 357 419
#     4  11  25  45  71 101 135 185 234 290 345 436
#     4  12  23  44  69  98 144 186 222 293 359 420
#     4  11  22  45  68 100 141 178 231 280 354 420
#
# _framework density 22.316511999999999
#
# number of rings (size 3 to 8) (size 9 to 14) (size 15 to 20)
#    0.000    0.571    4.286    5.143    6.000    0.000 
#    0.000    1.429    0.000    0.000    0.000    0.000 
#    0.000    0.000    0.000    0.000    0.000    0.000 
#
# Total GULP energy -346985.526371 kJ/mol
# GULP energy per Si atom -12392.340228 kJ/mol
# Density = 2.226572 g / cm^3
# Si number density = 22.316512 Si / 1000 Ang^3
#
#
#
# Elastic Constant Matrix: (Units=GPa)
#
#
# Indices 1 2 3 4 5 6 
#
# 1 114.8613 35.9598 18.6306 0.0000 -0.5681 0.0000
# 2 35.9598 111.4737 35.5289 0.0000 3.0229 0.0000
# 3 18.6306 35.5289 53.6746 0.0000 14.3763 0.0000
# 4 0.0000 0.0000 0.0000 10.7077 0.0000 -20.9177
# 5 -0.5681 3.0229 14.3763 0.0000 54.6393 0.0000
# 6 0.0000 0.0000 0.0000 -20.9177 0.0000 17.4721
#
#
#
# Elastic Compliance Matrix: (Units=1/GPa)
#
#
# Indices 1 2 3 4 5 6 
#
# 1 0.009827 -0.002585 -0.001900 0.000000 0.000745 0.000000
# 2 -0.002585 0.012158 -0.007491 0.000000 0.001271 0.000000
# 3 -0.001900 -0.007491 0.025973 0.000000 -0.006439 0.000000
# 4 0.000000 0.000000 0.000000 -0.069759 0.000000 -0.083516
# 5 0.000745 0.001271 -0.006439 0.000000 0.019934 0.000000
# 6 0.000000 0.000000 0.000000 -0.083516 0.000000 -0.042752
#
#
# Mechanical properties :
#
#
# Convention : Reuss Voigt Hill
#
# Bulk Modulus (GPa) = 41.65367 51.13871 46.39619
# Shear Modulus (GPa) = -394.73880 29.22316 -182.75782
#
# Velocity S-wave (km/s) = -13.31413 3.62261 -9.05932
# Velocity P-wave (km/s) = 14.75294 6.36103 9.41240
#
# Compressibility (1/GPa) = 0.02400749
#
# Stress axis : x y z
#
# Youngs Moduli (GPa) = 101.75834 82.25332 38.50111
#
# Poissons Ratio (x) = 0.21262 0.07314
# Poissons Ratio (y) = 0.26303 0.28840
# Poissons Ratio (z) = 0.19330 0.61614
#
# Static dielectric constant tensor:
#      x y z
#    x -2.758050 0.000000 1.580170 
#    y 0.000000 4.347320 0.000000 
#    z 1.580170 0.000000 3.648650 
# 
# 
# High freq. dielectric constant tensor:
#      x y z
#    x 1.894530 0.000000 0.009890 
#    y 0.000000 1.880620 0.000000 
#    z 0.009890 0.000000 1.875030 
# 
# From -- ./inp_files/55667.got.cif
#   From: 2010.06.25/outbox.cif.g09.slc.cpg/sg15_28_cif.got.tgz:55667.got - 2010.06.28 07:06:18.
