data_PCOD8152435
_publ_section_title
;
Structure prediction by ZEFSAII (Michael W. Deem and Ramdas Pophale) SiO2 
 PCOD8152435
Probable space group: C 2/C
;
_chemical_formula_sum "Si O2"
_cell_formula_units_Z 40
_cell_length_a 15.676577
_cell_length_b 10.466303
_cell_length_c 11.798619
_cell_angle_alpha 90.000000
_cell_angle_beta 64.938214
_cell_angle_gamma 90.000000
_cell_volume 1753.608891
_symmetry_space_group_name_H-M "C 2/C"
_symmetry_group_IT_number 15
_symmetry_cell_setting 'monoclinic'
loop_
_space_group_symop_operation_xyz
x,y,z
-x,y,1/2-z
-x,-y,-z
x,-y,1/2+z
1/2+x,1/2+y,z
1/2-x,1/2+y,1/2-z
1/2-x,1/2-y,-z
1/2+x,1/2-y,1/2+z
loop_
_atom_site_type_symbol
_atom_site_label
_atom_site_fract_x
_atom_site_fract_y
_atom_site_fract_z
Si Si1 0.301349 0.744713 0.294932
Si Si2 0.764402 0.132292 0.074988
Si Si3 0.015141 0.306484 0.426297
Si Si4 0.570915 0.057694 0.110617
Si Si5 0.354057 0.387350 0.990125
O O1 0.267844 0.671185 0.202875
O O2 0.402652 0.810799 0.214412
O O3 0.315279 0.645211 0.388055
O O4 0.219024 0.843260 0.371516
O O5 0.673372 0.043867 0.106816
O O6 0.750000 0.250000 0.000000
O O7 0.855822 0.042831 0.996100
O O8 0.062819 0.327110 0.522837
O O9 0.944268 0.421934 0.441555
O O10 0.957065 0.173509 0.455102
O O11 0.500000 0.091374 0.250000
#
# Coordination Sequence:
#
# PCOD8152435 Si02
#       5
#     8   8   8   8   8
#     4  11  24  46  71 100 137 177 229 282 345 413
#     4  12  26  44  66 101 141 176 228 286 342 406
#     4  11  23  44  70 100 135 181 233 280 340 413
#     4  11  22  41  70 100 134 177 234 287 334 407
#     4  11  25  43  71 102 135 186 226 282 350 413
#
# _framework density 22.810103000000002
#
# number of rings (size 3 to 8) (size 9 to 14) (size 15 to 20)
#    0.000    0.800    2.000    6.600    2.800    4.000 
#    0.000    0.000    0.000    0.000    0.000    0.000 
#    0.000    0.000    0.000    0.000    0.000    0.000 
#
# Total GULP energy -248041.212209 kJ/mol
# GULP energy per Si atom -12402.060610 kJ/mol
# Density = 2.275819 g / cm^3
# Si number density = 22.810103 Si / 1000 Ang^3
#
#
#
# Elastic Constant Matrix: (Units=GPa)
#
#
# Indices 1 2 3 4 5 6 
#
# 1 104.8316 23.2320 15.1831 0.0000 5.3495 0.0000
# 2 23.2320 98.1259 32.2884 0.0000 7.1696 0.0000
# 3 15.1831 32.2884 117.0165 0.0000 4.3646 0.0000
# 4 0.0000 0.0000 0.0000 28.3199 0.0000 1.8098
# 5 5.3495 7.1696 4.3646 0.0000 49.7094 0.0000
# 6 0.0000 0.0000 0.0000 1.8098 0.0000 30.3978
#
#
#
# Elastic Compliance Matrix: (Units=1/GPa)
#
#
# Indices 1 2 3 4 5 6 
#
# 1 0.010148 -0.002117 -0.000705 0.000000 -0.000725 0.000000
# 2 -0.002117 0.011741 -0.002920 0.000000 -0.001209 0.000000
# 3 -0.000705 -0.002920 0.009455 0.000000 -0.000333 0.000000
# 4 0.000000 0.000000 0.000000 0.035446 0.000000 -0.002110
# 5 -0.000725 -0.001209 -0.000333 0.000000 0.020399 0.000000
# 6 0.000000 0.000000 0.000000 -0.002110 0.000000 0.033023
#
#
# Mechanical properties :
#
#
# Convention : Reuss Voigt Hill
#
# Bulk Modulus (GPa) = 50.35532 51.26455 50.80993
# Shear Modulus (GPa) = 36.14892 38.30346 37.22619
#
# Velocity S-wave (km/s) = 3.98524 4.10229 4.04419
# Velocity P-wave (km/s) = 6.58028 6.70535 6.64311
#
# Compressibility (1/GPa) = 0.01985888
#
# Stress axis : x y z
#
# Youngs Moduli (GPa) = 98.54643 85.16813 105.75896
#
# Poissons Ratio (x) = 0.18034 0.07460
# Poissons Ratio (y) = 0.20867 0.30881
# Poissons Ratio (z) = 0.06951 0.24869
#
# Static dielectric constant tensor:
#      x y z
#    x 4.438230 0.000000 0.070050 
#    y 0.000000 4.012580 0.000000 
#    z 0.070050 0.000000 4.176310 
# 
# 
# High freq. dielectric constant tensor:
#      x y z
#    x 1.911580 0.000000 0.009540 
#    y 0.000000 1.893860 0.000000 
#    z 0.009540 0.000000 1.907450 
# 
# From -- ./inp_files/94868.got.cif
#   From: 2010.06.25/outbox.cif.g09.slc.cpg/sg15_48_cif.got.tgz:94868.got - 2010.06.28 07:06:18.
