data_PCOD8152232
_publ_section_title
;
Structure prediction by ZEFSAII (Michael W. Deem and Ramdas Pophale) SiO2 
 PCOD8152232
Probable space group: C 2/C
;
_chemical_formula_sum "Si O2"
_cell_formula_units_Z 60
_cell_length_a 19.820505
_cell_length_b 11.960981
_cell_length_c 19.095488
_cell_angle_alpha 90.000000
_cell_angle_beta 38.378365
_cell_angle_gamma 90.000000
_cell_volume 2810.607692
_symmetry_space_group_name_H-M "C 2/C"
_symmetry_group_IT_number 15
_symmetry_cell_setting 'monoclinic'
loop_
_space_group_symop_operation_xyz
x,y,z
-x,y,1/2-z
-x,-y,-z
x,-y,1/2+z
1/2+x,1/2+y,z
1/2-x,1/2+y,1/2-z
1/2-x,1/2-y,-z
1/2+x,1/2-y,1/2+z
loop_
_atom_site_type_symbol
_atom_site_label
_atom_site_fract_x
_atom_site_fract_y
_atom_site_fract_z
Si Si1 0.630418 0.180273 0.531847
Si Si2 0.916663 0.149456 0.546349
Si Si3 0.963964 0.461819 0.950366
Si Si4 0.247484 0.827614 0.071611
Si Si5 0.331680 0.449439 0.836290
Si Si6 0.146836 0.699725 0.277839
Si Si7 0.500000 0.299268 0.750000
Si Si8 0.655638 0.567144 0.330240
O O1 0.638646 0.278741 0.468682
O O2 0.751170 0.134797 0.441665
O O3 0.588027 0.223298 0.640302
O O4 0.552034 0.080187 0.572915
O O5 0.916926 0.215805 0.619293
O O6 0.038728 0.124647 0.423703
O O7 0.846988 0.036068 0.613306
O O8 0.067513 0.404967 0.829800
O O9 0.859386 0.377777 0.017953
O O10 0.000000 0.500000 0.000000
O O11 0.175189 0.754886 0.182006
O O12 0.172279 0.935760 0.115986
O O13 0.250000 0.750000 0.000000
O O14 0.445531 0.385229 0.739817
O O15 0.302860 0.477366 0.779085
O O16 0.260469 0.661690 0.217280
#
# Coordination Sequence:
#
# PCOD8152232 Si02
#       8
#     8   8   8   8   8   8   4   8
#     4  11  24  43  66  96 134 171 223 285 341 415
#     4  11  22  39  66  98 129 168 223 288 348 402
#     4  11  24  44  72 102 131 174 236 282 333 414
#     4  11  27  46  66  99 143 180 225 283 352 427
#     4  11  23  44  65  93 133 178 229 275 347 423
#     4  12  23  40  72  97 130 178 223 286 350 407
#     4  12  26  40  66  94 132 180 216 276 352 416
#     4  11  23  39  66 102 131 165 231 291 342 413
#
# _framework density 21.347697
#
# number of rings (size 3 to 8) (size 9 to 14) (size 15 to 20)
#    0.000    0.800    5.333    2.000    0.000    5.867 
#    0.000    0.000    0.000    0.000    0.000    0.000 
#    0.000    0.000    0.000    0.000    0.000    0.000 
#
# Total GULP energy -371658.431661 kJ/mol
# GULP energy per Si atom -12388.614389 kJ/mol
# Density = 2.129911 g / cm^3
# Si number density = 21.347697 Si / 1000 Ang^3
#
#
#
# Elastic Constant Matrix: (Units=GPa)
#
#
# Indices 1 2 3 4 5 6 
#
# 1 64.6226 42.1156 30.4345 0.0000 6.8692 0.0000
# 2 42.1156 132.0914 57.9931 0.0000 5.9996 0.0000
# 3 30.4345 57.9931 130.2660 0.0000 12.2933 0.0000
# 4 0.0000 0.0000 0.0000 27.2560 0.0000 -3.7415
# 5 6.8692 5.9996 12.2933 0.0000 29.6832 0.0000
# 6 0.0000 0.0000 0.0000 -3.7415 0.0000 28.9087
#
#
#
# Elastic Compliance Matrix: (Units=1/GPa)
#
#
# Indices 1 2 3 4 5 6 
#
# 1 0.020279 -0.005437 -0.002058 0.000000 -0.002741 0.000000
# 2 -0.005437 0.010868 -0.003621 0.000000 0.000561 0.000000
# 3 -0.002058 -0.003621 0.010048 0.000000 -0.002953 0.000000
# 4 0.000000 0.000000 0.000000 0.037353 0.000000 0.004834
# 5 -0.002741 0.000561 -0.002953 0.000000 0.035433 0.000000
# 6 0.000000 0.000000 0.000000 0.004834 0.000000 0.035217
#
#
# Mechanical properties :
#
#
# Convention : Reuss Voigt Hill
#
# Bulk Modulus (GPa) = 52.73780 65.34070 59.03925
# Shear Modulus (GPa) = 28.12883 30.26538 29.19710
#
# Velocity S-wave (km/s) = 3.63389 3.76937 3.70225
# Velocity P-wave (km/s) = 6.50881 7.04404 6.78171
#
# Compressibility (1/GPa) = 0.01896173
#
# Stress axis : x y z
#
# Youngs Moduli (GPa) = 49.31218 92.00908 99.51918
#
# Poissons Ratio (x) = 0.50029 0.20486
# Poissons Ratio (y) = 0.26813 0.36037
# Poissons Ratio (z) = 0.10151 0.33318
#
# Static dielectric constant tensor:
#      x y z
#    x 3.596550 0.000000 -0.102560 
#    y 0.000000 4.257270 0.000000 
#    z -0.102560 0.000000 4.017900 
# 
# 
# High freq. dielectric constant tensor:
#      x y z
#    x 1.816790 0.000000 -0.006960 
#    y 0.000000 1.859880 0.000000 
#    z -0.006960 0.000000 1.850050 
# 
# From -- ./inp_files/215167.got.cif
#   From: 2010.06.25/outbox.cif.g09.slc.cpg/sg15_108_cif.got.tgz:215167.got - 2010.06.28 07:06:18.
