data_PCOD8152613
_publ_section_title
;
Structure prediction by ZEFSAII (Michael W. Deem and Ramdas Pophale) SiO2 
 PCOD8152613
Probable space group: C 2/C
;
_chemical_formula_sum "Si O2"
_cell_formula_units_Z 48
_cell_length_a 11.801830
_cell_length_b 20.909869
_cell_length_c 11.783394
_cell_angle_alpha 90.000000
_cell_angle_beta 130.931883
_cell_angle_gamma 90.000000
_cell_volume 2196.844002
_symmetry_space_group_name_H-M "C 2/C"
_symmetry_group_IT_number 15
_symmetry_cell_setting 'monoclinic'
loop_
_space_group_symop_operation_xyz
x,y,z
-x,y,1/2-z
-x,-y,-z
x,-y,1/2+z
1/2+x,1/2+y,z
1/2-x,1/2+y,1/2-z
1/2-x,1/2-y,-z
1/2+x,1/2-y,1/2+z
loop_
_atom_site_type_symbol
_atom_site_label
_atom_site_fract_x
_atom_site_fract_y
_atom_site_fract_z
Si Si1 0.149386 0.382725 0.668900
Si Si2 0.845833 0.070302 0.099742
Si Si3 0.308474 0.721837 0.419043
Si Si4 0.226461 0.942523 0.548077
Si Si5 0.440821 0.619414 0.929683
Si Si6 0.818305 0.361558 0.404625
O O1 0.263638 0.387560 0.639977
O O2 0.186874 0.318200 0.765339
O O3 0.167241 0.440720 0.771089
O O4 0.985144 0.389554 0.508672
O O5 0.000000 0.042809 0.250000
O O6 0.879779 0.117331 0.017459
O O7 0.745703 0.008654 0.999196
O O8 0.250000 0.750000 0.500000
O O9 0.468921 0.685574 0.533790
O O10 0.333577 0.788773 0.371822
O O11 0.257494 0.878107 0.492364
O O12 0.055206 0.938771 0.480020
O O13 0.298690 0.605730 0.756652
#
# Coordination Sequence:
#
# PCOD8152613 Si02
#       6
#     8   8   8   8   8   8
#     4  11  26  45  67 108 139 186 229 288 359 408
#     4  12  24  47  71  94 144 190 237 286 340 432
#     4  11  22  43  72 101 138 174 235 292 344 408
#     4  11  24  41  72  98 137 184 238 283 347 414
#     4  11  24  43  70 105 134 187 237 282 357 415
#     4  12  24  42  67 108 143 172 236 296 353 411
#
# _framework density 21.849526000000001
#
# number of rings (size 3 to 8) (size 9 to 14) (size 15 to 20)
#    0.000    0.667    6.667    3.500    2.333    2.667 
#    3.000    5.000    0.000    0.000    0.000    0.000 
#    0.000    0.000    0.000    0.000    0.000    0.000 
#
# Total GULP energy -297425.217136 kJ/mol
# GULP energy per Si atom -12392.717381 kJ/mol
# Density = 2.179980 g / cm^3
# Si number density = 21.849526 Si / 1000 Ang^3
#
#
#
# Elastic Constant Matrix: (Units=GPa)
#
#
# Indices 1 2 3 4 5 6 
#
# 1 95.5386 36.1292 28.1443 0.0000 -16.2597 0.0000
# 2 36.1292 92.8935 18.3814 0.0000 -6.5529 0.0000
# 3 28.1443 18.3814 103.2878 0.0000 13.7806 0.0000
# 4 0.0000 0.0000 0.0000 21.6537 0.0000 -5.5734
# 5 -16.2597 -6.5529 13.7806 0.0000 47.4479 0.0000
# 6 0.0000 0.0000 0.0000 -5.5734 0.0000 25.2810
#
#
#
# Elastic Compliance Matrix: (Units=1/GPa)
#
#
# Indices 1 2 3 4 5 6 
#
# 1 0.014147 -0.004376 -0.003789 0.000000 0.005344 0.000000
# 2 -0.004376 0.012737 -0.001154 0.000000 0.000595 0.000000
# 3 -0.003789 -0.001154 0.011562 0.000000 -0.004816 0.000000
# 4 0.000000 0.000000 0.000000 0.048960 0.000000 0.010793
# 5 0.005344 0.000595 -0.004816 0.000000 0.024388 0.000000
# 6 0.000000 0.000000 0.000000 0.010793 0.000000 0.041935
#
#
# Mechanical properties :
#
#
# Convention : Reuss Voigt Hill
#
# Bulk Modulus (GPa) = 50.48146 50.78108 50.63127
# Shear Modulus (GPa) = 27.93769 32.81418 30.37594
#
# Velocity S-wave (km/s) = 3.57969 3.87954 3.73263
# Velocity P-wave (km/s) = 6.34349 6.58480 6.46527
#
# Compressibility (1/GPa) = 0.01980925
#
# Stress axis : x y z
#
# Youngs Moduli (GPa) = 70.68390 78.51094 86.48955
#
# Poissons Ratio (x) = 0.34353 0.32774
# Poissons Ratio (y) = 0.30928 0.09979
# Poissons Ratio (z) = 0.26784 0.09059
#
# Static dielectric constant tensor:
#      x y z
#    x 3.862380 0.000000 -0.043840 
#    y 0.000000 4.071250 0.000000 
#    z -0.043840 0.000000 4.013270 
# 
# 
# High freq. dielectric constant tensor:
#      x y z
#    x 1.850090 0.000000 -0.001650 
#    y 0.000000 1.850180 0.000000 
#    z -0.001650 0.000000 1.866250 
# 
# From -- ./inp_files/89802.got.cif
#   From: 2010.06.25/outbox.cif.g09.slc.cpg/sg15_45_cif.got.tgz:89802.got - 2010.06.28 07:06:18.
