data_PCOD8152119
_publ_section_title
;
Structure prediction by ZEFSAII (Michael W. Deem and Ramdas Pophale) SiO2 
 PCOD8152119
Probable space group: C 2/C
;
_chemical_formula_sum "Si O2"
_cell_formula_units_Z 52
_cell_length_a 18.460452
_cell_length_b 19.962717
_cell_length_c 9.709908
_cell_angle_alpha 90.000000
_cell_angle_beta 136.165872
_cell_angle_gamma 90.000000
_cell_volume 2478.235820
_symmetry_space_group_name_H-M "C 2/C"
_symmetry_group_IT_number 15
_symmetry_cell_setting 'monoclinic'
loop_
_space_group_symop_operation_xyz
x,y,z
-x,y,1/2-z
-x,-y,-z
x,-y,1/2+z
1/2+x,1/2+y,z
1/2-x,1/2+y,1/2-z
1/2-x,1/2-y,-z
1/2+x,1/2-y,1/2+z
loop_
_atom_site_type_symbol
_atom_site_label
_atom_site_fract_x
_atom_site_fract_y
_atom_site_fract_z
Si Si1 0.674961 0.660523 0.871701
Si Si2 0.327639 0.822871 0.348439
Si Si3 0.745238 0.820011 0.724573
Si Si4 0.803203 0.896905 0.535224
Si Si5 0.458780 0.774175 0.941621
Si Si6 0.427674 0.524672 0.777636
Si Si7 0.500000 0.687417 0.250000
O O1 0.787641 0.668653 0.950907
O O2 0.601851 0.724421 0.743695
O O3 0.624927 0.593056 0.743431
O O4 0.686757 0.656814 0.051493
O O5 0.273647 0.755247 0.215347
O O6 0.453500 0.816676 0.519905
O O7 0.292592 0.885444 0.203142
O O8 0.769432 0.870929 0.637396
O O9 0.622684 0.824106 0.595869
O O10 0.899434 0.859038 0.595750
O O11 0.836338 0.973703 0.604450
O O12 0.517909 0.731667 0.139435
O O13 0.500000 0.542788 0.750000
O O14 0.500000 0.500000 0.000000
#
# Coordination Sequence:
#
# PCOD8152119 Si02
#       7
#     8   8   8   8   8   8   4
#     4  11  25  41  58  94 131 163 207 256 327 374
#     4  11  22  39  63  88 126 166 207 261 316 374
#     4  11  23  38  59  93 127 163 205 263 324 370
#     4  12  22  40  62  92 126 164 208 254 314 375
#     4  11  22  37  64  90 125 160 206 258 316 380
#     4  12  25  41  64  92 126 170 211 257 313 380
#     4  12  18  36  60  90 120 152 200 250 308 374
#
# _framework density 20.982668
#
# number of rings (size 3 to 8) (size 9 to 14) (size 15 to 20)
#    0.000    0.615    5.385    6.000    2.154    1.846 
#    0.000    0.000    0.000    5.538    0.000    0.000 
#    0.000    0.000    0.000    0.000    0.000    0.000 
#
# Total GULP energy -322475.999314 kJ/mol
# GULP energy per Si atom -12402.923051 kJ/mol
# Density = 2.093491 g / cm^3
# Si number density = 20.982668 Si / 1000 Ang^3
#
#
#
# Elastic Constant Matrix: (Units=GPa)
#
#
# Indices 1 2 3 4 5 6 
#
# 1 127.6440 40.6692 32.9628 0.0000 20.6438 0.0000
# 2 40.6692 80.0918 12.6738 0.0000 11.8918 0.0000
# 3 32.9628 12.6738 67.6011 0.0000 -2.7353 0.0000
# 4 0.0000 0.0000 0.0000 27.2126 0.0000 -1.0069
# 5 20.6438 11.8918 -2.7353 0.0000 39.5512 0.0000
# 6 0.0000 0.0000 0.0000 -1.0069 0.0000 23.6239
#
#
#
# Elastic Compliance Matrix: (Units=1/GPa)
#
#
# Indices 1 2 3 4 5 6 
#
# 1 0.011233 -0.004197 -0.004890 0.000000 -0.004940 0.000000
# 2 -0.004197 0.015115 -0.000885 0.000000 -0.002415 0.000000
# 3 -0.004890 -0.000885 0.017506 0.000000 0.004029 0.000000
# 4 0.000000 0.000000 0.000000 0.036806 0.000000 0.001569
# 5 -0.004940 -0.002415 0.004029 0.000000 0.028867 0.000000
# 6 0.000000 0.000000 0.000000 0.001569 0.000000 0.042397
#
#
# Mechanical properties :
#
#
# Convention : Reuss Voigt Hill
#
# Bulk Modulus (GPa) = 41.82330 49.77205 45.79768
# Shear Modulus (GPa) = 27.80262 30.67962 29.24112
#
# Velocity S-wave (km/s) = 3.64404 3.82794 3.73712
# Velocity P-wave (km/s) = 6.13848 6.58100 6.36359
#
# Compressibility (1/GPa) = 0.02391012
#
# Stress axis : x y z
#
# Youngs Moduli (GPa) = 89.02161 66.15757 57.12234
#
# Poissons Ratio (x) = 0.27765 0.27936
# Poissons Ratio (y) = 0.37360 0.05056
# Poissons Ratio (z) = 0.43536 0.05856
#
# Static dielectric constant tensor:
#      x y z
#    x 3.938110 0.000000 0.069350 
#    y 0.000000 3.658970 0.000000 
#    z 0.069350 0.000000 3.661720 
# 
# 
# High freq. dielectric constant tensor:
#      x y z
#    x 1.839230 0.000000 -0.012700 
#    y 0.000000 1.786590 0.000000 
#    z -0.012700 0.000000 1.820610 
# 
# From -- ./inp_files/50709.got.cif
#   From: 2010.06.25/outbox.cif.g09.slc.cpg/sg15_26_cif.got.tgz:50709.got - 2010.06.28 07:06:18.
