data_PCOD8152874
_publ_section_title
;
Structure prediction by ZEFSAII (Michael W. Deem and Ramdas Pophale) SiO2 
 PCOD8152874
Probable space group: C 2/C
;
_chemical_formula_sum "Si O2"
_cell_formula_units_Z 60
_cell_length_a 21.474122
_cell_length_b 5.085098
_cell_length_c 23.326947
_cell_angle_alpha 90.000000
_cell_angle_beta 92.106239
_cell_angle_gamma 90.000000
_cell_volume 2545.535372
_symmetry_space_group_name_H-M "C 2/C"
_symmetry_group_IT_number 15
_symmetry_cell_setting 'monoclinic'
loop_
_space_group_symop_operation_xyz
x,y,z
-x,y,1/2-z
-x,-y,-z
x,-y,1/2+z
1/2+x,1/2+y,z
1/2-x,1/2+y,1/2-z
1/2-x,1/2-y,-z
1/2+x,1/2-y,1/2+z
loop_
_atom_site_type_symbol
_atom_site_label
_atom_site_fract_x
_atom_site_fract_y
_atom_site_fract_z
Si Si1 0.445466 0.815288 0.329588
Si Si2 0.608195 0.922828 0.776364
Si Si3 0.812287 0.197846 0.965418
Si Si4 0.226780 0.570204 0.728372
Si Si5 0.449616 0.921621 0.610855
Si Si6 0.826391 0.709512 0.893158
Si Si7 0.500000 0.462516 0.250000
Si Si8 0.060737 0.075222 0.464943
O O1 0.396386 0.716470 0.375205
O O2 0.498835 0.611003 0.312158
O O3 0.410904 0.842275 0.267265
O O4 0.482301 0.071888 0.355226
O O5 0.603185 0.988385 0.843587
O O6 0.563956 0.689921 0.756358
O O7 0.679043 0.868869 0.760932
O O8 0.831271 0.474674 0.938762
O O9 0.795477 0.972026 0.918353
O O10 0.750000 0.250000 0.000000
O O11 0.872671 0.082716 0.000603
O O12 0.281479 0.353222 0.739503
O O13 0.215002 0.604091 0.660661
O O14 0.434357 0.638753 0.584801
O O15 0.450527 0.137844 0.561188
O O16 0.000000 0.000000 0.500000
#
# Coordination Sequence:
#
# PCOD8152874 Si02
#       8
#     8   8   8   8   8   8   4   8
#     4  11  23  39  69 109 149 186 235 285 367 468
#     4  11  25  39  68 104 145 187 233 283 355 458
#     4  12  27  51  74 103 138 195 265 314 352 439
#     4  11  27  46  70 106 149 183 233 289 355 444
#     4  12  23  42  68 102 139 186 219 300 369 417
#     4  11  26  46  79 100 142 199 240 298 374 428
#     4  12  20  40  68 104 154 178 240 280 346 440
#     4  12  27  45  69 101 140 180 246 312 369 415
#
# _framework density 23.570681
#
# number of rings (size 3 to 8) (size 9 to 14) (size 15 to 20)
#    0.000    0.533    2.667    4.800    7.467    3.200 
#    0.000    0.000    0.000    0.000    0.000    0.000 
#    0.000    0.000    0.000    0.000    0.000    0.000 
#
# Total GULP energy -371660.699290 kJ/mol
# GULP energy per Si atom -12388.689976 kJ/mol
# Density = 2.351703 g / cm^3
# Si number density = 23.570681 Si / 1000 Ang^3
#
#
#
# Elastic Constant Matrix: (Units=GPa)
#
#
# Indices 1 2 3 4 5 6 
#
# 1 100.1153 20.6168 54.7149 0.0000 -19.5736 0.0000
# 2 20.6168 112.9752 32.8442 0.0000 -16.0039 0.0000
# 3 54.7149 32.8442 120.9998 0.0000 -25.0263 0.0000
# 4 0.0000 0.0000 0.0000 38.0514 0.0000 3.3777
# 5 -19.5736 -16.0039 -25.0263 0.0000 44.1257 0.0000
# 6 0.0000 0.0000 0.0000 3.3777 0.0000 18.4804
#
#
#
# Elastic Compliance Matrix: (Units=1/GPa)
#
#
# Indices 1 2 3 4 5 6 
#
# 1 0.013609 -0.000509 -0.005444 0.000000 0.002765 0.000000
# 2 -0.000509 0.009834 -0.001980 0.000000 0.002218 0.000000
# 3 -0.005444 -0.001980 0.012026 0.000000 0.003688 0.000000
# 4 0.000000 0.000000 0.000000 0.026714 0.000000 -0.004883
# 5 0.002765 0.002218 0.003688 0.000000 0.026785 0.000000
# 6 0.000000 0.000000 0.000000 -0.004883 0.000000 0.055004
#
#
# Mechanical properties :
#
#
# Convention : Reuss Voigt Hill
#
# Bulk Modulus (GPa) = 51.01344 61.16023 56.08683
# Shear Modulus (GPa) = 30.05286 35.19244 32.62265
#
# Velocity S-wave (km/s) = 3.57460 3.86821 3.72430
# Velocity P-wave (km/s) = 6.22308 6.77898 6.50697
#
# Compressibility (1/GPa) = 0.01960268
#
# Stress axis : x y z
#
# Youngs Moduli (GPa) = 73.48067 101.68444 83.15006
#
# Poissons Ratio (x) = 0.05178 0.45266
# Poissons Ratio (y) = 0.03742 0.16468
# Poissons Ratio (z) = 0.40002 0.20138
#
# Static dielectric constant tensor:
#      x y z
#    x 4.737830 0.000000 -0.255590 
#    y 0.000000 4.423610 0.000000 
#    z -0.255590 0.000000 4.752370 
# 
# 
# High freq. dielectric constant tensor:
#      x y z
#    x 1.933140 0.000000 -0.006840 
#    y 0.000000 1.944360 0.000000 
#    z -0.006840 0.000000 1.942680 
# 
# From -- ./inp_files/254371.got.cif
#   From: 2010.06.25/outbox.cif.g09.slc.cpg/sg15_128_cif.got.tgz:254371.got - 2010.06.28 07:06:18.
