data_PCOD8152792
_publ_section_title
;
Structure prediction by ZEFSAII (Michael W. Deem and Ramdas Pophale) SiO2 
 PCOD8152792
Probable space group: C 2/C
;
_chemical_formula_sum "Si O2"
_cell_formula_units_Z 40
_cell_length_a 9.014252
_cell_length_b 19.254852
_cell_length_c 13.755044
_cell_angle_alpha 90.000000
_cell_angle_beta 43.801847
_cell_angle_gamma 90.000000
_cell_volume 1652.503555
_symmetry_space_group_name_H-M "C 2/C"
_symmetry_group_IT_number 15
_symmetry_cell_setting 'monoclinic'
loop_
_space_group_symop_operation_xyz
x,y,z
-x,y,1/2-z
-x,-y,-z
x,-y,1/2+z
1/2+x,1/2+y,z
1/2-x,1/2+y,1/2-z
1/2-x,1/2-y,-z
1/2+x,1/2-y,1/2+z
loop_
_atom_site_type_symbol
_atom_site_label
_atom_site_fract_x
_atom_site_fract_y
_atom_site_fract_z
Si Si1 0.971679 0.838593 0.941408
Si Si2 0.806893 0.594191 0.411623
Si Si3 0.096345 0.438761 0.100002
Si Si4 0.197968 0.268592 0.215646
Si Si5 0.258367 0.377524 0.352385
O O1 0.776210 0.881590 0.986346
O O2 0.890592 0.772343 0.045510
O O3 0.088767 0.892434 0.956845
O O4 0.127717 0.808855 0.783169
O O5 0.802446 0.515006 0.449721
O O6 0.822771 0.642191 0.500468
O O7 0.000000 0.613984 0.250000
O O8 0.000000 0.421741 0.250000
O O9 0.899602 0.435819 0.116941
O O10 0.259374 0.310400 0.283306
O O11 0.000000 0.302768 0.250000
O O12 0.500000 0.407577 0.250000
#
# Coordination Sequence:
#
# PCOD8152792 Si02
#       5
#     8   8   8   8   8
#     4  12  25  47  74 102 146 188 239 296 355 420
#     4  11  27  44  70 109 143 183 241 294 357 424
#     4  11  22  47  75 105 144 187 236 297 357 425
#     4  12  26  45  76 102 144 191 241 290 356 424
#     4  12  23  46  73 104 145 192 232 291 362 418
#
# _framework density 24.205697000000001
#
# number of rings (size 3 to 8) (size 9 to 14) (size 15 to 20)
#    0.000    0.400    6.000    1.800    2.800    3.200 
#    0.000    1.000    0.000    0.000    0.000    0.000 
#    0.000    0.000    0.000    0.000    0.000    0.000 
#
# Total GULP energy -247914.833567 kJ/mol
# GULP energy per Si atom -12395.741678 kJ/mol
# Density = 2.415060 g / cm^3
# Si number density = 24.205697 Si / 1000 Ang^3
#
#
#
# Elastic Constant Matrix: (Units=GPa)
#
#
# Indices 1 2 3 4 5 6 
#
# 1 180.7491 42.1239 51.1956 0.0004 -13.8478 0.0002
# 2 42.1239 65.6288 19.1743 0.0006 -14.3993 -0.0007
# 3 51.1956 19.1743 105.3562 0.0028 3.3288 0.0002
# 4 0.0004 0.0006 0.0028 10.3312 -0.0009 0.0455
# 5 -13.8478 -14.3993 3.3288 -0.0009 42.9756 -0.0001
# 6 0.0002 -0.0007 0.0002 0.0455 -0.0001 23.3054
#
#
#
# Elastic Compliance Matrix: (Units=1/GPa)
#
#
# Indices 1 2 3 4 5 6 
#
# 1 0.007294 -0.003512 -0.002949 0.000001 0.001402 0.000000
# 2 -0.003512 0.019270 -0.001973 0.000000 0.005478 0.000001
# 3 -0.002949 -0.001973 0.011363 -0.000003 -0.002492 0.000000
# 4 0.000001 0.000000 -0.000003 0.096795 0.000002 -0.000189
# 5 0.001402 0.005478 -0.002492 0.000002 0.025749 0.000000
# 6 0.000000 0.000001 0.000000 -0.000189 0.000000 0.042909
#
#
# Mechanical properties :
#
#
# Convention : Reuss Voigt Hill
#
# Bulk Modulus (GPa) = 47.49151 64.08018 55.78584
# Shear Modulus (GPa) = 22.00045 31.27179 26.63612
#
# Velocity S-wave (km/s) = 3.01806 3.59823 3.32084
# Velocity P-wave (km/s) = 5.63981 6.61768 6.14822
#
# Compressibility (1/GPa) = 0.02105640
#
# Stress axis : x y z
#
# Youngs Moduli (GPa) = 137.10156 51.89420 88.00749
#
# Poissons Ratio (x) = 0.18227 0.25957
# Poissons Ratio (y) = 0.48154 0.17367
# Poissons Ratio (z) = 0.40436 0.10241
#
# Static dielectric constant tensor:
#      x y z
#    x 4.628270 0.000000 0.014220 
#    y 0.000000 3.916710 0.000000 
#    z 0.014220 0.000000 4.471720 
# 
# 
# High freq. dielectric constant tensor:
#      x y z
#    x 1.978630 0.000000 0.003320 
#    y 0.000000 1.934830 0.000000 
#    z 0.003320 0.000000 1.966400 
# 
# From -- ./inp_files/137108.got.cif
#   From: 2010.06.25/outbox.cif.g09.slc.cpg/sg15_69_cif.got.tgz:137108.got - 2010.06.28 07:06:18.
