data_PCOD8152998
_publ_section_title
;
Structure prediction by ZEFSAII (Michael W. Deem and Ramdas Pophale) SiO2 
 PCOD8152998
Probable space group: C 2/C
;
_chemical_formula_sum "Si O2"
_cell_formula_units_Z 52
_cell_length_a 23.312774
_cell_length_b 8.660268
_cell_length_c 19.836773
_cell_angle_alpha 90.000000
_cell_angle_beta 36.192718
_cell_angle_gamma 90.000000
_cell_volume 2364.931100
_symmetry_space_group_name_H-M "C 2/C"
_symmetry_group_IT_number 15
_symmetry_cell_setting 'monoclinic'
loop_
_space_group_symop_operation_xyz
x,y,z
-x,y,1/2-z
-x,-y,-z
x,-y,1/2+z
1/2+x,1/2+y,z
1/2-x,1/2+y,1/2-z
1/2-x,1/2-y,-z
1/2+x,1/2-y,1/2+z
loop_
_atom_site_type_symbol
_atom_site_label
_atom_site_fract_x
_atom_site_fract_y
_atom_site_fract_z
Si Si1 0.375580 0.110176 0.837620
Si Si2 0.501556 0.721934 0.118417
Si Si3 0.019597 0.127522 0.858432
Si Si4 0.626812 0.291272 0.885656
Si Si5 0.000000 0.665163 0.250000
Si Si6 0.779986 0.954194 0.288223
Si Si7 0.205831 0.720145 0.447782
O O1 0.474536 0.169506 0.707870
O O2 0.284690 0.139191 0.872090
O O3 0.400602 0.933800 0.833440
O O4 0.343244 0.208775 0.932440
O O5 0.482986 0.549586 0.161524
O O6 0.434770 0.769918 0.119157
O O7 0.613575 0.740695 0.987923
O O8 0.984424 0.232011 0.830443
O O9 0.130673 0.158920 0.776359
O O10 0.947126 0.151430 0.988370
O O11 0.689589 0.150326 0.853801
O O12 0.693252 0.435340 0.800026
O O13 0.754329 0.061107 0.377143
#
# Coordination Sequence:
#
# PCOD8152998 Si02
#       7
#     8   8   8   8   4   8   8
#     4  11  23  43  68 104 135 178 238 284 342 422
#     4  11  23  44  73  97 141 189 231 284 358 413
#     4  11  27  46  68 101 149 182 223 301 356 406
#     4  11  26  45  71 103 144 183 236 286 353 416
#     4  12  26  44  70 104 140 178 236 288 348 422
#     4  11  25  47  69 107 137 189 234 290 350 417
#     4  11  23  41  74  98 136 181 241 286 343 421
#
# _framework density 21.987957000000002
#
# number of rings (size 3 to 8) (size 9 to 14) (size 15 to 20)
#    0.000    0.923    4.615    2.769    6.462    3.077 
#    0.000    2.308    0.000    0.000    0.000    0.000 
#    0.000    0.000    0.000    0.000    0.000    0.000 
#
# Total GULP energy -322333.789065 kJ/mol
# GULP energy per Si atom -12397.453426 kJ/mol
# Density = 2.193791 g / cm^3
# Si number density = 21.987957 Si / 1000 Ang^3
#
#
#
# Elastic Constant Matrix: (Units=GPa)
#
#
# Indices 1 2 3 4 5 6 
#
# 1 93.6139 59.0898 49.5660 -0.0037 -11.7273 0.0018
# 2 59.0898 81.3428 28.3545 -0.0108 -8.4939 0.0063
# 3 49.5660 28.3545 118.4121 -0.0033 -13.2963 0.0023
# 4 -0.0037 -0.0108 -0.0033 29.5778 0.0048 -7.8802
# 5 -11.7273 -8.4939 -13.2963 0.0048 50.1482 -0.0024
# 6 0.0018 0.0063 0.0023 -7.8802 -0.0024 52.0883
#
#
#
# Elastic Compliance Matrix: (Units=1/GPa)
#
#
# Indices 1 2 3 4 5 6 
#
# 1 0.023367 -0.014704 -0.006108 -0.000003 0.001354 0.000001
# 2 -0.014704 0.022771 0.000772 0.000006 0.000623 -0.000001
# 3 -0.006108 0.000772 0.010999 0.000000 0.001619 0.000000
# 4 -0.000003 0.000006 0.000000 0.035229 -0.000003 0.005330
# 5 0.001354 0.000623 0.001619 -0.000003 0.020792 0.000000
# 6 0.000001 -0.000001 0.000000 0.005330 0.000000 0.020004
#
#
# Mechanical properties :
#
#
# Convention : Reuss Voigt Hill
#
# Bulk Modulus (GPa) = 58.62700 63.04324 60.83512
# Shear Modulus (GPa) = 27.94411 36.78676 32.36543
#
# Velocity S-wave (km/s) = 3.56881 4.09472 3.84078
# Velocity P-wave (km/s) = 6.61082 7.14770 6.88450
#
# Compressibility (1/GPa) = 0.01705699
#
# Stress axis : x y z
#
# Youngs Moduli (GPa) = 42.79481 43.91557 90.91947
#
# Poissons Ratio (x) = 0.64574 0.55536
# Poissons Ratio (y) = 0.62926 -0.07021
# Poissons Ratio (z) = 0.26140 -0.03391
#
# Static dielectric constant tensor:
#      x y z
#    x 4.258550 -0.000010 -0.286150 
#    y -0.000010 3.735320 0.000000 
#    z -0.286150 0.000000 4.278560 
# 
# 
# High freq. dielectric constant tensor:
#      x y z
#    x 1.873630 0.000000 -0.009590 
#    y 0.000000 1.843430 0.000000 
#    z -0.009590 0.000000 1.886070 
# 
# From -- ./inp_files/283293.got.cif
#   From: 2010.06.25/outbox.cif.g09.slc.cpg/sg15_142_cif.got.tgz:283293.got - 2010.06.28 07:06:18.
