data_PCOD8152885
_publ_section_title
;
Structure prediction by ZEFSAII (Michael W. Deem and Ramdas Pophale) SiO2 
 PCOD8152885
Probable space group: C 2/C
;
_chemical_formula_sum "Si O2"
_cell_formula_units_Z 52
_cell_length_a 24.572965
_cell_length_b 5.007662
_cell_length_c 19.266275
_cell_angle_alpha 90.000000
_cell_angle_beta 114.487981
_cell_angle_gamma 90.000000
_cell_volume 2157.519550
_symmetry_space_group_name_H-M "C 2/C"
_symmetry_group_IT_number 15
_symmetry_cell_setting 'monoclinic'
loop_
_space_group_symop_operation_xyz
x,y,z
-x,y,1/2-z
-x,-y,-z
x,-y,1/2+z
1/2+x,1/2+y,z
1/2-x,1/2+y,1/2-z
1/2-x,1/2-y,-z
1/2+x,1/2-y,1/2+z
loop_
_atom_site_type_symbol
_atom_site_label
_atom_site_fract_x
_atom_site_fract_y
_atom_site_fract_z
Si Si1 0.500000 0.539629 0.250000
Si Si2 0.068740 0.671029 0.106541
Si Si3 0.768480 0.998782 0.056427
Si Si4 0.402116 0.462993 0.102705
Si Si5 0.565934 0.020111 0.956969
Si Si6 0.231328 0.970698 0.785449
Si Si7 0.901735 0.185916 0.298831
O O1 0.456953 0.351482 0.179940
O O2 0.451474 0.720248 0.265348
O O3 0.110185 0.477262 0.174720
O O4 0.002851 0.552566 0.075244
O O5 0.071369 0.977431 0.130828
O O6 0.091722 0.652493 0.040255
O O7 0.740789 0.004519 0.120828
O O8 0.839269 0.988451 0.107428
O O9 0.750000 0.250000 0.000000
O O10 0.750000 0.750000 0.000000
O O11 0.396095 0.249026 0.037411
O O12 0.423229 0.760021 0.095505
O O13 0.261861 0.737508 0.756594
O O14 0.161417 0.917909 0.761239
#
# Coordination Sequence:
#
# PCOD8152885 Si02
#       7
#     4   8   8   8   8   8   8
#     4  12  24  46  70 106 140 174 240 282 368 402
#     4  11  23  40  64 101 140 177 222 280 359 431
#     4  12  28  50  75 106 144 195 252 301 357 432
#     4  12  25  44  72 102 138 183 229 293 357 422
#     4  11  23  40  64 101 140 177 222 280 359 431
#     4  12  28  50  75 106 144 195 252 301 357 432
#     4  12  25  44  72 102 138 183 229 293 357 422
#
# _framework density 24.101752999999999
#
# number of rings (size 3 to 8) (size 9 to 14) (size 15 to 20)
#    0.000    0.308    4.615    3.692    0.000   12.308 
#    0.000    0.000    0.000    0.000    0.000    0.000 
#    0.000    0.000    0.000    0.000    0.000    0.000 
#
# Total GULP energy -322265.335523 kJ/mol
# GULP energy per Si atom -12394.820597 kJ/mol
# Density = 2.404690 g / cm^3
# Si number density = 24.101753 Si / 1000 Ang^3
#
#
#
# Elastic Constant Matrix: (Units=GPa)
#
#
# Indices 1 2 3 4 5 6 
#
# 1 103.9991 24.7820 53.4318 -0.0010 8.3752 0.0004
# 2 24.7820 117.1753 27.2436 0.0005 -11.8890 -0.0031
# 3 53.4318 27.2436 122.5488 0.0002 -24.7404 -0.0006
# 4 -0.0010 0.0005 0.0002 31.3594 -0.0010 5.8095
# 5 8.3752 -11.8890 -24.7404 -0.0010 30.2827 0.0013
# 6 0.0004 -0.0031 -0.0006 5.8095 0.0013 25.3875
#
#
#
# Elastic Compliance Matrix: (Units=1/GPa)
#
#
# Indices 1 2 3 4 5 6 
#
# 1 0.015796 -0.002560 -0.008865 0.000000 -0.012616 0.000000
# 2 -0.002560 0.009547 -0.000128 0.000000 0.004352 0.000001
# 3 -0.008865 -0.000128 0.015015 0.000000 0.014669 0.000000
# 4 0.000000 0.000000 0.000000 0.033300 0.000001 -0.007620
# 5 -0.012616 0.004352 0.014669 0.000001 0.050204 -0.000002
# 6 0.000000 0.000001 0.000000 -0.007620 -0.000002 0.041133
#
#
# Mechanical properties :
#
#
# Convention : Reuss Voigt Hill
#
# Bulk Modulus (GPa) = 57.96200 61.62645 59.79423
# Shear Modulus (GPa) = 25.79303 33.29031 29.54167
#
# Velocity S-wave (km/s) = 3.27490 3.72054 3.50481
# Velocity P-wave (km/s) = 6.19686 6.63938 6.42193
#
# Compressibility (1/GPa) = 0.01725268
#
# Stress axis : x y z
#
# Youngs Moduli (GPa) = 63.30702 104.74683 66.60034
#
# Poissons Ratio (x) = 0.26812 0.59042
# Poissons Ratio (y) = 0.16205 0.00851
# Poissons Ratio (z) = 0.56122 0.01338
#
# Static dielectric constant tensor:
#      x y z
#    x 4.418330 0.000000 -0.193270 
#    y 0.000000 4.462420 -0.000040 
#    z -0.193270 -0.000040 4.898030 
# 
# 
# High freq. dielectric constant tensor:
#      x y z
#    x 1.963570 0.000000 -0.006470 
#    y 0.000000 1.952950 0.000000 
#    z -0.006470 0.000000 1.965460 
# 
# From -- ./inp_files/221367.got.cif
#   From: 2010.06.25/outbox.cif.g09.slc.cpg/sg15_111_cif.got.tgz:221367.got - 2010.06.28 07:06:18.
