data_PCOD8152677
_publ_section_title
;
Structure prediction by ZEFSAII (Michael W. Deem and Ramdas Pophale) SiO2 
 PCOD8152677
Probable space group: C 2/C
;
_chemical_formula_sum "Si O2"
_cell_formula_units_Z 48
_cell_length_a 21.011371
_cell_length_b 11.997532
_cell_length_c 10.877597
_cell_angle_alpha 90.000000
_cell_angle_beta 54.666252
_cell_angle_gamma 90.000000
_cell_volume 2236.976495
_symmetry_space_group_name_H-M "C 2/C"
_symmetry_group_IT_number 15
_symmetry_cell_setting 'monoclinic'
loop_
_space_group_symop_operation_xyz
x,y,z
-x,y,1/2-z
-x,-y,-z
x,-y,1/2+z
1/2+x,1/2+y,z
1/2-x,1/2+y,1/2-z
1/2-x,1/2-y,-z
1/2+x,1/2-y,1/2+z
loop_
_atom_site_type_symbol
_atom_site_label
_atom_site_fract_x
_atom_site_fract_y
_atom_site_fract_z
Si Si1 0.330389 0.593934 0.406049
Si Si2 0.566025 0.775961 0.317719
Si Si3 0.913799 0.863550 0.298449
Si Si4 0.153104 0.579738 0.530268
Si Si5 0.423007 0.151003 0.418962
Si Si6 0.100805 0.223114 0.957670
O O1 0.374018 0.671972 0.257329
O O2 0.357561 0.467444 0.368569
O O3 0.239479 0.597328 0.482321
O O4 0.344698 0.637393 0.528337
O O5 0.593521 0.876241 0.200034
O O6 0.555470 0.828103 0.464426
O O7 0.480473 0.730894 0.376303
O O8 0.879615 0.762163 0.418018
O O9 0.000000 0.896269 0.250000
O O10 0.916520 0.820846 0.156879
O O11 0.136521 0.451226 0.521875
O O12 0.141021 0.653812 0.419273
O O13 0.500000 0.130329 0.250000
#
# Coordination Sequence:
#
# PCOD8152677 Si02
#       6
#     8   8   8   8   8   8
#     4  11  26  43  66 100 135 174 214 263 333 396
#     4  11  22  44  71  95 128 173 222 271 318 381
#     4  11  24  44  68  99 129 167 224 276 318 378
#     4  11  26  43  66 100 135 174 214 263 333 396
#     4  11  24  44  68  99 129 167 224 276 318 378
#     4  11  22  44  71  95 128 173 222 271 318 381
#
# _framework density 21.457535
#
# number of rings (size 3 to 8) (size 9 to 14) (size 15 to 20)
#    0.000    1.000    3.333    6.000    4.667    6.000 
#    0.000    0.000    0.000    0.000    0.000    0.000 
#    0.000    0.000    0.000    0.000    0.000    0.000 
#
# Total GULP energy -297543.626442 kJ/mol
# GULP energy per Si atom -12397.651102 kJ/mol
# Density = 2.140870 g / cm^3
# Si number density = 21.457535 Si / 1000 Ang^3
#
#
#
# Elastic Constant Matrix: (Units=GPa)
#
#
# Indices 1 2 3 4 5 6 
#
# 1 102.0074 15.2507 20.2915 0.0000 2.0016 0.0000
# 2 15.2507 118.1394 14.3341 0.0000 -0.8618 0.0000
# 3 20.2915 14.3341 28.1836 0.0000 13.4965 0.0000
# 4 0.0000 0.0000 0.0000 12.9790 0.0000 -2.2748
# 5 2.0016 -0.8618 13.4965 0.0000 28.6836 0.0000
# 6 0.0000 0.0000 0.0000 -2.2748 0.0000 35.4758
#
#
#
# Elastic Compliance Matrix: (Units=1/GPa)
#
#
# Indices 1 2 3 4 5 6 
#
# 1 0.011810 -0.000245 -0.010301 0.000000 0.004015 0.000000
# 2 -0.000245 0.009250 -0.006027 0.000000 0.003131 0.000000
# 3 -0.010301 -0.006027 0.059000 0.000000 -0.027224 0.000000
# 4 0.000000 0.000000 0.000000 0.077923 0.000000 0.004997
# 5 0.004015 0.003131 -0.027224 0.000000 0.047486 0.000000
# 6 0.000000 0.000000 0.000000 0.004997 0.000000 0.028509
#
#
# Mechanical properties :
#
#
# Convention : Reuss Voigt Hill
#
# Bulk Modulus (GPa) = 21.31604 38.67588 29.99596
# Shear Modulus (GPa) = 17.68251 28.65796 23.17023
#
# Velocity S-wave (km/s) = 2.87378 3.65850 3.28962
# Velocity P-wave (km/s) = 4.57898 5.99247 5.33277
#
# Compressibility (1/GPa) = 0.04691302
#
# Stress axis : x y z
#
# Youngs Moduli (GPa) = 84.67231 108.10321 16.94904
#
# Poissons Ratio (x) = 0.02653 0.17459
# Poissons Ratio (y) = 0.02078 0.10216
# Poissons Ratio (z) = 0.87222 0.65159
#
# Static dielectric constant tensor:
#      x y z
#    x 3.933410 0.000000 0.106000 
#    y 0.000000 4.156830 0.000000 
#    z 0.106000 0.000000 3.728140 
# 
# 
# High freq. dielectric constant tensor:
#      x y z
#    x 1.854640 0.000000 0.010870 
#    y 0.000000 1.855800 0.000000 
#    z 0.010870 0.000000 1.828450 
# 
# From -- ./inp_files/110890.got.cif
#   From: 2010.06.25/outbox.cif.g09.slc.cpg/sg15_56_cif.got.tgz:110890.got - 2010.06.28 07:06:18.
