data_PCOD8152205
_publ_section_title
;
Structure prediction by ZEFSAII (Michael W. Deem and Ramdas Pophale) SiO2 
 PCOD8152205
Probable space group: C 2/C
;
_chemical_formula_sum "Si O2"
_cell_formula_units_Z 40
_cell_length_a 9.815698
_cell_length_b 10.160567
_cell_length_c 18.762322
_cell_angle_alpha 90.000000
_cell_angle_beta 86.497841
_cell_angle_gamma 90.000000
_cell_volume 1867.729218
_symmetry_space_group_name_H-M "C 2/C"
_symmetry_group_IT_number 15
_symmetry_cell_setting 'monoclinic'
loop_
_space_group_symop_operation_xyz
x,y,z
-x,y,1/2-z
-x,-y,-z
x,-y,1/2+z
1/2+x,1/2+y,z
1/2-x,1/2+y,1/2-z
1/2-x,1/2-y,-z
1/2+x,1/2-y,1/2+z
loop_
_atom_site_type_symbol
_atom_site_label
_atom_site_fract_x
_atom_site_fract_y
_atom_site_fract_z
Si Si1 0.235375 0.817452 0.406048
Si Si2 0.743645 0.793733 0.417147
Si Si3 0.507441 0.388933 0.170242
Si Si4 0.355341 0.946494 0.529222
Si Si5 0.997293 0.190844 0.332601
O O1 0.253360 0.929594 0.465447
O O2 0.139967 0.696541 0.434868
O O3 0.384973 0.775989 0.376750
O O4 0.150099 0.885836 0.347519
O O5 0.750000 0.750000 0.500000
O O6 0.894438 0.791047 0.377672
O O7 0.639943 0.710252 0.370829
O O8 0.702430 0.946626 0.414361
O O9 0.500000 0.335206 0.250000
O O10 0.553268 0.540548 0.163386
O O11 0.500000 0.000000 0.500000
O O12 0.000000 0.238035 0.250000
#
# Coordination Sequence:
#
# PCOD8152205 Si02
#       5
#     8   8   8   8   8
#     4  11  23  41  66  89 129 168 206 264 324 373
#     4  12  24  41  69  99 131 167 222 271 320 384
#     4  11  25  44  64  95 132 172 217 265 323 389
#     4  11  22  39  63  96 126 159 211 267 320 375
#     4  11  24  44  66  93 131 174 213 263 326 389
#
# _framework density 21.41638
#
# number of rings (size 3 to 8) (size 9 to 14) (size 15 to 20)
#    0.000    0.800    4.000    3.600    2.800    1.600 
#    0.000    1.000    0.000    0.000    0.000    0.000 
#    0.000    0.000    0.000    0.000    0.000    0.000 
#
# Total GULP energy -247914.993304 kJ/mol
# GULP energy per Si atom -12395.749665 kJ/mol
# Density = 2.136764 g / cm^3
# Si number density = 21.416380 Si / 1000 Ang^3
#
#
#
# Elastic Constant Matrix: (Units=GPa)
#
#
# Indices 1 2 3 4 5 6 
#
# 1 98.5268 26.1663 31.0732 0.0000 -4.1258 0.0000
# 2 26.1663 49.0921 24.0857 0.0000 -3.1460 0.0000
# 3 31.0732 24.0857 136.7709 0.0000 7.0079 0.0000
# 4 0.0000 0.0000 0.0000 31.3694 0.0000 -1.5848
# 5 -4.1258 -3.1460 7.0079 0.0000 35.4046 0.0000
# 6 0.0000 0.0000 0.0000 -1.5848 0.0000 28.7422
#
#
#
# Elastic Compliance Matrix: (Units=1/GPa)
#
#
# Indices 1 2 3 4 5 6 
#
# 1 0.012266 -0.005532 -0.001880 0.000000 0.001310 0.000000
# 2 -0.005532 0.025066 -0.003272 0.000000 0.002230 0.000000
# 3 -0.001880 -0.003272 0.008426 0.000000 -0.002178 0.000000
# 4 0.000000 0.000000 0.000000 0.031967 0.000000 0.001763
# 5 0.001310 0.002230 -0.002178 0.000000 0.029027 0.000000
# 6 0.000000 0.000000 0.000000 0.001763 0.000000 0.034889
#
#
# Mechanical properties :
#
#
# Convention : Reuss Voigt Hill
#
# Bulk Modulus (GPa) = 40.99629 49.67114 45.33371
# Shear Modulus (GPa) = 29.21586 32.64087 30.92837
#
# Velocity S-wave (km/s) = 3.69749 3.90822 3.80431
# Velocity P-wave (km/s) = 6.11659 6.60371 6.36481
#
# Compressibility (1/GPa) = 0.02439245
#
# Stress axis : x y z
#
# Youngs Moduli (GPa) = 81.52401 39.89393 118.67598
#
# Poissons Ratio (x) = 0.22069 0.22308
# Poissons Ratio (y) = 0.45097 0.38828
# Poissons Ratio (z) = 0.15325 0.13052
#
# Static dielectric constant tensor:
#      x y z
#    x 4.460680 0.000000 0.174490 
#    y 0.000000 3.903960 0.000000 
#    z 0.174490 0.000000 3.999400 
# 
# 
# High freq. dielectric constant tensor:
#      x y z
#    x 1.848230 0.000000 0.003050 
#    y 0.000000 1.839190 0.000000 
#    z 0.003050 0.000000 1.844140 
# 
# From -- ./inp_files/187819.got.cif
#   From: 2010.06.25/outbox.cif.g09.slc.cpg/sg15_94_cif.got.tgz:187819.got - 2010.06.28 07:06:18.
