data_PCOD8152234
_publ_section_title
;
Structure prediction by ZEFSAII (Michael W. Deem and Ramdas Pophale) SiO2 
 PCOD8152234
Probable space group: C 2/C
;
_chemical_formula_sum "Si O2"
_cell_formula_units_Z 48
_cell_length_a 11.874290
_cell_length_b 8.675525
_cell_length_c 21.995413
_cell_angle_alpha 90.000000
_cell_angle_beta 88.070873
_cell_angle_gamma 90.000000
_cell_volume 2264.588637
_symmetry_space_group_name_H-M "C 2/C"
_symmetry_group_IT_number 15
_symmetry_cell_setting 'monoclinic'
loop_
_space_group_symop_operation_xyz
x,y,z
-x,y,1/2-z
-x,-y,-z
x,-y,1/2+z
1/2+x,1/2+y,z
1/2-x,1/2+y,1/2-z
1/2-x,1/2-y,-z
1/2+x,1/2-y,1/2+z
loop_
_atom_site_type_symbol
_atom_site_label
_atom_site_fract_x
_atom_site_fract_y
_atom_site_fract_z
Si Si1 0.934001 0.294342 0.843575
Si Si2 0.214646 0.588022 0.252924
Si Si3 0.764226 0.427619 0.125234
Si Si4 0.659248 0.629292 0.825082
Si Si5 0.495113 0.056230 0.568290
Si Si6 0.212147 0.249575 0.069940
O O1 0.898036 0.395593 0.785873
O O2 0.826476 0.208671 0.874084
O O3 0.990333 0.404091 0.891639
O O4 0.027303 0.168253 0.822229
O O5 0.197000 0.462779 0.306459
O O6 0.317494 0.537603 0.206054
O O7 0.237308 0.752224 0.284473
O O8 0.709902 0.576703 0.094713
O O9 0.872910 0.371571 0.085243
O O10 0.702263 0.639909 0.893865
O O11 0.500000 0.000000 0.500000
O O12 0.586773 0.185886 0.579815
O O13 0.250000 0.250000 0.000000
#
# Coordination Sequence:
#
# PCOD8152234 Si02
#       6
#     8   8   8   8   8   8
#     4  12  24  43  69  96 139 170 217 282 329 396
#     4  11  22  39  66  99 132 172 216 261 340 397
#     4  11  26  41  66 104 125 176 229 264 340 401
#     4  11  23  41  68  96 134 177 212 275 334 391
#     4  12  24  45  70  90 132 180 220 277 336 391
#     4  11  22  45  66  93 133 174 224 274 323 395
#
# _framework density 21.195900999999999
#
# number of rings (size 3 to 8) (size 9 to 14) (size 15 to 20)
#    0.000    0.667    8.333    0.500    0.000    2.000 
#    0.000    3.333    0.000    0.000    0.000    0.000 
#    0.000    0.000    0.000    0.000    0.000    0.000 
#
# Total GULP energy -297566.228526 kJ/mol
# GULP energy per Si atom -12398.592855 kJ/mol
# Density = 2.114766 g / cm^3
# Si number density = 21.195901 Si / 1000 Ang^3
#
#
#
# Elastic Constant Matrix: (Units=GPa)
#
#
# Indices 1 2 3 4 5 6 
#
# 1 161.3088 46.2226 39.6315 0.0000 -22.4039 0.0000
# 2 46.2226 46.5220 16.7058 0.0000 -12.6252 0.0000
# 3 39.6315 16.7058 126.8040 0.0000 -0.2771 0.0000
# 4 0.0000 0.0000 0.0000 25.8726 0.0000 -4.5692
# 5 -22.4039 -12.6252 -0.2771 0.0000 34.4379 0.0000
# 6 0.0000 0.0000 0.0000 -4.5692 0.0000 51.1164
#
#
#
# Elastic Compliance Matrix: (Units=1/GPa)
#
#
# Indices 1 2 3 4 5 6 
#
# 1 0.009319 -0.007706 -0.001890 0.000000 0.003223 0.000000
# 2 -0.007706 0.031549 -0.001734 0.000000 0.006539 0.000000
# 3 -0.001890 -0.001734 0.008702 0.000000 -0.001795 0.000000
# 4 0.000000 0.000000 0.000000 0.039271 0.000000 0.003510
# 5 0.003223 0.006539 -0.001795 0.000000 0.033517 0.000000
# 6 0.000000 0.000000 0.000000 0.003510 0.000000 0.019877
#
#
# Mechanical properties :
#
#
# Convention : Reuss Voigt Hill
#
# Bulk Modulus (GPa) = 37.16173 59.97273 48.56723
# Shear Modulus (GPa) = 28.75798 37.75705 33.25752
#
# Velocity S-wave (km/s) = 3.68743 4.22517 3.96543
# Velocity P-wave (km/s) = 5.97496 7.22209 6.62792
#
# Compressibility (1/GPa) = 0.02690940
#
# Stress axis : x y z
#
# Youngs Moduli (GPa) = 107.30204 31.69691 114.92265
#
# Poissons Ratio (x) = 0.24426 0.21725
# Poissons Ratio (y) = 0.82688 0.19923
# Poissons Ratio (z) = 0.20285 0.05495
#
# Static dielectric constant tensor:
#      x y z
#    x 3.894280 0.000000 -0.052590 
#    y 0.000000 3.819990 0.000000 
#    z -0.052590 0.000000 4.267650 
# 
# 
# High freq. dielectric constant tensor:
#      x y z
#    x 1.826990 0.000000 0.002320 
#    y 0.000000 1.814070 0.000000 
#    z 0.002320 0.000000 1.851040 
# 
# From -- ./inp_files/267740.got.cif
#   From: 2010.06.25/outbox.cif.g09.slc.cpg/sg15_134_cif.got.tgz:267740.got - 2010.06.28 07:06:18.
