data_PCOD8152033
_publ_section_title
;
Structure prediction by ZEFSAII (Michael W. Deem and Ramdas Pophale) SiO2 
 PCOD8152033
Probable space group: C 2/C
;
_chemical_formula_sum "Si O2"
_cell_formula_units_Z 48
_cell_length_a 29.751865
_cell_length_b 8.796764
_cell_length_c 17.837568
_cell_angle_alpha 90.000000
_cell_angle_beta 149.763162
_cell_angle_gamma 90.000000
_cell_volume 2350.917506
_symmetry_space_group_name_H-M "C 2/C"
_symmetry_group_IT_number 15
_symmetry_cell_setting 'monoclinic'
loop_
_space_group_symop_operation_xyz
x,y,z
-x,y,1/2-z
-x,-y,-z
x,-y,1/2+z
1/2+x,1/2+y,z
1/2-x,1/2+y,1/2-z
1/2-x,1/2-y,-z
1/2+x,1/2-y,1/2+z
loop_
_atom_site_type_symbol
_atom_site_label
_atom_site_fract_x
_atom_site_fract_y
_atom_site_fract_z
Si Si1 0.103977 0.063712 0.885491
Si Si2 0.256650 0.420710 0.316725
Si Si3 0.341099 0.671217 0.160660
Si Si4 0.414776 0.961273 0.327264
Si Si5 0.769073 0.576606 0.372139
Si Si6 0.591973 0.897318 0.838418
O O1 0.137309 0.232084 0.912133
O O2 0.000000 0.063898 0.750000
O O3 0.122867 0.942992 0.848369
O O4 0.156746 0.017968 0.036340
O O5 0.174688 0.469664 0.251869
O O6 0.234613 0.453769 0.198913
O O7 0.282974 0.244638 0.359416
O O8 0.417259 0.794585 0.291785
O O9 0.320405 0.575863 0.206484
O O10 0.250000 0.750000 0.000000
O O11 0.500000 0.000000 0.500000
O O12 0.416797 0.082977 0.263411
O O13 0.849770 0.532907 0.543269
O O14 0.500000 0.902184 0.750000
#
# Coordination Sequence:
#
# PCOD8152033 Si02
#       6
#     8   8   8   8   8   8
#     4  11  24  41  65  94 133 171 219 274 333 403
#     4  11  23  40  61  98 128 170 221 273 333 393
#     4  11  21  46  65  93 131 176 220 271 337 402
#     4  11  23  41  66  94 131 171 223 278 330 400
#     4  11  22  40  67  91 131 172 220 271 331 401
#     4  11  23  40  62  95 128 173 223 270 334 400
#
# _framework density 20.417560000000002
#
# number of rings (size 3 to 8) (size 9 to 14) (size 15 to 20)
#    0.000    1.000    5.000    2.000    0.000   12.000 
#    0.000    1.667    0.000    0.000    0.000    0.000 
#    0.000    0.000    0.000    0.000    0.000    0.000 
#
# Total GULP energy -297593.906591 kJ/mol
# GULP energy per Si atom -12399.746108 kJ/mol
# Density = 2.037109 g / cm^3
# Si number density = 20.417560 Si / 1000 Ang^3
#
#
#
# Elastic Constant Matrix: (Units=GPa)
#
#
# Indices 1 2 3 4 5 6 
#
# 1 88.8301 38.1326 24.6212 0.0000 -18.9172 0.0000
# 2 38.1326 119.2869 52.0831 0.0000 -4.7862 0.0000
# 3 24.6212 52.0831 125.0200 0.0000 -16.3138 0.0000
# 4 0.0000 0.0000 0.0000 39.2846 0.0000 -5.9514
# 5 -18.9172 -4.7862 -16.3138 0.0000 36.8499 0.0000
# 6 0.0000 0.0000 0.0000 -5.9514 0.0000 36.4512
#
#
#
# Elastic Compliance Matrix: (Units=1/GPa)
#
#
# Indices 1 2 3 4 5 6 
#
# 1 0.014625 -0.004319 -0.000185 0.000000 0.006865 0.000000
# 2 -0.004319 0.011535 -0.004297 0.000000 -0.002621 0.000000
# 3 -0.000185 -0.004297 0.010337 0.000000 0.003923 0.000000
# 4 0.000000 0.000000 0.000000 0.026101 0.000000 0.004262
# 5 0.006865 -0.002621 0.003923 0.000000 0.032058 0.000000
# 6 0.000000 0.000000 0.000000 0.004262 0.000000 0.028130
#
#
# Mechanical properties :
#
#
# Convention : Reuss Voigt Hill
#
# Bulk Modulus (GPa) = 52.92432 62.53453 57.72942
# Shear Modulus (GPa) = 34.08677 37.07048 35.57863
#
# Velocity S-wave (km/s) = 4.09036 4.26563 4.17892
# Velocity P-wave (km/s) = 6.94877 7.41317 7.18472
#
# Compressibility (1/GPa) = 0.01889491
#
# Stress axis : x y z
#
# Youngs Moduli (GPa) = 68.37784 86.69530 96.73819
#
# Poissons Ratio (x) = 0.37442 0.01791
# Poissons Ratio (y) = 0.29531 0.41567
# Poissons Ratio (z) = 0.01266 0.37251
#
# Static dielectric constant tensor:
#      x y z
#    x 2.508800 0.000000 -1.018790 
#    y 0.000000 4.132830 0.000000 
#    z -1.018790 0.000000 3.151520 
# 
# 
# High freq. dielectric constant tensor:
#      x y z
#    x 1.808440 0.000000 -0.014420 
#    y 0.000000 1.808870 0.000000 
#    z -0.014420 0.000000 1.792180 
# 
# From -- ./inp_files/177000.got.cif
#   From: 2010.06.25/outbox.cif.g09.slc.cpg/sg15_89_cif.got.tgz:177000.got - 2010.06.28 07:06:18.
