data_PCOD8152045
_publ_section_title
;
Structure prediction by ZEFSAII (Michael W. Deem and Ramdas Pophale) SiO2 
 PCOD8152045
Probable space group: C 2/C
;
_chemical_formula_sum "Si O2"
_cell_formula_units_Z 64
_cell_length_a 14.204771
_cell_length_b 11.572044
_cell_length_c 16.966637
_cell_angle_alpha 90.000000
_cell_angle_beta 94.504380
_cell_angle_gamma 90.000000
_cell_volume 2780.331719
_symmetry_space_group_name_H-M "C 2/C"
_symmetry_group_IT_number 15
_symmetry_cell_setting 'monoclinic'
loop_
_space_group_symop_operation_xyz
x,y,z
-x,y,1/2-z
-x,-y,-z
x,-y,1/2+z
1/2+x,1/2+y,z
1/2-x,1/2+y,1/2-z
1/2-x,1/2-y,-z
1/2+x,1/2-y,1/2+z
loop_
_atom_site_type_symbol
_atom_site_label
_atom_site_fract_x
_atom_site_fract_y
_atom_site_fract_z
Si Si1 0.582920 0.833525 0.038436
Si Si2 0.251030 0.248481 0.405343
Si Si3 0.416180 0.590211 0.857716
Si Si4 0.684687 0.596128 0.062066
Si Si5 0.604352 0.648461 0.818921
Si Si6 0.244740 0.487513 0.090520
Si Si7 0.943672 0.646362 0.666654
Si Si8 0.105037 0.607161 0.368772
O O1 0.654610 0.725669 0.038534
O O2 0.637454 0.946422 0.073548
O O3 0.496919 0.809521 0.091570
O O4 0.550667 0.862681 0.947316
O O5 0.250000 0.250000 0.500000
O O6 0.346273 0.313210 0.386926
O O7 0.161880 0.303968 0.352779
O O8 0.255421 0.116678 0.375351
O O9 0.393743 0.462940 0.888370
O O10 0.527321 0.614280 0.882275
O O11 0.413980 0.586710 0.763985
O O12 0.783966 0.592610 0.111991
O O13 0.696586 0.515491 0.986592
O O14 0.707838 0.605241 0.848524
O O15 0.595943 0.786869 0.807242
O O16 0.938999 0.507754 0.671317
O O17 0.000000 0.688465 0.750000
#
# Coordination Sequence:
#
# PCOD8152045 Si02
#       8
#     8   8   8   8   8   8   8   8
#     4  11  24  43  75 105 144 191 248 302 363 441
#     4  12  26  48  74 104 148 191 247 299 368 441
#     4  11  27  44  67 104 142 186 239 301 364 430
#     4  11  21  46  72 100 144 181 239 306 357 433
#     4  11  26  43  69 104 138 188 241 290 372 432
#     4  11  23  43  73 103 134 188 238 296 365 431
#     4  12  30  45  70 112 151 193 244 312 382 427
#     4  11  22  47  71  99 143 188 246 296 359 450
#
# _framework density 23.018834999999999
#
# number of rings (size 3 to 8) (size 9 to 14) (size 15 to 20)
#    0.000    0.750    5.000    1.875    8.750    2.500 
#    0.000    0.000    0.000    0.000    0.000    0.000 
#    0.000    0.000    0.000    0.000    0.000    0.000 
#
# Total GULP energy -396668.109046 kJ/mol
# GULP energy per Si atom -12395.878408 kJ/mol
# Density = 2.296644 g / cm^3
# Si number density = 23.018835 Si / 1000 Ang^3
#
#
#
# Elastic Constant Matrix: (Units=GPa)
#
#
# Indices 1 2 3 4 5 6 
#
# 1 38.7547 10.3498 9.3496 0.0000 -3.4667 0.0000
# 2 10.3498 101.6577 10.0777 0.0000 -2.8149 0.0000
# 3 9.3496 10.0777 51.2580 0.0000 5.4912 0.0000
# 4 0.0000 0.0000 0.0000 31.9975 0.0000 -3.8445
# 5 -3.4667 -2.8149 5.4912 0.0000 36.5462 0.0000
# 6 0.0000 0.0000 0.0000 -3.8445 0.0000 36.4788
#
#
#
# Elastic Compliance Matrix: (Units=1/GPa)
#
#
# Indices 1 2 3 4 5 6 
#
# 1 0.027898 -0.002256 -0.004990 0.000000 0.003222 0.000000
# 2 -0.002256 0.010258 -0.001694 0.000000 0.000831 0.000000
# 3 -0.004990 -0.001694 0.021158 0.000000 -0.003783 0.000000
# 4 0.000000 0.000000 0.000000 0.031653 0.000000 0.003336
# 5 0.003222 0.000831 -0.003783 0.000000 0.028301 0.000000
# 6 0.000000 0.000000 0.000000 0.003336 0.000000 0.027765
#
#
# Mechanical properties :
#
#
# Convention : Reuss Voigt Hill
#
# Bulk Modulus (GPa) = 24.13604 27.91385 26.02494
# Shear Modulus (GPa) = 27.97606 31.79738 29.88672
#
# Velocity S-wave (km/s) = 3.48998 3.72070 3.60718
# Velocity P-wave (km/s) = 5.17185 5.53272 5.35533
#
# Compressibility (1/GPa) = 0.04143182
#
# Stress axis : x y z
#
# Youngs Moduli (GPa) = 35.84477 97.48868 47.26412
#
# Poissons Ratio (x) = 0.21997 0.23586
# Poissons Ratio (y) = 0.08088 0.08007
# Poissons Ratio (z) = 0.17887 0.16516
#
# Static dielectric constant tensor:
#      x y z
#    x 4.499780 0.000000 0.065790 
#    y 0.000000 4.171260 0.000000 
#    z 0.065790 0.000000 4.099350 
# 
# 
# High freq. dielectric constant tensor:
#      x y z
#    x 1.915890 0.000000 0.001570 
#    y 0.000000 1.915480 0.000000 
#    z 0.001570 0.000000 1.898080 
# 
# From -- ./inp_files/204453.got.cif
#   From: 2010.06.25/outbox.cif.g09.slc.cpg/sg15_103_cif.got.tgz:204453.got - 2010.06.28 07:06:18.
