data_PCOD8152408
_publ_section_title
;
Structure prediction by ZEFSAII (Michael W. Deem and Ramdas Pophale) SiO2 
 PCOD8152408
Probable space group: C 2/C
;
_chemical_formula_sum "Si O2"
_cell_formula_units_Z 48
_cell_length_a 16.583678
_cell_length_b 9.631723
_cell_length_c 27.383871
_cell_angle_alpha 90.000000
_cell_angle_beta 33.131640
_cell_angle_gamma 90.000000
_cell_volume 2390.678023
_symmetry_space_group_name_H-M "C 2/C"
_symmetry_group_IT_number 15
_symmetry_cell_setting 'monoclinic'
loop_
_space_group_symop_operation_xyz
x,y,z
-x,y,1/2-z
-x,-y,-z
x,-y,1/2+z
1/2+x,1/2+y,z
1/2-x,1/2+y,1/2-z
1/2-x,1/2-y,-z
1/2+x,1/2-y,1/2+z
loop_
_atom_site_type_symbol
_atom_site_label
_atom_site_fract_x
_atom_site_fract_y
_atom_site_fract_z
Si Si1 0.000000 0.863513 0.750000
Si Si2 0.596342 0.539132 0.300177
Si Si3 0.500000 0.905242 0.750000
Si Si4 0.230174 0.636858 0.637069
Si Si5 0.328925 0.269176 0.188434
Si Si6 0.205214 0.895411 0.499538
Si Si7 0.885994 0.658570 0.410975
O O1 0.063827 0.962723 0.759290
O O2 0.130748 0.762741 0.666224
O O3 0.684863 0.400188 0.268459
O O4 0.686607 0.674574 0.270706
O O5 0.439101 0.536271 0.405313
O O6 0.561174 0.813430 0.672690
O O7 0.632507 0.003589 0.702372
O O8 0.330599 0.680609 0.631582
O O9 0.333897 0.607364 0.538231
O O10 0.477951 0.184473 0.121921
O O11 0.250000 0.750000 0.500000
O O12 0.344460 0.997032 0.436916
O O13 0.750000 0.750000 0.500000
#
# Coordination Sequence:
#
# PCOD8152408 Si02
#       7
#     4   8   4   8   8   8   8
#     4   9  18  37  60  88 124 162 210 262 320 380
#     4  11  23  40  63  91 125 169 211 266 326 383
#     4   9  20  39  70  88 126 182 216 252 330 398
#     4   9  19  38  64  91 121 169 217 260 320 391
#     4  11  24  41  61  95 129 161 210 274 319 375
#     4  11  22  41  68  89 121 173 218 257 324 397
#     4  11  23  44  63  97 132 168 216 271 320 386
#
# _framework density 20.077985000000002
#
# number of rings (size 3 to 8) (size 9 to 14) (size 15 to 20)
#    0.000    1.667    3.333    1.000    4.667    1.333 
#    3.000    0.833    0.000    0.000    0.000    0.000 
#    0.000    0.000    0.000    0.000    0.000    0.000 
#
# Total GULP energy -297504.311028 kJ/mol
# GULP energy per Si atom -12396.012960 kJ/mol
# Density = 2.003229 g / cm^3
# Si number density = 20.077985 Si / 1000 Ang^3
#
#
#
# Elastic Constant Matrix: (Units=GPa)
#
#
# Indices 1 2 3 4 5 6 
#
# 1 135.5927 55.2700 38.3758 0.0000 -1.6366 0.0011
# 2 55.2700 98.0625 22.8330 -0.0001 10.3652 0.0012
# 3 38.3758 22.8330 94.1697 0.0000 14.5805 0.0006
# 4 0.0000 -0.0001 0.0000 33.3499 -0.0001 -4.2765
# 5 -1.6366 10.3652 14.5805 -0.0001 27.0577 -0.0002
# 6 0.0011 0.0012 0.0006 -4.2765 -0.0002 40.1479
#
#
#
# Elastic Compliance Matrix: (Units=1/GPa)
#
#
# Indices 1 2 3 4 5 6 
#
# 1 0.010850 -0.005752 -0.003786 0.000000 0.004900 0.000000
# 2 -0.005752 0.014081 -0.000198 0.000000 -0.005636 0.000000
# 3 -0.003786 -0.000198 0.013347 0.000000 -0.007346 0.000000
# 4 0.000000 0.000000 0.000000 0.030400 0.000000 0.003238
# 5 0.004900 -0.005636 -0.007346 0.000000 0.043372 0.000000
# 6 0.000000 0.000000 0.000000 0.003238 0.000000 0.025253
#
#
# Mechanical properties :
#
#
# Convention : Reuss Voigt Hill
#
# Bulk Modulus (GPa) = 53.16841 62.30917 57.73879
# Shear Modulus (GPa) = 30.66685 34.20084 32.43385
#
# Velocity S-wave (km/s) = 3.91242 4.13170 4.02356
# Velocity P-wave (km/s) = 6.85185 7.33909 7.09965
#
# Compressibility (1/GPa) = 0.01880816
#
# Stress axis : x y z
#
# Youngs Moduli (GPa) = 92.16502 71.01716 74.92266
#
# Poissons Ratio (x) = 0.40847 0.28363
# Poissons Ratio (y) = 0.53011 0.01481
# Poissons Ratio (z) = 0.34890 0.01404
#
# Static dielectric constant tensor:
#      x y z
#    x 3.710900 0.000000 0.014550 
#    y 0.000000 3.755620 0.000000 
#    z 0.014550 0.000000 3.663250 
# 
# 
# High freq. dielectric constant tensor:
#      x y z
#    x 1.785640 0.000000 0.004060 
#    y 0.000000 1.784210 0.000000 
#    z 0.004060 0.000000 1.778780 
# 
# From -- ./inp_files/208995.got.cif
#   From: 2010.06.25/outbox.cif.g09.slc.cpg/sg15_105_cif.got.tgz:208995.got - 2010.06.28 07:06:18.
