data_PCOD8152842
_publ_section_title
;
Structure prediction by ZEFSAII (Michael W. Deem and Ramdas Pophale) SiO2 
 PCOD8152842
Probable space group: C 2/C
;
_chemical_formula_sum "Si O2"
_cell_formula_units_Z 64
_cell_length_a 11.993412
_cell_length_b 26.212983
_cell_length_c 13.549995
_cell_angle_alpha 90.000000
_cell_angle_beta 138.230112
_cell_angle_gamma 90.000000
_cell_volume 2837.685307
_symmetry_space_group_name_H-M "C 2/C"
_symmetry_group_IT_number 15
_symmetry_cell_setting 'monoclinic'
loop_
_space_group_symop_operation_xyz
x,y,z
-x,y,1/2-z
-x,-y,-z
x,-y,1/2+z
1/2+x,1/2+y,z
1/2-x,1/2+y,1/2-z
1/2-x,1/2-y,-z
1/2+x,1/2-y,1/2+z
loop_
_atom_site_type_symbol
_atom_site_label
_atom_site_fract_x
_atom_site_fract_y
_atom_site_fract_z
Si Si1 0.243460 0.439897 0.501457
Si Si2 0.836288 0.583621 0.339616
Si Si3 0.501287 0.705905 0.488099
Si Si4 0.375610 0.947234 0.585645
Si Si5 0.567890 0.373984 0.400196
Si Si6 0.325057 0.168713 0.593592
Si Si7 0.986152 0.941628 0.972402
Si Si8 0.799970 0.697526 0.358367
O O1 0.258897 0.440615 0.629409
O O2 0.177738 0.494881 0.422529
O O3 0.131412 0.391329 0.396264
O O4 0.420973 0.427581 0.567492
O O5 0.708878 0.574451 0.164460
O O6 0.872915 0.643503 0.372399
O O7 0.012411 0.554431 0.440646
O O8 0.407521 0.676129 0.515500
O O9 0.671974 0.676724 0.568473
O O10 0.372335 0.710862 0.311875
O O11 0.555390 0.760868 0.566538
O O12 0.500000 0.925665 0.750000
O O13 0.228157 0.907331 0.477103
O O14 0.500000 0.356028 0.250000
O O15 0.446948 0.411418 0.386166
O O16 0.500000 0.192437 0.750000
O O17 0.267553 0.196671 0.454792
O O18 0.000000 0.000000 0.000000
#
# Coordination Sequence:
#
# PCOD8152842 Si02
#       8
#     8   8   8   8   8   8   8   8
#     4  11  23  38  68 106 143 183 230 281 355 423
#     4  11  24  44  69 104 141 185 229 294 346 417
#     4  12  24  48  70  99 138 183 240 290 361 420
#     4  12  23  45  65  99 145 190 232 280 348 417
#     4  12  28  46  71 100 139 189 237 296 346 426
#     4  11  23  40  68 109 147 181 228 295 358 425
#     4  12  22  43  72 101 143 188 235 281 356 429
#     4  11  24  44  73 102 136 185 235 298 355 417
#
# _framework density 22.553595000000001
#
# number of rings (size 3 to 8) (size 9 to 14) (size 15 to 20)
#    0.000    0.500    5.000    2.625    1.750    5.000 
#    2.250    3.125    0.000    0.000    0.000    0.000 
#    0.000    0.000    0.000    0.000    0.000    0.000 
#
# Total GULP energy -396585.748637 kJ/mol
# GULP energy per Si atom -12393.304645 kJ/mol
# Density = 2.250226 g / cm^3
# Si number density = 22.553595 Si / 1000 Ang^3
#
#
#
# Elastic Constant Matrix: (Units=GPa)
#
#
# Indices 1 2 3 4 5 6 
#
# 1 129.3745 32.5779 45.3905 0.0000 0.2514 0.0000
# 2 32.5779 122.6940 37.2182 0.0000 -3.6172 0.0000
# 3 45.3905 37.2182 132.2216 0.0000 -6.7375 0.0000
# 4 0.0000 0.0000 0.0000 26.2274 0.0000 -0.5616
# 5 0.2514 -3.6172 -6.7375 0.0000 32.7810 0.0000
# 6 0.0000 0.0000 0.0000 -0.5616 0.0000 35.1727
#
#
#
# Elastic Compliance Matrix: (Units=1/GPa)
#
#
# Indices 1 2 3 4 5 6 
#
# 1 0.009087 -0.001616 -0.002706 0.000000 -0.000804 0.000000
# 2 -0.001616 0.009206 -0.002005 0.000000 0.000616 0.000000
# 3 -0.002706 -0.002005 0.009142 0.000000 0.001678 0.000000
# 4 0.000000 0.000000 0.000000 0.038141 0.000000 0.000609
# 5 -0.000804 0.000616 0.001678 0.000000 0.030925 0.000000
# 6 0.000000 0.000000 0.000000 0.000609 0.000000 0.028441
#
#
# Mechanical properties :
#
#
# Convention : Reuss Voigt Hill
#
# Bulk Modulus (GPa) = 67.65230 68.29593 67.97412
# Shear Modulus (GPa) = 35.08228 36.77645 35.92937
#
# Velocity S-wave (km/s) = 3.94827 4.04248 3.99565
# Velocity P-wave (km/s) = 7.13067 7.22054 7.17575
#
# Compressibility (1/GPa) = 0.01478146
#
# Stress axis : x y z
#
# Youngs Moduli (GPa) = 110.04457 108.62708 109.38692
#
# Poissons Ratio (x) = 0.17552 0.29597
# Poissons Ratio (y) = 0.17781 0.21934
# Poissons Ratio (z) = 0.29775 0.21782
#
# Static dielectric constant tensor:
#      x y z
#    x 4.395690 0.000000 -0.107940 
#    y 0.000000 4.204760 0.000000 
#    z -0.107940 0.000000 3.841900 
# 
# 
# High freq. dielectric constant tensor:
#      x y z
#    x 1.892860 0.000000 -0.008680 
#    y 0.000000 1.897350 0.000000 
#    z -0.008680 0.000000 1.873680 
# 
# From -- ./inp_files/148775.got.cif
#   From: 2010.06.25/outbox.cif.g09.slc.cpg/sg15_75_cif.got.tgz:148775.got - 2010.06.28 07:06:18.
