data_PCOD8152632
_publ_section_title
;
Structure prediction by ZEFSAII (Michael W. Deem and Ramdas Pophale) SiO2 
 PCOD8152632
Probable space group: C 2/C
;
_chemical_formula_sum "Si O2"
_cell_formula_units_Z 52
_cell_length_a 12.039009
_cell_length_b 8.801620
_cell_length_c 24.652381
_cell_angle_alpha 90.000000
_cell_angle_beta 114.911625
_cell_angle_gamma 90.000000
_cell_volume 2369.188814
_symmetry_space_group_name_H-M "C 2/C"
_symmetry_group_IT_number 15
_symmetry_cell_setting 'monoclinic'
loop_
_space_group_symop_operation_xyz
x,y,z
-x,y,1/2-z
-x,-y,-z
x,-y,1/2+z
1/2+x,1/2+y,z
1/2-x,1/2+y,1/2-z
1/2-x,1/2-y,-z
1/2+x,1/2-y,1/2+z
loop_
_atom_site_type_symbol
_atom_site_label
_atom_site_fract_x
_atom_site_fract_y
_atom_site_fract_z
Si Si1 0.811036 0.720512 0.069532
Si Si2 0.522462 0.559681 0.643878
Si Si3 0.890314 0.149876 0.190287
Si Si4 0.000000 0.544225 0.250000
Si Si5 0.589371 0.910836 0.374866
Si Si6 0.798467 0.727808 0.267511
Si Si7 0.131041 0.752999 0.630491
O O1 0.940242 0.811548 0.097091
O O2 0.830738 0.538302 0.078932
O O3 0.717074 0.774019 0.096603
O O4 0.750000 0.750000 0.000000
O O5 0.441239 0.510316 0.679026
O O6 0.652911 0.622052 0.691862
O O7 0.561482 0.416939 0.613853
O O8 0.853365 0.245146 0.127381
O O9 0.771417 0.123358 0.202690
O O10 0.000000 0.224327 0.250000
O O11 0.079419 0.453021 0.309040
O O12 0.082916 0.644211 0.228364
O O13 0.468467 0.883216 0.386553
O O14 0.706749 0.768475 0.200908
#
# Coordination Sequence:
#
# PCOD8152632 Si02
#       7
#     8   8   8   4   8   8   8
#     4  12  28  47  67  90 127 183 241 279 318 376
#     4  11  26  42  65 105 133 172 222 265 336 408
#     4  11  23  38  66 105 140 168 206 260 345 418
#     4  12  22  34  62 106 136 174 204 260 342 410
#     4  11  22  44  61 100 133 167 221 263 337 403
#     4  12  22  37  67 101 145 167 203 265 344 413
#     4  11  25  41  69  95 136 171 211 283 337 397
#
# _framework density 21.948440000000002
#
# number of rings (size 3 to 8) (size 9 to 14) (size 15 to 20)
#    0.000    0.615    6.923    0.923    7.538    1.231 
#    0.000    3.077    0.000    0.000    0.000    0.000 
#    0.000    0.000    0.000    0.000    0.000    0.000 
#
# Total GULP energy -322138.231825 kJ/mol
# GULP energy per Si atom -12389.931993 kJ/mol
# Density = 2.189848 g / cm^3
# Si number density = 21.948440 Si / 1000 Ang^3
#
#
#
# Elastic Constant Matrix: (Units=GPa)
#
#
# Indices 1 2 3 4 5 6 
#
# 1 115.3289 10.6799 25.4687 0.0000 -1.2062 0.0000
# 2 10.6799 52.4166 26.0858 0.0000 9.1628 0.0000
# 3 25.4687 26.0858 78.6051 0.0000 3.1624 0.0000
# 4 0.0000 0.0000 0.0000 17.1620 0.0000 1.8379
# 5 -1.2062 9.1628 3.1624 0.0000 16.7265 0.0000
# 6 0.0000 0.0000 0.0000 1.8379 0.0000 26.5333
#
#
#
# Elastic Compliance Matrix: (Units=1/GPa)
#
#
# Indices 1 2 3 4 5 6 
#
# 1 0.009390 -0.000783 -0.002849 0.000000 0.001645 0.000000
# 2 -0.000783 0.025195 -0.007608 0.000000 -0.012420 0.000000
# 3 -0.002849 -0.007608 0.016133 0.000000 0.000912 0.000000
# 4 0.000000 0.000000 0.000000 0.058704 0.000000 -0.004066
# 5 0.001645 -0.012420 0.000912 0.000000 0.066535 0.000000
# 6 0.000000 0.000000 0.000000 -0.004066 0.000000 0.037970
#
#
# Mechanical properties :
#
#
# Convention : Reuss Voigt Hill
#
# Bulk Modulus (GPa) = 35.41275 41.20215 38.30745
# Shear Modulus (GPa) = 20.34028 24.35875 22.34952
#
# Velocity S-wave (km/s) = 3.04753 3.33501 3.19450
# Velocity P-wave (km/s) = 5.34348 5.80023 5.57653
#
# Compressibility (1/GPa) = 0.02823842
#
# Stress axis : x y z
#
# Youngs Moduli (GPa) = 106.50037 39.69103 61.98547
#
# Poissons Ratio (x) = 0.03108 0.17657
# Poissons Ratio (y) = 0.08339 0.47157
# Poissons Ratio (z) = 0.30338 0.30196
#
# Static dielectric constant tensor:
#      x y z
#    x 4.471700 0.000000 -0.163950 
#    y 0.000000 4.289900 0.000000 
#    z -0.163950 0.000000 3.571980 
# 
# 
# High freq. dielectric constant tensor:
#      x y z
#    x 1.880250 0.000000 -0.005900 
#    y 0.000000 1.877460 0.000000 
#    z -0.005900 0.000000 1.804780 
# 
# From -- ./inp_files/291688.got.cif
#   From: 2010.06.25/outbox.cif.g09.slc.cpg/sg15_146_cif.got.tgz:291688.got - 2010.06.28 07:06:18.
