data_PCOD8152171
_publ_section_title
;
Structure prediction by ZEFSAII (Michael W. Deem and Ramdas Pophale) SiO2 
 PCOD8152171
Probable space group: C 2/C
;
_chemical_formula_sum "Si O2"
_cell_formula_units_Z 48
_cell_length_a 13.124564
_cell_length_b 13.891551
_cell_length_c 12.539001
_cell_angle_alpha 90.000000
_cell_angle_beta 104.427552
_cell_angle_gamma 90.000000
_cell_volume 2214.021325
_symmetry_space_group_name_H-M "C 2/C"
_symmetry_group_IT_number 15
_symmetry_cell_setting 'monoclinic'
loop_
_space_group_symop_operation_xyz
x,y,z
-x,y,1/2-z
-x,-y,-z
x,-y,1/2+z
1/2+x,1/2+y,z
1/2-x,1/2+y,1/2-z
1/2-x,1/2-y,-z
1/2+x,1/2-y,1/2+z
loop_
_atom_site_type_symbol
_atom_site_label
_atom_site_fract_x
_atom_site_fract_y
_atom_site_fract_z
Si Si1 0.030201 0.361841 0.988919
Si Si2 0.150084 0.649810 0.304197
Si Si3 0.658752 0.020567 0.114623
Si Si4 0.620694 0.327389 0.597202
Si Si5 0.500000 0.609477 0.250000
Si Si6 0.500000 0.695249 0.750000
Si Si7 0.116594 0.038176 0.914229
O O1 0.080126 0.385732 0.885858
O O2 0.907592 0.393957 0.961042
O O3 0.089503 0.423623 0.095712
O O4 0.046400 0.249575 0.018565
O O5 0.180325 0.556630 0.241023
O O6 0.256423 0.700725 0.375314
O O7 0.084479 0.730103 0.217507
O O8 0.766450 0.994538 0.084212
O O9 0.589842 0.329072 0.714917
O O10 0.609779 0.432884 0.536964
O O11 0.457028 0.549572 0.138197
O O12 0.573804 0.633609 0.845173
#
# Coordination Sequence:
#
# PCOD8152171 Si02
#       7
#     8   8   8   8   4   4   8
#     4  11  23  41  67  96 134 175 216 271 333 396
#     4  12  20  39  68  97 132 170 227 267 319 398
#     4  11  22  39  65 101 130 165 220 273 323 388
#     4  12  23  44  67  94 133 176 226 272 332 397
#     4  11  26  42  63  98 132 170 225 286 328 385
#     4  11  22  38  71  98 122 180 227 264 314 407
#     4  11  22  42  67  95 130 175 220 269 331 391
#
# _framework density 21.680008000000001
#
# number of rings (size 3 to 8) (size 9 to 14) (size 15 to 20)
#    0.000    0.667    6.667    2.000    0.000    0.000 
#    6.000    0.833    0.000    0.000    0.000    0.000 
#    0.000    0.000    0.000    0.000    0.000    0.000 
#
# Total GULP energy -297323.440146 kJ/mol
# GULP energy per Si atom -12388.476673 kJ/mol
# Density = 2.163066 g / cm^3
# Si number density = 21.680008 Si / 1000 Ang^3
#
#
#
# Elastic Constant Matrix: (Units=GPa)
#
#
# Indices 1 2 3 4 5 6 
#
# 1 132.2520 36.6874 45.3188 0.0000 7.5259 0.0000
# 2 36.6874 80.5894 35.7890 0.0000 -6.3209 0.0000
# 3 45.3188 35.7890 85.2521 0.0000 -13.7653 0.0000
# 4 0.0000 0.0000 0.0000 25.4973 0.0000 10.3681
# 5 7.5259 -6.3209 -13.7653 0.0000 36.6400 0.0000
# 6 0.0000 0.0000 0.0000 10.3681 0.0000 38.4454
#
#
#
# Elastic Compliance Matrix: (Units=1/GPa)
#
#
# Indices 1 2 3 4 5 6 
#
# 1 0.010323 -0.002818 -0.005030 0.000000 -0.004496 0.000000
# 2 -0.002818 0.016023 -0.004992 0.000000 0.001468 0.000000
# 3 -0.005030 -0.004992 0.017595 0.000000 0.006782 0.000000
# 4 0.000000 0.000000 0.000000 0.044051 0.000000 -0.011880
# 5 -0.004496 0.001468 0.006782 0.000000 0.031017 0.000000
# 6 0.000000 0.000000 0.000000 -0.011880 0.000000 0.029215
#
#
# Mechanical properties :
#
#
# Convention : Reuss Voigt Hill
#
# Bulk Modulus (GPa) = 54.76282 59.29821 57.03052
# Shear Modulus (GPa) = 27.77932 32.13641 29.95787
#
# Velocity S-wave (km/s) = 3.58346 3.85425 3.72132
# Velocity P-wave (km/s) = 6.51429 6.87153 6.69529
#
# Compressibility (1/GPa) = 0.01826057
#
# Stress axis : x y z
#
# Youngs Moduli (GPa) = 96.87410 62.40913 56.83566
#
# Poissons Ratio (x) = 0.17587 0.28591
# Poissons Ratio (y) = 0.27299 0.28370
# Poissons Ratio (z) = 0.48731 0.31152
#
# Static dielectric constant tensor:
#      x y z
#    x 4.075540 0.000000 0.281160 
#    y 0.000000 3.891830 0.000000 
#    z 0.281160 0.000000 3.873420 
# 
# 
# High freq. dielectric constant tensor:
#      x y z
#    x 1.863790 0.000000 0.023320 
#    y 0.000000 1.840820 0.000000 
#    z 0.023320 0.000000 1.840100 
# 
# From -- ./inp_files/143712.got.cif
#   From: 2010.06.25/outbox.cif.g09.slc.cpg/sg15_72_cif.got.tgz:143712.got - 2010.06.28 07:06:18.
