data_PCOD8152775
_publ_section_title
;
Structure prediction by ZEFSAII (Michael W. Deem and Ramdas Pophale) SiO2 
 PCOD8152775
Probable space group: C 2/C
;
_chemical_formula_sum "Si O2"
_cell_formula_units_Z 44
_cell_length_a 19.484394
_cell_length_b 6.675907
_cell_length_c 14.119948
_cell_angle_alpha 90.000000
_cell_angle_beta 95.773392
_cell_angle_gamma 90.000000
_cell_volume 1827.349957
_symmetry_space_group_name_H-M "C 2/C"
_symmetry_group_IT_number 15
_symmetry_cell_setting 'monoclinic'
loop_
_space_group_symop_operation_xyz
x,y,z
-x,y,1/2-z
-x,-y,-z
x,-y,1/2+z
1/2+x,1/2+y,z
1/2-x,1/2+y,1/2-z
1/2-x,1/2-y,-z
1/2+x,1/2-y,1/2+z
loop_
_atom_site_type_symbol
_atom_site_label
_atom_site_fract_x
_atom_site_fract_y
_atom_site_fract_z
Si Si1 0.840353 0.270541 0.827761
Si Si2 0.202103 0.950855 0.822047
Si Si3 0.168652 0.753924 0.470711
Si Si4 0.878989 0.560142 0.676069
Si Si5 0.500000 0.699163 0.250000
Si Si6 0.434614 0.523584 0.422657
O O1 0.782540 0.419203 0.864130
O O2 0.884236 0.391731 0.757192
O O3 0.801363 0.080057 0.774543
O O4 0.892207 0.186525 0.915325
O O5 0.173717 0.730736 0.799354
O O6 0.157719 0.061961 0.896312
O O7 0.250000 0.750000 0.500000
O O8 0.144674 0.541442 0.425199
O O9 0.118074 0.801002 0.551586
O O10 0.953653 0.661341 0.675756
O O11 0.455528 0.564600 0.316248
O O12 0.500000 0.500000 0.500000
#
# Coordination Sequence:
#
# PCOD8152775 Si02
#       6
#     8   8   8   8   4   8
#     4  11  24  42  79 106 148 190 251 309 381 450
#     4  11  22  46  73 113 145 196 249 318 376 447
#     4  11  28  47  74 114 153 194 258 318 387 453
#     4  11  25  45  75 104 146 203 247 309 376 451
#     4  12  28  48  76 104 154 202 260 300 386 460
#     4  12  29  50  73 112 158 200 250 319 383 470
#
# _framework density 24.078583999999999
#
# number of rings (size 3 to 8) (size 9 to 14) (size 15 to 20)
#    0.000    0.727    3.636    2.182   10.182    5.091 
#    0.000    0.000    0.000    0.000    0.000    0.000 
#    0.000    0.000    0.000    0.000    0.000    0.000 
#
# Total GULP energy -272781.974228 kJ/mol
# GULP energy per Si atom -12399.180647 kJ/mol
# Density = 2.402378 g / cm^3
# Si number density = 24.078584 Si / 1000 Ang^3
#
#
#
# Elastic Constant Matrix: (Units=GPa)
#
#
# Indices 1 2 3 4 5 6 
#
# 1 126.1899 21.4987 28.0878 0.0000 6.1440 0.0000
# 2 21.4987 91.5825 15.0147 0.0000 -0.1322 0.0000
# 3 28.0878 15.0147 72.5647 0.0000 4.5094 0.0000
# 4 0.0000 0.0000 0.0000 26.8459 0.0000 11.8275
# 5 6.1440 -0.1322 4.5094 0.0000 49.5268 0.0000
# 6 0.0000 0.0000 0.0000 11.8275 0.0000 40.5044
#
#
#
# Elastic Compliance Matrix: (Units=1/GPa)
#
#
# Indices 1 2 3 4 5 6 
#
# 1 0.008920 -0.001592 -0.003072 0.000000 -0.000831 0.000000
# 2 -0.001592 0.011589 -0.001806 0.000000 0.000393 0.000000
# 3 -0.003072 -0.001806 0.015407 0.000000 -0.001027 0.000000
# 4 0.000000 0.000000 0.000000 0.042749 0.000000 -0.012483
# 5 -0.000831 0.000393 -0.001027 0.000000 0.020389 0.000000
# 6 0.000000 0.000000 0.000000 -0.012483 0.000000 0.028334
#
#
# Mechanical properties :
#
#
# Convention : Reuss Voigt Hill
#
# Bulk Modulus (GPa) = 43.52093 46.61549 45.06821
# Shear Modulus (GPa) = 33.78681 38.42448 36.10565
#
# Velocity S-wave (km/s) = 3.74998 3.99907 3.87653
# Velocity P-wave (km/s) = 6.07154 6.38163 6.22852
#
# Compressibility (1/GPa) = 0.02297745
#
# Stress axis : x y z
#
# Youngs Moduli (GPa) = 112.10914 86.28538 64.90414
#
# Poissons Ratio (x) = 0.13732 0.19936
# Poissons Ratio (y) = 0.17842 0.11724
# Poissons Ratio (z) = 0.34436 0.15587
#
# Static dielectric constant tensor:
#      x y z
#    x 4.389230 0.000000 0.164140 
#    y 0.000000 4.467650 0.000000 
#    z 0.164140 0.000000 4.134710 
# 
# 
# High freq. dielectric constant tensor:
#      x y z
#    x 1.961960 0.000000 0.009260 
#    y 0.000000 1.966060 0.000000 
#    z 0.009260 0.000000 1.940910 
# 
# From -- ./inp_files/212978.got.cif
#   From: 2010.06.25/outbox.cif.g09.slc.cpg/sg15_107_cif.got.tgz:212978.got - 2010.06.28 07:06:18.
