data_PCOD8152923
_publ_section_title
;
Structure prediction by ZEFSAII (Michael W. Deem and Ramdas Pophale) SiO2 
 PCOD8152923
Probable space group: C 2/C
;
_chemical_formula_sum "Si O2"
_cell_formula_units_Z 56
_cell_length_a 9.091604
_cell_length_b 27.371270
_cell_length_c 21.343281
_cell_angle_alpha 90.000000
_cell_angle_beta 150.682545
_cell_angle_gamma 90.000000
_cell_volume 2600.642873
_symmetry_space_group_name_H-M "C 2/C"
_symmetry_group_IT_number 15
_symmetry_cell_setting 'monoclinic'
loop_
_space_group_symop_operation_xyz
x,y,z
-x,y,1/2-z
-x,-y,-z
x,-y,1/2+z
1/2+x,1/2+y,z
1/2-x,1/2+y,1/2-z
1/2-x,1/2-y,-z
1/2+x,1/2-y,1/2+z
loop_
_atom_site_type_symbol
_atom_site_label
_atom_site_fract_x
_atom_site_fract_y
_atom_site_fract_z
Si Si1 0.631171 0.980761 0.483626
Si Si2 0.846205 0.681029 0.008538
Si Si3 0.670379 0.144306 0.249969
Si Si4 0.744597 0.692589 0.508631
Si Si5 0.337237 0.277431 0.391404
Si Si6 0.325710 0.970694 0.749053
Si Si7 0.838485 0.619829 0.889731
O O1 0.564320 0.923297 0.455370
O O2 0.987326 0.990565 0.615720
O O3 0.500000 0.000000 0.500000
O O4 0.483667 0.005870 0.368242
O O5 0.006552 0.671798 0.133456
O O6 0.004237 0.726144 0.031503
O O7 0.501667 0.696395 0.894228
O O8 0.858854 0.632680 0.971025
O O9 0.500000 0.158273 0.250000
O O10 0.675622 0.086863 0.240092
O O11 0.006763 0.165277 0.375970
O O12 0.750000 0.750000 0.500000
O O13 0.654508 0.684800 0.547573
O O14 0.067786 0.667613 0.615539
O O15 0.000000 0.264137 0.250000
O O16 0.500000 0.984918 0.750000
O O17 0.500000 0.603795 0.750000
#
# Coordination Sequence:
#
# PCOD8152923 Si02
#       7
#     8   8   8   8   8   8   8
#     4  12  25  47  74 109 146 183 236 306 372 432
#     4  11  24  41  64  96 132 182 233 278 343 413
#     4  11  23  43  70  98 136 180 237 284 339 422
#     4  12  23  42  66  98 141 185 230 283 340 413
#     4  11  23  41  61  93 134 183 231 281 338 407
#     4  11  25  47  76 107 142 189 241 296 366 442
#     4  12  26  44  67 103 140 181 232 291 358 418
#
# _framework density 21.533137
#
# number of rings (size 3 to 8) (size 9 to 14) (size 15 to 20)
#    0.000    0.571    4.286    4.286    0.000    1.714 
#    0.000    2.143    0.000    0.000    0.000    0.000 
#    0.000    0.000    0.000    0.000    0.000    0.000 
#
# Total GULP energy -347295.768983 kJ/mol
# GULP energy per Si atom -12403.420321 kJ/mol
# Density = 2.148413 g / cm^3
# Si number density = 21.533137 Si / 1000 Ang^3
#
#
#
# Elastic Constant Matrix: (Units=GPa)
#
#
# Indices 1 2 3 4 5 6 
#
# 1 130.0641 47.8446 65.5383 -0.0017 0.9158 -0.0008
# 2 47.8446 99.1101 32.6063 -0.0011 -5.3655 -0.0010
# 3 65.5383 32.6063 127.8308 -0.0001 7.9083 -0.0068
# 4 -0.0017 -0.0011 -0.0001 34.8883 -0.0015 -2.1676
# 5 0.9158 -5.3655 7.9083 -0.0015 45.5226 -0.0001
# 6 -0.0008 -0.0010 -0.0068 -2.1676 -0.0001 42.0417
#
#
#
# Elastic Compliance Matrix: (Units=1/GPa)
#
#
# Indices 1 2 3 4 5 6 
#
# 1 0.011657 -0.003984 -0.004970 0.000000 0.000159 -0.000001
# 2 -0.003984 0.012524 -0.001262 0.000000 0.001776 0.000000
# 3 -0.004970 -0.001262 0.010812 0.000000 -0.001927 0.000002
# 4 0.000000 0.000000 0.000000 0.028755 0.000001 0.001483
# 5 0.000159 0.001776 -0.001927 0.000001 0.022508 0.000000
# 6 -0.000001 0.000000 0.000002 0.001483 0.000000 0.023862
#
#
# Mechanical properties :
#
#
# Convention : Reuss Voigt Hill
#
# Bulk Modulus (GPa) = 68.67366 72.10926 70.39146
# Shear Modulus (GPa) = 36.92622 38.55825 37.74224
#
# Velocity S-wave (km/s) = 4.14557 4.23619 4.19113
# Velocity P-wave (km/s) = 7.40781 7.58205 7.49544
#
# Compressibility (1/GPa) = 0.01456162
#
# Stress axis : x y z
#
# Youngs Moduli (GPa) = 85.78285 79.84556 92.48743
#
# Poissons Ratio (x) = 0.31808 0.45970
# Poissons Ratio (y) = 0.34173 0.11672
# Poissons Ratio (z) = 0.42638 0.10077
#
# Static dielectric constant tensor:
#      x y z
#    x 4.262130 0.000000 0.028380 
#    y 0.000000 3.818370 0.000000 
#    z 0.028380 0.000000 3.912880 
# 
# 
# High freq. dielectric constant tensor:
#      x y z
#    x 1.865590 0.000000 0.006180 
#    y 0.000000 1.842090 0.000000 
#    z 0.006180 0.000000 1.850850 
# 
# From -- ./inp_files/234985.got.cif
#   From: 2010.06.25/outbox.cif.g09.slc.cpg/sg15_118_cif.got.tgz:234985.got - 2010.06.28 07:06:18.
