data_PCOD8152350
_publ_section_title
;
Structure prediction by ZEFSAII (Michael W. Deem and Ramdas Pophale) SiO2 
 PCOD8152350
Probable space group: C 2/C
;
_chemical_formula_sum "Si O2"
_cell_formula_units_Z 60
_cell_length_a 11.683058
_cell_length_b 15.266623
_cell_length_c 19.235524
_cell_angle_alpha 90.000000
_cell_angle_beta 118.038089
_cell_angle_gamma 90.000000
_cell_volume 3028.201913
_symmetry_space_group_name_H-M "C 2/C"
_symmetry_group_IT_number 15
_symmetry_cell_setting 'monoclinic'
loop_
_space_group_symop_operation_xyz
x,y,z
-x,y,1/2-z
-x,-y,-z
x,-y,1/2+z
1/2+x,1/2+y,z
1/2-x,1/2+y,1/2-z
1/2-x,1/2-y,-z
1/2+x,1/2-y,1/2+z
loop_
_atom_site_type_symbol
_atom_site_label
_atom_site_fract_x
_atom_site_fract_y
_atom_site_fract_z
Si Si1 0.345395 0.842249 0.301129
Si Si2 0.679434 0.478804 0.180952
Si Si3 0.187983 0.069371 0.325927
Si Si4 0.798387 0.583696 0.093391
Si Si5 0.500000 0.722155 0.250000
Si Si6 0.899398 0.065399 0.586623
Si Si7 0.041079 0.496096 0.590696
Si Si8 0.871849 0.763714 0.170850
O O1 0.273602 0.896120 0.219548
O O2 0.459170 0.783066 0.302398
O O3 0.245491 0.777438 0.309530
O O4 0.405814 0.908190 0.374613
O O5 0.635555 0.519856 0.242328
O O6 0.753859 0.549573 0.155802
O O7 0.548076 0.448362 0.105630
O O8 0.344622 0.075947 0.366168
O O9 0.122491 0.164602 0.310476
O O10 0.153013 0.016954 0.385349
O O11 0.921798 0.527534 0.105507
O O12 0.837831 0.684592 0.109828
O O13 0.682746 0.575044 0.006167
O O14 0.892684 0.150895 0.631400
O O15 0.000000 0.500000 0.500000
O O16 0.000000 0.739965 0.250000
#
# Coordination Sequence:
#
# PCOD8152350 Si02
#       8
#     8   8   8   8   4   8   8   8
#     4  11  24  42  66  92 135 167 221 273 323 387
#     4  11  22  43  68  97 127 177 217 271 326 397
#     4  11  22  40  72  87 128 180 224 245 333 410
#     4  12  27  38  69 103 133 160 225 285 322 379
#     4  12  24  40  64 102 124 166 228 282 310 382
#     4  12  21  46  65  97 132 178 212 270 333 396
#     4  11  23  45  67  93 133 181 210 262 344 400
#     4  12  24  42  65  97 128 174 222 269 323 389
#
# _framework density 19.813738000000001
#
# number of rings (size 3 to 8) (size 9 to 14) (size 15 to 20)
#    0.000    0.533    6.667    2.400    5.600    0.000 
#    0.000    0.667    0.000    0.000    0.000    0.000 
#    0.000    0.000    0.000    0.000    0.000    0.000 
#
# Total GULP energy -372177.095802 kJ/mol
# GULP energy per Si atom -12405.903193 kJ/mol
# Density = 1.976864 g / cm^3
# Si number density = 19.813738 Si / 1000 Ang^3
#
#
#
# Elastic Constant Matrix: (Units=GPa)
#
#
# Indices 1 2 3 4 5 6 
#
# 1 107.1543 48.6897 39.4192 0.0000 9.2889 0.0000
# 2 48.6897 80.5719 34.9672 0.0000 6.2763 0.0000
# 3 39.4192 34.9672 115.4935 0.0000 19.7815 0.0000
# 4 0.0000 0.0000 0.0000 22.4843 0.0000 -1.2868
# 5 9.2889 6.2763 19.7815 0.0000 36.2052 0.0000
# 6 0.0000 0.0000 0.0000 -1.2868 0.0000 45.0754
#
#
#
# Elastic Compliance Matrix: (Units=1/GPa)
#
#
# Indices 1 2 3 4 5 6 
#
# 1 0.013473 -0.007072 -0.002290 0.000000 -0.000980 0.000000
# 2 -0.007072 0.018001 -0.003103 0.000000 0.000389 0.000000
# 3 -0.002290 -0.003103 0.011238 0.000000 -0.005015 0.000000
# 4 0.000000 0.000000 0.000000 0.044548 0.000000 0.001272
# 5 -0.000980 0.000389 -0.005015 0.000000 0.030544 0.000000
# 6 0.000000 0.000000 0.000000 0.001272 0.000000 0.022221
#
#
# Mechanical properties :
#
#
# Convention : Reuss Voigt Hill
#
# Bulk Modulus (GPa) = 56.23141 61.04132 58.63636
# Shear Modulus (GPa) = 29.25980 32.76254 31.01117
#
# Velocity S-wave (km/s) = 3.84701 4.07077 3.96047
# Velocity P-wave (km/s) = 6.94077 7.27800 7.11139
#
# Compressibility (1/GPa) = 0.01778366
#
# Stress axis : x y z
#
# Youngs Moduli (GPa) = 74.22346 55.55220 88.98059
#
# Poissons Ratio (x) = 0.39285 0.20373
# Poissons Ratio (y) = 0.52489 0.27611
# Poissons Ratio (z) = 0.16994 0.17238
#
# Static dielectric constant tensor:
#      x y z
#    x 3.861730 0.000000 0.153380 
#    y 0.000000 3.645530 0.000000 
#    z 0.153380 0.000000 3.620530 
# 
# 
# High freq. dielectric constant tensor:
#      x y z
#    x 1.790820 0.000000 0.008850 
#    y 0.000000 1.768760 0.000000 
#    z 0.008850 0.000000 1.771490 
# 
# From -- ./inp_files/238814.got.cif
#   From: 2010.06.25/outbox.cif.g09.slc.cpg/sg15_120_cif.got.tgz:238814.got - 2010.06.28 07:06:18.
