data_PCOD8152838
_publ_section_title
;
Structure prediction by ZEFSAII (Michael W. Deem and Ramdas Pophale) SiO2 
 PCOD8152838
Probable space group: C 2/C
;
_chemical_formula_sum "Si O2"
_cell_formula_units_Z 56
_cell_length_a 20.909500
_cell_length_b 12.480057
_cell_length_c 23.525806
_cell_angle_alpha 90.000000
_cell_angle_beta 27.278531
_cell_angle_gamma 90.000000
_cell_volume 2813.651284
_symmetry_space_group_name_H-M "C 2/C"
_symmetry_group_IT_number 15
_symmetry_cell_setting 'monoclinic'
loop_
_space_group_symop_operation_xyz
x,y,z
-x,y,1/2-z
-x,-y,-z
x,-y,1/2+z
1/2+x,1/2+y,z
1/2-x,1/2+y,1/2-z
1/2-x,1/2-y,-z
1/2+x,1/2-y,1/2+z
loop_
_atom_site_type_symbol
_atom_site_label
_atom_site_fract_x
_atom_site_fract_y
_atom_site_fract_z
Si Si1 0.572287 0.830415 0.750002
Si Si2 0.577434 0.930161 0.250003
Si Si3 0.463444 0.128832 0.957568
Si Si4 0.942960 0.063447 0.613784
Si Si5 0.170530 0.563445 0.886213
Si Si6 0.621425 0.628829 0.957564
Si Si7 0.374796 0.249999 0.500002
O O1 0.500000 0.862578 0.750000
O O2 0.461069 0.761735 0.873812
O O3 0.708689 0.761737 0.626194
O O4 0.604458 0.947738 0.750005
O O5 0.500000 0.915940 0.250000
O O6 0.483472 0.874750 0.373457
O O7 0.730378 0.874750 0.126551
O O8 0.598099 0.076659 0.882024
O O9 0.433888 0.250002 0.000001
O O10 0.336289 0.054911 0.080559
O O11 0.833474 0.090864 0.749999
O O12 0.862149 0.076653 0.617975
O O13 0.071379 0.145100 0.510750
O O14 0.002602 0.945094 0.580554
O O15 0.092882 0.645094 0.989250
#
# Coordination Sequence:
#
# PCOD8152838 Si02
#       7
#     8   8   8   8   8   8   8
#     4  11  24  41  63  91 131 171 210 258 313 380
#     4  11  24  43  63  87 125 175 218 250 303 380
#     4  11  24  41  65  92 125 164 207 261 319 373
#     4  11  23  38  64 100 125 156 203 267 322 381
#     4  11  23  38  64 100 125 156 203 267 322 381
#     4  11  24  41  65  92 125 164 207 261 319 373
#     4  12  21  40  66  94 127 162 206 262 320 384
#
# _framework density 19.902964000000001
#
# number of rings (size 3 to 8) (size 9 to 14) (size 15 to 20)
#    0.000    0.857    7.143    0.429    2.000    0.571 
#    0.000    0.000    0.000    0.000    0.000    0.000 
#    0.000    0.000    0.000    0.000    0.000    0.000 
#
# Total GULP energy -347033.786101 kJ/mol
# GULP energy per Si atom -12394.063789 kJ/mol
# Density = 1.985766 g / cm^3
# Si number density = 19.902964 Si / 1000 Ang^3
#
#
#
# Elastic Constant Matrix: (Units=GPa)
#
#
# Indices 1 2 3 4 5 6 
#
# 1 86.6183 26.7236 36.2049 0.0003 0.2231 -0.0001
# 2 26.7236 131.2899 39.1749 0.0007 -0.1189 -0.0003
# 3 36.2049 39.1749 133.8372 0.0019 -0.6694 -0.0006
# 4 0.0003 0.0007 0.0019 28.5067 -0.0005 -0.0506
# 5 0.2231 -0.1189 -0.6694 -0.0005 13.3476 0.0000
# 6 -0.0001 -0.0003 -0.0006 -0.0506 0.0000 23.1170
#
#
#
# Elastic Compliance Matrix: (Units=1/GPa)
#
#
# Indices 1 2 3 4 5 6 
#
# 1 0.013397 -0.001803 -0.003098 0.000000 -0.000395 0.000000
# 2 -0.001803 0.008588 -0.002026 0.000000 0.000005 0.000000
# 3 -0.003098 -0.002026 0.008905 -0.000001 0.000480 0.000000
# 4 0.000000 0.000000 -0.000001 0.035080 0.000001 0.000077
# 5 -0.000395 0.000005 0.000480 0.000001 0.074951 0.000000
# 6 0.000000 0.000000 0.000000 0.000077 0.000000 0.043258
#
#
# Mechanical properties :
#
#
# Convention : Reuss Voigt Hill
#
# Bulk Modulus (GPa) = 58.69865 61.77248 60.23557
# Shear Modulus (GPa) = 24.54436 29.63707 27.09072
#
# Velocity S-wave (km/s) = 3.51551 3.86304 3.69337
# Velocity P-wave (km/s) = 6.78490 7.14155 6.96550
#
# Compressibility (1/GPa) = 0.01703617
#
# Stress axis : x y z
#
# Youngs Moduli (GPa) = 74.64244 116.43812 112.29155
#
# Poissons Ratio (x) = 0.20991 0.34793
# Poissons Ratio (y) = 0.13456 0.22752
# Poissons Ratio (z) = 0.23127 0.23592
#
# Static dielectric constant tensor:
#      x y z
#    x 3.392470 0.000000 -0.001590 
#    y 0.000000 3.578080 0.000000 
#    z -0.001590 0.000000 3.561070 
# 
# 
# High freq. dielectric constant tensor:
#      x y z
#    x 1.756500 0.000000 -0.000250 
#    y 0.000000 1.782160 0.000000 
#    z -0.000250 0.000000 1.782540 
# 
# From -- ./inp_files/279970.got.cif
#   From: 2010.06.25/outbox.cif.g09.slc.cpg/sg15_140_cif.got.tgz:279970.got - 2010.06.28 07:06:18.
