data_PCOD8152176
_publ_section_title
;
Structure prediction by ZEFSAII (Michael W. Deem and Ramdas Pophale) SiO2 
 PCOD8152176
Probable space group: C 2/C
;
_chemical_formula_sum "Si O2"
_cell_formula_units_Z 56
_cell_length_a 26.993327
_cell_length_b 19.850452
_cell_length_c 9.238675
_cell_angle_alpha 90.000000
_cell_angle_beta 148.084404
_cell_angle_gamma 90.000000
_cell_volume 2617.102213
_symmetry_space_group_name_H-M "C 2/C"
_symmetry_group_IT_number 15
_symmetry_cell_setting 'monoclinic'
loop_
_space_group_symop_operation_xyz
x,y,z
-x,y,1/2-z
-x,-y,-z
x,-y,1/2+z
1/2+x,1/2+y,z
1/2-x,1/2+y,1/2-z
1/2-x,1/2-y,-z
1/2+x,1/2-y,1/2+z
loop_
_atom_site_type_symbol
_atom_site_label
_atom_site_fract_x
_atom_site_fract_y
_atom_site_fract_z
Si Si1 0.718372 0.878797 0.997779
Si Si2 0.306499 0.843632 0.883817
Si Si3 0.137949 0.735833 0.482374
Si Si4 0.724789 0.470314 0.800771
Si Si5 0.402908 0.348898 0.576362
Si Si6 0.895096 0.020593 0.222551
Si Si7 0.068738 0.745190 0.629977
O O1 0.673107 0.868472 0.728551
O O2 0.660974 0.838635 0.978544
O O3 0.820544 0.841575 0.253680
O O4 0.720402 0.958679 0.042333
O O5 0.219721 0.790885 0.664554
O O6 0.293133 0.906565 0.960235
O O7 0.403102 0.811440 0.182109
O O8 0.120050 0.728403 0.608233
O O9 0.042124 0.757395 0.163729
O O10 0.671138 0.463541 0.511981
O O11 0.649421 0.455174 0.738770
O O12 0.500000 0.323683 0.750000
O O13 0.398978 0.427010 0.601560
O O14 0.386514 0.312552 0.689359
O O15 0.000000 0.000000 0.500000
#
# Coordination Sequence:
#
# PCOD8152176 Si02
#       7
#     8   8   8   8   8   8   8
#     4  11  24  43  65  97 133 178 222 284 330 405
#     4  12  24  43  70  97 132 184 221 279 346 398
#     4  11  25  44  66 102 136 170 230 280 337 407
#     4  11  24  40  64  93 131 177 231 270 341 403
#     4  11  23  39  63  96 138 175 219 273 332 400
#     4  11  22  39  58  94 133 176 217 271 332 411
#     4  11  26  41  68  99 130 179 224 278 339 399
#
# _framework density 21.397711999999999
#
# number of rings (size 3 to 8) (size 9 to 14) (size 15 to 20)
#    0.000    0.857    2.857    4.714    8.000    0.000 
#    0.000    0.714    0.000    0.000    0.000    0.000 
#    0.000    0.000    0.000    0.000    0.000    0.000 
#
# Total GULP energy -346988.251869 kJ/mol
# GULP energy per Si atom -12392.437567 kJ/mol
# Density = 2.134901 g / cm^3
# Si number density = 21.397712 Si / 1000 Ang^3
#
#
#
# Elastic Constant Matrix: (Units=GPa)
#
#
# Indices 1 2 3 4 5 6 
#
# 1 79.0258 20.5953 8.0939 0.0000 -15.3925 0.0000
# 2 20.5953 84.2150 21.8345 0.0000 -1.6307 0.0000
# 3 8.0939 21.8345 99.3710 0.0000 -19.3128 0.0000
# 4 0.0000 0.0000 0.0000 23.3968 0.0000 -2.0521
# 5 -15.3925 -1.6307 -19.3128 0.0000 27.6140 0.0000
# 6 0.0000 0.0000 0.0000 -2.0521 0.0000 35.8252
#
#
#
# Elastic Compliance Matrix: (Units=1/GPa)
#
#
# Indices 1 2 3 4 5 6 
#
# 1 0.015352 -0.003944 0.001428 0.000000 0.009323 0.000000
# 2 -0.003944 0.013651 -0.003413 0.000000 -0.003779 0.000000
# 3 0.001428 -0.003413 0.012513 0.000000 0.009346 0.000000
# 4 0.000000 0.000000 0.000000 0.042957 0.000000 0.002461
# 5 0.009323 -0.003779 0.009346 0.000000 0.047724 0.000000
# 6 0.000000 0.000000 0.000000 0.002461 0.000000 0.028054
#
#
# Mechanical properties :
#
#
# Convention : Reuss Voigt Hill
#
# Bulk Modulus (GPa) = 33.71730 40.40658 37.06194
# Shear Modulus (GPa) = 27.47352 31.50640 29.48996
#
# Velocity S-wave (km/s) = 3.58711 3.84137 3.71642
# Velocity P-wave (km/s) = 5.74004 6.21285 5.98112
#
# Compressibility (1/GPa) = 0.02965837
#
# Stress axis : x y z
#
# Youngs Moduli (GPa) = 65.13953 73.25715 79.91538
#
# Poissons Ratio (x) = 0.28893 -0.11413
# Poissons Ratio (y) = 0.25692 0.27272
# Poissons Ratio (z) = -0.09303 0.25000
#
# Static dielectric constant tensor:
#      x y z
#    x 3.884280 0.000000 -0.132670 
#    y 0.000000 3.765690 0.000000 
#    z -0.132670 0.000000 3.738810 
# 
# 
# High freq. dielectric constant tensor:
#      x y z
#    x 1.834750 0.000000 -0.021970 
#    y 0.000000 1.838260 0.000000 
#    z -0.021970 0.000000 1.845840 
# 
# From -- ./inp_files/70852.got.cif
#   From: 2010.06.25/outbox.cif.g09.slc.cpg/sg15_36_cif.got.tgz:70852.got - 2010.06.28 07:06:18.
