data_PCOD8152828
_publ_section_title
;
Structure prediction by ZEFSAII (Michael W. Deem and Ramdas Pophale) SiO2 
 PCOD8152828
Probable space group: C 2/C
;
_chemical_formula_sum "Si O2"
_cell_formula_units_Z 56
_cell_length_a 23.183616
_cell_length_b 11.577497
_cell_length_c 9.959829
_cell_angle_alpha 90.000000
_cell_angle_beta 114.743980
_cell_angle_gamma 90.000000
_cell_volume 2427.856926
_symmetry_space_group_name_H-M "C 2/C"
_symmetry_group_IT_number 15
_symmetry_cell_setting 'monoclinic'
loop_
_space_group_symop_operation_xyz
x,y,z
-x,y,1/2-z
-x,-y,-z
x,-y,1/2+z
1/2+x,1/2+y,z
1/2-x,1/2+y,1/2-z
1/2-x,1/2-y,-z
1/2+x,1/2-y,1/2+z
loop_
_atom_site_type_symbol
_atom_site_label
_atom_site_fract_x
_atom_site_fract_y
_atom_site_fract_z
Si Si1 0.111685 0.777311 0.474259
Si Si2 0.456480 0.518268 0.084254
Si Si3 0.266447 0.401440 0.954914
Si Si4 0.127257 0.354987 0.239156
Si Si5 0.870423 0.240032 0.973793
Si Si6 0.881393 0.389743 0.746364
Si Si7 0.235680 0.899079 0.236864
O O1 0.081514 0.901783 0.416802
O O2 0.189384 0.789416 0.535631
O O3 0.089854 0.728334 0.598890
O O4 0.086049 0.686790 0.338508
O O5 0.500000 0.555112 0.250000
O O6 0.500000 0.500000 0.000000
O O7 0.410446 0.623943 0.008956
O O8 0.193991 0.380366 0.847357
O O9 0.294050 0.502756 0.888294
O O10 0.274650 0.436112 0.118984
O O11 0.139381 0.286792 0.386870
O O12 0.093281 0.477813 0.236641
O O13 0.190802 0.385523 0.222009
O O14 0.902127 0.338545 0.911309
O O15 0.801934 0.217051 0.838896
#
# Coordination Sequence:
#
# PCOD8152828 Si02
#       7
#     8   8   8   8   8   8   8
#     4  12  22  44  70  89 140 182 222 287 346 393
#     4  12  28  48  73 103 126 171 241 301 348 381
#     4  11  23  37  64 100 144 182 225 265 335 420
#     4  11  25  38  65 103 137 181 220 264 336 428
#     4  12  24  43  68  93 140 177 227 290 339 400
#     4  11  23  41  64  99 140 184 216 264 335 432
#     4  11  23  38  62 102 143 181 226 267 332 420
#
# _framework density 23.06561
#
# number of rings (size 3 to 8) (size 9 to 14) (size 15 to 20)
#    0.000    0.571    4.286    4.286    8.000    0.000 
#    0.000    0.000    0.000   17.143    0.000    0.000 
#    0.000    0.000    0.000    0.000    0.000    0.000 
#
# Total GULP energy -347212.544779 kJ/mol
# GULP energy per Si atom -12400.448028 kJ/mol
# Density = 2.301311 g / cm^3
# Si number density = 23.065610 Si / 1000 Ang^3
#
#
#
# Elastic Constant Matrix: (Units=GPa)
#
#
# Indices 1 2 3 4 5 6 
#
# 1 31.2575 16.2201 15.6545 0.0000 -9.6359 0.0000
# 2 16.2201 129.8960 44.3805 0.0000 -16.8117 0.0000
# 3 15.6545 44.3805 156.8877 0.0000 -45.3014 0.0000
# 4 0.0000 0.0000 0.0000 49.4987 0.0000 -14.1649
# 5 -9.6359 -16.8117 -45.3014 0.0000 34.2432 0.0000
# 6 0.0000 0.0000 0.0000 -14.1649 0.0000 15.0688
#
#
#
# Elastic Compliance Matrix: (Units=1/GPa)
#
#
# Indices 1 2 3 4 5 6 
#
# 1 0.036425 -0.003382 -0.000320 0.000000 0.008166 0.000000
# 2 -0.003382 0.008891 -0.001929 0.000000 0.000862 0.000000
# 3 -0.000320 -0.001929 0.010764 0.000000 0.013203 0.000000
# 4 0.000000 0.000000 0.000000 0.027637 0.000000 0.025979
# 5 0.008166 0.000862 0.013203 0.000000 0.049390 0.000000
# 6 0.000000 0.000000 0.000000 0.025979 0.000000 0.090783
#
#
# Mechanical properties :
#
#
# Convention : Reuss Voigt Hill
#
# Bulk Modulus (GPa) = 22.31220 52.28350 37.29785
# Shear Modulus (GPa) = 19.99266 35.88121 27.93693
#
# Velocity S-wave (km/s) = 2.94730 3.94841 3.48400
# Velocity P-wave (km/s) = 4.61264 6.59569 5.69120
#
# Compressibility (1/GPa) = 0.04481853
#
# Stress axis : x y z
#
# Youngs Moduli (GPa) = 27.45366 112.46873 92.90312
#
# Poissons Ratio (x) = 0.38039 0.02971
# Poissons Ratio (y) = 0.09285 0.17920
# Poissons Ratio (z) = 0.00878 0.21694
#
# Static dielectric constant tensor:
#      x y z
#    x 3.803760 0.000000 -0.188870 
#    y 0.000000 4.794490 0.000000 
#    z -0.188870 0.000000 4.343530 
# 
# 
# High freq. dielectric constant tensor:
#      x y z
#    x 1.874450 0.000000 -0.017860 
#    y 0.000000 1.931200 0.000000 
#    z -0.017860 0.000000 1.926420 
# 
# From -- ./inp_files/65545.got.cif
#   From: 2010.06.25/outbox.cif.g09.slc.cpg/sg15_33_cif.got.tgz:65545.got - 2010.06.28 07:06:18.
