data_PCOD8152704
_publ_section_title
;
Structure prediction by ZEFSAII (Michael W. Deem and Ramdas Pophale) SiO2 
 PCOD8152704
Probable space group: C 2/C
;
_chemical_formula_sum "Si O2"
_cell_formula_units_Z 60
_cell_length_a 14.268632
_cell_length_b 15.421490
_cell_length_c 10.116160
_cell_angle_alpha 90.000000
_cell_angle_beta 101.292566
_cell_angle_gamma 90.000000
_cell_volume 2182.900801
_symmetry_space_group_name_H-M "C 2/C"
_symmetry_group_IT_number 15
_symmetry_cell_setting 'monoclinic'
loop_
_space_group_symop_operation_xyz
x,y,z
-x,y,1/2-z
-x,-y,-z
x,-y,1/2+z
1/2+x,1/2+y,z
1/2-x,1/2+y,1/2-z
1/2-x,1/2-y,-z
1/2+x,1/2-y,1/2+z
loop_
_atom_site_type_symbol
_atom_site_label
_atom_site_fract_x
_atom_site_fract_y
_atom_site_fract_z
Si Si1 0.245358 0.127493 0.035728
Si Si2 0.393481 0.900472 0.231236
Si Si3 0.755544 0.771394 0.224540
Si Si4 0.500000 0.550910 0.750000
Si Si5 0.429687 0.319107 0.438381
Si Si6 0.126473 0.463000 0.558103
Si Si7 0.669930 0.453170 0.908839
Si Si8 0.031846 0.335045 0.900968
O O1 0.213133 0.179468 0.159159
O O2 0.360784 0.131997 0.065513
O O3 0.207588 0.174367 0.892967
O O4 0.204154 0.029094 0.023150
O O5 0.500000 0.863942 0.250000
O O6 0.323371 0.818305 0.206613
O O7 0.375982 0.943276 0.370640
O O8 0.373894 0.965497 0.103042
O O9 0.850416 0.763490 0.337746
O O10 0.511969 0.607430 0.622754
O O11 0.594830 0.492126 0.785051
O O12 0.378277 0.367952 0.543604
O O13 0.507714 0.244024 0.497920
O O14 0.229722 0.422344 0.631500
O O15 0.033056 0.417685 0.586223
O O16 0.000000 0.298082 0.750000
#
# Coordination Sequence:
#
# PCOD8152704 Si02
#       8
#     8   8   8   4   8   8   8   8
#     4  11  24  46  76 116 145 218 267 327 401 497
#     4  12  25  46  73 118 164 209 266 340 409 493
#     4  11  22  44  76 106 157 201 269 323 403 480
#     4  12  24  52  74 112 146 220 268 340 396 502
#     4  12  24  50  76 112 156 211 267 340 404 494
#     4  12  28  45  77 115 161 211 267 335 418 493
#     4  12  28  47  82 112 162 208 277 339 415 487
#     4  12  27  46  77 113 158 210 269 328 415 496
#
# _framework density 27.486363999999998
#
# number of rings (size 3 to 8) (size 9 to 14) (size 15 to 20)
#    0.000    0.267    6.000    2.000    5.600    0.533 
#    0.000    0.000    2.933    0.000    0.000    0.000 
#    0.000    0.000    0.000    0.000    0.000    0.000 
#
# Total GULP energy -371762.962332 kJ/mol
# GULP energy per Si atom -12392.098744 kJ/mol
# Density = 2.742380 g / cm^3
# Si number density = 27.486364 Si / 1000 Ang^3
#
#
#
# Elastic Constant Matrix: (Units=GPa)
#
#
# Indices 1 2 3 4 5 6 
#
# 1 142.2835 18.1343 20.5463 0.0000 1.0404 0.0000
# 2 18.1343 106.9532 9.4497 0.0000 -3.0703 0.0000
# 3 20.5463 9.4497 55.0337 0.0000 6.3700 0.0000
# 4 0.0000 0.0000 0.0000 33.5419 0.0000 -5.5965
# 5 1.0404 -3.0703 6.3700 0.0000 37.5166 0.0000
# 6 0.0000 0.0000 0.0000 -5.5965 0.0000 38.2140
#
#
#
# Elastic Compliance Matrix: (Units=1/GPa)
#
#
# Indices 1 2 3 4 5 6 
#
# 1 0.007543 -0.001040 -0.002656 0.000000 0.000157 0.000000
# 2 -0.001040 0.009680 -0.001396 0.000000 0.001058 0.000000
# 3 -0.002656 -0.001396 0.019796 0.000000 -0.003402 0.000000
# 4 0.000000 0.000000 0.000000 0.030560 0.000000 0.004476
# 5 0.000157 0.001058 -0.003402 0.000000 0.027315 0.000000
# 6 0.000000 0.000000 0.000000 0.004476 0.000000 0.026824
#
#
# Mechanical properties :
#
#
# Convention : Reuss Voigt Hill
#
# Bulk Modulus (GPa) = 37.26498 44.50348 40.88423
# Shear Modulus (GPa) = 35.49967 38.93050 37.21509
#
# Velocity S-wave (km/s) = 3.59770 3.76753 3.68359
# Velocity P-wave (km/s) = 5.55382 5.92891 5.74443
#
# Compressibility (1/GPa) = 0.02683484
#
# Stress axis : x y z
#
# Youngs Moduli (GPa) = 132.57147 103.30643 50.51605
#
# Poissons Ratio (x) = 0.10742 0.13416
# Poissons Ratio (y) = 0.13785 0.07054
# Poissons Ratio (z) = 0.35207 0.14426
#
# Static dielectric constant tensor:
#      x y z
#    x 5.406130 0.000000 0.132800 
#    y 0.000000 5.037550 0.000000 
#    z 0.132800 0.000000 4.973330 
# 
# 
# High freq. dielectric constant tensor:
#      x y z
#    x 2.130870 0.000000 0.008400 
#    y 0.000000 2.110010 0.000000 
#    z 0.008400 0.000000 2.087110 
# 
# From -- ./inp_files/98350.got.cif
#   From: 2010.06.25/outbox.cif.g09.slc.cpg/sg15_50_cif.got.tgz:98350.got - 2010.06.28 07:06:18.
