data_PCOD8152265
_publ_section_title
;
Structure prediction by ZEFSAII (Michael W. Deem and Ramdas Pophale) SiO2 
 PCOD8152265
Probable space group: C 2/C
;
_chemical_formula_sum "Si O2"
_cell_formula_units_Z 56
_cell_length_a 29.267312
_cell_length_b 11.832644
_cell_length_c 23.773185
_cell_angle_alpha 90.000000
_cell_angle_beta 18.457921
_cell_angle_gamma 90.000000
_cell_volume 2606.597865
_symmetry_space_group_name_H-M "C 2/C"
_symmetry_group_IT_number 15
_symmetry_cell_setting 'monoclinic'
loop_
_space_group_symop_operation_xyz
x,y,z
-x,y,1/2-z
-x,-y,-z
x,-y,1/2+z
1/2+x,1/2+y,z
1/2-x,1/2+y,1/2-z
1/2-x,1/2-y,-z
1/2+x,1/2-y,1/2+z
loop_
_atom_site_type_symbol
_atom_site_label
_atom_site_fract_x
_atom_site_fract_y
_atom_site_fract_z
Si Si1 0.574255 0.625170 0.084361
Si Si2 0.005526 0.371614 0.179928
Si Si3 0.795069 0.935097 0.956761
Si Si4 0.214411 0.166235 0.589547
Si Si5 0.057663 0.470403 0.518832
Si Si6 0.606331 0.260512 0.014815
Si Si7 0.769097 0.477140 0.788549
O O1 0.603367 0.759209 0.057835
O O2 0.622350 0.545835 0.080495
O O3 0.399592 0.620264 0.287710
O O4 0.647353 0.572851 0.943408
O O5 0.834220 0.353830 0.370537
O O6 0.000000 0.416642 0.250000
O O7 0.072624 0.466131 0.060803
O O8 0.737735 0.047481 0.993279
O O9 0.250000 0.250000 0.500000
O O10 0.312972 0.199513 0.527589
O O11 0.041558 0.171724 0.800332
O O12 0.069300 0.336153 0.512993
O O13 0.187056 0.511129 0.327612
O O14 0.904288 0.502180 0.671026
O O15 0.713915 0.350388 0.861622
#
# Coordination Sequence:
#
# PCOD8152265 Si02
#       7
#     8   8   8   8   8   8   8
#     4  11  23  40  68  95 134 186 227 286 348 423
#     4  12  24  41  68 101 138 177 229 292 351 419
#     4  11  22  40  62 101 135 175 227 282 355 407
#     4  12  24  39  72 102 146 182 228 290 360 429
#     4  11  26  46  72 100 140 187 237 299 354 423
#     4  12  24  46  68 107 136 187 238 290 356 425
#     4  11  24  48  72  96 139 190 244 287 357 428
#
# _framework density 21.483943
#
# number of rings (size 3 to 8) (size 9 to 14) (size 15 to 20)
#    0.000    0.571    5.714    3.429    4.000    0.000 
#    0.000    0.714    0.000    0.000    0.000    0.000 
#    0.000    0.000    0.000    0.000    0.000    0.000 
#
# Total GULP energy -346937.680732 kJ/mol
# GULP energy per Si atom -12390.631455 kJ/mol
# Density = 2.143504 g / cm^3
# Si number density = 21.483943 Si / 1000 Ang^3
#
#
#
# Elastic Constant Matrix: (Units=GPa)
#
#
# Indices 1 2 3 4 5 6 
#
# 1 76.0221 36.2969 32.4327 0.0004 19.2630 -0.0002
# 2 36.2969 113.5818 46.1243 0.0004 19.4526 -0.0001
# 3 32.4327 46.1243 116.8728 0.0016 24.6308 -0.0010
# 4 0.0004 0.0004 0.0016 34.9827 -0.0002 -3.7123
# 5 19.2630 19.4526 24.6308 -0.0002 39.4860 0.0002
# 6 -0.0002 -0.0001 -0.0010 -3.7123 0.0002 22.3465
#
#
#
# Elastic Compliance Matrix: (Units=1/GPa)
#
#
# Indices 1 2 3 4 5 6 
#
# 1 0.017179 -0.003704 -0.002215 0.000000 -0.005174 0.000000
# 2 -0.003704 0.011596 -0.003138 0.000000 -0.001948 0.000000
# 3 -0.002215 -0.003138 0.011348 0.000000 -0.004452 0.000000
# 4 0.000000 0.000000 0.000000 0.029099 0.000000 0.004834
# 5 -0.005174 -0.001948 -0.004452 0.000000 0.031586 0.000000
# 6 0.000000 0.000000 0.000000 0.004834 0.000000 0.045553
#
#
# Mechanical properties :
#
#
# Convention : Reuss Voigt Hill
#
# Bulk Modulus (GPa) = 45.43733 59.57605 52.50669
# Shear Modulus (GPa) = 29.10199 32.13789 30.61994
#
# Velocity S-wave (km/s) = 3.68447 3.87189 3.77934
# Velocity P-wave (km/s) = 6.26864 6.91226 6.59830
#
# Compressibility (1/GPa) = 0.02200833
#
# Stress axis : x y z
#
# Youngs Moduli (GPa) = 58.21215 86.23773 88.12445
#
# Poissons Ratio (x) = 0.31944 0.19518
# Poissons Ratio (y) = 0.21562 0.27652
# Poissons Ratio (z) = 0.12893 0.27060
#
# Static dielectric constant tensor:
#      x y z
#    x 3.868110 0.000000 -0.246600 
#    y 0.000000 3.743030 0.000000 
#    z -0.246600 0.000000 4.409040 
# 
# 
# High freq. dielectric constant tensor:
#      x y z
#    x 1.823540 0.000000 -0.005080 
#    y 0.000000 1.849070 0.000000 
#    z -0.005080 0.000000 1.857430 
# 
# From -- ./inp_files/284599.got.cif
#   From: 2010.06.25/outbox.cif.g09.slc.cpg/sg15_143_cif.got.tgz:284599.got - 2010.06.28 07:06:18.
