data_PCOD8152847
_publ_section_title
;
Structure prediction by ZEFSAII (Michael W. Deem and Ramdas Pophale) SiO2 
 PCOD8152847
Probable space group: C 2/C
;
_chemical_formula_sum "Si O2"
_cell_formula_units_Z 32
_cell_length_a 21.405646
_cell_length_b 10.997392
_cell_length_c 12.797436
_cell_angle_alpha 90.000000
_cell_angle_beta 146.425512
_cell_angle_gamma 90.000000
_cell_volume 1666.028155
_symmetry_space_group_name_H-M "C 2/C"
_symmetry_group_IT_number 15
_symmetry_cell_setting 'monoclinic'
loop_
_space_group_symop_operation_xyz
x,y,z
-x,y,1/2-z
-x,-y,-z
x,-y,1/2+z
1/2+x,1/2+y,z
1/2-x,1/2+y,1/2-z
1/2-x,1/2-y,-z
1/2+x,1/2-y,1/2+z
loop_
_atom_site_type_symbol
_atom_site_label
_atom_site_fract_x
_atom_site_fract_y
_atom_site_fract_z
Si Si1 0.126526 0.226783 0.455480
Si Si2 0.664443 0.329391 0.245876
Si Si3 0.262987 0.558002 0.053201
Si Si4 0.111301 0.654465 0.340971
O O1 0.128400 0.189332 0.577953
O O2 0.212245 0.337257 0.555954
O O3 0.165476 0.111139 0.442456
O O4 0.000000 0.265924 0.250000
O O5 0.653453 0.472744 0.260760
O O6 0.794416 0.286853 0.449410
O O7 0.584443 0.246223 0.208277
O O8 0.160260 0.474296 0.865355
O O9 0.000000 0.626889 0.250000
#
# Coordination Sequence:
#
# PCOD8152847 Si02
#       4
#     8   8   8   8
#     4  11  23  39  60  90 129 157 196 251 307 347
#     4   9  22  38  62  90 118 161 203 246 292 368
#     4   9  22  40  56  91 123 153 209 241 295 363
#     4   9  19  39  63  89 117 157 206 243 298 353
#
# _framework density 19.207359
#
# number of rings (size 3 to 8) (size 9 to 14) (size 15 to 20)
#    1.500    1.000    0.000    0.750    3.500    6.000 
#    0.000    3.750    0.000    0.000    0.000    0.000 
#    0.000    0.000    0.000    0.000    0.000    0.000 
#
# Total GULP energy -198278.056557 kJ/mol
# GULP energy per Si atom -12392.378535 kJ/mol
# Density = 1.916364 g / cm^3
# Si number density = 19.207359 Si / 1000 Ang^3
#
#
#
# Elastic Constant Matrix: (Units=GPa)
#
#
# Indices 1 2 3 4 5 6 
#
# 1 82.9219 36.5469 29.1040 0.0000 -12.6509 0.0000
# 2 36.5469 111.4415 18.4088 0.0000 -20.1993 0.0000
# 3 29.1040 18.4088 64.6381 0.0000 -27.1322 0.0000
# 4 0.0000 0.0000 0.0000 13.0041 0.0000 0.4623
# 5 -12.6509 -20.1993 -27.1322 0.0000 38.1587 0.0000
# 6 0.0000 0.0000 0.0000 0.4623 0.0000 26.3606
#
#
#
# Elastic Compliance Matrix: (Units=1/GPa)
#
#
# Indices 1 2 3 4 5 6 
#
# 1 0.016137 -0.004510 -0.006754 0.000000 -0.001839 0.000000
# 2 -0.004510 0.011222 0.000999 0.000000 0.005155 0.000000
# 3 -0.006754 0.000999 0.024958 0.000000 0.016036 0.000000
# 4 0.000000 0.000000 0.000000 0.076947 0.000000 -0.001350
# 5 -0.001839 0.005155 0.016036 0.000000 0.039727 0.000000
# 6 0.000000 0.000000 0.000000 -0.001350 0.000000 0.037959
#
#
# Mechanical properties :
#
#
# Convention : Reuss Voigt Hill
#
# Bulk Modulus (GPa) = 31.45898 47.45788 39.45843
# Shear Modulus (GPa) = 21.00172 27.16747 24.08460
#
# Velocity S-wave (km/s) = 3.31028 3.76497 3.54492
# Velocity P-wave (km/s) = 5.56999 6.60771 6.11092
#
# Compressibility (1/GPa) = 0.03178743
#
# Stress axis : x y z
#
# Youngs Moduli (GPa) = 61.96959 89.11271 40.06673
#
# Poissons Ratio (x) = 0.40189 0.27059
# Poissons Ratio (y) = 0.27947 -0.04001
# Poissons Ratio (z) = 0.41851 -0.08898
#
# Static dielectric constant tensor:
#      x y z
#    x 3.328410 0.000000 0.058380 
#    y 0.000000 3.579840 0.000000 
#    z 0.058380 0.000000 3.158140 
# 
# 
# High freq. dielectric constant tensor:
#      x y z
#    x 1.746400 0.000000 0.002480 
#    y 0.000000 1.755210 0.000000 
#    z 0.002480 0.000000 1.717610 
# 
# From -- ./inp_files/83869.got.cif
#   From: 2010.06.25/outbox.cif.g09.slc.cpg/sg15_42_cif.got.tgz:83869.got - 2010.06.28 07:06:18.
