data_PCOD8152579
_publ_section_title
;
Structure prediction by ZEFSAII (Michael W. Deem and Ramdas Pophale) SiO2 
 PCOD8152579
Probable space group: C 2/C
;
_chemical_formula_sum "Si O2"
_cell_formula_units_Z 52
_cell_length_a 16.862849
_cell_length_b 8.042459
_cell_length_c 25.457348
_cell_angle_alpha 90.000000
_cell_angle_beta 137.774998
_cell_angle_gamma 90.000000
_cell_volume 2320.227326
_symmetry_space_group_name_H-M "C 2/C"
_symmetry_group_IT_number 15
_symmetry_cell_setting 'monoclinic'
loop_
_space_group_symop_operation_xyz
x,y,z
-x,y,1/2-z
-x,-y,-z
x,-y,1/2+z
1/2+x,1/2+y,z
1/2-x,1/2+y,1/2-z
1/2-x,1/2-y,-z
1/2+x,1/2-y,1/2+z
loop_
_atom_site_type_symbol
_atom_site_label
_atom_site_fract_x
_atom_site_fract_y
_atom_site_fract_z
Si Si1 0.796238 0.048141 0.778719
Si Si2 0.928576 0.396288 0.844235
Si Si3 0.275114 0.101201 0.145693
Si Si4 0.468462 0.547031 0.137883
Si Si5 0.000000 0.180408 0.750000
Si Si6 0.357553 0.713510 0.513160
Si Si7 0.935224 0.617510 0.666448
O O1 0.848644 0.231532 0.796291
O O2 0.670632 0.030849 0.685355
O O3 0.777844 0.990978 0.829879
O O4 0.891234 0.922189 0.800094
O O5 0.040420 0.357392 0.936113
O O6 0.983917 0.470914 0.817924
O O7 0.389895 0.210652 0.217044
O O8 0.310041 0.959746 0.120391
O O9 0.178814 0.207821 0.065875
O O10 0.445845 0.428310 0.176507
O O11 0.415843 0.459752 0.060347
O O12 0.410294 0.728060 0.115703
O O13 0.250000 0.750000 0.500000
O O14 0.000000 0.687895 0.750000
#
# Coordination Sequence:
#
# PCOD8152579 Si02
#       7
#     8   8   8   8   4   8   8
#     4  11  23  40  66  98 130 174 220 279 334 406
#     4  11  23  42  68  94 133 175 223 278 343 391
#     4  12  22  40  70  95 136 181 225 272 341 404
#     4  11  25  40  66 103 135 171 229 284 338 395
#     4  12  22  42  70 104 128 186 234 276 330 414
#     4  11  22  43  68 100 139 182 220 282 340 407
#     4  12  22  40  65  98 126 174 229 278 324 402
#
# _framework density 22.411595999999999
#
# number of rings (size 3 to 8) (size 9 to 14) (size 15 to 20)
#    0.000    0.615    6.154    3.692    0.000    3.077 
#    0.000    0.000    0.000    7.385    0.000    0.000 
#    0.000    0.000    0.000    0.000    0.000    0.000 
#
# Total GULP energy -322113.880067 kJ/mol
# GULP energy per Si atom -12388.995387 kJ/mol
# Density = 2.236059 g / cm^3
# Si number density = 22.411596 Si / 1000 Ang^3
#
#
#
# Elastic Constant Matrix: (Units=GPa)
#
#
# Indices 1 2 3 4 5 6 
#
# 1 102.8210 38.4755 8.1065 0.0000 7.0684 0.0000
# 2 38.4755 104.3063 26.1977 -0.0001 -4.5762 0.0001
# 3 8.1065 26.1977 96.2744 0.0000 7.5469 0.0000
# 4 0.0000 -0.0001 0.0000 28.6747 0.0000 1.5222
# 5 7.0684 -4.5762 7.5469 0.0000 34.3235 0.0000
# 6 0.0000 0.0001 0.0000 1.5222 0.0000 40.9649
#
#
#
# Elastic Compliance Matrix: (Units=1/GPa)
#
#
# Indices 1 2 3 4 5 6 
#
# 1 0.011599 -0.004541 0.000502 0.000000 -0.003104 0.000000
# 2 -0.004541 0.012208 -0.003196 0.000000 0.003265 0.000000
# 3 0.000502 -0.003196 0.011453 0.000000 -0.003048 0.000000
# 4 0.000000 0.000000 0.000000 0.034943 0.000000 -0.001298
# 5 -0.003104 0.003265 -0.003048 0.000000 0.030879 0.000000
# 6 0.000000 0.000000 0.000000 -0.001298 0.000000 0.024459
#
#
# Mechanical properties :
#
#
# Convention : Reuss Voigt Hill
#
# Bulk Modulus (GPa) = 48.09610 49.88454 48.99032
# Shear Modulus (GPa) = 34.02751 36.16742 35.09746
#
# Velocity S-wave (km/s) = 3.90076 4.02155 3.96162
# Velocity P-wave (km/s) = 6.46490 6.62348 6.54467
#
# Compressibility (1/GPa) = 0.02079171
#
# Stress axis : x y z
#
# Youngs Moduli (GPa) = 86.21736 81.91371 87.31211
#
# Poissons Ratio (x) = 0.37195 -0.04386
# Poissons Ratio (y) = 0.39149 0.27901
# Poissons Ratio (z) = -0.04331 0.26176
#
# Static dielectric constant tensor:
#      x y z
#    x 4.226320 0.000000 0.370440 
#    y 0.000000 4.074170 0.000000 
#    z 0.370440 0.000000 4.121760 
# 
# 
# High freq. dielectric constant tensor:
#      x y z
#    x 1.883460 0.000000 0.015230 
#    y 0.000000 1.881690 0.000000 
#    z 0.015230 0.000000 1.868080 
# 
# From -- ./inp_files/298422.got.cif
#   From: 2010.06.25/outbox.cif.g09.slc.cpg/sg15_150_cif.got.tgz:298422.got - 2010.06.28 07:06:18.
