data_PCOD8152306
_publ_section_title
;
Structure prediction by ZEFSAII (Michael W. Deem and Ramdas Pophale) SiO2 
 PCOD8152306
Probable space group: C 2/C
;
_chemical_formula_sum "Si O2"
_cell_formula_units_Z 48
_cell_length_a 8.077538
_cell_length_b 26.161933
_cell_length_c 18.779894
_cell_angle_alpha 90.000000
_cell_angle_beta 148.262650
_cell_angle_gamma 90.000000
_cell_volume 2087.609784
_symmetry_space_group_name_H-M "C 2/C"
_symmetry_group_IT_number 15
_symmetry_cell_setting 'monoclinic'
loop_
_space_group_symop_operation_xyz
x,y,z
-x,y,1/2-z
-x,-y,-z
x,-y,1/2+z
1/2+x,1/2+y,z
1/2-x,1/2+y,1/2-z
1/2-x,1/2-y,-z
1/2+x,1/2-y,1/2+z
loop_
_atom_site_type_symbol
_atom_site_label
_atom_site_fract_x
_atom_site_fract_y
_atom_site_fract_z
Si Si1 0.257018 0.637214 0.994097
Si Si2 0.148286 0.323340 0.726809
Si Si3 0.047895 0.868578 0.446555
Si Si4 0.066452 0.471097 0.451501
Si Si5 0.777893 0.791779 0.236448
Si Si6 0.181544 0.975093 0.178424
O O1 0.393768 0.623179 0.967007
O O2 0.043724 0.590626 0.945493
O O3 0.062250 0.689708 0.915543
O O4 0.527899 0.645410 0.151830
O O5 0.224562 0.265262 0.732408
O O6 0.000000 0.321523 0.750000
O O7 0.914033 0.351911 0.586630
O O8 0.872740 0.825431 0.338413
O O9 0.005722 0.921459 0.389082
O O10 0.426324 0.483518 0.557621
O O11 0.000000 0.500000 0.500000
O O12 0.795517 0.490249 0.299048
O O13 0.000000 0.797745 0.250000
O O14 0.500000 0.973805 0.250000
#
# Coordination Sequence:
#
# PCOD8152306 Si02
#       6
#     8   8   8   8   8   8
#     4  11  23  44  68  98 138 186 233 288 350 423
#     4   9  22  40  68 104 139 179 231 293 340 423
#     4  11  22  43  72  97 135 183 240 281 351 415
#     4  12  28  45  70 102 143 182 236 300 363 418
#     4  11  22  40  67 103 142 183 229 285 360 409
#     4  12  25  46  71 103 132 187 240 288 353 429
#
# _framework density 22.992802000000001
#
# number of rings (size 3 to 8) (size 9 to 14) (size 15 to 20)
#    0.000    1.000    3.333    2.500    4.667    0.667 
#    0.000    2.500    0.000    0.000    0.000    0.000 
#    0.000    0.000    0.000    0.000    0.000    0.000 
#
# Total GULP energy -297588.230337 kJ/mol
# GULP energy per Si atom -12399.509597 kJ/mol
# Density = 2.294047 g / cm^3
# Si number density = 22.992802 Si / 1000 Ang^3
#
#
#
# Elastic Constant Matrix: (Units=GPa)
#
#
# Indices 1 2 3 4 5 6 
#
# 1 48.9594 30.8553 26.7445 -0.0001 -7.6428 0.0003
# 2 30.8553 100.5848 50.5787 0.0000 -6.5657 -0.0001
# 3 26.7445 50.5787 163.4370 -0.0022 2.7019 -0.0008
# 4 -0.0001 0.0000 -0.0022 49.8764 0.0005 4.1594
# 5 -7.6428 -6.5657 2.7019 0.0005 32.3750 0.0002
# 6 0.0003 -0.0001 -0.0008 4.1594 0.0002 23.5278
#
#
#
# Elastic Compliance Matrix: (Units=1/GPa)
#
#
# Indices 1 2 3 4 5 6 
#
# 1 0.026738 -0.006658 -0.002400 0.000000 0.005162 0.000000
# 2 -0.006658 0.013672 -0.003166 0.000000 0.001465 0.000000
# 3 -0.002400 -0.003166 0.007521 0.000000 -0.001836 0.000000
# 4 0.000000 0.000000 0.000000 0.020350 0.000000 -0.003598
# 5 0.005162 0.001465 -0.001836 0.000000 0.032557 0.000000
# 6 0.000000 0.000000 0.000000 -0.003598 0.000000 0.043139
#
#
# Mechanical properties :
#
#
# Convention : Reuss Voigt Hill
#
# Bulk Modulus (GPa) = 42.58382 58.81533 50.69957
# Shear Modulus (GPa) = 28.36830 34.80935 31.58882
#
# Velocity S-wave (km/s) = 3.51635 3.89514 3.71058
# Velocity P-wave (km/s) = 5.92005 6.77236 6.36050
#
# Compressibility (1/GPa) = 0.02348310
#
# Stress axis : x y z
#
# Youngs Moduli (GPa) = 37.39964 73.14305 132.95460
#
# Poissons Ratio (x) = 0.48701 0.31912
# Poissons Ratio (y) = 0.24902 0.42089
# Poissons Ratio (z) = 0.08977 0.23155
#
# Static dielectric constant tensor:
#      x y z
#    x 3.825440 0.000000 0.052470 
#    y 0.000000 4.302880 0.000000 
#    z 0.052470 0.000000 4.784980 
# 
# 
# High freq. dielectric constant tensor:
#      x y z
#    x 1.886580 0.000000 -0.000100 
#    y 0.000000 1.911910 0.000000 
#    z -0.000100 0.000000 1.931780 
# 
# From -- ./inp_files/234806.got.cif
#   From: 2010.06.25/outbox.cif.g09.slc.cpg/sg15_118_cif.got.tgz:234806.got - 2010.06.28 07:06:18.
