data_PCOD8152328
_publ_section_title
;
Structure prediction by ZEFSAII (Michael W. Deem and Ramdas Pophale) SiO2 
 PCOD8152328
Probable space group: C 2/C
;
_chemical_formula_sum "Si O2"
_cell_formula_units_Z 60
_cell_length_a 18.423881
_cell_length_b 17.320621
_cell_length_c 18.404297
_cell_angle_alpha 90.000000
_cell_angle_beta 31.202537
_cell_angle_gamma 90.000000
_cell_volume 3042.621760
_symmetry_space_group_name_H-M "C 2/C"
_symmetry_group_IT_number 15
_symmetry_cell_setting 'monoclinic'
loop_
_space_group_symop_operation_xyz
x,y,z
-x,y,1/2-z
-x,-y,-z
x,-y,1/2+z
1/2+x,1/2+y,z
1/2-x,1/2+y,1/2-z
1/2-x,1/2-y,-z
1/2+x,1/2-y,1/2+z
loop_
_atom_site_type_symbol
_atom_site_label
_atom_site_fract_x
_atom_site_fract_y
_atom_site_fract_z
Si Si1 0.401073 0.728828 0.895328
Si Si2 0.500000 0.562373 0.250000
Si Si3 0.989546 0.328943 0.950890
Si Si4 0.612754 0.665474 0.271152
Si Si5 0.770258 0.090133 0.759205
Si Si6 0.641704 0.721872 0.928380
Si Si7 0.251391 0.428424 0.713223
Si Si8 0.944557 0.936158 0.407749
O O1 0.500000 0.765475 0.750000
O O2 0.444306 0.761544 0.935760
O O3 0.411705 0.637132 0.886892
O O4 0.250000 0.750000 0.000000
O O5 0.611349 0.614759 0.198957
O O6 0.416688 0.510282 0.380384
O O7 0.046496 0.287663 0.973555
O O8 0.109301 0.383402 0.814077
O O9 0.852845 0.377741 0.085594
O O10 0.451761 0.691360 0.424485
O O11 0.713398 0.738797 0.169614
O O12 0.664919 0.616708 0.295801
O O13 0.823197 0.153000 0.656567
O O14 0.894626 0.064371 0.705401
O O15 0.709804 0.014534 0.771898
O O16 0.346338 0.436936 0.561557
#
# Coordination Sequence:
#
# PCOD8152328 Si02
#       8
#     8   4   8   8   8   8   8   8
#     4  12  24  38  59  89 129 169 201 249 318 387
#     4  12  26  42  64  96 132 170 214 260 320 400
#     4  11  24  39  62  96 129 160 210 267 320 376
#     4  11  23  42  66  95 130 166 215 264 324 379
#     4  12  21  40  66  95 122 161 211 268 314 369
#     4  11  22  40  68  95 121 167 217 272 311 371
#     4  11  23  41  66  94 126 165 213 267 319 371
#     4  12  23  41  65  94 125 168 214 261 313 380
#
# _framework density 19.719836000000001
#
# number of rings (size 3 to 8) (size 9 to 14) (size 15 to 20)
#    0.000    0.533    6.000    3.200    1.867    0.533 
#    0.000    0.000    0.000    1.600    0.000    0.000 
#    0.000    0.000    0.000    0.000    0.000    0.000 
#
# Total GULP energy -372082.187752 kJ/mol
# GULP energy per Si atom -12402.739592 kJ/mol
# Density = 1.967495 g / cm^3
# Si number density = 19.719836 Si / 1000 Ang^3
#
#
#
# Elastic Constant Matrix: (Units=GPa)
#
#
# Indices 1 2 3 4 5 6 
#
# 1 80.7245 34.8452 43.4207 0.0012 3.0012 -0.0004
# 2 34.8452 103.2368 44.1443 -0.0016 1.1452 0.0000
# 3 43.4207 44.1443 102.6703 -0.0021 -2.9378 -0.0006
# 4 0.0012 -0.0016 -0.0021 19.9738 0.0013 -0.9792
# 5 3.0012 1.1452 -2.9378 0.0013 22.3541 0.0001
# 6 -0.0004 0.0000 -0.0006 -0.9792 0.0001 42.4460
#
#
#
# Elastic Compliance Matrix: (Units=1/GPa)
#
#
# Indices 1 2 3 4 5 6 
#
# 1 0.017061 -0.003192 -0.005926 -0.000002 -0.002906 0.000000
# 2 -0.003192 0.012503 -0.004047 0.000001 -0.000744 0.000000
# 3 -0.005926 -0.004047 0.014068 0.000001 0.002852 0.000000
# 4 -0.000002 0.000001 0.000001 0.050122 -0.000003 0.001156
# 5 -0.002906 -0.000744 0.002852 -0.000003 0.045538 0.000000
# 6 0.000000 0.000000 0.000000 0.001156 0.000000 0.023586
#
#
# Mechanical properties :
#
#
# Convention : Reuss Voigt Hill
#
# Bulk Modulus (GPa) = 57.79953 59.05022 58.42487
# Shear Modulus (GPa) = 25.64427 27.90288 26.77358
#
# Velocity S-wave (km/s) = 3.61006 3.76568 3.68869
# Velocity P-wave (km/s) = 6.83745 6.99405 6.91619
#
# Compressibility (1/GPa) = 0.01730118
#
# Stress axis : x y z
#
# Youngs Moduli (GPa) = 58.61168 79.98280 71.08484
#
# Poissons Ratio (x) = 0.25534 0.42125
# Poissons Ratio (y) = 0.18712 0.28767
# Poissons Ratio (z) = 0.34734 0.32368
#
# Static dielectric constant tensor:
#      x y z
#    x 3.210940 -0.000020 -0.141340 
#    y -0.000020 3.933700 -0.000010 
#    z -0.141340 -0.000010 3.635480 
# 
# 
# High freq. dielectric constant tensor:
#      x y z
#    x 1.754760 0.000000 0.000720 
#    y 0.000000 1.784800 0.000000 
#    z 0.000720 0.000000 1.774330 
# 
# From -- ./inp_files/49088.got.cif
#   From: 2010.06.25/outbox.cif.g09.slc.cpg/sg15_25_cif.got.tgz:49088.got - 2010.06.28 07:06:18.
