data_PCOD8152247
_publ_section_title
;
Structure prediction by ZEFSAII (Michael W. Deem and Ramdas Pophale) SiO2 
 PCOD8152247
Probable space group: C 2/C
;
_chemical_formula_sum "Si O2"
_cell_formula_units_Z 44
_cell_length_a 24.473462
_cell_length_b 12.841643
_cell_length_c 8.953761
_cell_angle_alpha 90.000000
_cell_angle_beta 49.391923
_cell_angle_gamma 90.000000
_cell_volume 2136.318520
_symmetry_space_group_name_H-M "C 2/C"
_symmetry_group_IT_number 15
_symmetry_cell_setting 'monoclinic'
loop_
_space_group_symop_operation_xyz
x,y,z
-x,y,1/2-z
-x,-y,-z
x,-y,1/2+z
1/2+x,1/2+y,z
1/2-x,1/2+y,1/2-z
1/2-x,1/2-y,-z
1/2+x,1/2-y,1/2+z
loop_
_atom_site_type_symbol
_atom_site_label
_atom_site_fract_x
_atom_site_fract_y
_atom_site_fract_z
Si Si1 0.698576 0.557588 0.743341
Si Si2 0.440713 0.066749 0.524763
Si Si3 0.645626 0.632630 0.519170
Si Si4 0.733444 0.246281 0.354109
Si Si5 0.847599 0.547842 0.960818
Si Si6 0.500000 0.253371 0.250000
O O1 0.667484 0.595422 0.643215
O O2 0.695237 0.647491 0.873767
O O3 0.781307 0.530254 0.566615
O O4 0.652171 0.461096 0.888028
O O5 0.473986 0.179843 0.431858
O O6 0.500000 0.000000 0.500000
O O7 0.415096 0.007135 0.421076
O O8 0.370852 0.079658 0.752622
O O9 0.694626 0.728012 0.372268
O O10 0.564543 0.671524 0.682368
O O11 0.750000 0.250000 0.500000
O O12 0.677982 0.153217 0.411992
#
# Coordination Sequence:
#
# PCOD8152247 Si02
#       6
#     8   8   8   8   8   4
#     4  11  23  43  68  97 132 170 230 274 332 391
#     4  12  24  41  63  95 132 166 210 265 334 398
#     4  11  25  42  67  97 130 180 219 275 334 392
#     4  11  22  39  68  99 130 167 220 278 328 389
#     4  11  22  40  66  94 126 166 212 274 324 379
#     4  12  26  44  66  90 140 170 224 268 332 408
#
# _framework density 20.596178999999999
#
# number of rings (size 3 to 8) (size 9 to 14) (size 15 to 20)
#    0.000    0.727    1.818    8.182    2.545    0.727 
#    0.000    0.000    0.000    0.000    0.000    0.000 
#    0.000    0.000    0.000    0.000    0.000    0.000 
#
# Total GULP energy -272898.248514 kJ/mol
# GULP energy per Si atom -12404.465842 kJ/mol
# Density = 2.054930 g / cm^3
# Si number density = 20.596179 Si / 1000 Ang^3
#
#
#
# Elastic Constant Matrix: (Units=GPa)
#
#
# Indices 1 2 3 4 5 6 
#
# 1 130.4982 60.2412 53.3861 0.0000 3.9720 0.0000
# 2 60.2412 119.1273 45.7939 0.0000 -5.1982 0.0000
# 3 53.3861 45.7939 114.6504 0.0000 10.9682 0.0000
# 4 0.0000 0.0000 0.0000 41.8179 0.0000 2.4910
# 5 3.9720 -5.1982 10.9682 0.0000 31.5699 0.0000
# 6 0.0000 0.0000 0.0000 2.4910 0.0000 31.3211
#
#
#
# Elastic Compliance Matrix: (Units=1/GPa)
#
#
# Indices 1 2 3 4 5 6 
#
# 1 0.011062 -0.004360 -0.003318 0.000000 -0.000957 0.000000
# 2 -0.004360 0.011941 -0.003082 0.000000 0.003585 0.000000
# 3 -0.003318 -0.003082 0.011902 0.000000 -0.004225 0.000000
# 4 0.000000 0.000000 0.000000 0.024027 0.000000 -0.001911
# 5 -0.000957 0.003585 -0.004225 0.000000 0.033854 0.000000
# 6 0.000000 0.000000 0.000000 -0.001911 0.000000 0.032079
#
#
# Mechanical properties :
#
#
# Convention : Reuss Voigt Hill
#
# Bulk Modulus (GPa) = 74.71197 75.90203 75.30700
# Shear Modulus (GPa) = 33.14597 34.59876 33.87237
#
# Velocity S-wave (km/s) = 4.01599 4.10306 4.05976
# Velocity P-wave (km/s) = 7.60642 7.70580 7.65627
#
# Compressibility (1/GPa) = 0.01338474
#
# Stress axis : x y z
#
# Youngs Moduli (GPa) = 90.39749 83.74809 84.01728
#
# Poissons Ratio (x) = 0.36517 0.27876
# Poissons Ratio (y) = 0.39417 0.25894
# Poissons Ratio (z) = 0.29993 0.25811
#
# Static dielectric constant tensor:
#      x y z
#    x 3.662880 0.000000 -0.125270 
#    y 0.000000 3.947890 0.000000 
#    z -0.125270 0.000000 4.183420 
# 
# 
# High freq. dielectric constant tensor:
#      x y z
#    x 1.797410 0.000000 0.002530 
#    y 0.000000 1.816140 0.000000 
#    z 0.002530 0.000000 1.819500 
# 
# From -- ./inp_files/54403.got.cif
#   From: 2010.06.25/outbox.cif.g09.slc.cpg/sg15_28_cif.got.tgz:54403.got - 2010.06.28 07:06:18.
