data_PCOD8152862
_publ_section_title
;
Structure prediction by ZEFSAII (Michael W. Deem and Ramdas Pophale) SiO2 
 PCOD8152862
Probable space group: C 2/C
;
_chemical_formula_sum "Si O2"
_cell_formula_units_Z 52
_cell_length_a 11.760698
_cell_length_b 15.419779
_cell_length_c 15.138464
_cell_angle_alpha 90.000000
_cell_angle_beta 115.443090
_cell_angle_gamma 90.000000
_cell_volume 2479.058633
_symmetry_space_group_name_H-M "C 2/C"
_symmetry_group_IT_number 15
_symmetry_cell_setting 'monoclinic'
loop_
_space_group_symop_operation_xyz
x,y,z
-x,y,1/2-z
-x,-y,-z
x,-y,1/2+z
1/2+x,1/2+y,z
1/2-x,1/2+y,1/2-z
1/2-x,1/2-y,-z
1/2+x,1/2-y,1/2+z
loop_
_atom_site_type_symbol
_atom_site_label
_atom_site_fract_x
_atom_site_fract_y
_atom_site_fract_z
Si Si1 0.632105 0.354032 0.989869
Si Si2 0.571020 0.430896 0.689861
Si Si3 0.076606 0.411546 0.191107
Si Si4 0.500000 0.755917 0.750000
Si Si5 0.110066 0.344980 0.511702
Si Si6 0.147591 0.878731 0.194793
Si Si7 0.848995 0.609397 0.277101
O O1 0.749371 0.376770 0.965570
O O2 0.670911 0.384215 0.099213
O O3 0.512616 0.411874 0.923773
O O4 0.593815 0.253550 0.974447
O O5 0.500000 0.390893 0.750000
O O6 0.591514 0.532394 0.711964
O O7 0.700508 0.380375 0.726406
O O8 0.211031 0.362595 0.219354
O O9 0.105877 0.511689 0.222749
O O10 0.000000 0.373042 0.250000
O O11 0.994429 0.401636 0.074841
O O12 0.457011 0.694579 0.816675
O O13 0.613278 0.827035 0.792810
O O14 0.091948 0.355820 0.610680
#
# Coordination Sequence:
#
# PCOD8152862 Si02
#       7
#     8   8   8   4   8   8   8
#     4  11  23  39  65  97 128 166 217 272 319 381
#     4  11  23  42  68  95 129 176 218 262 330 386
#     4  11  23  42  68  95 129 176 218 262 330 386
#     4  12  24  44  70  92 130 174 208 274 330 380
#     4  11  23  39  65  97 128 166 217 272 319 381
#     4  11  24  44  65  95 134 170 217 271 324 387
#     4  11  24  44  65  95 134 170 217 271 324 387
#
# _framework density 20.975705000000001
#
# number of rings (size 3 to 8) (size 9 to 14) (size 15 to 20)
#    0.000    0.923    6.154    0.923    2.154    0.615 
#    0.000    3.077    0.000    0.000    0.000    0.000 
#    0.000    0.000    0.000    0.000    0.000    0.000 
#
# Total GULP energy -322192.279067 kJ/mol
# GULP energy per Si atom -12392.010733 kJ/mol
# Density = 2.092796 g / cm^3
# Si number density = 20.975705 Si / 1000 Ang^3
#
#
#
# Elastic Constant Matrix: (Units=GPa)
#
#
# Indices 1 2 3 4 5 6 
#
# 1 143.2068 54.3366 42.8482 0.0000 10.8338 0.0000
# 2 54.3366 60.5641 16.5051 0.0000 10.2937 0.0000
# 3 42.8482 16.5051 79.5634 0.0000 21.6306 0.0000
# 4 0.0000 0.0000 0.0000 20.2440 0.0000 -8.3931
# 5 10.8338 10.2937 21.6306 0.0000 38.2739 0.0000
# 6 0.0000 0.0000 0.0000 -8.3931 0.0000 34.8241
#
#
#
# Elastic Compliance Matrix: (Units=1/GPa)
#
#
# Indices 1 2 3 4 5 6 
#
# 1 0.012040 -0.009786 -0.005013 0.000000 0.002057 0.000000
# 2 -0.009786 0.025779 0.001245 0.000000 -0.004867 0.000000
# 3 -0.005013 0.001245 0.017387 0.000000 -0.008742 0.000000
# 4 0.000000 0.000000 0.000000 0.054881 0.000000 0.013227
# 5 0.002057 -0.004867 -0.008742 0.000000 0.031795 0.000000
# 6 0.000000 0.000000 0.000000 0.013227 0.000000 0.031904
#
#
# Mechanical properties :
#
#
# Convention : Reuss Voigt Hill
#
# Bulk Modulus (GPa) = 35.58898 56.74604 46.16751
# Shear Modulus (GPa) = 23.78024 29.97803 26.87914
#
# Velocity S-wave (km/s) = 3.37071 3.78455 3.58361
# Velocity P-wave (km/s) = 5.67031 6.79772 6.25945
#
# Compressibility (1/GPa) = 0.02809859
#
# Stress axis : x y z
#
# Youngs Moduli (GPa) = 83.05479 38.79187 57.51471
#
# Poissons Ratio (x) = 0.37960 0.28835
# Poissons Ratio (y) = 0.81274 -0.07163
# Poissons Ratio (z) = 0.41639 -0.04831
#
# Static dielectric constant tensor:
#      x y z
#    x 4.074520 0.000000 -0.020880 
#    y 0.000000 3.794500 0.000000 
#    z -0.020880 0.000000 3.532920 
# 
# 
# High freq. dielectric constant tensor:
#      x y z
#    x 1.839990 0.000000 -0.004080 
#    y 0.000000 1.825460 0.000000 
#    z -0.004080 0.000000 1.798250 
# 
# From -- ./inp_files/144307.got.cif
#   From: 2010.06.25/outbox.cif.g09.slc.cpg/sg15_73_cif.got.tgz:144307.got - 2010.06.28 07:06:18.
