data_PCOD8152949
_publ_section_title
;
Structure prediction by ZEFSAII (Michael W. Deem and Ramdas Pophale) SiO2 
 PCOD8152949
Probable space group: C 2/C
;
_chemical_formula_sum "Si O2"
_cell_formula_units_Z 48
_cell_length_a 24.196327
_cell_length_b 9.534981
_cell_length_c 13.887081
_cell_angle_alpha 90.000000
_cell_angle_beta 134.139304
_cell_angle_gamma 90.000000
_cell_volume 2299.281657
_symmetry_space_group_name_H-M "C 2/C"
_symmetry_group_IT_number 15
_symmetry_cell_setting 'monoclinic'
loop_
_space_group_symop_operation_xyz
x,y,z
-x,y,1/2-z
-x,-y,-z
x,-y,1/2+z
1/2+x,1/2+y,z
1/2-x,1/2+y,1/2-z
1/2-x,1/2-y,-z
1/2+x,1/2-y,1/2+z
loop_
_atom_site_type_symbol
_atom_site_label
_atom_site_fract_x
_atom_site_fract_y
_atom_site_fract_z
Si Si1 0.833521 0.956014 0.744888
Si Si2 0.828473 0.292271 0.737831
Si Si3 0.412432 0.146282 0.148614
Si Si4 0.160397 0.394543 0.535257
Si Si5 0.342900 0.601227 0.470678
Si Si6 0.410545 0.647756 0.157052
O O1 0.750916 0.886616 0.623782
O O2 0.862631 0.904699 0.883012
O O3 0.894947 0.885580 0.749147
O O4 0.831498 0.124190 0.734996
O O5 0.882234 0.362273 0.721770
O O6 0.857473 0.347217 0.876824
O O7 0.742515 0.343940 0.611289
O O8 0.500000 0.097076 0.250000
O O9 0.405087 0.304200 0.100988
O O10 0.364786 0.053669 0.014425
O O11 0.111744 0.305285 0.399013
O O12 0.352837 0.445601 0.523287
O O13 0.500000 0.617796 0.250000
#
# Coordination Sequence:
#
# PCOD8152949 Si02
#       6
#     8   8   8   8   8   8
#     4  11  23  42  70  94 126 171 215 266 312 373
#     4  11  23  43  69  93 129 167 215 272 310 368
#     4  12  25  42  67  95 132 172 208 259 328 382
#     4  11  25  44  65  96 130 166 218 263 314 377
#     4  11  23  41  66  94 122 169 221 255 310 378
#     4  12  25  41  65  98 132 167 209 263 321 379
#
# _framework density 20.876086000000001
#
# number of rings (size 3 to 8) (size 9 to 14) (size 15 to 20)
#    0.000    0.667    5.000    3.000    0.000    4.000 
#    0.000    0.000    0.000    0.000    0.000    0.000 
#    0.000    0.000    0.000    0.000    0.000    0.000 
#
# Total GULP energy -297701.102627 kJ/mol
# GULP energy per Si atom -12404.212609 kJ/mol
# Density = 2.082857 g / cm^3
# Si number density = 20.876086 Si / 1000 Ang^3
#
#
#
# Elastic Constant Matrix: (Units=GPa)
#
#
# Indices 1 2 3 4 5 6 
#
# 1 139.1143 40.2046 56.2612 0.0000 -28.0431 0.0000
# 2 40.2046 67.7723 19.7146 0.0000 -6.5878 0.0000
# 3 56.2612 19.7146 63.3770 0.0000 -14.6955 0.0000
# 4 0.0000 0.0000 0.0000 32.9143 0.0000 -10.2480
# 5 -28.0431 -6.5878 -14.6955 0.0000 24.8914 0.0000
# 6 0.0000 0.0000 0.0000 -10.2480 0.0000 21.1120
#
#
#
# Elastic Compliance Matrix: (Units=1/GPa)
#
#
# Indices 1 2 3 4 5 6 
#
# 1 0.014021 -0.004859 -0.008772 0.000000 0.009332 0.000000
# 2 -0.004859 0.017957 -0.001668 0.000000 -0.001707 0.000000
# 3 -0.008772 -0.001668 0.025131 0.000000 0.004513 0.000000
# 4 0.000000 0.000000 0.000000 0.035791 0.000000 0.017373
# 5 0.009332 -0.001707 0.004513 0.000000 0.052901 0.000000
# 6 0.000000 0.000000 0.000000 0.017373 0.000000 0.055800
#
#
# Mechanical properties :
#
#
# Convention : Reuss Voigt Hill
#
# Bulk Modulus (GPa) = 37.71949 55.84716 46.78333
# Shear Modulus (GPa) = 20.74381 26.05576 23.39978
#
# Velocity S-wave (km/s) = 3.15566 3.53670 3.35160
# Velocity P-wave (km/s) = 5.60224 6.59450 6.11852
#
# Compressibility (1/GPa) = 0.02651149
#
# Stress axis : x y z
#
# Youngs Moduli (GPa) = 71.32028 55.68791 39.79190
#
# Poissons Ratio (x) = 0.27059 0.34904
# Poissons Ratio (y) = 0.34655 0.06638
# Poissons Ratio (z) = 0.62559 0.09289
#
# Static dielectric constant tensor:
#      x y z
#    x 3.807160 0.000000 -0.171380 
#    y 0.000000 3.784300 0.000000 
#    z -0.171380 0.000000 3.682510 
# 
# 
# High freq. dielectric constant tensor:
#      x y z
#    x 1.820990 0.000000 -0.010190 
#    y 0.000000 1.826840 0.000000 
#    z -0.010190 0.000000 1.820040 
# 
# From -- ./inp_files/176854.got.cif
#   From: 2010.06.25/outbox.cif.g09.slc.cpg/sg15_89_cif.got.tgz:176854.got - 2010.06.28 07:06:18.
