data_PCOD8152421
_publ_section_title
;
Structure prediction by ZEFSAII (Michael W. Deem and Ramdas Pophale) SiO2 
 PCOD8152421
Probable space group: C 2/C
;
_chemical_formula_sum "Si O2"
_cell_formula_units_Z 56
_cell_length_a 13.038986
_cell_length_b 7.293464
_cell_length_c 31.301588
_cell_angle_alpha 90.000000
_cell_angle_beta 61.026948
_cell_angle_gamma 90.000000
_cell_volume 2604.212709
_symmetry_space_group_name_H-M "C 2/C"
_symmetry_group_IT_number 15
_symmetry_cell_setting 'monoclinic'
loop_
_space_group_symop_operation_xyz
x,y,z
-x,y,1/2-z
-x,-y,-z
x,-y,1/2+z
1/2+x,1/2+y,z
1/2-x,1/2+y,1/2-z
1/2-x,1/2-y,-z
1/2+x,1/2-y,1/2+z
loop_
_atom_site_type_symbol
_atom_site_label
_atom_site_fract_x
_atom_site_fract_y
_atom_site_fract_z
Si Si1 0.102220 0.346852 0.983143
Si Si2 0.759161 0.645370 0.701331
Si Si3 0.398237 0.927846 0.801123
Si Si4 0.981313 0.414579 0.370214
Si Si5 0.131496 0.102316 0.057609
Si Si6 0.258197 0.267932 0.199657
Si Si7 0.038491 0.765153 0.405793
O O1 0.229239 0.438136 0.967644
O O2 0.102433 0.233522 0.938788
O O3 0.083312 0.195920 0.023925
O O4 0.000000 0.500000 0.000000
O O5 0.703010 0.775390 0.676970
O O6 0.709500 0.706302 0.757324
O O7 0.722450 0.439971 0.697751
O O8 0.897740 0.672495 0.670234
O O9 0.500000 0.851801 0.750000
O O10 0.432531 0.958377 0.842642
O O11 0.355072 0.115810 0.788837
O O12 0.897710 0.245178 0.398456
O O13 0.994369 0.555658 0.407154
O O14 0.068864 0.906857 0.074773
O O15 0.369481 0.326740 0.148978
#
# Coordination Sequence:
#
# PCOD8152421 Si02
#       7
#     8   8   8   8   8   8   8
#     4  11  24  49  71 102 138 173 228 288 349 416
#     4  11  23  42  66  93 137 185 219 279 335 390
#     4  12  23  40  62  96 133 180 232 271 328 399
#     4  11  24  43  65 101 139 175 230 276 328 416
#     4  11  25  45  75 100 136 179 225 284 348 404
#     4  11  22  41  68  96 138 179 226 278 333 401
#     4  11  24  44  70 102 136 180 229 278 344 407
#
# _framework density 21.503620999999999
#
# number of rings (size 3 to 8) (size 9 to 14) (size 15 to 20)
#    0.000    0.857    4.286    3.000    0.000    4.571 
#    5.143    0.000    0.000    0.000    0.000    0.000 
#    0.000    0.000    0.000    0.000    0.000    0.000 
#
# Total GULP energy -347257.015098 kJ/mol
# GULP energy per Si atom -12402.036253 kJ/mol
# Density = 2.145468 g / cm^3
# Si number density = 21.503621 Si / 1000 Ang^3
#
#
#
# Elastic Constant Matrix: (Units=GPa)
#
#
# Indices 1 2 3 4 5 6 
#
# 1 127.0772 49.1620 46.2583 0.0000 -0.5652 0.0000
# 2 49.1620 97.7017 35.9131 0.0001 -9.6646 0.0000
# 3 46.2583 35.9131 102.5236 0.0000 -2.8325 0.0000
# 4 0.0000 0.0001 0.0000 31.7082 0.0000 -6.2146
# 5 -0.5652 -9.6646 -2.8325 0.0000 29.2241 0.0000
# 6 0.0000 0.0000 0.0000 -6.2146 0.0000 55.8346
#
#
#
# Elastic Compliance Matrix: (Units=1/GPa)
#
#
# Indices 1 2 3 4 5 6 
#
# 1 0.010769 -0.004328 -0.003386 0.000000 -0.001551 0.000000
# 2 -0.004328 0.013854 -0.002784 0.000000 0.004228 0.000000
# 3 -0.003386 -0.002784 0.012262 0.000000 0.000202 0.000000
# 4 0.000000 0.000000 0.000000 0.032241 0.000000 0.003589
# 5 -0.001551 0.004228 0.000202 0.000000 0.035606 0.000000
# 6 0.000000 0.000000 0.000000 0.003589 0.000000 0.018309
#
#
# Mechanical properties :
#
#
# Convention : Reuss Voigt Hill
#
# Bulk Modulus (GPa) = 62.92751 65.55211 64.23981
# Shear Modulus (GPa) = 33.48207 36.41798 34.95003
#
# Velocity S-wave (km/s) = 3.95022 4.11977 4.03589
# Velocity P-wave (km/s) = 7.08046 7.29249 7.18726
#
# Compressibility (1/GPa) = 0.01589130
#
# Stress axis : x y z
#
# Youngs Moduli (GPa) = 92.85833 72.17971 81.55138
#
# Poissons Ratio (x) = 0.31237 0.27612
# Poissons Ratio (y) = 0.40186 0.22700
# Poissons Ratio (z) = 0.31441 0.20092
#
# Static dielectric constant tensor:
#      x y z
#    x 3.788800 0.000000 -0.032200 
#    y 0.000000 3.814660 0.000000 
#    z -0.032200 0.000000 3.978740 
# 
# 
# High freq. dielectric constant tensor:
#      x y z
#    x 1.845560 0.000000 0.003800 
#    y 0.000000 1.845810 0.000000 
#    z 0.003800 0.000000 1.852870 
# 
# From -- ./inp_files/310240.got.cif
#   From: 2010.06.25/outbox.cif.g09.slc.cpg/sg15_156_cif.got.tgz:310240.got - 2010.06.28 07:06:18.
