data_PCOD8152465
_publ_section_title
;
Structure prediction by ZEFSAII (Michael W. Deem and Ramdas Pophale) SiO2 
 PCOD8152465
Probable space group: C 2/C
;
_chemical_formula_sum "Si O2"
_cell_formula_units_Z 48
_cell_length_a 15.193295
_cell_length_b 9.460339
_cell_length_c 26.227017
_cell_angle_alpha 90.000000
_cell_angle_beta 144.106136
_cell_angle_gamma 90.000000
_cell_volume 2210.124796
_symmetry_space_group_name_H-M "C 2/C"
_symmetry_group_IT_number 15
_symmetry_cell_setting 'monoclinic'
loop_
_space_group_symop_operation_xyz
x,y,z
-x,y,1/2-z
-x,-y,-z
x,-y,1/2+z
1/2+x,1/2+y,z
1/2-x,1/2+y,1/2-z
1/2-x,1/2-y,-z
1/2+x,1/2-y,1/2+z
loop_
_atom_site_type_symbol
_atom_site_label
_atom_site_fract_x
_atom_site_fract_y
_atom_site_fract_z
Si Si1 0.552886 0.056474 0.829008
Si Si2 0.111205 0.680827 0.195301
Si Si3 0.606582 0.100061 0.083185
Si Si4 0.039651 0.812597 0.650274
Si Si5 0.110497 0.111289 0.524971
Si Si6 0.086227 0.042411 0.742421
O O1 0.500000 0.118811 0.750000
O O2 0.493882 0.154201 0.847441
O O3 0.731591 0.035685 0.912053
O O4 0.473888 0.906084 0.800807
O O5 0.036842 0.643887 0.105501
O O6 0.287389 0.647127 0.277552
O O7 0.098246 0.844862 0.202736
O O8 0.639783 0.248611 0.071565
O O9 0.754193 0.008965 0.162011
O O10 0.500000 0.000000 0.000000
O O11 0.952431 0.838606 0.557998
O O12 0.987361 0.915133 0.671791
O O13 0.000000 0.000000 0.500000
O O14 0.000000 0.107895 0.750000
#
# Coordination Sequence:
#
# PCOD8152465 Si02
#       6
#     8   8   8   8   8   8
#     4  12  24  41  65  95 128 172 220 270 331 398
#     4  11  23  41  65  94 128 170 217 274 331 393
#     4  11  24  44  68  96 131 176 223 275 333 397
#     4  11  22  42  65  92 128 173 219 268 328 399
#     4  12  25  43  66  98 135 176 222 277 334 402
#     4  11  23  41  64  93 129 169 216 270 329 391
#
# _framework density 21.718232
#
# number of rings (size 3 to 8) (size 9 to 14) (size 15 to 20)
#    0.000    0.667    0.000   10.500    0.000    2.667 
#    0.000    2.500    0.000    0.000    0.000    0.000 
#    0.000    0.000    0.000    0.000    0.000    0.000 
#
# Total GULP energy -297617.229898 kJ/mol
# GULP energy per Si atom -12400.717912 kJ/mol
# Density = 2.166880 g / cm^3
# Si number density = 21.718232 Si / 1000 Ang^3
#
#
#
# Elastic Constant Matrix: (Units=GPa)
#
#
# Indices 1 2 3 4 5 6 
#
# 1 116.0078 47.0718 52.3206 0.0000 1.8612 0.0000
# 2 47.0718 119.4079 51.2632 0.0000 4.8844 0.0000
# 3 52.3206 51.2632 109.3771 0.0000 -12.5249 0.0000
# 4 0.0000 0.0000 0.0000 38.1127 0.0000 -13.4208
# 5 1.8612 4.8844 -12.5249 0.0000 42.1397 0.0000
# 6 0.0000 0.0000 0.0000 -13.4208 0.0000 35.0444
#
#
#
# Elastic Compliance Matrix: (Units=1/GPa)
#
#
# Indices 1 2 3 4 5 6 
#
# 1 0.011774 -0.002605 -0.004592 0.000000 -0.001583 0.000000
# 2 -0.002605 0.011382 -0.004375 0.000000 -0.002505 0.000000
# 3 -0.004592 -0.004375 0.013946 0.000000 0.004855 0.000000
# 4 0.000000 0.000000 0.000000 0.030328 0.000000 0.011615
# 5 -0.001583 -0.002505 0.004855 0.000000 0.025534 0.000000
# 6 0.000000 0.000000 0.000000 0.011615 0.000000 0.032983
#
#
# Mechanical properties :
#
#
# Convention : Reuss Voigt Hill
#
# Bulk Modulus (GPa) = 71.65044 71.78934 71.71989
# Shear Modulus (GPa) = 32.52136 36.00183 34.26159
#
# Velocity S-wave (km/s) = 3.87385 4.07588 3.97615
# Velocity P-wave (km/s) = 7.28502 7.43485 7.36032
#
# Compressibility (1/GPa) = 0.01395665
#
# Stress axis : x y z
#
# Youngs Moduli (GPa) = 84.93509 87.85425 71.70479
#
# Poissons Ratio (x) = 0.22886 0.32929
# Poissons Ratio (y) = 0.22126 0.31374
# Poissons Ratio (z) = 0.39005 0.38440
#
# Static dielectric constant tensor:
#      x y z
#    x 4.095300 0.000000 -0.166860 
#    y 0.000000 3.978110 0.000000 
#    z -0.166860 0.000000 4.059070 
# 
# 
# High freq. dielectric constant tensor:
#      x y z
#    x 1.864570 0.000000 -0.016200 
#    y 0.000000 1.864030 0.000000 
#    z -0.016200 0.000000 1.856160 
# 
# From -- ./inp_files/295436.got.cif
#   From: 2010.06.25/outbox.cif.g09.slc.cpg/sg15_148_cif.got.tgz:295436.got - 2010.06.28 07:06:18.
