data_PCOD8152829
_publ_section_title
;
Structure prediction by ZEFSAII (Michael W. Deem and Ramdas Pophale) SiO2 
 PCOD8152829
Probable space group: C 2/C
;
_chemical_formula_sum "Si O2"
_cell_formula_units_Z 60
_cell_length_a 23.004170
_cell_length_b 6.519376
_cell_length_c 20.096252
_cell_angle_alpha 90.000000
_cell_angle_beta 105.948991
_cell_angle_gamma 90.000000
_cell_volume 2897.877242
_symmetry_space_group_name_H-M "C 2/C"
_symmetry_group_IT_number 15
_symmetry_cell_setting 'monoclinic'
loop_
_space_group_symop_operation_xyz
x,y,z
-x,y,1/2-z
-x,-y,-z
x,-y,1/2+z
1/2+x,1/2+y,z
1/2-x,1/2+y,1/2-z
1/2-x,1/2-y,-z
1/2+x,1/2-y,1/2+z
loop_
_atom_site_type_symbol
_atom_site_label
_atom_site_fract_x
_atom_site_fract_y
_atom_site_fract_z
Si Si1 0.646079 0.462402 0.863199
Si Si2 0.765052 0.644179 0.936024
Si Si3 0.974448 0.793123 0.162742
Si Si4 0.850244 0.698866 0.506079
Si Si5 0.500000 0.071704 0.750000
Si Si6 0.919852 0.902894 0.786624
Si Si7 0.370631 0.582625 0.418752
Si Si8 0.452234 0.875901 0.523756
O O1 0.702636 0.617058 0.875619
O O2 0.584118 0.568222 0.865154
O O3 0.633021 0.377717 0.785104
O O4 0.661946 0.297304 0.925341
O O5 0.791769 0.419801 0.960185
O O6 0.808731 0.788477 0.906307
O O7 0.750000 0.750000 0.000000
O O8 0.956876 0.582846 0.195357
O O9 0.991025 0.733272 0.093163
O O10 0.034346 0.904944 0.213225
O O11 0.901598 0.530344 0.534791
O O12 0.865865 0.863698 0.453642
O O13 0.461886 0.201706 0.792024
O O14 0.886772 0.934054 0.846048
O O15 0.425308 0.701550 0.468925
O O16 0.500000 0.000000 0.500000
#
# Coordination Sequence:
#
# PCOD8152829 Si02
#       8
#     8   8   8   8   4   8   8   8
#     4  12  22  45  68  96 130 179 227 269 340 405
#     4  11  24  47  70  99 128 172 239 285 331 403
#     4  12  23  42  65 100 133 175 227 275 328 423
#     4  11  23  44  71  97 129 178 228 284 333 398
#     4  12  22  44  66  92 144 180 216 278 346 394
#     4  12  26  44  65 101 142 176 222 278 349 415
#     4  11  25  44  65  99 140 173 227 286 335 407
#     4  11  23  37  66 101 130 174 221 276 341 394
#
# _framework density 20.704809999999998
#
# number of rings (size 3 to 8) (size 9 to 14) (size 15 to 20)
#    0.000    0.533    5.333    3.600    1.867    2.133 
#    2.400    0.000    0.000    0.000    0.000    0.000 
#    0.000    0.000    0.000    0.000    0.000    0.000 
#
# Total GULP energy -371838.420004 kJ/mol
# GULP energy per Si atom -12394.614000 kJ/mol
# Density = 2.065769 g / cm^3
# Si number density = 20.704810 Si / 1000 Ang^3
#
#
#
# Elastic Constant Matrix: (Units=GPa)
#
#
# Indices 1 2 3 4 5 6 
#
# 1 92.6686 32.5562 43.2917 0.0000 -2.0926 0.0000
# 2 32.5562 100.0831 41.5126 0.0000 -6.4506 0.0000
# 3 43.2917 41.5126 112.7213 0.0000 -11.8539 0.0000
# 4 0.0000 0.0000 0.0000 27.6267 0.0000 -11.0297
# 5 -2.0926 -6.4506 -11.8539 0.0000 43.8362 0.0000
# 6 0.0000 0.0000 0.0000 -11.0297 0.0000 23.2803
#
#
#
# Elastic Compliance Matrix: (Units=1/GPa)
#
#
# Indices 1 2 3 4 5 6 
#
# 1 0.013775 -0.002722 -0.004386 0.000000 -0.000929 0.000000
# 2 -0.002722 0.012345 -0.003421 0.000000 0.000762 0.000000
# 3 -0.004386 -0.003421 0.012084 0.000000 0.002555 0.000000
# 4 0.000000 0.000000 0.000000 0.044641 0.000000 0.021150
# 5 -0.000929 0.000762 0.002555 0.000000 0.023571 0.000000
# 6 0.000000 0.000000 0.000000 0.021150 0.000000 0.052975
#
#
# Mechanical properties :
#
#
# Convention : Reuss Voigt Hill
#
# Bulk Modulus (GPa) = 58.31703 60.02155 59.16929
# Shear Modulus (GPa) = 26.85799 31.48949 29.17374
#
# Velocity S-wave (km/s) = 3.60555 3.90407 3.75778
# Velocity P-wave (km/s) = 6.74985 7.02670 6.88966
#
# Compressibility (1/GPa) = 0.01714765
#
# Stress axis : x y z
#
# Youngs Moduli (GPa) = 72.59382 81.00377 82.75092
#
# Poissons Ratio (x) = 0.22047 0.36294
# Poissons Ratio (y) = 0.19758 0.28309
# Poissons Ratio (z) = 0.31839 0.27712
#
# Static dielectric constant tensor:
#      x y z
#    x 3.383870 0.000000 -0.259740 
#    y 0.000000 4.103420 0.000000 
#    z -0.259740 0.000000 3.679300 
# 
# 
# High freq. dielectric constant tensor:
#      x y z
#    x 1.804930 0.000000 0.000150 
#    y 0.000000 1.822810 0.000000 
#    z 0.000150 0.000000 1.817780 
# 
# From -- ./inp_files/256781.got.cif
#   From: 2010.06.25/outbox.cif.g09.slc.cpg/sg15_129_cif.got.tgz:256781.got - 2010.06.28 07:06:18.
