data_PCOD8152845
_publ_section_title
;
Structure prediction by ZEFSAII (Michael W. Deem and Ramdas Pophale) SiO2 
 PCOD8152845
Probable space group: C 2/C
;
_chemical_formula_sum "Si O2"
_cell_formula_units_Z 48
_cell_length_a 21.824107
_cell_length_b 15.050087
_cell_length_c 11.714613
_cell_angle_alpha 90.000000
_cell_angle_beta 142.924823
_cell_angle_gamma 90.000000
_cell_volume 2319.645532
_symmetry_space_group_name_H-M "C 2/C"
_symmetry_group_IT_number 15
_symmetry_cell_setting 'monoclinic'
loop_
_space_group_symop_operation_xyz
x,y,z
-x,y,1/2-z
-x,-y,-z
x,-y,1/2+z
1/2+x,1/2+y,z
1/2-x,1/2+y,1/2-z
1/2-x,1/2-y,-z
1/2+x,1/2-y,1/2+z
loop_
_atom_site_type_symbol
_atom_site_label
_atom_site_fract_x
_atom_site_fract_y
_atom_site_fract_z
Si Si1 0.917319 0.270975 0.224830
Si Si2 0.389812 0.837597 0.606061
Si Si3 0.219055 0.188764 0.169210
Si Si4 0.773662 0.875740 0.568240
Si Si5 0.797607 0.076862 0.583264
Si Si6 0.091258 0.773064 0.140886
O O1 0.847333 0.359500 0.136817
O O2 0.000000 0.285000 0.250000
O O3 0.977352 0.243427 0.428910
O O4 0.838264 0.190787 0.083351
O O5 0.500000 0.881749 0.750000
O O6 0.365520 0.766505 0.470100
O O7 0.305250 0.913419 0.493603
O O8 0.384105 0.784311 0.713503
O O9 0.202395 0.139360 0.263080
O O10 0.328657 0.237861 0.334758
O O11 0.210132 0.116811 0.054922
O O12 0.813657 0.972390 0.593197
O O13 0.887966 0.124168 0.790861
#
# Coordination Sequence:
#
# PCOD8152845 Si02
#       6
#     8   8   8   8   8   8
#     4  11  23  39  60  83 122 163 199 237 307 373
#     4   9  17  34  60  85 109 152 205 243 298 357
#     4   9  18  38  59  80 117 156 195 243 296 361
#     4  11  23  39  59  91 121 159 199 251 307 358
#     4   9  21  37  59  88 120 152 204 257 296 349
#     4   9  18  38  59  79 113 161 198 242 290 361
#
# _framework density 20.692817000000002
#
# number of rings (size 3 to 8) (size 9 to 14) (size 15 to 20)
#    0.000    2.333    1.667    3.000    0.000    2.667 
#    6.000    5.000    0.000    0.000    0.000    0.000 
#    0.000    0.000    0.000    0.000    0.000    0.000 
#
# Total GULP energy -297416.255970 kJ/mol
# GULP energy per Si atom -12392.343999 kJ/mol
# Density = 2.064572 g / cm^3
# Si number density = 20.692817 Si / 1000 Ang^3
#
#
#
# Elastic Constant Matrix: (Units=GPa)
#
#
# Indices 1 2 3 4 5 6 
#
# 1 41.8105 -7.1556 5.2344 0.0000 3.9442 0.0000
# 2 -7.1556 73.6835 5.8709 0.0000 -10.8046 0.0000
# 3 5.2344 5.8709 99.4200 0.0000 0.9695 0.0000
# 4 0.0000 0.0000 0.0000 25.0323 0.0000 0.3608
# 5 3.9442 -10.8046 0.9695 0.0000 16.0790 0.0000
# 6 0.0000 0.0000 0.0000 0.3608 0.0000 19.1670
#
#
#
# Elastic Compliance Matrix: (Units=1/GPa)
#
#
# Indices 1 2 3 4 5 6 
#
# 1 0.024852 0.001820 -0.001369 0.000000 -0.004791 0.000000
# 2 0.001820 0.015286 -0.001095 0.000000 0.009891 0.000000
# 3 -0.001369 -0.001095 0.010205 0.000000 -0.001015 0.000000
# 4 0.000000 0.000000 0.000000 0.039959 0.000000 -0.000752
# 5 -0.004791 0.009891 -0.001015 0.000000 0.070076 0.000000
# 6 0.000000 0.000000 0.000000 -0.000752 0.000000 0.052187
#
#
# Mechanical properties :
#
#
# Convention : Reuss Voigt Hill
#
# Bulk Modulus (GPa) = 20.38524 24.75703 22.57114
# Shear Modulus (GPa) = 21.71973 26.11994 23.91983
#
# Velocity S-wave (km/s) = 3.24331 3.55670 3.40361
# Velocity P-wave (km/s) = 4.88857 5.37186 5.13590
#
# Compressibility (1/GPa) = 0.04905510
#
# Stress axis : x y z
#
# Youngs Moduli (GPa) = 40.23773 65.41953 97.99129
#
# Poissons Ratio (x) = -0.11907 0.13417
# Poissons Ratio (y) = -0.07324 0.10729
# Poissons Ratio (z) = 0.05509 0.07163
#
# Static dielectric constant tensor:
#      x y z
#    x 3.925480 0.000000 0.389700 
#    y 0.000000 3.413660 0.000000 
#    z 0.389700 0.000000 4.234320 
# 
# 
# High freq. dielectric constant tensor:
#      x y z
#    x 1.814000 0.000000 0.003400 
#    y 0.000000 1.774960 0.000000 
#    z 0.003400 0.000000 1.815400 
# 
# From -- ./inp_files/96186.got.cif
#   From: 2010.06.25/outbox.cif.g09.slc.cpg/sg15_49_cif.got.tgz:96186.got - 2010.06.28 07:06:18.
