data_PCOD8152442
_publ_section_title
;
Structure prediction by ZEFSAII (Michael W. Deem and Ramdas Pophale) SiO2 
 PCOD8152442
Probable space group: C 2/C
;
_chemical_formula_sum "Si O2"
_cell_formula_units_Z 60
_cell_length_a 28.267821
_cell_length_b 10.775817
_cell_length_c 9.339083
_cell_angle_alpha 90.000000
_cell_angle_beta 77.776108
_cell_angle_gamma 90.000000
_cell_volume 2780.270027
_symmetry_space_group_name_H-M "C 2/C"
_symmetry_group_IT_number 15
_symmetry_cell_setting 'monoclinic'
loop_
_space_group_symop_operation_xyz
x,y,z
-x,y,1/2-z
-x,-y,-z
x,-y,1/2+z
1/2+x,1/2+y,z
1/2-x,1/2+y,1/2-z
1/2-x,1/2-y,-z
1/2+x,1/2-y,1/2+z
loop_
_atom_site_type_symbol
_atom_site_label
_atom_site_fract_x
_atom_site_fract_y
_atom_site_fract_z
Si Si1 0.758462 0.895125 0.016079
Si Si2 0.910687 0.138267 0.175702
Si Si3 0.702904 0.003142 0.308911
Si Si4 0.000000 0.240658 0.250000
Si Si5 0.048448 0.435106 0.017317
Si Si6 0.122456 0.300438 0.797688
Si Si7 0.367977 0.570679 0.508862
Si Si8 0.378744 0.147776 0.509795
O O1 0.717336 0.942631 0.150119
O O2 0.750000 0.750000 0.000000
O O3 0.810029 0.939098 0.043180
O O4 0.750638 0.959765 0.867363
O O5 0.968545 0.149242 0.167422
O O6 0.884490 0.096989 0.337179
O O7 0.895739 0.276606 0.137664
O O8 0.895616 0.049028 0.054369
O O9 0.674069 0.903181 0.421002
O O10 0.670797 0.125160 0.306105
O O11 0.962508 0.326604 0.361609
O O12 0.074309 0.379683 0.860677
O O13 0.084787 0.537159 0.058722
O O14 0.000000 0.500000 0.000000
O O15 0.124283 0.265108 0.628893
O O16 0.117674 0.178794 0.893832
#
# Coordination Sequence:
#
# PCOD8152442 Si02
#       8
#     8   8   8   4   8   8   8   8
#     4  12  24  45  71 102 144 187 240 292 358 430
#     4  12  27  48  72 102 144 192 239 294 358 426
#     4  11  24  42  69 107 139 184 232 298 354 424
#     4  12  24  46  70 112 142 190 238 302 356 438
#     4  11  22  41  71 104 141 178 234 295 363 420
#     4  11  23  43  68 104 142 181 231 293 361 421
#     4  12  26  48  72  99 145 193 236 293 356 428
#     4  11  24  41  71 104 146 178 231 297 362 418
#
# _framework density 21.580639000000001
#
# number of rings (size 3 to 8) (size 9 to 14) (size 15 to 20)
#    0.000    0.533    5.333    3.200    1.867    0.533 
#    0.000    2.000    0.000    0.000    0.000    0.000 
#    0.000    0.000    0.000    0.000    0.000    0.000 
#
# Total GULP energy -371997.840242 kJ/mol
# GULP energy per Si atom -12399.928008 kJ/mol
# Density = 2.153152 g / cm^3
# Si number density = 21.580639 Si / 1000 Ang^3
#
#
#
# Elastic Constant Matrix: (Units=GPa)
#
#
# Indices 1 2 3 4 5 6 
#
# 1 119.9114 46.2709 24.0341 0.0000 13.6491 0.0000
# 2 46.2709 89.9241 33.2462 0.0000 3.3577 0.0000
# 3 24.0341 33.2462 118.1900 0.0000 4.9267 0.0000
# 4 0.0000 0.0000 0.0000 37.1450 0.0000 1.7243
# 5 13.6491 3.3577 4.9267 0.0000 30.5781 0.0000
# 6 0.0000 0.0000 0.0000 1.7243 0.0000 28.4866
#
#
#
# Elastic Compliance Matrix: (Units=1/GPa)
#
#
# Indices 1 2 3 4 5 6 
#
# 1 0.010971 -0.005276 -0.000571 0.000000 -0.004226 0.000000
# 2 -0.005276 0.014969 -0.003189 0.000000 0.001225 0.000000
# 3 -0.000571 -0.003189 0.009513 0.000000 -0.000928 0.000000
# 4 0.000000 0.000000 0.000000 0.026997 0.000000 -0.001634
# 5 -0.004226 0.001225 -0.000928 0.000000 0.034604 0.000000
# 6 0.000000 0.000000 0.000000 -0.001634 0.000000 0.035203
#
#
# Mechanical properties :
#
#
# Convention : Reuss Voigt Hill
#
# Bulk Modulus (GPa) = 57.53477 59.45867 58.49672
# Shear Modulus (GPa) = 32.02626 34.20691 33.11658
#
# Velocity S-wave (km/s) = 3.85649 3.98562 3.92158
# Velocity P-wave (km/s) = 6.82263 6.98512 6.90435
#
# Compressibility (1/GPa) = 0.01738080
#
# Stress axis : x y z
#
# Youngs Moduli (GPa) = 91.15035 66.80632 105.12349
#
# Poissons Ratio (x) = 0.35250 0.05998
# Poissons Ratio (y) = 0.48094 0.33521
# Poissons Ratio (z) = 0.05201 0.21303
#
# Static dielectric constant tensor:
#      x y z
#    x 3.395180 0.000000 -0.023820 
#    y 0.000000 3.925250 0.000000 
#    z -0.023820 0.000000 3.977470 
# 
# 
# High freq. dielectric constant tensor:
#      x y z
#    x 1.852870 0.000000 0.005060 
#    y 0.000000 1.844810 0.000000 
#    z 0.005060 0.000000 1.859580 
# 
# From -- ./inp_files/69104.got.cif
#   From: 2010.06.25/outbox.cif.g09.slc.cpg/sg15_35_cif.got.tgz:69104.got - 2010.06.28 07:06:18.
