data_PCOD8152046
_publ_section_title
;
Structure prediction by ZEFSAII (Michael W. Deem and Ramdas Pophale) SiO2 
 PCOD8152046
Probable space group: C 2/C
;
_chemical_formula_sum "Si O2"
_cell_formula_units_Z 48
_cell_length_a 9.215186
_cell_length_b 21.883048
_cell_length_c 11.061972
_cell_angle_alpha 90.000000
_cell_angle_beta 112.317704
_cell_angle_gamma 90.000000
_cell_volume 2063.619381
_symmetry_space_group_name_H-M "C 2/C"
_symmetry_group_IT_number 15
_symmetry_cell_setting 'monoclinic'
loop_
_space_group_symop_operation_xyz
x,y,z
-x,y,1/2-z
-x,-y,-z
x,-y,1/2+z
1/2+x,1/2+y,z
1/2-x,1/2+y,1/2-z
1/2-x,1/2-y,-z
1/2+x,1/2-y,1/2+z
loop_
_atom_site_type_symbol
_atom_site_label
_atom_site_fract_x
_atom_site_fract_y
_atom_site_fract_z
Si Si1 0.978058 0.787134 0.106293
Si Si2 0.717438 0.119435 0.507240
Si Si3 0.348815 0.407062 0.805733
Si Si4 0.160258 0.886136 0.026241
Si Si5 0.111651 0.662664 0.084222
Si Si6 0.832558 0.959089 0.248208
O O1 0.798870 0.812241 0.034519
O O2 0.000000 0.766055 0.250000
O O3 0.092809 0.841786 0.107341
O O4 0.041565 0.730827 0.045574
O O5 0.803323 0.080664 0.430872
O O6 0.534905 0.123193 0.417318
O O7 0.716031 0.082629 0.633137
O O8 0.251222 0.348168 0.726361
O O9 0.306341 0.468423 0.717659
O O10 0.539011 0.395011 0.872772
O O11 0.188687 0.947405 0.113845
O O12 0.322058 0.859422 0.024610
O O13 0.000000 0.938654 0.250000
#
# Coordination Sequence:
#
# PCOD8152046 Si02
#       6
#     8   8   8   8   8   8
#     4  11  21  46  72  94 134 180 232 273 333 419
#     4  11  24  45  68  99 135 183 223 275 351 401
#     4  11  25  43  71  99 135 185 228 279 337 408
#     4  11  23  45  67 103 131 178 233 278 343 397
#     4  12  26  41  66 107 139 172 224 287 349 397
#     4  12  22  45  73  94 133 186 237 274 334 415
#
# _framework density 23.260103000000001
#
# number of rings (size 3 to 8) (size 9 to 14) (size 15 to 20)
#    0.000    0.667    5.000    4.500    2.333    2.667 
#    3.000    1.667    0.000    0.000    0.000    0.000 
#    0.000    0.000    0.000    0.000    0.000    0.000 
#
# Total GULP energy -297474.076568 kJ/mol
# GULP energy per Si atom -12394.753190 kJ/mol
# Density = 2.320716 g / cm^3
# Si number density = 23.260103 Si / 1000 Ang^3
#
#
#
# Elastic Constant Matrix: (Units=GPa)
#
#
# Indices 1 2 3 4 5 6 
#
# 1 124.9216 38.4847 21.3872 0.0000 8.5104 0.0000
# 2 38.4847 115.2315 29.1113 0.0000 2.0915 0.0000
# 3 21.3872 29.1113 67.9388 0.0000 4.5853 0.0000
# 4 0.0000 0.0000 0.0000 25.2873 0.0000 -7.7099
# 5 8.5104 2.0915 4.5853 0.0000 30.1420 0.0000
# 6 0.0000 0.0000 0.0000 -7.7099 0.0000 29.1111
#
#
#
# Elastic Compliance Matrix: (Units=1/GPa)
#
#
# Indices 1 2 3 4 5 6 
#
# 1 0.009245 -0.002635 -0.001634 0.000000 -0.002179 0.000000
# 2 -0.002635 0.010483 -0.003701 0.000000 0.000580 0.000000
# 3 -0.001634 -0.003701 0.016945 0.000000 -0.001860 0.000000
# 4 0.000000 0.000000 0.000000 0.043019 0.000000 0.011393
# 5 -0.002179 0.000580 -0.001860 0.000000 0.034034 0.000000
# 6 0.000000 0.000000 0.000000 0.011393 0.000000 0.037369
#
#
# Mechanical properties :
#
#
# Convention : Reuss Voigt Hill
#
# Bulk Modulus (GPa) = 48.23577 54.00646 51.12112
# Shear Modulus (GPa) = 28.74437 31.51532 30.12984
#
# Velocity S-wave (km/s) = 3.51918 3.68490 3.60299
# Velocity P-wave (km/s) = 6.10700 6.43223 6.27172
#
# Compressibility (1/GPa) = 0.02073150
#
# Stress axis : x y z
#
# Youngs Moduli (GPa) = 108.16570 95.39369 59.01420
#
# Poissons Ratio (x) = 0.25139 0.09644
# Poissons Ratio (y) = 0.28505 0.21843
# Poissons Ratio (z) = 0.17675 0.35309
#
# Static dielectric constant tensor:
#      x y z
#    x 4.212890 0.000000 -0.140750 
#    y 0.000000 3.973570 0.000000 
#    z -0.140750 0.000000 4.028180 
# 
# 
# High freq. dielectric constant tensor:
#      x y z
#    x 1.927300 0.000000 -0.019190 
#    y 0.000000 1.912270 0.000000 
#    z -0.019190 0.000000 1.911700 
# 
# From -- ./inp_files/80952.got.cif
#   From: 2010.06.25/outbox.cif.g09.slc.cpg/sg15_41_cif.got.tgz:80952.got - 2010.06.28 07:06:18.
