data_PCOD8152440
_publ_section_title
;
Structure prediction by ZEFSAII (Michael W. Deem and Ramdas Pophale) SiO2 
 PCOD8152440
Probable space group: C 2/C
;
_chemical_formula_sum "Si O2"
_cell_formula_units_Z 56
_cell_length_a 19.021081
_cell_length_b 13.453143
_cell_length_c 11.604662
_cell_angle_alpha 90.000000
_cell_angle_beta 119.836729
_cell_angle_gamma 90.000000
_cell_volume 2575.931117
_symmetry_space_group_name_H-M "C 2/C"
_symmetry_group_IT_number 15
_symmetry_cell_setting 'monoclinic'
loop_
_space_group_symop_operation_xyz
x,y,z
-x,y,1/2-z
-x,-y,-z
x,-y,1/2+z
1/2+x,1/2+y,z
1/2-x,1/2+y,1/2-z
1/2-x,1/2-y,-z
1/2+x,1/2-y,1/2+z
loop_
_atom_site_type_symbol
_atom_site_label
_atom_site_fract_x
_atom_site_fract_y
_atom_site_fract_z
Si Si1 0.271818 0.335537 0.666846
Si Si2 0.877280 0.660812 0.957100
Si Si3 0.408637 0.339157 0.153154
Si Si4 0.803356 0.163705 0.783550
Si Si5 0.200402 0.959535 0.594702
Si Si6 0.418331 0.204442 0.739662
Si Si7 0.339007 0.978229 0.059889
O O1 0.200935 0.253780 0.627982
O O2 0.306176 0.371978 0.817406
O O3 0.346533 0.284050 0.660487
O O4 0.235944 0.427826 0.569035
O O5 0.782342 0.661165 0.851382
O O6 0.929553 0.679078 0.884323
O O7 0.903161 0.741141 0.071794
O O8 0.892594 0.551509 0.024245
O O9 0.500000 0.372645 0.250000
O O10 0.372223 0.313980 0.247811
O O11 0.362198 0.432148 0.057833
O O12 0.824159 0.064099 0.869733
O O13 0.293186 0.961924 0.624452
O O14 0.500000 0.248860 0.750000
O O15 0.399688 0.102025 0.659762
#
# Coordination Sequence:
#
# PCOD8152440 Si02
#       7
#     8   8   8   8   8   8   8
#     4  11  22  42  69 100 131 180 234 281 344 411
#     4  11  22  44  71  97 133 185 238 277 339 415
#     4  12  26  43  67 103 143 182 224 287 355 408
#     4  11  22  41  70  97 128 187 234 287 330 409
#     4  12  21  42  72  99 134 174 241 279 335 416
#     4  11  25  42  64 100 144 178 220 291 353 406
#     4  12  22  41  75 102 129 180 239 285 336 417
#
# _framework density 21.739711
#
# number of rings (size 3 to 8) (size 9 to 14) (size 15 to 20)
#    0.000    0.571    8.571    1.714    0.000    2.857 
#    0.000    2.857    0.000    0.000    0.000    0.000 
#    0.000    0.000    0.000    0.000    0.000    0.000 
#
# Total GULP energy -347286.952198 kJ/mol
# GULP energy per Si atom -12403.105436 kJ/mol
# Density = 2.169023 g / cm^3
# Si number density = 21.739711 Si / 1000 Ang^3
#
#
#
# Elastic Constant Matrix: (Units=GPa)
#
#
# Indices 1 2 3 4 5 6 
#
# 1 146.0399 28.1510 31.1086 0.0000 -18.5542 0.0000
# 2 28.1510 107.0189 26.8219 0.0000 -8.8728 0.0000
# 3 31.1086 26.8219 53.3631 0.0000 -5.5199 0.0000
# 4 0.0000 0.0000 0.0000 106.1187 0.0000 8.8697
# 5 -18.5542 -8.8728 -5.5199 0.0000 31.0137 0.0000
# 6 0.0000 0.0000 0.0000 8.8697 0.0000 30.3842
#
#
#
# Elastic Compliance Matrix: (Units=1/GPa)
#
#
# Indices 1 2 3 4 5 6 
#
# 1 0.008388 -0.000858 -0.004039 0.000000 0.004054 0.000000
# 2 -0.000858 0.010920 -0.004807 0.000000 0.001755 0.000000
# 3 -0.004039 -0.004807 0.023552 0.000000 0.000400 0.000000
# 4 0.000000 0.000000 0.000000 0.009659 0.000000 -0.002820
# 5 0.004054 0.001755 0.000400 0.000000 0.035242 0.000000
# 6 0.000000 0.000000 0.000000 -0.002820 0.000000 0.033735
#
#
# Mechanical properties :
#
#
# Convention : Reuss Voigt Hill
#
# Bulk Modulus (GPa) = 42.64140 53.17610 47.90875
# Shear Modulus (GPa) = 33.61953 48.19268 40.90610
#
# Velocity S-wave (km/s) = 3.93677 4.71340 4.34248
# Velocity P-wave (km/s) = 6.34990 7.35765 6.87227
#
# Compressibility (1/GPa) = 0.02345139
#
# Stress axis : x y z
#
# Youngs Moduli (GPa) = 119.21294 91.57391 42.45937
#
# Poissons Ratio (x) = 0.07857 0.17151
# Poissons Ratio (y) = 0.10229 0.20410
# Poissons Ratio (z) = 0.48156 0.44020
#
# Static dielectric constant tensor:
#      x y z
#    x 3.834740 0.000000 -0.394490 
#    y 0.000000 4.139420 0.000000 
#    z -0.394490 0.000000 3.939640 
# 
# 
# High freq. dielectric constant tensor:
#      x y z
#    x 1.838820 0.000000 -0.027880 
#    y 0.000000 1.866690 0.000000 
#    z -0.027880 0.000000 1.851180 
# 
# From -- ./inp_files/105781.got.cif
#   From: 2010.06.25/outbox.cif.g09.slc.cpg/sg15_53_cif.got.tgz:105781.got - 2010.06.28 07:06:18.
