data_PCOD8152673
_publ_section_title
;
Structure prediction by ZEFSAII (Michael W. Deem and Ramdas Pophale) SiO2 
 PCOD8152673
Probable space group: C 2/C
;
_chemical_formula_sum "Si O2"
_cell_formula_units_Z 40
_cell_length_a 12.521574
_cell_length_b 9.144322
_cell_length_c 16.090192
_cell_angle_alpha 90.000000
_cell_angle_beta 83.563911
_cell_angle_gamma 90.000000
_cell_volume 1830.736597
_symmetry_space_group_name_H-M "C 2/C"
_symmetry_group_IT_number 15
_symmetry_cell_setting 'monoclinic'
loop_
_space_group_symop_operation_xyz
x,y,z
-x,y,1/2-z
-x,-y,-z
x,-y,1/2+z
1/2+x,1/2+y,z
1/2-x,1/2+y,1/2-z
1/2-x,1/2-y,-z
1/2+x,1/2-y,1/2+z
loop_
_atom_site_type_symbol
_atom_site_label
_atom_site_fract_x
_atom_site_fract_y
_atom_site_fract_z
Si Si1 0.170684 0.304791 0.077065
Si Si2 0.233205 0.896114 0.875755
Si Si3 0.385715 0.610499 0.278581
Si Si4 0.028796 0.830375 0.991634
Si Si5 0.426847 0.702114 0.832072
O O1 0.195396 0.475181 0.089719
O O2 0.190265 0.220354 0.162687
O O3 0.048788 0.267700 0.059645
O O4 0.250000 0.250000 0.000000
O O5 0.167686 0.950609 0.800991
O O6 0.151265 0.822597 0.948294
O O7 0.310181 0.771474 0.834774
O O8 0.500000 0.690340 0.250000
O O9 0.413373 0.471813 0.332946
O O10 0.020479 0.757772 0.083665
O O11 0.000000 0.000000 0.000000
O O12 0.500000 0.760566 0.750000
#
# Coordination Sequence:
#
# PCOD8152673 Si02
#       5
#     8   8   8   8   8
#     4  12  25  41  74 101 131 183 234 284 347 420
#     4  12  25  43  67 105 138 176 235 291 348 416
#     4  11  22  44  70  96 137 187 227 277 346 425
#     4  12  22  46  70  95 135 181 233 278 352 426
#     4  11  25  44  67  97 137 180 223 291 351 412
#
# _framework density 21.849129000000001
#
# number of rings (size 3 to 8) (size 9 to 14) (size 15 to 20)
#    0.000    0.400    6.000    3.000    2.800    1.600 
#    3.600    0.000    0.000    0.000    0.000    0.000 
#    0.000    0.000    0.000    0.000    0.000    0.000 
#
# Total GULP energy -248002.165832 kJ/mol
# GULP energy per Si atom -12400.108292 kJ/mol
# Density = 2.179940 g / cm^3
# Si number density = 21.849129 Si / 1000 Ang^3
#
#
#
# Elastic Constant Matrix: (Units=GPa)
#
#
# Indices 1 2 3 4 5 6 
#
# 1 124.0723 44.8305 59.7275 0.0000 -17.5793 0.0000
# 2 44.8305 49.5937 40.2724 0.0000 -15.0761 0.0000
# 3 59.7275 40.2724 160.2234 0.0000 -13.7966 0.0000
# 4 0.0000 0.0000 0.0000 28.5983 0.0000 -0.4590
# 5 -17.5793 -15.0761 -13.7966 0.0000 57.6439 0.0000
# 6 0.0000 0.0000 0.0000 -0.4590 0.0000 41.9166
#
#
#
# Elastic Compliance Matrix: (Units=1/GPa)
#
#
# Indices 1 2 3 4 5 6 
#
# 1 0.012654 -0.009302 -0.002304 0.000000 0.000875 0.000000
# 2 -0.009302 0.033803 -0.004607 0.000000 0.004902 0.000000
# 3 -0.002304 -0.004607 0.008264 0.000000 0.000071 0.000000
# 4 0.000000 0.000000 0.000000 0.034973 0.000000 0.000383
# 5 0.000875 0.004902 0.000071 0.000000 0.018913 0.000000
# 6 0.000000 0.000000 0.000000 0.000383 0.000000 0.023861
#
#
# Mechanical properties :
#
#
# Convention : Reuss Voigt Hill
#
# Bulk Modulus (GPa) = 44.85050 69.28337 57.06693
# Shear Modulus (GPa) = 29.01480 38.23569 33.62525
#
# Velocity S-wave (km/s) = 3.64807 4.18782 3.92723
# Velocity P-wave (km/s) = 6.19003 7.42715 6.83663
#
# Compressibility (1/GPa) = 0.02229629
#
# Stress axis : x y z
#
# Youngs Moduli (GPa) = 79.02825 29.58289 121.00566
#
# Poissons Ratio (x) = 0.27517 0.27876
# Poissons Ratio (y) = 0.73510 0.55747
# Poissons Ratio (z) = 0.18205 0.13629
#
# Static dielectric constant tensor:
#      x y z
#    x 4.068140 0.000000 -0.102170 
#    y 0.000000 3.778330 0.000000 
#    z -0.102170 0.000000 4.411020 
# 
# 
# High freq. dielectric constant tensor:
#      x y z
#    x 1.861510 0.000000 -0.001710 
#    y 0.000000 1.829860 0.000000 
#    z -0.001710 0.000000 1.887750 
# 
# From -- ./inp_files/142116.got.cif
#   From: 2010.06.25/outbox.cif.g09.slc.cpg/sg15_72_cif.got.tgz:142116.got - 2010.06.28 07:06:18.
