data_PCOD8152103
_publ_section_title
;
Structure prediction by ZEFSAII (Michael W. Deem and Ramdas Pophale) SiO2 
 PCOD8152103
Probable space group: C 2/C
;
_chemical_formula_sum "Si O2"
_cell_formula_units_Z 32
_cell_length_a 10.599118
_cell_length_b 26.795352
_cell_length_c 5.420218
_cell_angle_alpha 90.000000
_cell_angle_beta 116.442994
_cell_angle_gamma 90.000000
_cell_volume 1378.327113
_symmetry_space_group_name_H-M "C 2/C"
_symmetry_group_IT_number 15
_symmetry_cell_setting 'monoclinic'
loop_
_space_group_symop_operation_xyz
x,y,z
-x,y,1/2-z
-x,-y,-z
x,-y,1/2+z
1/2+x,1/2+y,z
1/2-x,1/2+y,1/2-z
1/2-x,1/2-y,-z
1/2+x,1/2-y,1/2+z
loop_
_atom_site_type_symbol
_atom_site_label
_atom_site_fract_x
_atom_site_fract_y
_atom_site_fract_z
Si Si1 0.337050 0.136637 0.074552
Si Si2 0.075889 0.172301 0.058563
Si Si3 0.863322 0.276966 0.265442
Si Si4 0.161824 0.521648 0.433099
O O1 0.500000 0.150870 0.250000
O O2 0.234336 0.147924 0.217297
O O3 0.322212 0.079465 0.982157
O O4 0.283630 0.176720 0.824868
O O5 0.082544 0.231877 0.013345
O O6 0.000000 0.159062 0.250000
O O7 0.000000 0.148226 0.750000
O O8 0.000000 0.299862 0.250000
O O9 0.750000 0.250000 0.000000
O O10 0.231886 0.491900 0.726873
O O11 0.000000 0.505578 0.250000
#
# Coordination Sequence:
#
# PCOD8152103 Si02
#       4
#     8   8   8   8
#     4  11  22  38  66  94 122 166 220 261 306 374
#     4  11  24  42  60  87 130 169 200 247 313 375
#     4  11  22  37  60  93 130 165 208 255 306 370
#     4   9  20  37  59  90 124 155 199 265 323 361
#
# _framework density 23.216550999999999
#
# number of rings (size 3 to 8) (size 9 to 14) (size 15 to 20)
#    0.000    1.500    0.000    6.000    0.000    9.000 
#    0.000    0.000    0.000    4.500    0.000    0.000 
#    0.000    0.000    0.000    0.000    0.000    0.000 
#
# Total GULP energy -198218.557681 kJ/mol
# GULP energy per Si atom -12388.659855 kJ/mol
# Density = 2.316371 g / cm^3
# Si number density = 23.216551 Si / 1000 Ang^3
#
#
#
# Elastic Constant Matrix: (Units=GPa)
#
#
# Indices 1 2 3 4 5 6 
#
# 1 145.9984 41.0135 60.6757 0.0000 -6.5378 0.0000
# 2 41.0135 99.4742 47.7747 0.0000 -15.5082 0.0000
# 3 60.6757 47.7747 133.6207 0.0000 -30.5533 0.0000
# 4 0.0000 0.0000 0.0000 21.4438 0.0000 2.7843
# 5 -6.5378 -15.5082 -30.5533 0.0000 26.9855 0.0000
# 6 0.0000 0.0000 0.0000 2.7843 0.0000 17.5726
#
#
#
# Elastic Compliance Matrix: (Units=1/GPa)
#
#
# Indices 1 2 3 4 5 6 
#
# 1 0.009063 -0.002340 -0.004162 0.000000 -0.003861 0.000000
# 2 -0.002340 0.012898 -0.002677 0.000000 0.003815 0.000000
# 3 -0.004162 -0.002677 0.013154 0.000000 0.012346 0.000000
# 4 0.000000 0.000000 0.000000 0.047613 0.000000 -0.007544
# 5 -0.003861 0.003815 0.012346 0.000000 0.052293 0.000000
# 6 0.000000 0.000000 0.000000 -0.007544 0.000000 0.058102
#
#
# Mechanical properties :
#
#
# Convention : Reuss Voigt Hill
#
# Bulk Modulus (GPa) = 59.67237 75.33566 67.50402
# Shear Modulus (GPa) = 23.03448 28.50900 25.77174
#
# Velocity S-wave (km/s) = 3.15327 3.50803 3.33537
# Velocity P-wave (km/s) = 6.24626 6.99485 6.63113
#
# Compressibility (1/GPa) = 0.01675817
#
# Stress axis : x y z
#
# Youngs Moduli (GPa) = 110.33311 77.53187 76.02377
#
# Poissons Ratio (x) = 0.18143 0.31640
# Poissons Ratio (y) = 0.25818 0.20349
# Poissons Ratio (z) = 0.45919 0.20753
#
# Static dielectric constant tensor:
#      x y z
#    x 4.149540 0.000000 -0.285050 
#    y 0.000000 4.013350 0.000000 
#    z -0.285050 0.000000 4.002680 
# 
# 
# High freq. dielectric constant tensor:
#      x y z
#    x 1.916160 0.000000 -0.010980 
#    y 0.000000 1.895630 0.000000 
#    z -0.010980 0.000000 1.907140 
# 
# From -- ./inp_files/4654.got.cif
#   From: 2010.06.25/outbox.cif.g09.slc.cpg/sg15_3_cif.got.tgz:4654.got - 2010.06.28 07:06:18.
