data_PCOD8152628
_publ_section_title
;
Structure prediction by ZEFSAII (Michael W. Deem and Ramdas Pophale) SiO2 
 PCOD8152628
Probable space group: C 2/C
;
_chemical_formula_sum "Si O2"
_cell_formula_units_Z 44
_cell_length_a 25.297547
_cell_length_b 9.099197
_cell_length_c 13.468394
_cell_angle_alpha 90.000000
_cell_angle_beta 142.012992
_cell_angle_gamma 90.000000
_cell_volume 1908.153004
_symmetry_space_group_name_H-M "C 2/C"
_symmetry_group_IT_number 15
_symmetry_cell_setting 'monoclinic'
loop_
_space_group_symop_operation_xyz
x,y,z
-x,y,1/2-z
-x,-y,-z
x,-y,1/2+z
1/2+x,1/2+y,z
1/2-x,1/2+y,1/2-z
1/2-x,1/2-y,-z
1/2+x,1/2-y,1/2+z
loop_
_atom_site_type_symbol
_atom_site_label
_atom_site_fract_x
_atom_site_fract_y
_atom_site_fract_z
Si Si1 0.500000 0.711604 0.250000
Si Si2 0.386271 0.443946 0.418692
Si Si3 0.583264 0.156554 0.132653
Si Si4 0.864886 0.584642 0.651346
Si Si5 0.193233 0.515103 0.636604
Si Si6 0.105946 0.733796 0.622507
O O1 0.555644 0.606200 0.403209
O O2 0.554426 0.820819 0.263956
O O3 0.389871 0.328579 0.332628
O O4 0.290512 0.472715 0.318278
O O5 0.419481 0.596895 0.421191
O O6 0.632428 0.091041 0.110185
O O7 0.613099 0.080279 0.278300
O O8 0.479636 0.140491 0.976183
O O9 0.800735 0.552237 0.465401
O O10 0.828332 0.683211 0.690189
O O11 0.148954 0.676977 0.582774
#
# Coordination Sequence:
#
# PCOD8152628 Si02
#       6
#     4   8   8   8   8   8
#     4  12  24  44  76  98 142 196 228 284 364 422
#     4  12  26  44  68 107 146 174 235 309 348 398
#     4  11  23  44  71 101 140 184 240 284 341 433
#     4  11  22  43  75  94 133 195 233 271 354 426
#     4  11  24  46  69 101 139 186 238 287 344 424
#     4  11  24  43  70 103 140 183 234 297 344 419
#
# _framework density 23.058948000000001
#
# number of rings (size 3 to 8) (size 9 to 14) (size 15 to 20)
#    0.000    0.727    3.636    4.909    0.000    2.909 
#    3.273    0.000    0.000    0.000    0.000    0.000 
#    0.000    0.000    0.000    0.000    0.000    0.000 
#
# Total GULP energy -272557.684580 kJ/mol
# GULP energy per Si atom -12388.985663 kJ/mol
# Density = 2.300647 g / cm^3
# Si number density = 23.058948 Si / 1000 Ang^3
#
#
#
# Elastic Constant Matrix: (Units=GPa)
#
#
# Indices 1 2 3 4 5 6 
#
# 1 81.2348 40.5927 52.9930 0.0000 -8.6754 0.0000
# 2 40.5927 164.0251 61.7008 0.0000 -19.7147 0.0000
# 3 52.9930 61.7008 118.1863 0.0000 -8.5556 0.0000
# 4 0.0000 0.0000 0.0000 20.8061 0.0000 -3.0284
# 5 -8.6754 -19.7147 -8.5556 0.0000 34.1761 0.0000
# 6 0.0000 0.0000 0.0000 -3.0284 0.0000 43.1826
#
#
#
# Elastic Compliance Matrix: (Units=1/GPa)
#
#
# Indices 1 2 3 4 5 6 
#
# 1 0.017904 -0.001538 -0.007089 0.000000 0.001883 0.000000
# 2 -0.001538 0.008140 -0.003308 0.000000 0.003477 0.000000
# 3 -0.007089 -0.003308 0.013340 0.000000 -0.000368 0.000000
# 4 0.000000 0.000000 0.000000 0.048559 0.000000 0.003405
# 5 0.001883 0.003477 -0.000368 0.000000 0.031652 0.000000
# 6 0.000000 0.000000 0.000000 0.003405 0.000000 0.023396
#
#
# Mechanical properties :
#
#
# Convention : Reuss Voigt Hill
#
# Bulk Modulus (GPa) = 64.45752 74.89103 69.67427
# Shear Modulus (GPa) = 29.06465 33.51028 31.28747
#
# Velocity S-wave (km/s) = 3.55413 3.81628 3.68754
# Velocity P-wave (km/s) = 6.69750 7.20883 6.95787
#
# Compressibility (1/GPa) = 0.01551409
#
# Stress axis : x y z
#
# Youngs Moduli (GPa) = 55.85408 122.85752 74.96265
#
# Poissons Ratio (x) = 0.18896 0.53138
# Poissons Ratio (y) = 0.08590 0.24798
# Poissons Ratio (z) = 0.39592 0.40642
#
# Static dielectric constant tensor:
#      x y z
#    x 4.347600 0.000000 -0.244460 
#    y 0.000000 4.520310 0.000000 
#    z -0.244460 0.000000 4.150070 
# 
# 
# High freq. dielectric constant tensor:
#      x y z
#    x 1.915470 0.000000 0.003860 
#    y 0.000000 1.929330 0.000000 
#    z 0.003860 0.000000 1.888010 
# 
# From -- ./inp_files/176734.got.cif
#   From: 2010.06.25/outbox.cif.g09.slc.cpg/sg15_89_cif.got.tgz:176734.got - 2010.06.28 07:06:18.
