data_PCOD8152764
_publ_section_title
;
Structure prediction by ZEFSAII (Michael W. Deem and Ramdas Pophale) SiO2 
 PCOD8152764
Probable space group: C 2/C
;
_chemical_formula_sum "Si O2"
_cell_formula_units_Z 56
_cell_length_a 10.691963
_cell_length_b 9.426342
_cell_length_c 25.244767
_cell_angle_alpha 90.000000
_cell_angle_beta 119.906778
_cell_angle_gamma 90.000000
_cell_volume 2205.514076
_symmetry_space_group_name_H-M "C 2/C"
_symmetry_group_IT_number 15
_symmetry_cell_setting 'monoclinic'
loop_
_space_group_symop_operation_xyz
x,y,z
-x,y,1/2-z
-x,-y,-z
x,-y,1/2+z
1/2+x,1/2+y,z
1/2-x,1/2+y,1/2-z
1/2-x,1/2-y,-z
1/2+x,1/2-y,1/2+z
loop_
_atom_site_type_symbol
_atom_site_label
_atom_site_fract_x
_atom_site_fract_y
_atom_site_fract_z
Si Si1 0.218228 0.641729 0.680795
Si Si2 0.228327 0.757791 0.113550
Si Si3 0.311363 0.443331 0.548018
Si Si4 0.661553 0.350822 0.761761
Si Si5 0.671321 0.733079 0.902665
Si Si6 0.085717 0.531150 0.911250
Si Si7 0.508504 0.666715 0.008700
O O1 0.285791 0.514259 0.730164
O O2 0.176564 0.777512 0.707845
O O3 0.332686 0.689937 0.660175
O O4 0.075030 0.591525 0.619625
O O5 0.292808 0.611438 0.103717
O O6 0.234821 0.742055 0.177905
O O7 0.316420 0.895697 0.113233
O O8 0.065295 0.760095 0.057424
O O9 0.377724 0.602025 0.569246
O O10 0.159978 0.453393 0.484471
O O11 0.412918 0.321404 0.542542
O O12 0.500000 0.340330 0.750000
O O13 0.568545 0.866504 0.890540
O O14 0.833014 0.775415 0.952833
O O15 0.500000 0.500000 0.000000
#
# Coordination Sequence:
#
# PCOD8152764 Si02
#       7
#     8   8   8   8   8   8   8
#     4  12  29  48  74 102 135 192 243 293 356 411
#     4  11  22  46  68  99 146 183 227 294 344 412
#     4  11  23  43  69 108 148 177 228 284 353 435
#     4  12  29  51  72  98 137 187 247 299 343 408
#     4  12  25  45  73 111 146 180 232 288 354 437
#     4  11  24  45  73 107 147 183 225 291 356 427
#     4  11  23  38  70 108 144 186 220 275 363 424
#
# _framework density 25.390905
#
# number of rings (size 3 to 8) (size 9 to 14) (size 15 to 20)
#    0.000    0.571    5.714    3.857    4.000    2.286 
#    0.000    0.000    0.000    0.000    0.000    0.000 
#    0.000    0.000    0.000    0.000    0.000    0.000 
#
# Total GULP energy -347206.170534 kJ/mol
# GULP energy per Si atom -12400.220376 kJ/mol
# Density = 2.533311 g / cm^3
# Si number density = 25.390905 Si / 1000 Ang^3
#
#
#
# Elastic Constant Matrix: (Units=GPa)
#
#
# Indices 1 2 3 4 5 6 
#
# 1 45.3498 1.7900 11.4610 0.0000 -4.0616 0.0000
# 2 1.7900 124.7166 19.0686 0.0000 -6.3521 0.0000
# 3 11.4610 19.0686 76.3509 0.0000 -13.9548 0.0000
# 4 0.0000 0.0000 0.0000 42.6017 0.0000 -1.9899
# 5 -4.0616 -6.3521 -13.9548 0.0000 17.3689 0.0000
# 6 0.0000 0.0000 0.0000 -1.9899 0.0000 38.4818
#
#
#
# Elastic Compliance Matrix: (Units=1/GPa)
#
#
# Indices 1 2 3 4 5 6 
#
# 1 0.023068 0.000281 -0.002963 0.000000 0.003116 0.000000
# 2 0.000281 0.008379 -0.001832 0.000000 0.001658 0.000000
# 3 -0.002963 -0.001832 0.016117 0.000000 0.011586 0.000000
# 4 0.000000 0.000000 0.000000 0.023530 0.000000 0.001217
# 5 0.003116 0.001658 0.011586 0.000000 0.068218 0.000000
# 6 0.000000 0.000000 0.000000 0.001217 0.000000 0.026049
#
#
# Mechanical properties :
#
#
# Convention : Reuss Voigt Hill
#
# Bulk Modulus (GPa) = 25.95017 34.56183 30.25600
# Shear Modulus (GPa) = 26.70442 33.96365 30.33404
#
# Velocity S-wave (km/s) = 3.24656 3.66133 3.46017
# Velocity P-wave (km/s) = 4.92910 5.61384 5.28258
#
# Compressibility (1/GPa) = 0.03853540
#
# Stress axis : x y z
#
# Youngs Moduli (GPa) = 43.35066 119.35093 62.04492
#
# Poissons Ratio (x) = -0.03350 0.18385
# Poissons Ratio (y) = -0.01217 0.11364
# Poissons Ratio (z) = 0.12846 0.21860
#
# Static dielectric constant tensor:
#      x y z
#    x 4.852720 0.000000 -0.252820 
#    y 0.000000 4.892320 0.000000 
#    z -0.252820 0.000000 4.510670 
# 
# 
# High freq. dielectric constant tensor:
#      x y z
#    x 2.012290 0.000000 -0.007710 
#    y 0.000000 2.037520 0.000000 
#    z -0.007710 0.000000 1.997660 
# 
# From -- ./inp_files/310366.got.cif
#   From: 2010.06.25/outbox.cif.g09.slc.cpg/sg15_156_cif.got.tgz:310366.got - 2010.06.28 07:06:18.
