data_PCOD8152168
_publ_section_title
;
Structure prediction by ZEFSAII (Michael W. Deem and Ramdas Pophale) SiO2 
 PCOD8152168
Probable space group: C 2/C
;
_chemical_formula_sum "Si O2"
_cell_formula_units_Z 48
_cell_length_a 17.003804
_cell_length_b 6.483204
_cell_length_c 26.265405
_cell_angle_alpha 90.000000
_cell_angle_beta 53.184550
_cell_angle_gamma 90.000000
_cell_volume 2318.030199
_symmetry_space_group_name_H-M "C 2/C"
_symmetry_group_IT_number 15
_symmetry_cell_setting 'monoclinic'
loop_
_space_group_symop_operation_xyz
x,y,z
-x,y,1/2-z
-x,-y,-z
x,-y,1/2+z
1/2+x,1/2+y,z
1/2-x,1/2+y,1/2-z
1/2-x,1/2-y,-z
1/2+x,1/2-y,1/2+z
loop_
_atom_site_type_symbol
_atom_site_label
_atom_site_fract_x
_atom_site_fract_y
_atom_site_fract_z
Si Si1 0.296872 0.595783 0.660992
Si Si2 0.507898 0.523513 0.689640
Si Si3 0.815619 0.553062 0.487120
Si Si4 0.300038 0.739450 0.401166
Si Si5 0.522771 0.848821 0.881375
Si Si6 0.354881 0.760291 0.199004
O O1 0.234913 0.634877 0.634629
O O2 0.399099 0.718457 0.616708
O O3 0.319502 0.351956 0.660242
O O4 0.239989 0.663482 0.733987
O O5 0.500000 0.604981 0.750000
O O6 0.596971 0.365982 0.649833
O O7 0.520394 0.724781 0.650136
O O8 0.408279 0.407431 0.713452
O O9 0.750000 0.750000 0.500000
O O10 0.777167 0.437075 0.552452
O O11 0.813001 0.403221 0.440232
O O12 0.929025 0.611478 0.454057
O O13 0.571181 0.058606 0.843445
#
# Coordination Sequence:
#
# PCOD8152168 Si02
#       6
#     8   8   8   8   8   8
#     4  11  24  40  66  98 134 170 212 269 339 400
#     4  11  22  38  68 100 130 167 225 273 338 397
#     4  11  24  45  67  92 130 175 229 271 322 390
#     4  11  24  42  68  98 127 172 227 279 319 392
#     4  11  24  42  64  94 134 176 211 271 332 393
#     4  11  22  41  62  99 139 167 208 274 338 405
#
# _framework density 20.707238
#
# number of rings (size 3 to 8) (size 9 to 14) (size 15 to 20)
#    0.000    1.000    6.667    0.000    0.000    4.000 
#    0.000    1.667    0.000    0.000    0.000    0.000 
#    0.000    0.000    0.000    0.000    0.000    0.000 
#
# Total GULP energy -297664.466065 kJ/mol
# GULP energy per Si atom -12402.686086 kJ/mol
# Density = 2.066011 g / cm^3
# Si number density = 20.707238 Si / 1000 Ang^3
#
#
#
# Elastic Constant Matrix: (Units=GPa)
#
#
# Indices 1 2 3 4 5 6 
#
# 1 93.2193 25.6614 27.5471 -0.0059 -10.4813 0.0013
# 2 25.6614 67.8276 16.9546 -0.0833 1.8810 -0.0007
# 3 27.5471 16.9546 65.5532 -0.0137 -15.1531 -0.0055
# 4 -0.0059 -0.0833 -0.0137 26.6979 0.0015 -6.5163
# 5 -10.4813 1.8810 -15.1531 0.0015 45.1326 -0.0074
# 6 0.0013 -0.0007 -0.0055 -6.5163 -0.0074 36.2632
#
#
#
# Elastic Compliance Matrix: (Units=1/GPa)
#
#
# Indices 1 2 3 4 5 6 
#
# 1 0.013261 -0.004046 -0.004093 -0.000013 0.001874 -0.000003
# 2 -0.004046 0.017200 -0.003395 0.000053 -0.002796 0.000009
# 3 -0.004093 -0.003395 0.019152 -0.000001 0.005621 0.000004
# 4 -0.000013 0.000053 -0.000001 0.039174 -0.000006 0.007039
# 5 0.001874 -0.002796 0.005621 -0.000006 0.024596 0.000005
# 6 -0.000003 0.000009 0.000004 0.007039 0.000005 0.028841
#
#
# Mechanical properties :
#
#
# Convention : Reuss Voigt Hill
#
# Bulk Modulus (GPa) = 37.67043 40.76956 39.21999
# Shear Modulus (GPa) = 28.71220 32.04787 30.38004
#
# Velocity S-wave (km/s) = 3.72772 3.93831 3.83446
# Velocity P-wave (km/s) = 6.06294 6.35701 6.21172
#
# Compressibility (1/GPa) = 0.02654602
#
# Stress axis : x y z
#
# Youngs Moduli (GPa) = 75.40641 58.13881 52.21340
#
# Poissons Ratio (x) = 0.23524 0.21371
# Poissons Ratio (y) = 0.30510 0.17725
# Poissons Ratio (z) = 0.30865 0.19737
#
# Static dielectric constant tensor:
#      x y z
#    x 3.754990 -0.000020 -0.231010 
#    y -0.000020 4.034980 -0.000040 
#    z -0.231010 -0.000040 3.677470 
# 
# 
# High freq. dielectric constant tensor:
#      x y z
#    x 1.814560 0.000000 -0.021400 
#    y 0.000000 1.825250 0.000000 
#    z -0.021400 0.000000 1.803020 
# 
# From -- ./inp_files/275629.got.cif
#   From: 2010.06.25/outbox.cif.g09.slc.cpg/sg15_138_cif.got.tgz:275629.got - 2010.06.28 07:06:18.
