data_PCOD8152778
_publ_section_title
;
Structure prediction by ZEFSAII (Michael W. Deem and Ramdas Pophale) SiO2 
 PCOD8152778
Probable space group: C 2/C
;
_chemical_formula_sum "Si O2"
_cell_formula_units_Z 40
_cell_length_a 14.579927
_cell_length_b 13.878463
_cell_length_c 13.451385
_cell_angle_alpha 90.000000
_cell_angle_beta 39.270956
_cell_angle_gamma 90.000000
_cell_volume 1722.897969
_symmetry_space_group_name_H-M "C 2/C"
_symmetry_group_IT_number 15
_symmetry_cell_setting 'monoclinic'
loop_
_space_group_symop_operation_xyz
x,y,z
-x,y,1/2-z
-x,-y,-z
x,-y,1/2+z
1/2+x,1/2+y,z
1/2-x,1/2+y,1/2-z
1/2-x,1/2-y,-z
1/2+x,1/2-y,1/2+z
loop_
_atom_site_type_symbol
_atom_site_label
_atom_site_fract_x
_atom_site_fract_y
_atom_site_fract_z
Si Si1 0.849088 0.045628 0.430865
Si Si2 0.303506 0.557889 0.692447
Si Si3 0.741138 0.860096 0.838272
Si Si4 0.921400 0.712419 0.585535
Si Si5 0.561391 0.650635 0.599385
O O1 0.839883 0.089097 0.548960
O O2 0.730263 0.095320 0.458588
O O3 0.000000 0.068737 0.250000
O O4 0.822197 0.930049 0.462127
O O5 0.274182 0.443869 0.729660
O O6 0.157152 0.610173 0.848936
O O7 0.439234 0.587732 0.645023
O O8 0.867732 0.779700 0.721818
O O9 0.592485 0.804139 0.941125
O O10 0.872502 0.767084 0.525294
O O11 0.500000 0.701970 0.750000
#
# Coordination Sequence:
#
# PCOD8152778 Si02
#       5
#     8   8   8   8   8
#     4  11  23  43  79 103 146 201 242 294 382 448
#     4  12  24  48  74 105 153 197 251 311 366 444
#     4  12  26  49  74 114 150 194 250 314 374 438
#     4  12  27  47  77 111 151 192 257 311 367 448
#     4  11  22  46  76 103 143 204 250 291 375 453
#
# _framework density 23.216697
#
# number of rings (size 3 to 8) (size 9 to 14) (size 15 to 20)
#    0.000    0.400    8.000    2.400    0.000    2.400 
#    7.200    0.000    0.000    0.000    0.000    0.000 
#    0.000    0.000    0.000    0.000    0.000    0.000 
#
# Total GULP energy -247975.788624 kJ/mol
# GULP energy per Si atom -12398.789431 kJ/mol
# Density = 2.316385 g / cm^3
# Si number density = 23.216697 Si / 1000 Ang^3
#
#
#
# Elastic Constant Matrix: (Units=GPa)
#
#
# Indices 1 2 3 4 5 6 
#
# 1 55.2663 30.8532 20.1110 0.0000 30.3528 0.0000
# 2 30.8532 105.3919 43.3618 0.0000 -3.9616 0.0000
# 3 20.1110 43.3618 96.4278 -0.0001 7.8053 0.0000
# 4 0.0000 0.0000 -0.0001 48.6601 0.0000 0.1089
# 5 30.3528 -3.9616 7.8053 0.0000 39.5494 0.0000
# 6 0.0000 0.0000 0.0000 0.1089 0.0000 27.8255
#
#
#
# Elastic Compliance Matrix: (Units=1/GPa)
#
#
# Indices 1 2 3 4 5 6 
#
# 1 0.047551 -0.015384 0.000081 0.000000 -0.038050 0.000000
# 2 -0.015384 0.016817 -0.005534 0.000000 0.014583 0.000000
# 3 0.000081 -0.005534 0.013102 0.000000 -0.003202 0.000000
# 4 0.000000 0.000000 0.000000 0.020551 0.000000 -0.000080
# 5 -0.038050 0.014583 -0.003202 0.000000 0.056580 0.000000
# 6 0.000000 0.000000 0.000000 -0.000080 0.000000 0.035939
#
#
# Mechanical properties :
#
#
# Convention : Reuss Voigt Hill
#
# Bulk Modulus (GPa) = 27.93745 49.52647 38.73196
# Shear Modulus (GPa) = 20.47962 34.05767 27.26864
#
# Velocity S-wave (km/s) = 2.97325 3.83423 3.43086
# Velocity P-wave (km/s) = 4.88328 6.40159 5.69328
#
# Compressibility (1/GPa) = 0.03579424
#
# Stress axis : x y z
#
# Youngs Moduli (GPa) = 21.03018 59.46309 76.32705
#
# Poissons Ratio (x) = 0.91477 -0.00615
# Poissons Ratio (y) = 0.32352 0.42242
# Poissons Ratio (z) = -0.00169 0.32909
#
# Static dielectric constant tensor:
#      x y z
#    x 4.294920 0.000000 0.384170 
#    y 0.000000 4.291320 0.000000 
#    z 0.384170 0.000000 4.173240 
# 
# 
# High freq. dielectric constant tensor:
#      x y z
#    x 1.901660 0.000000 0.026470 
#    y 0.000000 1.926500 0.000000 
#    z 0.026470 0.000000 1.913860 
# 
# From -- ./inp_files/38076.got.cif
#   From: 2010.06.25/outbox.cif.g09.slc.cpg/sg15_20_cif.got.tgz:38076.got - 2010.06.28 07:06:18.
