data_PCOD8152216
_publ_section_title
;
Structure prediction by ZEFSAII (Michael W. Deem and Ramdas Pophale) SiO2 
 PCOD8152216
Probable space group: C 2/C
;
_chemical_formula_sum "Si O2"
_cell_formula_units_Z 56
_cell_length_a 24.460130
_cell_length_b 13.476948
_cell_length_c 8.849243
_cell_angle_alpha 90.000000
_cell_angle_beta 63.874054
_cell_angle_gamma 90.000000
_cell_volume 2619.085678
_symmetry_space_group_name_H-M "C 2/C"
_symmetry_group_IT_number 15
_symmetry_cell_setting 'monoclinic'
loop_
_space_group_symop_operation_xyz
x,y,z
-x,y,1/2-z
-x,-y,-z
x,-y,1/2+z
1/2+x,1/2+y,z
1/2-x,1/2+y,1/2-z
1/2-x,1/2-y,-z
1/2+x,1/2-y,1/2+z
loop_
_atom_site_type_symbol
_atom_site_label
_atom_site_fract_x
_atom_site_fract_y
_atom_site_fract_z
Si Si1 0.841989 0.894607 0.198523
Si Si2 0.543108 0.288102 0.571326
Si Si3 0.765733 0.278650 0.652219
Si Si4 0.383653 0.896834 0.526485
Si Si5 0.161799 0.104927 0.436284
Si Si6 0.953678 0.783177 0.425739
Si Si7 0.570140 0.916784 0.691277
O O1 0.792664 0.816855 0.201792
O O2 0.838179 0.899015 0.383122
O O3 0.822363 0.999221 0.153235
O O4 0.909954 0.866479 0.058803
O O5 0.500000 0.339913 0.750000
O O6 0.579367 0.193973 0.597021
O O7 0.496061 0.243666 0.507651
O O8 0.750000 0.250000 0.500000
O O9 0.812679 0.369859 0.606787
O O10 0.706633 0.311923 0.816567
O O11 0.409915 0.909850 0.661069
O O12 0.388469 0.999033 0.432120
O O13 0.094378 0.135071 0.461707
O O14 0.917061 0.689743 0.400125
O O15 0.000000 0.832511 0.250000
O O16 0.500000 0.946728 0.750000
#
# Coordination Sequence:
#
# PCOD8152216 Si02
#       7
#     8   8   8   8   8   8   8
#     4  11  26  47  69 101 132 176 229 280 344 411
#     4  11  24  41  66  96 139 178 226 283 349 407
#     4  11  27  49  70  99 137 180 236 285 343 409
#     4  11  24  41  65  99 139 182 228 281 343 410
#     4  12  26  45  73  98 137 178 226 285 335 410
#     4  11  22  43  65  98 139 180 223 280 347 407
#     4  11  22  39  65 103 141 178 229 280 345 418
#
# _framework density 21.381506999999999
#
# number of rings (size 3 to 8) (size 9 to 14) (size 15 to 20)
#    0.000    0.857    4.286    3.000    8.000    4.571 
#    0.000    0.000    0.000    0.000    0.000    0.000 
#    0.000    0.000    0.000    0.000    0.000    0.000 
#
# Total GULP energy -347195.162006 kJ/mol
# GULP energy per Si atom -12399.827214 kJ/mol
# Density = 2.133284 g / cm^3
# Si number density = 21.381507 Si / 1000 Ang^3
#
#
#
# Elastic Constant Matrix: (Units=GPa)
#
#
# Indices 1 2 3 4 5 6 
#
# 1 108.5579 33.0106 52.1565 0.0000 -7.9737 0.0000
# 2 33.0106 108.6496 43.8143 0.0000 -14.7119 0.0000
# 3 52.1565 43.8143 145.5269 0.0000 -8.4176 0.0000
# 4 0.0000 0.0000 0.0000 32.1565 0.0000 8.3155
# 5 -7.9737 -14.7119 -8.4176 0.0000 35.7553 0.0000
# 6 0.0000 0.0000 0.0000 8.3155 0.0000 3.8157
#
#
#
# Elastic Compliance Matrix: (Units=1/GPa)
#
#
# Indices 1 2 3 4 5 6 
#
# 1 0.011560 -0.001976 -0.003494 0.000000 0.000943 0.000000
# 2 -0.001976 0.011296 -0.002483 0.000000 0.003623 0.000000
# 3 -0.003494 -0.002483 0.008888 0.000000 0.000292 0.000000
# 4 0.000000 0.000000 0.000000 0.071252 0.000000 -0.155279
# 5 0.000943 0.003623 0.000292 0.000000 0.029737 0.000000
# 6 0.000000 0.000000 0.000000 -0.155279 0.000000 0.600476
#
#
# Mechanical properties :
#
#
# Convention : Reuss Voigt Hill
#
# Bulk Modulus (GPa) = 63.13556 68.96636 66.05096
# Shear Modulus (GPa) = 6.62782 29.92903 18.27842
#
# Velocity S-wave (km/s) = 1.76253 3.74540 2.92699
# Velocity P-wave (km/s) = 5.80812 7.14347 6.51012
#
# Compressibility (1/GPa) = 0.01583893
#
# Stress axis : x y z
#
# Youngs Moduli (GPa) = 86.50286 88.52566 112.50764
#
# Poissons Ratio (x) = 0.17491 0.39308
# Poissons Ratio (y) = 0.17091 0.27939
# Poissons Ratio (z) = 0.30223 0.21984
#
# Static dielectric constant tensor:
#      x y z
#    x 4.003360 0.000000 0.091640 
#    y 0.000000 4.003850 0.000000 
#    z 0.091640 0.000000 4.720020 
# 
# 
# High freq. dielectric constant tensor:
#      x y z
#    x 1.849020 0.000000 0.002320 
#    y 0.000000 1.836120 0.000000 
#    z 0.002320 0.000000 1.844500 
# 
# From -- ./inp_files/61839.got.cif
#   From: 2010.06.25/outbox.cif.g09.slc.cpg/sg15_31_cif.got.tgz:61839.got - 2010.06.28 07:06:18.
