data_PCOD8152742
_publ_section_title
;
Structure prediction by ZEFSAII (Michael W. Deem and Ramdas Pophale) SiO2 
 PCOD8152742
Probable space group: C 2/C
;
_chemical_formula_sum "Si O2"
_cell_formula_units_Z 56
_cell_length_a 9.392209
_cell_length_b 16.297907
_cell_length_c 18.798752
_cell_angle_alpha 90.000000
_cell_angle_beta 72.915490
_cell_angle_gamma 90.000000
_cell_volume 2750.607086
_symmetry_space_group_name_H-M "C 2/C"
_symmetry_group_IT_number 15
_symmetry_cell_setting 'monoclinic'
loop_
_space_group_symop_operation_xyz
x,y,z
-x,y,1/2-z
-x,-y,-z
x,-y,1/2+z
1/2+x,1/2+y,z
1/2-x,1/2+y,1/2-z
1/2-x,1/2-y,-z
1/2+x,1/2-y,1/2+z
loop_
_atom_site_type_symbol
_atom_site_label
_atom_site_fract_x
_atom_site_fract_y
_atom_site_fract_z
Si Si1 0.652437 0.238105 0.691851
Si Si2 0.328984 0.527477 0.027031
Si Si3 0.201626 0.302759 0.574926
Si Si4 0.368478 0.138926 0.096724
Si Si5 0.126945 0.619904 0.564097
Si Si6 0.830506 0.179984 0.793185
Si Si7 0.309218 0.043590 0.605669
O O1 0.500000 0.267096 0.750000
O O2 0.748556 0.318091 0.663912
O O3 0.631335 0.191003 0.621050
O O4 0.735978 0.180638 0.735314
O O5 0.303537 0.615164 0.069993
O O6 0.229752 0.455317 0.076966
O O7 0.500000 0.500000 0.000000
O O8 0.272868 0.539728 0.956334
O O9 0.250000 0.250000 0.500000
O O10 0.224030 0.248206 0.642135
O O11 0.030285 0.325996 0.589554
O O12 0.360213 0.045344 0.124041
O O13 0.319546 0.150908 0.021425
O O14 0.957080 0.596425 0.576079
O O15 0.806477 0.087643 0.824900
O O16 0.000000 0.196068 0.750000
#
# Coordination Sequence:
#
# PCOD8152742 Si02
#       7
#     8   8   8   8   8   8   8
#     4  12  27  44  66 104 137 184 232 281 347 416
#     4  11  24  40  70 109 133 166 236 285 341 404
#     4  12  23  43  74  98 137 182 231 283 343 412
#     4  11  23  45  73  98 137 182 231 283 347 404
#     4  11  22  45  72  97 137 182 227 286 338 413
#     4  12  26  44  68  98 144 182 229 282 349 413
#     4  11  22  47  68  96 138 182 220 288 345 407
#
# _framework density 20.359143
#
# number of rings (size 3 to 8) (size 9 to 14) (size 15 to 20)
#    0.000    0.571    7.143    1.286    4.000    2.857 
#    2.571    2.143    0.000    0.000    0.000    0.000 
#    0.000    0.000    0.000    0.000    0.000    0.000 
#
# Total GULP energy -347218.037841 kJ/mol
# GULP energy per Si atom -12400.644209 kJ/mol
# Density = 2.031280 g / cm^3
# Si number density = 20.359143 Si / 1000 Ang^3
#
#
#
# Elastic Constant Matrix: (Units=GPa)
#
#
# Indices 1 2 3 4 5 6 
#
# 1 115.3550 32.6045 22.7249 0.0000 -15.0231 0.0000
# 2 32.6045 95.3060 44.0565 0.0000 -10.6050 0.0000
# 3 22.7249 44.0565 82.0935 0.0000 -12.7879 0.0000
# 4 0.0000 0.0000 0.0000 89.5379 0.0000 -27.8325
# 5 -15.0231 -10.6050 -12.7879 0.0000 37.2099 0.0000
# 6 0.0000 0.0000 0.0000 -27.8325 0.0000 40.5799
#
#
#
# Elastic Compliance Matrix: (Units=1/GPa)
#
#
# Indices 1 2 3 4 5 6 
#
# 1 0.009985 -0.002688 -0.000858 0.000000 0.002970 0.000000
# 2 -0.002688 0.014756 -0.007067 0.000000 0.000691 0.000000
# 3 -0.000858 -0.007067 0.016740 0.000000 0.003392 0.000000
# 4 0.000000 0.000000 0.000000 0.014195 0.000000 0.009736
# 5 0.002970 0.000691 0.003392 0.000000 0.029437 0.000000
# 6 0.000000 0.000000 0.000000 0.009736 0.000000 0.031320
#
#
# Mechanical properties :
#
#
# Convention : Reuss Voigt Hill
#
# Bulk Modulus (GPa) = 49.37654 54.61403 51.99529
# Shear Modulus (GPa) = 34.62335 46.35677 40.49006
#
# Velocity S-wave (km/s) = 4.12834 4.77692 4.46442
# Velocity P-wave (km/s) = 6.85782 7.57026 7.22283
#
# Compressibility (1/GPa) = 0.02025253
#
# Stress axis : x y z
#
# Youngs Moduli (GPa) = 100.15338 67.76883 59.73733
#
# Poissons Ratio (x) = 0.18219 0.05128
# Poissons Ratio (y) = 0.26926 0.42217
# Poissons Ratio (z) = 0.08598 0.47893
#
# Static dielectric constant tensor:
#      x y z
#    x 3.919820 0.000000 -0.011470 
#    y 0.000000 3.903720 0.000000 
#    z -0.011470 0.000000 3.812170 
# 
# 
# High freq. dielectric constant tensor:
#      x y z
#    x 1.805680 0.000000 -0.007070 
#    y 0.000000 1.803540 0.000000 
#    z -0.007070 0.000000 1.792330 
# 
# From -- ./inp_files/190929.got.cif
#   From: 2010.06.25/outbox.cif.g09.slc.cpg/sg15_96_cif.got.tgz:190929.got - 2010.06.28 07:06:18.
