data_PCOD8152671
_publ_section_title
;
Structure prediction by ZEFSAII (Michael W. Deem and Ramdas Pophale) SiO2 
 PCOD8152671
Probable space group: C 2/C
;
_chemical_formula_sum "Si O2"
_cell_formula_units_Z 52
_cell_length_a 10.469527
_cell_length_b 22.805329
_cell_length_c 12.310208
_cell_angle_alpha 90.000000
_cell_angle_beta 117.291732
_cell_angle_gamma 90.000000
_cell_volume 2612.016201
_symmetry_space_group_name_H-M "C 2/C"
_symmetry_group_IT_number 15
_symmetry_cell_setting 'monoclinic'
loop_
_space_group_symop_operation_xyz
x,y,z
-x,y,1/2-z
-x,-y,-z
x,-y,1/2+z
1/2+x,1/2+y,z
1/2-x,1/2+y,1/2-z
1/2-x,1/2-y,-z
1/2+x,1/2-y,1/2+z
loop_
_atom_site_type_symbol
_atom_site_label
_atom_site_fract_x
_atom_site_fract_y
_atom_site_fract_z
Si Si1 0.534000 0.232383 0.875427
Si Si2 0.583139 0.450900 0.895162
Si Si3 0.500000 0.353345 0.250000
Si Si4 0.757646 0.159081 0.091109
Si Si5 0.155908 0.636059 0.288547
Si Si6 0.115152 0.927707 0.483645
Si Si7 0.268991 0.258108 0.133098
O O1 0.500000 0.198135 0.750000
O O2 0.619215 0.291188 0.870598
O O3 0.387114 0.249466 0.875613
O O4 0.615347 0.188182 0.986690
O O5 0.500000 0.444496 0.750000
O O6 0.693133 0.397389 0.958200
O O7 0.464642 0.448238 0.940916
O O8 0.665604 0.513550 0.938092
O O9 0.510302 0.391522 0.363093
O O10 0.352412 0.316472 0.202433
O O11 0.725076 0.129401 0.195850
O O12 0.252043 0.611406 0.424695
O O13 0.133240 0.705417 0.287988
O O14 0.000000 0.606529 0.250000
O O15 0.250000 0.250000 0.000000
#
# Coordination Sequence:
#
# PCOD8152671 Si02
#       7
#     8   8   4   8   8   8   8
#     4  11  24  40  63 100 130 168 213 273 323 397
#     4  11  22  44  70  93 122 172 222 273 321 385
#     4  12  26  38  64  98 134 172 216 276 320 390
#     4  11  24  41  68  92 131 171 219 268 329 388
#     4  12  23  42  65  96 130 175 212 269 329 399
#     4  11  25  42  67  96 127 168 229 270 320 385
#     4  12  24  38  61  94 134 172 210 258 333 392
#
# _framework density 19.907993999999999
#
# number of rings (size 3 to 8) (size 9 to 14) (size 15 to 20)
#    0.000    0.615    6.154    2.308    2.154    0.000 
#    0.000    1.538    0.000    0.000    0.000    0.000 
#    0.000    0.000    0.000    0.000    0.000    0.000 
#
# Total GULP energy -322186.207843 kJ/mol
# GULP energy per Si atom -12391.777225 kJ/mol
# Density = 1.986268 g / cm^3
# Si number density = 19.907994 Si / 1000 Ang^3
#
#
#
# Elastic Constant Matrix: (Units=GPa)
#
#
# Indices 1 2 3 4 5 6 
#
# 1 105.3214 24.3527 41.5830 0.0000 3.9749 0.0000
# 2 24.3527 113.4425 40.9723 0.0000 9.6996 0.0000
# 3 41.5830 40.9723 125.6787 0.0000 3.0248 0.0000
# 4 0.0000 0.0000 0.0000 27.3419 0.0000 -5.4152
# 5 3.9749 9.6996 3.0248 0.0000 29.7588 0.0000
# 6 0.0000 0.0000 0.0000 -5.4152 0.0000 19.3456
#
#
#
# Elastic Compliance Matrix: (Units=1/GPa)
#
#
# Indices 1 2 3 4 5 6 
#
# 1 0.011080 -0.001127 -0.003280 0.000000 -0.000779 0.000000
# 2 -0.001127 0.010368 -0.002937 0.000000 -0.002930 0.000000
# 3 -0.003280 -0.002937 0.009990 0.000000 0.000380 0.000000
# 4 0.000000 0.000000 0.000000 0.038721 0.000000 0.010839
# 5 -0.000779 -0.002930 0.000380 0.000000 0.034624 0.000000
# 6 0.000000 0.000000 0.000000 0.010839 0.000000 0.054725
#
#
# Mechanical properties :
#
#
# Convention : Reuss Voigt Hill
#
# Bulk Modulus (GPa) = 59.69832 62.02873 60.86353
# Shear Modulus (GPa) = 27.81197 31.12490 29.46844
#
# Velocity S-wave (km/s) = 3.74174 3.95832 3.85155
# Velocity P-wave (km/s) = 6.97995 7.21917 7.10057
#
# Compressibility (1/GPa) = 0.01675089
#
# Stress axis : x y z
#
# Youngs Moduli (GPa) = 90.25532 96.44862 100.09877
#
# Poissons Ratio (x) = 0.10873 0.32829
# Poissons Ratio (y) = 0.10175 0.29395
# Poissons Ratio (z) = 0.29600 0.28323
#
# Static dielectric constant tensor:
#      x y z
#    x 2.808780 0.000000 -0.061530 
#    y 0.000000 3.806850 0.000000 
#    z -0.061530 0.000000 3.881220 
# 
# 
# High freq. dielectric constant tensor:
#      x y z
#    x 1.771950 0.000000 -0.008000 
#    y 0.000000 1.771460 0.000000 
#    z -0.008000 0.000000 1.792390 
# 
# From -- ./inp_files/89719.got.cif
#   From: 2010.06.25/outbox.cif.g09.slc.cpg/sg15_45_cif.got.tgz:89719.got - 2010.06.28 07:06:18.
