data_PCOD8152646
_publ_section_title
;
Structure prediction by ZEFSAII (Michael W. Deem and Ramdas Pophale) SiO2 
 PCOD8152646
Probable space group: C 2/C
;
_chemical_formula_sum "Si O2"
_cell_formula_units_Z 64
_cell_length_a 12.239980
_cell_length_b 24.590133
_cell_length_c 14.235392
_cell_angle_alpha 90.000000
_cell_angle_beta 45.300303
_cell_angle_gamma 90.000000
_cell_volume 3045.512505
_symmetry_space_group_name_H-M "C 2/C"
_symmetry_group_IT_number 15
_symmetry_cell_setting 'monoclinic'
loop_
_space_group_symop_operation_xyz
x,y,z
-x,y,1/2-z
-x,-y,-z
x,-y,1/2+z
1/2+x,1/2+y,z
1/2-x,1/2+y,1/2-z
1/2-x,1/2-y,-z
1/2+x,1/2-y,1/2+z
loop_
_atom_site_type_symbol
_atom_site_label
_atom_site_fract_x
_atom_site_fract_y
_atom_site_fract_z
Si Si1 0.639588 0.120874 0.429466
Si Si2 0.434696 0.897376 0.884731
Si Si3 0.651809 0.218135 0.131887
Si Si4 0.089299 0.872608 0.448424
Si Si5 0.589276 0.822467 0.291404
Si Si6 0.906126 0.069192 0.895073
Si Si7 0.373078 0.556957 0.397786
Si Si8 0.646509 0.699902 0.309979
O O1 0.559957 0.091807 0.389344
O O2 0.511149 0.155023 0.562332
O O3 0.708753 0.071188 0.449391
O O4 0.776051 0.161729 0.315663
O O5 0.500000 0.925294 0.750000
O O6 0.414669 0.833487 0.882380
O O7 0.273143 0.921599 0.012200
O O8 0.500000 0.253699 0.250000
O O9 0.740584 0.202831 0.170909
O O10 0.750000 0.250000 0.000000
O O11 0.243672 0.850882 0.305562
O O12 0.132450 0.918295 0.496073
O O13 0.969889 0.899180 0.447276
O O14 0.012148 0.823984 0.554017
O O15 0.500000 0.836099 0.250000
O O16 0.611251 0.758020 0.286650
O O17 0.000000 0.092505 0.750000
O O18 0.920003 0.004653 0.890927
O O19 0.500000 0.581792 0.250000
#
# Coordination Sequence:
#
# PCOD8152646 Si02
#       8
#     8   8   8   8   8   8   8   8
#     4  12  23  46  67  96 148 179 232 285 344 414
#     4  11  22  44  67  99 136 179 225 289 345 410
#     4  11  23  40  62  99 138 180 234 278 345 411
#     4  12  24  48  71  99 143 179 230 287 341 415
#     4  12  28  42  66 106 141 183 232 284 350 413
#     4  11  25  46  72 103 132 175 235 289 354 405
#     4  11  25  44  73 102 130 186 232 285 348 417
#     4  12  25  41  70  99 136 194 224 279 347 417
#
# _framework density 21.014526
#
# number of rings (size 3 to 8) (size 9 to 14) (size 15 to 20)
#    0.000    0.500    6.250    2.625    3.500    2.000 
#    2.250    0.000    0.000    0.000    0.000    0.000 
#    0.000    0.000    0.000    0.000    0.000    0.000 
#
# Total GULP energy -396761.793865 kJ/mol
# GULP energy per Si atom -12398.806058 kJ/mol
# Density = 2.096670 g / cm^3
# Si number density = 21.014526 Si / 1000 Ang^3
#
#
#
# Elastic Constant Matrix: (Units=GPa)
#
#
# Indices 1 2 3 4 5 6 
#
# 1 90.3243 21.2930 10.1437 0.0000 1.6430 0.0000
# 2 21.2930 63.2190 30.8352 0.0000 0.5123 0.0000
# 3 10.1437 30.8352 148.8499 0.0000 -7.9655 0.0000
# 4 0.0000 0.0000 0.0000 38.2598 0.0000 0.5525
# 5 1.6430 0.5123 -7.9655 0.0000 37.1390 0.0000
# 6 0.0000 0.0000 0.0000 0.5525 0.0000 16.9451
#
#
#
# Elastic Compliance Matrix: (Units=1/GPa)
#
#
# Indices 1 2 3 4 5 6 
#
# 1 0.012035 -0.004046 -0.000008 0.000000 -0.000478 0.000000
# 2 -0.004046 0.018996 -0.003706 0.000000 -0.000878 0.000000
# 3 -0.000008 -0.003706 0.007576 0.000000 0.001676 0.000000
# 4 0.000000 0.000000 0.000000 0.026149 0.000000 -0.000853
# 5 -0.000478 -0.000878 0.001676 0.000000 0.027319 0.000000
# 6 0.000000 0.000000 0.000000 -0.000853 0.000000 0.059042
#
#
# Mechanical properties :
#
#
# Convention : Reuss Voigt Hill
#
# Bulk Modulus (GPa) = 43.31471 47.43746 45.37608
# Shear Modulus (GPa) = 28.68097 34.47685 31.57891
#
# Velocity S-wave (km/s) = 3.69835 4.05485 3.88070
# Velocity P-wave (km/s) = 6.23647 6.67421 6.45905
#
# Compressibility (1/GPa) = 0.02308685
#
# Stress axis : x y z
#
# Youngs Moduli (GPa) = 83.09420 52.64373 131.99240
#
# Poissons Ratio (x) = 0.21299 0.00100
# Poissons Ratio (y) = 0.33618 0.48921
# Poissons Ratio (z) = 0.00063 0.19512
#
# Static dielectric constant tensor:
#      x y z
#    x 3.949190 0.000000 -0.155030 
#    y 0.000000 3.650510 0.000000 
#    z -0.155030 0.000000 4.819080 
# 
# 
# High freq. dielectric constant tensor:
#      x y z
#    x 1.836870 0.000000 -0.001340 
#    y 0.000000 1.806820 0.000000 
#    z -0.001340 0.000000 1.846960 
# 
# From -- ./inp_files/148767.got.cif
#   From: 2010.06.25/outbox.cif.g09.slc.cpg/sg15_75_cif.got.tgz:148767.got - 2010.06.28 07:06:18.
