data_PCOD8152913
_publ_section_title
;
Structure prediction by ZEFSAII (Michael W. Deem and Ramdas Pophale) SiO2 
 PCOD8152913
Probable space group: C 2/C
;
_chemical_formula_sum "Si O2"
_cell_formula_units_Z 44
_cell_length_a 15.027307
_cell_length_b 14.215041
_cell_length_c 11.682840
_cell_angle_alpha 90.000000
_cell_angle_beta 55.113533
_cell_angle_gamma 90.000000
_cell_volume 2047.121072
_symmetry_space_group_name_H-M "C 2/C"
_symmetry_group_IT_number 15
_symmetry_cell_setting 'monoclinic'
loop_
_space_group_symop_operation_xyz
x,y,z
-x,y,1/2-z
-x,-y,-z
x,-y,1/2+z
1/2+x,1/2+y,z
1/2-x,1/2+y,1/2-z
1/2-x,1/2-y,-z
1/2+x,1/2-y,1/2+z
loop_
_atom_site_type_symbol
_atom_site_label
_atom_site_fract_x
_atom_site_fract_y
_atom_site_fract_z
Si Si1 0.101052 0.057308 0.759146
Si Si2 0.000000 0.644833 0.250000
Si Si3 0.168597 0.886197 0.836523
Si Si4 0.707845 0.971749 0.547256
Si Si5 0.027188 0.773937 0.441449
Si Si6 0.186632 0.323621 0.971866
O O1 0.215807 0.066372 0.610372
O O2 0.099040 0.133397 0.862481
O O3 0.000000 0.075656 0.750000
O O4 0.088918 0.953133 0.821300
O O5 0.904778 0.582503 0.372790
O O6 0.956914 0.707865 0.179212
O O7 0.230794 0.954315 0.878907
O O8 0.254780 0.836309 0.692432
O O9 0.097856 0.804995 0.949054
O O10 0.677691 0.080864 0.550846
O O11 0.069321 0.720532 0.524783
O O12 0.250000 0.250000 0.000000
#
# Coordination Sequence:
#
# PCOD8152913 Si02
#       6
#     8   4   8   8   8   8
#     4  11  23  40  71 100 136 177 232 297 342 409
#     4  12  26  44  70  98 142 186 234 276 358 424
#     4  11  24  43  70  99 141 179 232 293 354 403
#     4  11  25  47  65 100 142 185 231 282 355 427
#     4  12  24  42  70 105 134 181 234 290 346 414
#     4  11  27  45  69 101 136 182 230 288 351 416
#
# _framework density 21.493597000000001
#
# number of rings (size 3 to 8) (size 9 to 14) (size 15 to 20)
#    0.000    0.727    4.545    1.636    7.636    3.636 
#    0.000    0.000    0.000    0.000    0.000    0.000 
#    0.000    0.000    0.000    0.000    0.000    0.000 
#
# Total GULP energy -272860.279778 kJ/mol
# GULP energy per Si atom -12402.739990 kJ/mol
# Density = 2.144468 g / cm^3
# Si number density = 21.493597 Si / 1000 Ang^3
#
#
#
# Elastic Constant Matrix: (Units=GPa)
#
#
# Indices 1 2 3 4 5 6 
#
# 1 101.9373 39.1079 15.6972 0.0000 5.3621 0.0000
# 2 39.1079 102.5348 30.3906 0.0000 -3.7380 0.0000
# 3 15.6972 30.3906 82.2590 0.0000 -7.4005 0.0000
# 4 0.0000 0.0000 0.0000 38.1892 0.0000 4.9959
# 5 5.3621 -3.7380 -7.4005 0.0000 39.6920 0.0000
# 6 0.0000 0.0000 0.0000 4.9959 0.0000 42.2059
#
#
#
# Elastic Compliance Matrix: (Units=1/GPa)
#
#
# Indices 1 2 3 4 5 6 
#
# 1 0.011698 -0.004291 -0.000840 0.000000 -0.002141 0.000000
# 2 -0.004291 0.012529 -0.003714 0.000000 0.001067 0.000000
# 3 -0.000840 -0.003714 0.013901 0.000000 0.002355 0.000000
# 4 0.000000 0.000000 0.000000 0.026597 0.000000 -0.003148
# 5 -0.002141 0.001067 0.002355 0.000000 0.026023 0.000000
# 6 0.000000 0.000000 0.000000 -0.003148 0.000000 0.024066
#
#
# Mechanical properties :
#
#
# Convention : Reuss Voigt Hill
#
# Bulk Modulus (GPa) = 48.92624 50.79142 49.85883
# Shear Modulus (GPa) = 35.88944 37.45310 36.67127
#
# Velocity S-wave (km/s) = 4.09072 4.17888 4.13504
# Velocity P-wave (km/s) = 6.71748 6.85320 6.78568
#
# Compressibility (1/GPa) = 0.02043893
#
# Stress axis : x y z
#
# Youngs Moduli (GPa) = 85.48408 79.81390 71.93718
#
# Poissons Ratio (x) = 0.34248 0.06040
# Poissons Ratio (y) = 0.36681 0.26718
# Poissons Ratio (z) = 0.07177 0.29643
#
# Static dielectric constant tensor:
#      x y z
#    x 3.199040 0.000000 0.530940 
#    y 0.000000 4.204090 0.000000 
#    z 0.530940 0.000000 3.693510 
# 
# 
# High freq. dielectric constant tensor:
#      x y z
#    x 1.841090 0.000000 0.004680 
#    y 0.000000 1.854060 0.000000 
#    z 0.004680 0.000000 1.848520 
# 
# From -- ./inp_files/96100.got.cif
#   From: 2010.06.25/outbox.cif.g09.slc.cpg/sg15_49_cif.got.tgz:96100.got - 2010.06.28 07:06:18.
