data_PCOD8152705
_publ_section_title
;
Structure prediction by ZEFSAII (Michael W. Deem and Ramdas Pophale) SiO2 
 PCOD8152705
Probable space group: C 2/C
;
_chemical_formula_sum "Si O2"
_cell_formula_units_Z 44
_cell_length_a 12.126319
_cell_length_b 8.316006
_cell_length_c 17.602007
_cell_angle_alpha 90.000000
_cell_angle_beta 86.421317
_cell_angle_gamma 90.000000
_cell_volume 1771.569848
_symmetry_space_group_name_H-M "C 2/C"
_symmetry_group_IT_number 15
_symmetry_cell_setting 'monoclinic'
loop_
_space_group_symop_operation_xyz
x,y,z
-x,y,1/2-z
-x,-y,-z
x,-y,1/2+z
1/2+x,1/2+y,z
1/2-x,1/2+y,1/2-z
1/2-x,1/2-y,-z
1/2+x,1/2-y,1/2+z
loop_
_atom_site_type_symbol
_atom_site_label
_atom_site_fract_x
_atom_site_fract_y
_atom_site_fract_z
Si Si1 0.292430 0.500210 0.898014
Si Si2 0.924535 0.333468 0.057715
Si Si3 0.472619 0.750528 0.891280
Si Si4 0.000000 0.473928 0.750000
Si Si5 0.860960 0.674150 0.848370
Si Si6 0.840653 0.020605 0.563264
O O1 0.161479 0.528878 0.912181
O O2 0.358193 0.662158 0.872378
O O3 0.313893 0.354453 0.837418
O O4 0.338745 0.426558 0.975270
O O5 0.026300 0.327550 0.109305
O O6 0.856634 0.168753 0.065070
O O7 0.960391 0.360358 0.967818
O O8 0.515958 0.863921 0.822999
O O9 0.560369 0.609895 0.899531
O O10 0.107675 0.590407 0.733710
O O11 0.774530 0.558316 0.892459
#
# Coordination Sequence:
#
# PCOD8152705 Si02
#       6
#     8   8   8   4   8   8
#     4  11  22  44  78 110 137 181 237 305 358 419
#     4  11  23  46  81 106 143 178 239 309 358 416
#     4  11  23  48  73 105 146 190 236 300 363 425
#     4  12  30  46  62 104 152 196 246 288 356 442
#     4  12  26  47  69 111 140 186 244 288 360 437
#     4  11  22  45  76 110 138 178 240 303 358 424
#
# _framework density 24.836728999999998
#
# number of rings (size 3 to 8) (size 9 to 14) (size 15 to 20)
#    0.000    0.727    3.636    6.000    2.545    2.182 
#    6.545    0.000    0.000    0.000    0.000    0.000 
#    0.000    0.000    0.000    0.000    0.000    0.000 
#
# Total GULP energy -272874.911621 kJ/mol
# GULP energy per Si atom -12403.405074 kJ/mol
# Density = 2.478020 g / cm^3
# Si number density = 24.836729 Si / 1000 Ang^3
#
#
#
# Elastic Constant Matrix: (Units=GPa)
#
#
# Indices 1 2 3 4 5 6 
#
# 1 120.0226 28.7974 39.1204 0.0000 -21.9647 0.0000
# 2 28.7974 69.0597 71.7678 0.0000 -22.0954 0.0000
# 3 39.1204 71.7678 108.3677 0.0000 -36.3776 0.0000
# 4 0.0000 0.0000 0.0000 50.7747 0.0000 -10.2913
# 5 -21.9647 -22.0954 -36.3776 0.0000 31.1128 0.0000
# 6 0.0000 0.0000 0.0000 -10.2913 0.0000 44.3656
#
#
#
# Elastic Compliance Matrix: (Units=1/GPa)
#
#
# Indices 1 2 3 4 5 6 
#
# 1 0.009892 -0.001774 -0.000782 0.000000 0.004810 0.000000
# 2 -0.001774 0.047223 -0.032586 0.000000 -0.005816 0.000000
# 3 -0.000782 -0.032586 0.038085 0.000000 0.020836 0.000000
# 4 0.000000 0.000000 0.000000 0.020666 0.000000 0.004794
# 5 0.004810 -0.005816 0.020836 0.000000 0.055768 0.000000
# 6 0.000000 0.000000 0.000000 0.004794 0.000000 0.023652
#
#
# Mechanical properties :
#
#
# Convention : Reuss Voigt Hill
#
# Bulk Modulus (GPa) = 40.13278 64.09124 52.11201
# Shear Modulus (GPa) = 18.25654 35.76825 27.01240
#
# Velocity S-wave (km/s) = 2.71414 3.79903 3.30145
# Velocity P-wave (km/s) = 5.10057 6.71599 5.96324
#
# Compressibility (1/GPa) = 0.02491729
#
# Stress axis : x y z
#
# Youngs Moduli (GPa) = 101.08762 21.17630 26.25728
#
# Poissons Ratio (x) = 0.03756 0.02053
# Poissons Ratio (y) = 0.17928 0.85561
# Poissons Ratio (z) = 0.07905 0.69005
#
# Static dielectric constant tensor:
#      x y z
#    x 4.527910 0.000000 -0.307710 
#    y 0.000000 4.901670 0.000000 
#    z -0.307710 0.000000 4.602780 
# 
# 
# High freq. dielectric constant tensor:
#      x y z
#    x 2.003130 0.000000 -0.022060 
#    y 0.000000 2.013860 0.000000 
#    z -0.022060 0.000000 1.958940 
# 
# From -- ./inp_files/236115.got.cif
#   From: 2010.06.25/outbox.cif.g09.slc.cpg/sg15_119_cif.got.tgz:236115.got - 2010.06.28 07:06:18.
