data_PCOD8152206
_publ_section_title
;
Structure prediction by ZEFSAII (Michael W. Deem and Ramdas Pophale) SiO2 
 PCOD8152206
Probable space group: C 2/C
;
_chemical_formula_sum "Si O2"
_cell_formula_units_Z 56
_cell_length_a 16.895815
_cell_length_b 14.928095
_cell_length_c 11.260673
_cell_angle_alpha 90.000000
_cell_angle_beta 66.072548
_cell_angle_gamma 90.000000
_cell_volume 2596.106243
_symmetry_space_group_name_H-M "C 2/C"
_symmetry_group_IT_number 15
_symmetry_cell_setting 'monoclinic'
loop_
_space_group_symop_operation_xyz
x,y,z
-x,y,1/2-z
-x,-y,-z
x,-y,1/2+z
1/2+x,1/2+y,z
1/2-x,1/2+y,1/2-z
1/2-x,1/2-y,-z
1/2+x,1/2-y,1/2+z
loop_
_atom_site_type_symbol
_atom_site_label
_atom_site_fract_x
_atom_site_fract_y
_atom_site_fract_z
Si Si1 0.855413 0.601950 0.885911
Si Si2 0.545475 0.251646 0.061668
Si Si3 0.238429 0.347909 0.823398
Si Si4 0.862604 0.797102 0.264732
Si Si5 0.580953 0.729686 0.267310
Si Si6 0.927924 0.447685 0.973436
Si Si7 0.741614 0.049816 0.768940
O O1 0.920354 0.668216 0.778644
O O2 0.902599 0.506288 0.873781
O O3 0.770134 0.584707 0.858584
O O4 0.830561 0.642946 0.028682
O O5 0.454268 0.298832 0.142058
O O6 0.621275 0.283309 0.104682
O O7 0.531910 0.146051 0.091915
O O8 0.573345 0.276695 0.912832
O O9 0.200764 0.280104 0.747770
O O10 0.327617 0.312456 0.825917
O O11 0.260230 0.444182 0.753627
O O12 0.821004 0.895320 0.276459
O O13 0.500000 0.681003 0.250000
O O14 0.844765 0.428250 0.105275
O O15 0.000000 0.500000 0.000000
#
# Coordination Sequence:
#
# PCOD8152206 Si02
#       7
#     8   8   8   8   8   8   8
#     4  11  23  39  68  97 137 169 219 279 346 404
#     4  11  24  43  67  96 135 183 219 286 334 400
#     4  11  24  43  68  97 130 179 223 275 341 405
#     4  11  24  45  67  94 138 178 232 269 343 408
#     4  12  24  41  65  98 133 175 222 278 338 400
#     4  11  22  39  64 102 135 164 223 282 346 398
#     4  11  24  42  65  98 130 183 223 274 337 409
#
# _framework density 21.570765999999999
#
# number of rings (size 3 to 8) (size 9 to 14) (size 15 to 20)
#    0.000    0.857    2.857    4.714    2.000    5.714 
#    2.571    0.714    0.000    0.000    0.000    0.000 
#    0.000    0.000    0.000    0.000    0.000    0.000 
#
# Total GULP energy -347280.811448 kJ/mol
# GULP energy per Si atom -12402.886123 kJ/mol
# Density = 2.152167 g / cm^3
# Si number density = 21.570766 Si / 1000 Ang^3
#
#
#
# Elastic Constant Matrix: (Units=GPa)
#
#
# Indices 1 2 3 4 5 6 
#
# 1 144.7877 40.7141 25.6411 0.0000 15.6865 0.0000
# 2 40.7141 86.8200 17.5543 0.0000 3.5598 0.0000
# 3 25.6411 17.5543 88.1682 0.0000 16.4639 0.0000
# 4 0.0000 0.0000 0.0000 26.3891 0.0000 3.9841
# 5 15.6865 3.5598 16.4639 0.0000 36.5922 0.0000
# 6 0.0000 0.0000 0.0000 3.9841 0.0000 42.6371
#
#
#
# Elastic Compliance Matrix: (Units=1/GPa)
#
#
# Indices 1 2 3 4 5 6 
#
# 1 0.008428 -0.003593 -0.001230 0.000000 -0.002710 0.000000
# 2 -0.003593 0.013533 -0.001846 0.000000 0.001054 0.000000
# 3 -0.001230 -0.001846 0.013030 0.000000 -0.005156 0.000000
# 4 0.000000 0.000000 0.000000 0.038437 0.000000 -0.003592
# 5 -0.002710 0.001054 -0.005156 0.000000 0.030707 0.000000
# 6 0.000000 0.000000 0.000000 -0.003592 0.000000 0.023789
#
#
# Mechanical properties :
#
#
# Convention : Reuss Voigt Hill
#
# Bulk Modulus (GPa) = 46.18189 54.17720 50.17955
# Shear Modulus (GPa) = 33.67452 36.84810 35.26131
#
# Velocity S-wave (km/s) = 3.95539 4.13757 4.04750
# Velocity P-wave (km/s) = 6.50508 6.92796 6.71984
#
# Compressibility (1/GPa) = 0.02165351
#
# Stress axis : x y z
#
# Youngs Moduli (GPa) = 118.64737 73.89361 76.74611
#
# Poissons Ratio (x) = 0.26548 0.09438
# Poissons Ratio (y) = 0.42626 0.14171
# Poissons Ratio (z) = 0.14590 0.13644
#
# Static dielectric constant tensor:
#      x y z
#    x 4.099980 0.000000 0.118550 
#    y 0.000000 4.357940 0.000000 
#    z 0.118550 0.000000 3.930790 
# 
# 
# High freq. dielectric constant tensor:
#      x y z
#    x 1.860890 0.000000 0.010550 
#    y 0.000000 1.837090 0.000000 
#    z 0.010550 0.000000 1.845360 
# 
# From -- ./inp_files/105288.got.cif
#   From: 2010.06.25/outbox.cif.g09.slc.cpg/sg15_53_cif.got.tgz:105288.got - 2010.06.28 07:06:18.
