data_PCOD8152972
_publ_section_title
;
Structure prediction by ZEFSAII (Michael W. Deem and Ramdas Pophale) SiO2 
 PCOD8152972
Probable space group: C 2/C
;
_chemical_formula_sum "Si O2"
_cell_formula_units_Z 24
_cell_length_a 7.971218
_cell_length_b 26.160734
_cell_length_c 9.408866
_cell_angle_alpha 90.000000
_cell_angle_beta 31.828576
_cell_angle_gamma 90.000000
_cell_volume 1034.749510
_symmetry_space_group_name_H-M "C 2/C"
_symmetry_group_IT_number 15
_symmetry_cell_setting 'monoclinic'
loop_
_space_group_symop_operation_xyz
x,y,z
-x,y,1/2-z
-x,-y,-z
x,-y,1/2+z
1/2+x,1/2+y,z
1/2-x,1/2+y,1/2-z
1/2-x,1/2-y,-z
1/2+x,1/2-y,1/2+z
loop_
_atom_site_type_symbol
_atom_site_label
_atom_site_fract_x
_atom_site_fract_y
_atom_site_fract_z
Si Si1 0.565379 0.551557 0.867340
Si Si2 0.249827 0.777386 0.695573
Si Si3 0.288906 0.893621 0.649426
O O1 0.500000 0.542102 0.750000
O O2 0.925506 0.572337 0.619774
O O3 0.500000 0.500000 0.000000
O O4 0.318994 0.591545 0.113397
O O5 0.546403 0.737732 0.480739
O O6 0.388432 0.834574 0.589663
O O7 0.000000 0.767358 0.750000
O O8 0.000000 0.902344 0.750000
#
# Coordination Sequence:
#
# PCOD8152972 Si02
#       3
#     8   8   8
#     4  12  26  45  65  91 128 169 214 264 324 384
#     4   9  17  32  58  93 127 160 204 257 307 362
#     4  11  23  41  68  98 128 166 215 265 314 373
#
# _framework density 23.194019000000001
#
# number of rings (size 3 to 8) (size 9 to 14) (size 15 to 20)
#    0.000    1.333    0.000    6.000    0.000    8.000 
#    0.000    0.000    0.000   20.000    0.000    0.000 
#    0.000    0.000    0.000    0.000    0.000    0.000 
#
# Total GULP energy -148721.147397 kJ/mol
# GULP energy per Si atom -12393.428950 kJ/mol
# Density = 2.314123 g / cm^3
# Si number density = 23.194019 Si / 1000 Ang^3
#
#
#
# Elastic Constant Matrix: (Units=GPa)
#
#
# Indices 1 2 3 4 5 6 
#
# 1 58.3234 52.6615 38.5645 0.0000 4.2287 0.0000
# 2 52.6615 159.0978 98.0280 0.0000 -21.8275 0.0000
# 3 38.5645 98.0280 203.7388 0.0000 -6.2033 0.0000
# 4 0.0000 0.0000 0.0000 53.7385 0.0000 -3.0176
# 5 4.2287 -21.8275 -6.2033 0.0000 37.0948 0.0000
# 6 0.0000 0.0000 0.0000 -3.0176 0.0000 22.7415
#
#
#
# Elastic Compliance Matrix: (Units=1/GPa)
#
#
# Indices 1 2 3 4 5 6 
#
# 1 0.027064 -0.009752 -0.000703 0.000000 -0.008941 0.000000
# 2 -0.009752 0.013288 -0.004297 0.000000 0.008212 0.000000
# 3 -0.000703 -0.004297 0.007070 0.000000 -0.001266 0.000000
# 4 0.000000 0.000000 0.000000 0.018748 0.000000 0.002488
# 5 -0.008941 0.008212 -0.001266 0.000000 0.032597 0.000000
# 6 0.000000 0.000000 0.000000 0.002488 0.000000 0.044303
#
#
# Mechanical properties :
#
#
# Convention : Reuss Voigt Hill
#
# Bulk Modulus (GPa) = 55.81047 88.85200 72.33123
# Shear Modulus (GPa) = 28.00381 38.17538 33.08959
#
# Velocity S-wave (km/s) = 3.47850 4.06139 3.78119
# Velocity P-wave (km/s) = 6.34412 7.77075 7.09339
#
# Compressibility (1/GPa) = 0.01791779
#
# Stress axis : x y z
#
# Youngs Moduli (GPa) = 36.94973 75.25733 141.43307
#
# Poissons Ratio (x) = 0.73388 0.09943
# Poissons Ratio (y) = 0.36032 0.60781
# Poissons Ratio (z) = 0.02598 0.32342
#
# Static dielectric constant tensor:
#      x y z
#    x 3.879120 0.000000 0.066460 
#    y 0.000000 4.235160 0.000000 
#    z 0.066460 0.000000 4.897490 
# 
# 
# High freq. dielectric constant tensor:
#      x y z
#    x 1.879490 0.000000 -0.003920 
#    y 0.000000 1.926060 0.000000 
#    z -0.003920 0.000000 1.946930 
# 
# From -- ./inp_files/25220.got.cif
#   From: 2010.06.25/outbox.cif.g09.slc.cpg/sg15_13_cif.got.tgz:25220.got - 2010.06.28 07:06:18.
