data_PCOD8152397
_publ_section_title
;
Structure prediction by ZEFSAII (Michael W. Deem and Ramdas Pophale) SiO2 
 PCOD8152397
Probable space group: C 2/C
;
_chemical_formula_sum "Si O2"
_cell_formula_units_Z 44
_cell_length_a 14.093412
_cell_length_b 21.943674
_cell_length_c 12.603836
_cell_angle_alpha 90.000000
_cell_angle_beta 146.658519
_cell_angle_gamma 90.000000
_cell_volume 2142.382001
_symmetry_space_group_name_H-M "C 2/C"
_symmetry_group_IT_number 15
_symmetry_cell_setting 'monoclinic'
loop_
_space_group_symop_operation_xyz
x,y,z
-x,y,1/2-z
-x,-y,-z
x,-y,1/2+z
1/2+x,1/2+y,z
1/2-x,1/2+y,1/2-z
1/2-x,1/2-y,-z
1/2+x,1/2-y,1/2+z
loop_
_atom_site_type_symbol
_atom_site_label
_atom_site_fract_x
_atom_site_fract_y
_atom_site_fract_z
Si Si1 0.536990 0.329652 0.906425
Si Si2 0.626024 0.982122 0.958183
Si Si3 0.429404 0.802002 0.302134
Si Si4 0.000000 0.047292 0.750000
Si Si5 0.456165 0.085157 0.473347
Si Si6 0.582582 0.434029 0.552273
O O1 0.500000 0.344554 0.750000
O O2 0.440122 0.267733 0.851176
O O3 0.735697 0.323386 0.117474
O O4 0.474939 0.386294 0.914946
O O5 0.500000 0.956299 0.750000
O O6 0.618692 0.934398 0.050893
O O7 0.824380 0.992046 0.104706
O O8 0.548255 0.047090 0.921436
O O9 0.500000 0.806920 0.250000
O O10 0.533626 0.844134 0.483189
O O11 0.970205 0.087326 0.616092
O O12 0.289100 0.065595 0.249385
O O13 0.500000 0.500000 0.500000
#
# Coordination Sequence:
#
# PCOD8152397 Si02
#       6
#     8   8   8   4   8   8
#     4  11  24  42  68  98 131 173 222 275 338 396
#     4  11  23  39  61  93 134 176 217 270 328 398
#     4  11  22  41  67  97 131 171 219 279 335 397
#     4  12  24  42  60  94 136 172 218 270 328 394
#     4  11  23  40  65  94 131 173 222 274 335 390
#     4  12  25  40  66  95 132 175 218 273 333 399
#
# _framework density 20.537889
#
# number of rings (size 3 to 8) (size 9 to 14) (size 15 to 20)
#    0.000    0.727    3.636    6.000    3.818    1.455 
#    0.000    0.000    2.000    3.273    0.000    0.000 
#    0.000    0.000    0.000    0.000    0.000    0.000 
#
# Total GULP energy -272716.695682 kJ/mol
# GULP energy per Si atom -12396.213440 kJ/mol
# Density = 2.049114 g / cm^3
# Si number density = 20.537889 Si / 1000 Ang^3
#
#
#
# Elastic Constant Matrix: (Units=GPa)
#
#
# Indices 1 2 3 4 5 6 
#
# 1 111.2933 59.3892 40.8017 0.0000 0.7257 0.0000
# 2 59.3892 141.6843 36.2478 0.0000 -17.8044 0.0000
# 3 40.8017 36.2478 112.4211 0.0000 -5.6367 0.0000
# 4 0.0000 0.0000 0.0000 4.7889 0.0000 -15.8013
# 5 0.7257 -17.8044 -5.6367 0.0000 45.1612 0.0000
# 6 0.0000 0.0000 0.0000 -15.8013 0.0000 24.1323
#
#
#
# Elastic Compliance Matrix: (Units=1/GPa)
#
#
# Indices 1 2 3 4 5 6 
#
# 1 0.012759 -0.004847 -0.003194 0.000000 -0.002515 0.000000
# 2 -0.004847 0.009886 -0.001237 0.000000 0.003821 0.000000
# 3 -0.003194 -0.001237 0.010497 0.000000 0.000874 0.000000
# 4 0.000000 0.000000 0.000000 -0.179936 0.000000 -0.117819
# 5 -0.002515 0.003821 0.000874 0.000000 0.023799 0.000000
# 6 0.000000 0.000000 0.000000 -0.117819 0.000000 -0.035707
#
#
# Mechanical properties :
#
#
# Convention : Reuss Voigt Hill
#
# Bulk Modulus (GPa) = 68.55633 70.91954 69.73794
# Shear Modulus (GPa) = -36.95920 30.08048 -3.43936
#
# Velocity S-wave (km/s) = -4.24673 3.83120 -1.29548
# Velocity P-wave (km/s) = 3.06702 7.36049 5.63842
#
# Compressibility (1/GPa) = 0.01458654
#
# Stress axis : x y z
#
# Youngs Moduli (GPa) = 78.37513 101.15052 95.26570
#
# Poissons Ratio (x) = 0.49028 0.30428
# Poissons Ratio (y) = 0.37989 0.11783
# Poissons Ratio (z) = 0.25033 0.12511
#
# Static dielectric constant tensor:
#      x y z
#    x 3.837920 0.000000 -0.013610 
#    y 0.000000 2.795950 0.000000 
#    z -0.013610 0.000000 4.056550 
# 
# 
# High freq. dielectric constant tensor:
#      x y z
#    x 1.808190 0.000000 0.008400 
#    y 0.000000 1.777140 0.000000 
#    z 0.008400 0.000000 1.826370 
# 
# From -- ./inp_files/39554.got.cif
#   From: 2010.06.25/outbox.cif.g09.slc.cpg/sg15_20_cif.got.tgz:39554.got - 2010.06.28 07:06:18.
