data_PCOD8152272
_publ_section_title
;
Structure prediction by ZEFSAII (Michael W. Deem and Ramdas Pophale) SiO2 
 PCOD8152272
Probable space group: C 2/C
;
_chemical_formula_sum "Si O2"
_cell_formula_units_Z 48
_cell_length_a 27.491376
_cell_length_b 7.616210
_cell_length_c 14.114350
_cell_angle_alpha 90.000000
_cell_angle_beta 44.707509
_cell_angle_gamma 90.000000
_cell_volume 2078.992262
_symmetry_space_group_name_H-M "C 2/C"
_symmetry_group_IT_number 15
_symmetry_cell_setting 'monoclinic'
loop_
_space_group_symop_operation_xyz
x,y,z
-x,y,1/2-z
-x,-y,-z
x,-y,1/2+z
1/2+x,1/2+y,z
1/2-x,1/2+y,1/2-z
1/2-x,1/2-y,-z
1/2+x,1/2-y,1/2+z
loop_
_atom_site_type_symbol
_atom_site_label
_atom_site_fract_x
_atom_site_fract_y
_atom_site_fract_z
Si Si1 0.807339 0.569608 0.888143
Si Si2 0.838172 0.957590 0.464409
Si Si3 0.212708 0.594040 0.887833
Si Si4 0.093726 0.897797 0.792145
Si Si5 0.338956 0.830059 0.694574
Si Si6 0.561370 0.410684 0.521937
O O1 0.857354 0.730152 0.793590
O O2 0.842888 0.393835 0.797935
O O3 0.731811 0.576949 0.941006
O O4 0.792584 0.547391 0.020080
O O5 0.828732 0.768411 0.524756
O O6 0.866857 0.941654 0.316259
O O7 0.897109 0.061677 0.439106
O O8 0.290215 0.656626 0.754789
O O9 0.184414 0.498948 0.834317
O O10 0.080096 0.932470 0.921869
O O11 0.018998 0.883593 0.845384
O O12 0.414671 0.773407 0.557058
#
# Coordination Sequence:
#
# PCOD8152272 Si02
#       6
#     8   8   8   8   8   8
#     4  11  23  39  65  95 124 163 209 262 311 364
#     4  11  22  40  64  93 123 162 213 259 311 367
#     4  11  23  39  64  96 127 160 205 264 314 364
#     4  11  24  43  64  90 128 169 209 253 309 372
#     4  11  22  40  63  93 128 160 206 257 312 373
#     4  11  24  41  63  91 128 171 208 252 309 372
#
# _framework density 23.088107999999998
#
# number of rings (size 3 to 8) (size 9 to 14) (size 15 to 20)
#    0.000    1.000    0.000    9.000    0.000    4.667 
#    0.000    3.333    0.000    0.000    0.000    0.000 
#    0.000    0.000    0.000    0.000    0.000    0.000 
#
# Total GULP energy -297376.742337 kJ/mol
# GULP energy per Si atom -12390.697597 kJ/mol
# Density = 2.303556 g / cm^3
# Si number density = 23.088108 Si / 1000 Ang^3
#
#
#
# Elastic Constant Matrix: (Units=GPa)
#
#
# Indices 1 2 3 4 5 6 
#
# 1 83.5481 20.9587 30.6821 -0.0005 -16.2888 0.0001
# 2 20.9587 74.6551 61.8969 -0.0017 -30.9890 -0.0005
# 3 30.6821 61.8969 114.4327 -0.0005 -9.3078 -0.0003
# 4 -0.0005 -0.0017 -0.0005 26.9994 0.0004 4.6775
# 5 -16.2888 -30.9890 -9.3078 0.0004 29.7718 0.0003
# 6 0.0001 -0.0005 -0.0003 4.6775 0.0003 27.8494
#
#
#
# Elastic Compliance Matrix: (Units=1/GPa)
#
#
# Indices 1 2 3 4 5 6 
#
# 1 0.015332 0.006809 -0.006706 0.000000 0.013380 0.000000
# 2 0.006809 0.058709 -0.029047 0.000003 0.055754 0.000000
# 3 -0.006706 -0.029047 0.024104 -0.000001 -0.026368 0.000000
# 4 0.000000 0.000003 -0.000001 0.038148 0.000002 -0.006407
# 5 0.013380 0.055754 -0.026368 0.000002 0.090699 -0.000001
# 6 0.000000 0.000000 0.000000 -0.006407 -0.000001 0.036983
#
#
# Mechanical properties :
#
#
# Convention : Reuss Voigt Hill
#
# Bulk Modulus (GPa) = 24.83948 55.52349 40.18148
# Shear Modulus (GPa) = 14.91285 27.53068 21.22177
#
# Velocity S-wave (km/s) = 2.54423 3.45689 3.03506
# Velocity P-wave (km/s) = 4.40599 6.32725 5.45192
#
# Compressibility (1/GPa) = 0.04025850
#
# Stress axis : x y z
#
# Youngs Moduli (GPa) = 65.22226 17.03309 41.48769
#
# Poissons Ratio (x) = -0.11599 0.27821
# Poissons Ratio (y) = -0.44412 1.20508
# Poissons Ratio (z) = 0.43737 0.49476
#
# Static dielectric constant tensor:
#      x y z
#    x 4.133060 0.000000 0.166060 
#    y 0.000000 3.939660 0.000000 
#    z 0.166060 0.000000 4.487320 
# 
# 
# High freq. dielectric constant tensor:
#      x y z
#    x 1.906440 0.000000 0.018320 
#    y 0.000000 1.904530 0.000000 
#    z 0.018320 0.000000 1.932920 
# 
# From -- ./inp_files/176863.got.cif
#   From: 2010.06.25/outbox.cif.g09.slc.cpg/sg15_89_cif.got.tgz:176863.got - 2010.06.28 07:06:18.
