data_PCOD8152570
_publ_section_title
;
Structure prediction by ZEFSAII (Michael W. Deem and Ramdas Pophale) SiO2 
 PCOD8152570
Probable space group: C 2/C
;
_chemical_formula_sum "Si O2"
_cell_formula_units_Z 52
_cell_length_a 16.472992
_cell_length_b 16.618798
_cell_length_c 16.298296
_cell_angle_alpha 90.000000
_cell_angle_beta 145.781597
_cell_angle_gamma 90.000000
_cell_volume 2509.113030
_symmetry_space_group_name_H-M "C 2/C"
_symmetry_group_IT_number 15
_symmetry_cell_setting 'monoclinic'
loop_
_space_group_symop_operation_xyz
x,y,z
-x,y,1/2-z
-x,-y,-z
x,-y,1/2+z
1/2+x,1/2+y,z
1/2-x,1/2+y,1/2-z
1/2-x,1/2-y,-z
1/2+x,1/2-y,1/2+z
loop_
_atom_site_type_symbol
_atom_site_label
_atom_site_fract_x
_atom_site_fract_y
_atom_site_fract_z
Si Si1 0.000000 0.945992 0.250000
Si Si2 0.967508 0.745947 0.438348
Si Si3 0.342952 0.313306 0.026980
Si Si4 0.511436 0.040995 0.664646
Si Si5 0.734432 0.497567 0.330551
Si Si6 0.190426 0.600964 0.252238
Si Si7 0.300918 0.845539 0.284831
O O1 0.126303 0.891117 0.392964
O O2 0.081011 0.000296 0.249964
O O3 0.902050 0.656977 0.384638
O O4 0.854456 0.812644 0.377548
O O5 0.009614 0.769920 0.379346
O O6 0.110747 0.734890 0.613881
O O7 0.250000 0.250000 0.000000
O O8 0.276515 0.343253 0.886298
O O9 0.500000 0.061568 0.750000
O O10 0.614180 0.110856 0.716442
O O11 0.357808 0.038149 0.489886
O O12 0.585531 0.954830 0.717431
O O13 0.710758 0.547277 0.226209
O O14 0.777568 0.406237 0.342197
#
# Coordination Sequence:
#
# PCOD8152570 Si02
#       7
#     4   8   8   8   8   8   8
#     4  12  24  40  58  96 136 160 216 280 312 384
#     4  12  21  40  66  92 128 169 212 261 333 394
#     4  12  25  39  61  99 138 164 209 272 336 390
#     4  11  23  42  67  91 123 172 224 266 321 388
#     4  11  22  44  63  91 133 172 215 264 323 395
#     4  11  23  39  68  91 122 178 213 257 329 396
#     4  11  22  43  66  92 130 171 213 269 325 401
#
# _framework density 20.724454999999999
#
# number of rings (size 3 to 8) (size 9 to 14) (size 15 to 20)
#    0.000    0.615    6.154    3.692    2.154    0.615 
#    2.769    0.769    1.692    0.000    0.000    0.000 
#    0.000    0.000    0.000    0.000    0.000    0.000 
#
# Total GULP energy -322341.110231 kJ/mol
# GULP energy per Si atom -12397.735009 kJ/mol
# Density = 2.067729 g / cm^3
# Si number density = 20.724455 Si / 1000 Ang^3
#
#
#
# Elastic Constant Matrix: (Units=GPa)
#
#
# Indices 1 2 3 4 5 6 
#
# 1 163.3772 56.1807 48.8949 -0.0005 13.5792 -0.0006
# 2 56.1807 84.7726 34.6417 -0.0002 8.9769 -0.0005
# 3 48.8949 34.6417 78.9435 0.0007 3.0388 -0.0002
# 4 -0.0005 -0.0002 0.0007 34.2900 0.0001 3.6851
# 5 13.5792 8.9769 3.0388 0.0001 33.4040 -0.0003
# 6 -0.0006 -0.0005 -0.0002 3.6851 -0.0003 34.8898
#
#
#
# Elastic Compliance Matrix: (Units=1/GPa)
#
#
# Indices 1 2 3 4 5 6 
#
# 1 0.008784 -0.004150 -0.003537 0.000000 -0.002134 0.000000
# 2 -0.004150 0.016706 -0.004669 0.000000 -0.002378 0.000000
# 3 -0.003537 -0.004669 0.016862 0.000000 0.001159 0.000000
# 4 0.000000 0.000000 0.000000 0.029498 0.000000 -0.003116
# 5 -0.002134 -0.002378 0.001159 0.000000 0.031338 0.000000
# 6 0.000000 0.000000 0.000000 -0.003116 0.000000 0.028991
#
#
# Mechanical properties :
#
#
# Convention : Reuss Voigt Hill
#
# Bulk Modulus (GPa) = 56.68931 67.39199 62.04065
# Shear Modulus (GPa) = 30.71799 33.00849 31.86324
#
# Velocity S-wave (km/s) = 3.85412 3.99523 3.92531
# Velocity P-wave (km/s) = 6.87160 7.33970 7.10951
#
# Compressibility (1/GPa) = 0.01764001
#
# Stress axis : x y z
#
# Youngs Moduli (GPa) = 113.84666 59.85783 59.30332
#
# Poissons Ratio (x) = 0.24840 0.20977
# Poissons Ratio (y) = 0.47244 0.27690
# Poissons Ratio (z) = 0.40270 0.27949
#
# Static dielectric constant tensor:
#      x y z
#    x 3.743080 0.000000 0.163530 
#    y 0.000000 3.743270 0.000000 
#    z 0.163530 0.000000 3.691770 
# 
# 
# High freq. dielectric constant tensor:
#      x y z
#    x 1.808460 0.000000 0.012990 
#    y 0.000000 1.810060 0.000000 
#    z 0.012990 0.000000 1.803660 
# 
# From -- ./inp_files/48669.got.cif
#   From: 2010.06.25/outbox.cif.g09.slc.cpg/sg15_25_cif.got.tgz:48669.got - 2010.06.28 07:06:18.
