data_PCOD8152159
_publ_section_title
;
Structure prediction by ZEFSAII (Michael W. Deem and Ramdas Pophale) SiO2 
 PCOD8152159
Probable space group: C 2/C
;
_chemical_formula_sum "Si O2"
_cell_formula_units_Z 40
_cell_length_a 24.693008
_cell_length_b 10.795218
_cell_length_c 20.563621
_cell_angle_alpha 90.000000
_cell_angle_beta 158.899228
_cell_angle_gamma 90.000000
_cell_volume 1973.416794
_symmetry_space_group_name_H-M "C 2/C"
_symmetry_group_IT_number 15
_symmetry_cell_setting 'monoclinic'
loop_
_space_group_symop_operation_xyz
x,y,z
-x,y,1/2-z
-x,-y,-z
x,-y,1/2+z
1/2+x,1/2+y,z
1/2-x,1/2+y,1/2-z
1/2-x,1/2-y,-z
1/2+x,1/2-y,1/2+z
loop_
_atom_site_type_symbol
_atom_site_label
_atom_site_fract_x
_atom_site_fract_y
_atom_site_fract_z
Si Si1 0.413435 0.231274 0.711544
Si Si2 0.125532 0.356167 0.088389
Si Si3 0.871637 0.468975 0.269412
Si Si4 0.449097 0.389370 0.396374
Si Si5 0.960639 0.996668 0.135211
O O1 0.500000 0.161443 0.750000
O O2 0.250000 0.250000 0.500000
O O3 0.420260 0.151938 0.784179
O O4 0.496963 0.359094 0.821560
O O5 0.156518 0.433784 0.187770
O O6 0.280451 0.344617 0.222560
O O7 0.001120 0.428116 0.906200
O O8 0.066634 0.220586 0.040712
O O9 0.717094 0.524661 0.070084
O O10 0.500000 0.500000 0.500000
O O11 0.451051 0.426305 0.322767
O O12 0.000000 0.940623 0.250000
#
# Coordination Sequence:
#
# PCOD8152159 Si02
#       5
#     8   8   8   8   8
#     4  11  22  38  66 101 133 174 223 278 343 399
#     4  11  27  42  69  99 132 178 232 273 338 401
#     4  11  23  43  64  98 138 172 224 282 334 401
#     4  12  25  46  71  98 137 180 228 276 338 404
#     4  11  23  43  66 100 136 176 225 280 335 402
#
# _framework density 20.269413
#
# number of rings (size 3 to 8) (size 9 to 14) (size 15 to 20)
#    0.000    0.800    6.000    2.400    5.600    0.000 
#    0.000    5.000    0.000    0.000    0.000    0.000 
#    0.000    0.000    0.000    0.000    0.000    0.000 
#
# Total GULP energy -248061.170667 kJ/mol
# GULP energy per Si atom -12403.058533 kJ/mol
# Density = 2.022328 g / cm^3
# Si number density = 20.269413 Si / 1000 Ang^3
#
#
#
# Elastic Constant Matrix: (Units=GPa)
#
#
# Indices 1 2 3 4 5 6 
#
# 1 123.4489 23.7541 59.3948 -0.0001 11.5554 0.0000
# 2 23.7541 78.0449 46.2948 -0.0005 3.7666 -0.0004
# 3 59.3948 46.2948 161.6785 -0.0006 14.7732 -0.0005
# 4 -0.0001 -0.0005 -0.0006 37.8703 -0.0003 -1.0326
# 5 11.5554 3.7666 14.7732 -0.0003 43.9598 -0.0002
# 6 0.0000 -0.0004 -0.0005 -1.0326 -0.0002 39.3118
#
#
#
# Elastic Compliance Matrix: (Units=1/GPa)
#
#
# Indices 1 2 3 4 5 6 
#
# 1 0.009997 -0.001051 -0.003239 0.000000 -0.001449 0.000000
# 2 -0.001051 0.015547 -0.004095 0.000000 0.000320 0.000000
# 3 -0.003239 -0.004095 0.008705 0.000000 -0.001723 0.000000
# 4 0.000000 0.000000 0.000000 0.026425 0.000000 0.000694
# 5 -0.001449 0.000320 -0.001723 0.000000 0.023681 0.000000
# 6 0.000000 0.000000 0.000000 0.000694 0.000000 0.025456
#
#
# Mechanical properties :
#
#
# Convention : Reuss Voigt Hill
#
# Bulk Modulus (GPa) = 57.21397 69.11775 63.16586
# Shear Modulus (GPa) = 37.76272 39.81029 38.78651
#
# Velocity S-wave (km/s) = 4.32098 4.43658 4.37916
# Velocity P-wave (km/s) = 7.29263 7.77289 7.53659
#
# Compressibility (1/GPa) = 0.01747825
#
# Stress axis : x y z
#
# Youngs Moduli (GPa) = 100.03138 64.32307 114.87793
#
# Poissons Ratio (x) = 0.06763 0.37209
# Poissons Ratio (y) = 0.10518 0.47038
# Poissons Ratio (z) = 0.32400 0.26338
#
# Static dielectric constant tensor:
#      x y z
#    x 4.021720 0.000000 0.071830 
#    y 0.000000 3.673920 0.000000 
#    z 0.071830 0.000000 3.572000 
# 
# 
# High freq. dielectric constant tensor:
#      x y z
#    x 1.803920 0.000000 0.007680 
#    y 0.000000 1.776660 0.000000 
#    z 0.007680 0.000000 1.808110 
# 
# From -- ./inp_files/46074.got.cif
#   From: 2010.06.25/outbox.cif.g09.slc.cpg/sg15_24_cif.got.tgz:46074.got - 2010.06.28 07:06:18.
