data_PCOD8152504
_publ_section_title
;
Structure prediction by ZEFSAII (Michael W. Deem and Ramdas Pophale) SiO2 
 PCOD8152504
Probable space group: C 2/C
;
_chemical_formula_sum "Si O2"
_cell_formula_units_Z 52
_cell_length_a 23.961622
_cell_length_b 14.060309
_cell_length_c 19.003943
_cell_angle_alpha 90.000000
_cell_angle_beta 21.950021
_cell_angle_gamma 90.000000
_cell_volume 2393.268294
_symmetry_space_group_name_H-M "C 2/C"
_symmetry_group_IT_number 15
_symmetry_cell_setting 'monoclinic'
loop_
_space_group_symop_operation_xyz
x,y,z
-x,y,1/2-z
-x,-y,-z
x,-y,1/2+z
1/2+x,1/2+y,z
1/2-x,1/2+y,1/2-z
1/2-x,1/2-y,-z
1/2+x,1/2-y,1/2+z
loop_
_atom_site_type_symbol
_atom_site_label
_atom_site_fract_x
_atom_site_fract_y
_atom_site_fract_z
Si Si1 0.193089 0.625884 0.826226
Si Si2 0.643367 0.167920 0.487783
Si Si3 0.026826 0.525045 0.143002
Si Si4 0.389952 0.198979 0.126568
Si Si5 0.500000 0.527948 0.250000
Si Si6 0.620840 0.306159 0.689098
Si Si7 0.256480 0.029279 0.356718
O O1 0.335583 0.692611 0.677278
O O2 0.235573 0.546987 0.717276
O O3 0.146049 0.580222 0.955290
O O4 0.060172 0.694527 0.954483
O O5 0.622113 0.141685 0.431856
O O6 0.541423 0.258852 0.627200
O O7 0.817701 0.189512 0.302216
O O8 0.595205 0.075603 0.587489
O O9 0.000000 0.578748 0.250000
O O10 0.878720 0.503004 0.271914
O O11 0.283706 0.138180 0.301994
O O12 0.387443 0.590372 0.335133
O O13 0.404278 0.466844 0.417545
O O14 0.750000 0.250000 0.500000
#
# Coordination Sequence:
#
# PCOD8152504 Si02
#       7
#     8   8   8   8   4   8   8
#     4  11  23  47  69  96 132 175 222 271 325 397
#     4  12  21  38  63  93 129 169 211 266 326 397
#     4  11  22  42  69  94 129 177 221 265 330 392
#     4  11  23  43  71  94 128 178 220 270 328 383
#     4  12  24  40  62  94 134 170 218 284 320 390
#     4  12  23  35  57  96 133 164 210 260 336 392
#     4  11  23  47  67  95 135 177 218 270 334 391
#
# _framework density 21.727609000000001
#
# number of rings (size 3 to 8) (size 9 to 14) (size 15 to 20)
#    0.000    0.615    4.615    5.538    0.000    0.000 
#    6.923    3.077    0.000    0.000    0.000    0.000 
#    0.000    0.000    0.000    0.000    0.000    0.000 
#
# Total GULP energy -322226.017334 kJ/mol
# GULP energy per Si atom -12393.308359 kJ/mol
# Density = 2.167816 g / cm^3
# Si number density = 21.727609 Si / 1000 Ang^3
#
#
#
# Elastic Constant Matrix: (Units=GPa)
#
#
# Indices 1 2 3 4 5 6 
#
# 1 99.2656 14.2193 18.7705 0.0012 11.7392 -0.0020
# 2 14.2193 49.8178 4.8034 -0.0006 5.3228 -0.0012
# 3 18.7705 4.8034 79.4032 -0.0036 21.5325 0.0001
# 4 0.0012 -0.0006 -0.0036 35.3658 0.0017 3.0784
# 5 11.7392 5.3228 21.5325 0.0017 43.3609 0.0002
# 6 -0.0020 -0.0012 0.0001 3.0784 0.0002 24.3659
#
#
#
# Elastic Compliance Matrix: (Units=1/GPa)
#
#
# Indices 1 2 3 4 5 6 
#
# 1 0.011046 -0.002783 -0.001993 -0.000001 -0.001659 0.000001
# 2 -0.002783 0.021069 -0.000138 0.000000 -0.001764 0.000001
# 3 -0.001993 -0.000138 0.014934 0.000002 -0.006859 0.000000
# 4 -0.000001 0.000000 0.000002 0.028590 -0.000002 -0.003612
# 5 -0.001659 -0.001764 -0.006859 -0.000002 0.027134 0.000000
# 6 0.000001 0.000001 0.000000 -0.003612 0.000000 0.041497
#
#
# Mechanical properties :
#
#
# Convention : Reuss Voigt Hill
#
# Bulk Modulus (GPa) = 26.86731 33.78587 30.32659
# Shear Modulus (GPa) = 30.02897 33.33140 31.68018
#
# Velocity S-wave (km/s) = 3.72165 3.92095 3.82260
# Velocity P-wave (km/s) = 5.55517 6.00683 5.78541
#
# Compressibility (1/GPa) = 0.03721995
#
# Stress axis : x y z
#
# Youngs Moduli (GPa) = 90.53279 47.46223 66.96346
#
# Poissons Ratio (x) = 0.13210 0.13345
# Poissons Ratio (y) = 0.25198 0.00925
# Poissons Ratio (z) = 0.18042 0.00656
#
# Static dielectric constant tensor:
#      x y z
#    x 3.967410 0.000090 -0.047080 
#    y 0.000090 3.119260 0.000010 
#    z -0.047080 0.000010 4.070680 
# 
# 
# High freq. dielectric constant tensor:
#      x y z
#    x 1.869320 0.000000 0.004030 
#    y 0.000000 1.827630 0.000000 
#    z 0.004030 0.000000 1.854620 
# 
# From -- ./inp_files/257787.got.cif
#   From: 2010.06.25/outbox.cif.g09.slc.cpg/sg15_129_cif.got.tgz:257787.got - 2010.06.28 07:06:18.
