data_PCOD8152028
_publ_section_title
;
Structure prediction by ZEFSAII (Michael W. Deem and Ramdas Pophale) SiO2 
 PCOD8152028
Probable space group: C 2/C
;
_chemical_formula_sum "Si O2"
_cell_formula_units_Z 28
_cell_length_a 7.546660
_cell_length_b 21.564598
_cell_length_c 10.581300
_cell_angle_alpha 90.000000
_cell_angle_beta 43.624909
_cell_angle_gamma 90.000000
_cell_volume 1188.072435
_symmetry_space_group_name_H-M "C 2/C"
_symmetry_group_IT_number 15
_symmetry_cell_setting 'monoclinic'
loop_
_space_group_symop_operation_xyz
x,y,z
-x,y,1/2-z
-x,-y,-z
x,-y,1/2+z
1/2+x,1/2+y,z
1/2-x,1/2+y,1/2-z
1/2-x,1/2-y,-z
1/2+x,1/2-y,1/2+z
loop_
_atom_site_type_symbol
_atom_site_label
_atom_site_fract_x
_atom_site_fract_y
_atom_site_fract_z
Si Si1 0.000000 0.880764 0.750000
Si Si2 0.719364 0.695789 0.349503
Si Si3 0.291458 0.173516 0.747418
Si Si4 0.541045 0.050694 0.585928
O O1 0.809621 0.836019 0.771748
O O2 0.167516 0.923914 0.570864
O O3 0.681613 0.770253 0.365320
O O4 0.500797 0.670601 0.554756
O O5 0.000000 0.676659 0.250000
O O6 0.500000 0.184080 0.750000
O O7 0.346169 0.107086 0.655546
O O8 0.500000 0.024364 0.750000
O O9 0.500000 0.000000 0.500000
#
# Coordination Sequence:
#
# PCOD8152028 Si02
#       4
#     4   8   8   8
#     4  12  24  50  78 108 164 200 254 334 398 458
#     4  12  24  42  77 122 155 198 258 323 400 473
#     4  11  21  45  74 110 158 205 249 326 399 459
#     4  11  26  50  79 108 151 217 267 318 389 467
#
# _framework density 23.567587
#
# number of rings (size 3 to 8) (size 9 to 14) (size 15 to 20)
#    0.000    0.571    7.143    3.429    0.000    2.286 
#    7.714    0.000    0.000    0.000    0.000    0.000 
#    0.000    0.000    0.000    0.000    0.000    0.000 
#
# Total GULP energy -173620.919415 kJ/mol
# GULP energy per Si atom -12401.494244 kJ/mol
# Density = 2.351395 g / cm^3
# Si number density = 23.567587 Si / 1000 Ang^3
#
#
#
# Elastic Constant Matrix: (Units=GPa)
#
#
# Indices 1 2 3 4 5 6 
#
# 1 149.7960 72.1738 62.3747 0.0000 -20.1257 0.0000
# 2 72.1738 140.1810 72.3518 0.0000 8.8348 0.0000
# 3 62.3747 72.3518 163.7172 0.0000 -17.0190 0.0000
# 4 0.0000 0.0000 0.0000 45.9786 0.0000 16.7687
# 5 -20.1257 8.8348 -17.0190 0.0000 50.0701 0.0000
# 6 0.0000 0.0000 0.0000 16.7687 0.0000 25.0884
#
#
#
# Elastic Compliance Matrix: (Units=1/GPa)
#
#
# Indices 1 2 3 4 5 6 
#
# 1 0.010145 -0.004864 -0.001246 0.000000 0.004512 0.000000
# 2 -0.004864 0.012072 -0.004050 0.000000 -0.005462 0.000000
# 3 -0.001246 -0.004050 0.008702 0.000000 0.003172 0.000000
# 4 0.000000 0.000000 0.000000 0.028760 0.000000 -0.019223
# 5 0.004512 -0.005462 0.003172 0.000000 0.023827 0.000000
# 6 0.000000 0.000000 0.000000 -0.019223 0.000000 0.052707
#
#
# Mechanical properties :
#
#
# Convention : Reuss Voigt Hill
#
# Bulk Modulus (GPa) = 94.34954 96.38832 95.36893
# Shear Modulus (GPa) = 31.23683 40.68035 35.95859
#
# Velocity S-wave (km/s) = 3.64457 4.15916 3.91034
# Velocity P-wave (km/s) = 7.60467 8.00327 7.80652
#
# Compressibility (1/GPa) = 0.01059889
#
# Stress axis : x y z
#
# Youngs Moduli (GPa) = 98.57490 82.83313 114.91175
#
# Poissons Ratio (x) = 0.40292 0.14321
# Poissons Ratio (y) = 0.47949 0.46537
# Poissons Ratio (z) = 0.12285 0.33546
#
# Static dielectric constant tensor:
#      x y z
#    x 4.033350 0.000000 -0.073780 
#    y 0.000000 4.402880 0.000000 
#    z -0.073780 0.000000 4.476100 
# 
# 
# High freq. dielectric constant tensor:
#      x y z
#    x 1.919790 0.000000 -0.008460 
#    y 0.000000 1.923500 0.000000 
#    z -0.008460 0.000000 1.958760 
# 
# From -- ./inp_files/77501.got.cif
#   From: 2010.06.25/outbox.cif.g09.slc.cpg/sg15_39_cif.got.tgz:77501.got - 2010.06.28 07:06:18.
