data_PCOD8152430
_publ_section_title
;
Structure prediction by ZEFSAII (Michael W. Deem and Ramdas Pophale) SiO2 
 PCOD8152430
Probable space group: C 2/C
;
_chemical_formula_sum "Si O2"
_cell_formula_units_Z 48
_cell_length_a 10.493833
_cell_length_b 26.377009
_cell_length_c 9.225990
_cell_angle_alpha 90.000000
_cell_angle_beta 118.723961
_cell_angle_gamma 90.000000
_cell_volume 2239.469540
_symmetry_space_group_name_H-M "C 2/C"
_symmetry_group_IT_number 15
_symmetry_cell_setting 'monoclinic'
loop_
_space_group_symop_operation_xyz
x,y,z
-x,y,1/2-z
-x,-y,-z
x,-y,1/2+z
1/2+x,1/2+y,z
1/2-x,1/2+y,1/2-z
1/2-x,1/2-y,-z
1/2+x,1/2-y,1/2+z
loop_
_atom_site_type_symbol
_atom_site_label
_atom_site_fract_x
_atom_site_fract_y
_atom_site_fract_z
Si Si1 0.620179 0.854005 0.197061
Si Si2 0.046084 0.704269 0.121644
Si Si3 0.170919 0.151387 0.237388
Si Si4 0.107305 0.192618 0.511940
Si Si5 0.164061 0.962610 0.832477
Si Si6 0.654856 0.032777 0.779911
O O1 0.500000 0.837663 0.250000
O O2 0.780159 0.836245 0.325278
O O3 0.620500 0.914579 0.179245
O O4 0.582533 0.826944 0.025391
O O5 0.168897 0.663207 0.230484
O O6 0.104170 0.748166 0.048332
O O7 0.000000 0.728499 0.250000
O O8 0.150091 0.185648 0.368729
O O9 0.150811 0.092515 0.256076
O O10 0.052837 0.168166 0.052357
O O11 0.000000 0.985765 0.750000
O O12 0.270725 0.995804 0.793421
O O13 0.233029 0.958018 0.028554
O O14 0.500000 0.009973 0.750000
#
# Coordination Sequence:
#
# PCOD8152430 Si02
#       6
#     8   8   8   8   8   8
#     4  11  22  43  68  95 130 177 227 262 317 410
#     4  12  27  42  64 100 136 169 216 281 340 380
#     4  11  22  42  69  95 130 176 227 264 319 402
#     4  11  22  41  69  94 128 174 224 265 314 395
#     4  12  23  44  69 101 133 175 225 276 329 397
#     4  11  24  43  68 101 135 174 221 277 335 393
#
# _framework density 21.433644999999999
#
# number of rings (size 3 to 8) (size 9 to 14) (size 15 to 20)
#    0.000    0.667    5.000    3.500    2.333    4.667 
#    0.000    0.833    0.000    0.000    0.000    0.000 
#    0.000    0.000    0.000    0.000    0.000    0.000 
#
# Total GULP energy -297636.319064 kJ/mol
# GULP energy per Si atom -12401.513294 kJ/mol
# Density = 2.138486 g / cm^3
# Si number density = 21.433645 Si / 1000 Ang^3
#
#
#
# Elastic Constant Matrix: (Units=GPa)
#
#
# Indices 1 2 3 4 5 6 
#
# 1 93.8582 43.8976 44.9457 0.0000 17.0985 0.0000
# 2 43.8976 109.1151 39.9061 0.0000 -10.6202 0.0000
# 3 44.9457 39.9061 102.3742 0.0000 23.8645 0.0000
# 4 0.0000 0.0000 0.0000 23.8121 0.0000 4.2743
# 5 17.0985 -10.6202 23.8645 0.0000 41.0415 0.0000
# 6 0.0000 0.0000 0.0000 4.2743 0.0000 43.6376
#
#
#
# Elastic Compliance Matrix: (Units=1/GPa)
#
#
# Indices 1 2 3 4 5 6 
#
# 1 0.016157 -0.005903 -0.003317 0.000000 -0.006330 0.000000
# 2 -0.005903 0.014297 -0.005110 0.000000 0.009130 0.000000
# 3 -0.003317 -0.005110 0.015272 0.000000 -0.008821 0.000000
# 4 0.000000 0.000000 0.000000 0.042747 0.000000 -0.004187
# 5 -0.006330 0.009130 -0.008821 0.000000 0.034494 0.000000
# 6 0.000000 0.000000 0.000000 -0.004187 0.000000 0.023326
#
#
# Mechanical properties :
#
#
# Convention : Reuss Voigt Hill
#
# Bulk Modulus (GPa) = 58.59266 62.53848 60.56557
# Shear Modulus (GPa) = 27.67921 33.47144 30.57533
#
# Velocity S-wave (km/s) = 3.59749 3.95603 3.78102
# Velocity P-wave (km/s) = 6.68222 7.07870 6.88331
#
# Compressibility (1/GPa) = 0.01706698
#
# Stress axis : x y z
#
# Youngs Moduli (GPa) = 61.89406 69.94564 65.47835
#
# Poissons Ratio (x) = 0.41289 0.21717
# Poissons Ratio (y) = 0.36536 0.33457
# Poissons Ratio (z) = 0.20528 0.35740
#
# Static dielectric constant tensor:
#      x y z
#    x 4.129250 0.000000 0.450150 
#    y 0.000000 3.796900 0.000000 
#    z 0.450150 0.000000 4.062490 
# 
# 
# High freq. dielectric constant tensor:
#      x y z
#    x 1.841710 0.000000 0.030250 
#    y 0.000000 1.840470 0.000000 
#    z 0.030250 0.000000 1.842670 
# 
# From -- ./inp_files/33802.got.cif
#   From: 2010.06.25/outbox.cif.g09.slc.cpg/sg15_17_cif.got.tgz:33802.got - 2010.06.28 07:06:18.
