data_PCOD8152961
_publ_section_title
;
Structure prediction by ZEFSAII (Michael W. Deem and Ramdas Pophale) SiO2 
 PCOD8152961
Probable space group: C 2/C
;
_chemical_formula_sum "Si O2"
_cell_formula_units_Z 52
_cell_length_a 10.848497
_cell_length_b 8.880990
_cell_length_c 27.740639
_cell_angle_alpha 90.000000
_cell_angle_beta 121.307843
_cell_angle_gamma 90.000000
_cell_volume 2283.507310
_symmetry_space_group_name_H-M "C 2/C"
_symmetry_group_IT_number 15
_symmetry_cell_setting 'monoclinic'
loop_
_space_group_symop_operation_xyz
x,y,z
-x,y,1/2-z
-x,-y,-z
x,-y,1/2+z
1/2+x,1/2+y,z
1/2-x,1/2+y,1/2-z
1/2-x,1/2-y,-z
1/2+x,1/2-y,1/2+z
loop_
_atom_site_type_symbol
_atom_site_label
_atom_site_fract_x
_atom_site_fract_y
_atom_site_fract_z
Si Si1 0.609364 0.168373 0.369534
Si Si2 0.511497 0.492069 0.843810
Si Si3 0.424816 0.803191 0.918590
Si Si4 0.865858 0.107296 0.485855
Si Si5 0.500000 0.708871 0.250000
Si Si6 0.265102 0.393984 0.537566
Si Si7 0.275382 0.073819 0.673632
O O1 0.574347 0.340080 0.347066
O O2 0.481455 0.116840 0.380935
O O3 0.774761 0.165515 0.422044
O O4 0.611833 0.046822 0.326656
O O5 0.540233 0.392875 0.803318
O O6 0.580024 0.409787 0.904498
O O7 0.340436 0.490272 0.816802
O O8 0.353319 0.911083 0.943997
O O9 0.309719 0.669113 0.884900
O O10 0.572283 0.744563 0.971430
O O11 0.748635 0.029433 0.496978
O O12 0.000000 0.000000 0.500000
O O13 0.638942 0.816014 0.272772
O O14 0.250000 0.250000 0.500000
#
# Coordination Sequence:
#
# PCOD8152961 Si02
#       7
#     8   8   8   8   4   8   8
#     4  11  24  45  70 105 150 187 229 295 363 423
#     4  11  27  49  73 106 147 182 241 303 356 428
#     4  11  23  41  67 106 148 181 235 285 350 433
#     4  12  21  42  67 102 152 184 223 283 343 431
#     4  12  28  50  76 104 134 186 254 302 356 432
#     4  12  22  40  72 104 144 193 226 282 361 423
#     4  11  24  49  74 100 137 188 239 299 363 414
#
# _framework density 22.771988
#
# number of rings (size 3 to 8) (size 9 to 14) (size 15 to 20)
#    0.000    0.615    7.692    0.462    0.000    4.923 
#    2.769    0.000    0.000    0.000    0.000    0.000 
#    0.000    0.000    0.000    0.000    0.000    0.000 
#
# Total GULP energy -322194.886058 kJ/mol
# GULP energy per Si atom -12392.111002 kJ/mol
# Density = 2.272016 g / cm^3
# Si number density = 22.771988 Si / 1000 Ang^3
#
#
#
# Elastic Constant Matrix: (Units=GPa)
#
#
# Indices 1 2 3 4 5 6 
#
# 1 113.2291 66.0404 1.9451 0.0000 2.9782 0.0000
# 2 66.0404 90.1184 42.4605 0.0000 0.8874 0.0000
# 3 1.9451 42.4605 76.7534 0.0000 8.9955 0.0000
# 4 0.0000 0.0000 0.0000 41.3161 0.0000 6.6685
# 5 2.9782 0.8874 8.9955 0.0000 24.2443 0.0000
# 6 0.0000 0.0000 0.0000 6.6685 0.0000 46.5658
#
#
#
# Elastic Compliance Matrix: (Units=1/GPa)
#
#
# Indices 1 2 3 4 5 6 
#
# 1 0.020894 -0.020749 0.011668 0.000000 -0.006136 0.000000
# 2 -0.020749 0.035777 -0.020294 0.000000 0.008769 0.000000
# 3 0.011668 -0.020294 0.025134 0.000000 -0.010016 0.000000
# 4 0.000000 0.000000 0.000000 0.024776 0.000000 -0.003548
# 5 -0.006136 0.008769 -0.010016 0.000000 0.045396 0.000000
# 6 0.000000 0.000000 0.000000 -0.003548 0.000000 0.021983
#
#
# Mechanical properties :
#
#
# Convention : Reuss Voigt Hill
#
# Bulk Modulus (GPa) = 43.37363 55.66588 49.51975
# Shear Modulus (GPa) = 20.79908 33.73557 27.26732
#
# Velocity S-wave (km/s) = 3.02547 3.85314 3.46411
# Velocity P-wave (km/s) = 5.59400 6.65534 6.14762
#
# Compressibility (1/GPa) = 0.02305549
#
# Stress axis : x y z
#
# Youngs Moduli (GPa) = 47.85996 27.95083 39.78719
#
# Poissons Ratio (x) = 0.57995 -0.46424
# Poissons Ratio (y) = 0.99304 0.80744
# Poissons Ratio (z) = -0.55843 0.56724
#
# Static dielectric constant tensor:
#      x y z
#    x 4.126480 0.000000 0.055570 
#    y 0.000000 4.105980 0.000000 
#    z 0.055570 0.000000 4.096580 
# 
# 
# High freq. dielectric constant tensor:
#      x y z
#    x 1.905320 0.000000 0.007160 
#    y 0.000000 1.890390 0.000000 
#    z 0.007160 0.000000 1.890090 
# 
# From -- ./inp_files/310079.got.cif
#   From: 2010.06.25/outbox.cif.g09.slc.cpg/sg15_156_cif.got.tgz:310079.got - 2010.06.28 07:06:18.
