data_PCOD8152439
_publ_section_title
;
Structure prediction by ZEFSAII (Michael W. Deem and Ramdas Pophale) SiO2 
 PCOD8152439
Probable space group: C 2/C
;
_chemical_formula_sum "Si O2"
_cell_formula_units_Z 48
_cell_length_a 9.969647
_cell_length_b 15.261754
_cell_length_c 20.735530
_cell_angle_alpha 90.000000
_cell_angle_beta 138.835954
_cell_angle_gamma 90.000000
_cell_volume 2076.675232
_symmetry_space_group_name_H-M "C 2/C"
_symmetry_group_IT_number 15
_symmetry_cell_setting 'monoclinic'
loop_
_space_group_symop_operation_xyz
x,y,z
-x,y,1/2-z
-x,-y,-z
x,-y,1/2+z
1/2+x,1/2+y,z
1/2-x,1/2+y,1/2-z
1/2-x,1/2-y,-z
1/2+x,1/2-y,1/2+z
loop_
_atom_site_type_symbol
_atom_site_label
_atom_site_fract_x
_atom_site_fract_y
_atom_site_fract_z
Si Si1 0.116034 0.309703 0.994630
Si Si2 0.925649 0.498082 0.046049
Si Si3 0.346727 0.492191 0.748612
Si Si4 0.762122 0.276421 0.670105
Si Si5 0.804447 0.213037 0.212611
Si Si6 0.005848 0.050241 0.434990
O O1 0.881840 0.278641 0.904695
O O2 0.250000 0.250000 0.000000
O O3 0.148715 0.402645 0.971363
O O4 0.191982 0.301736 0.096384
O O5 0.741438 0.432143 0.997656
O O6 0.000000 0.500000 0.000000
O O7 0.118564 0.471012 0.159142
O O8 0.500000 0.533076 0.750000
O O9 0.349968 0.387911 0.743465
O O10 0.416178 0.513792 0.846636
O O11 0.734720 0.239938 0.732810
O O12 0.620642 0.360451 0.604024
O O13 0.000000 0.302523 0.750000
O O14 0.000000 0.257633 0.250000
O O15 0.000000 0.000000 0.500000
#
# Coordination Sequence:
#
# PCOD8152439 Si02
#       6
#     8   8   8   8   8   8
#     4  11  22  41  70  95 131 174 224 268 325 403
#     4  11  23  43  67  96 130 176 223 273 325 394
#     4   9  18  38  63  88 126 175 218 257 324 403
#     4  11  23  43  68  96 134 181 219 269 345 402
#     4   9  20  38  65  93 127 173 219 264 327 396
#     4  11  24  38  65  99 132 171 222 274 336 391
#
# _framework density 23.113869999999999
#
# number of rings (size 3 to 8) (size 9 to 14) (size 15 to 20)
#    0.000    1.667    3.333    1.000    7.000    0.667 
#    3.000    0.000    0.000    0.000    0.000    0.000 
#    0.000    0.000    0.000    0.000    0.000    0.000 
#
# Total GULP energy -297454.428493 kJ/mol
# GULP energy per Si atom -12393.934521 kJ/mol
# Density = 2.306126 g / cm^3
# Si number density = 23.113870 Si / 1000 Ang^3
#
#
#
# Elastic Constant Matrix: (Units=GPa)
#
#
# Indices 1 2 3 4 5 6 
#
# 1 154.1844 11.2260 73.4466 0.0000 8.2829 0.0000
# 2 11.2260 27.2429 20.2599 0.0000 10.6901 0.0000
# 3 73.4466 20.2599 189.2325 -0.0001 8.8502 0.0000
# 4 0.0000 0.0000 -0.0001 31.2080 0.0000 -3.7079
# 5 8.2829 10.6901 8.8502 0.0000 56.6299 0.0000
# 6 0.0000 0.0000 0.0000 -3.7079 0.0000 22.8004
#
#
#
# Elastic Compliance Matrix: (Units=1/GPa)
#
#
# Indices 1 2 3 4 5 6 
#
# 1 0.008001 -0.000863 -0.002988 0.000000 -0.000540 0.000000
# 2 -0.000863 0.042855 -0.003909 0.000000 -0.007353 0.000000
# 3 -0.002988 -0.003909 0.006858 0.000000 0.000103 0.000000
# 4 0.000000 0.000000 0.000000 0.032674 0.000000 0.005314
# 5 -0.000540 -0.007353 0.000103 0.000000 0.019109 0.000000
# 6 0.000000 0.000000 0.000000 0.005314 0.000000 0.044723
#
#
# Mechanical properties :
#
#
# Convention : Reuss Voigt Hill
#
# Bulk Modulus (GPa) = 23.70034 64.50276 44.10155
# Shear Modulus (GPa) = 27.20275 39.84279 33.52277
#
# Velocity S-wave (km/s) = 3.43432 4.15632 3.81245
# Velocity P-wave (km/s) = 5.09922 7.14146 6.20494
#
# Compressibility (1/GPa) = 0.04219349
#
# Stress axis : x y z
#
# Youngs Moduli (GPa) = 124.98742 23.33453 145.81861
#
# Poissons Ratio (x) = 0.02014 0.43566
# Poissons Ratio (y) = 0.10786 0.57006
# Poissons Ratio (z) = 0.37342 0.09122
#
# Static dielectric constant tensor:
#      x y z
#    x 4.383170 0.000000 0.180020 
#    y 0.000000 3.365270 0.000000 
#    z 0.180020 0.000000 4.699980 
# 
# 
# High freq. dielectric constant tensor:
#      x y z
#    x 1.923650 0.000000 0.002520 
#    y 0.000000 1.866660 0.000000 
#    z 0.002520 0.000000 1.937310 
# 
# From -- ./inp_files/233971.got.cif
#   From: 2010.06.25/outbox.cif.g09.slc.cpg/sg15_117_cif.got.tgz:233971.got - 2010.06.28 07:06:18.
