data_PCOD8152320
_publ_section_title
;
Structure prediction by ZEFSAII (Michael W. Deem and Ramdas Pophale) SiO2 
 PCOD8152320
Probable space group: C 2/C
;
_chemical_formula_sum "Si O2"
_cell_formula_units_Z 48
_cell_length_a 8.400438
_cell_length_b 20.902262
_cell_length_c 18.494559
_cell_angle_alpha 90.000000
_cell_angle_beta 137.191223
_cell_angle_gamma 90.000000
_cell_volume 2206.800004
_symmetry_space_group_name_H-M "C 2/C"
_symmetry_group_IT_number 15
_symmetry_cell_setting 'monoclinic'
loop_
_space_group_symop_operation_xyz
x,y,z
-x,y,1/2-z
-x,-y,-z
x,-y,1/2+z
1/2+x,1/2+y,z
1/2-x,1/2+y,1/2-z
1/2-x,1/2-y,-z
1/2+x,1/2-y,1/2+z
loop_
_atom_site_type_symbol
_atom_site_label
_atom_site_fract_x
_atom_site_fract_y
_atom_site_fract_z
Si Si1 0.115179 0.529089 0.863175
Si Si2 0.909029 0.086612 0.438095
Si Si3 0.743596 0.046071 0.629395
Si Si4 0.428482 0.166396 0.001665
Si Si5 0.864067 0.089929 0.132209
Si Si6 0.830737 0.711304 0.125362
O O1 0.179143 0.453223 0.887199
O O2 0.000000 0.548183 0.750000
O O3 0.953694 0.553565 0.874467
O O4 0.360108 0.566048 0.943056
O O5 0.879091 0.161072 0.442499
O O6 0.939983 0.078298 0.362579
O O7 0.720247 0.100538 0.559209
O O8 0.000000 0.051030 0.750000
O O9 0.711266 0.975573 0.583945
O O10 0.289963 0.219430 0.909439
O O11 0.689092 0.149682 0.058788
O O12 0.461239 0.194564 0.093546
O O13 0.000000 0.104370 0.250000
O O14 0.000000 0.702842 0.250000
#
# Coordination Sequence:
#
# PCOD8152320 Si02
#       6
#     8   8   8   8   8   8
#     4  11  23  40  63 102 132 172 215 272 336 385
#     4  11  24  40  66  95 135 171 215 272 331 395
#     4  11  23  40  68  98 135 171 217 269 324 395
#     4  11  24  43  68  92 127 173 225 267 320 395
#     4  11  22  40  67  99 129 172 212 274 335 384
#     4  11  25  45  65  92 129 178 221 268 326 391
#
# _framework density 21.750952999999999
#
# number of rings (size 3 to 8) (size 9 to 14) (size 15 to 20)
#    0.000    1.000    1.667    5.500    7.000    0.667 
#    0.000    0.833    0.000    0.000    0.000    0.000 
#    0.000    0.000    0.000    0.000    0.000    0.000 
#
# Total GULP energy -297518.885321 kJ/mol
# GULP energy per Si atom -12396.620222 kJ/mol
# Density = 2.170145 g / cm^3
# Si number density = 21.750953 Si / 1000 Ang^3
#
#
#
# Elastic Constant Matrix: (Units=GPa)
#
#
# Indices 1 2 3 4 5 6 
#
# 1 68.0778 31.5602 25.4358 0.0000 1.4212 -0.0001
# 2 31.5602 132.0079 38.5895 -0.0001 7.0224 0.0000
# 3 25.4358 38.5895 96.7300 -0.0003 -3.7347 -0.0001
# 4 0.0000 -0.0001 -0.0003 17.1613 -0.0001 -0.3795
# 5 1.4212 7.0224 -3.7347 -0.0001 32.5610 0.0000
# 6 -0.0001 0.0000 -0.0001 -0.3795 0.0000 23.6896
#
#
#
# Elastic Compliance Matrix: (Units=1/GPa)
#
#
# Indices 1 2 3 4 5 6 
#
# 1 0.017411 -0.003163 -0.003334 0.000000 -0.000460 0.000000
# 2 -0.003163 0.009318 -0.002971 0.000000 -0.002212 0.000000
# 3 -0.003334 -0.002971 0.012486 0.000000 0.002218 0.000000
# 4 0.000000 0.000000 0.000000 0.058291 0.000000 0.000934
# 5 -0.000460 -0.002212 0.002218 0.000000 0.031463 0.000000
# 6 0.000000 0.000000 0.000000 0.000934 0.000000 0.042227
#
#
# Mechanical properties :
#
#
# Convention : Reuss Voigt Hill
#
# Bulk Modulus (GPa) = 49.31539 54.22075 51.76807
# Shear Modulus (GPa) = 25.39462 28.09774 26.74618
#
# Velocity S-wave (km/s) = 3.42060 3.59805 3.51045
# Velocity P-wave (km/s) = 6.19053 6.49949 6.34689
#
# Compressibility (1/GPa) = 0.02027765
#
# Stress axis : x y z
#
# Youngs Moduli (GPa) = 57.43523 107.32215 80.09233
#
# Poissons Ratio (x) = 0.33951 0.26703
# Poissons Ratio (y) = 0.18169 0.23794
# Poissons Ratio (z) = 0.19149 0.31883
#
# Static dielectric constant tensor:
#      x y z
#    x 3.923410 0.000000 0.090880 
#    y 0.000000 3.978900 0.000000 
#    z 0.090880 0.000000 3.708960 
# 
# 
# High freq. dielectric constant tensor:
#      x y z
#    x 1.850080 0.000000 -0.003230 
#    y 0.000000 1.845080 0.000000 
#    z -0.003230 0.000000 1.876350 
# 
# From -- ./inp_files/233975.got.cif
#   From: 2010.06.25/outbox.cif.g09.slc.cpg/sg15_117_cif.got.tgz:233975.got - 2010.06.28 07:06:18.
