data_PCOD8152118
_publ_section_title
;
Structure prediction by ZEFSAII (Michael W. Deem and Ramdas Pophale) SiO2 
 PCOD8152118
Probable space group: C 2/C
;
_chemical_formula_sum "Si O2"
_cell_formula_units_Z 48
_cell_length_a 21.647805
_cell_length_b 7.910182
_cell_length_c 15.121495
_cell_angle_alpha 90.000000
_cell_angle_beta 64.946705
_cell_angle_gamma 90.000000
_cell_volume 2345.752470
_symmetry_space_group_name_H-M "C 2/C"
_symmetry_group_IT_number 15
_symmetry_cell_setting 'monoclinic'
loop_
_space_group_symop_operation_xyz
x,y,z
-x,y,1/2-z
-x,-y,-z
x,-y,1/2+z
1/2+x,1/2+y,z
1/2-x,1/2+y,1/2-z
1/2-x,1/2-y,-z
1/2+x,1/2-y,1/2+z
loop_
_atom_site_type_symbol
_atom_site_label
_atom_site_fract_x
_atom_site_fract_y
_atom_site_fract_z
Si Si1 0.928804 0.651945 0.105624
Si Si2 0.695243 0.581031 0.385677
Si Si3 0.079042 0.669251 0.991209
Si Si4 0.849152 0.633265 0.990575
Si Si5 0.301475 0.572438 0.425393
Si Si6 0.682578 0.327988 0.231477
O O1 0.931058 0.447537 0.091054
O O2 0.892765 0.731527 0.039645
O O3 0.881601 0.702465 0.216842
O O4 0.004932 0.725272 0.072363
O O5 0.620681 0.665290 0.439747
O O6 0.714098 0.496195 0.467066
O O7 0.695972 0.445642 0.307480
O O8 0.749336 0.726422 0.331405
O O9 0.117821 0.554178 0.043216
O O10 0.771850 0.612334 0.073858
O O11 0.846931 0.754800 0.905426
O O12 0.339656 0.440648 0.339541
#
# Coordination Sequence:
#
# PCOD8152118 Si02
#       6
#     8   8   8   8   8   8
#     4   9  19  41  62  89 118 161 212 239 303 378
#     4  12  23  39  61  91 124 156 205 257 307 363
#     4   9  19  39  67  83 122 170 195 247 315 363
#     4   9  18  40  60  89 117 165 196 249 309 358
#     4  11  22  37  64  89 129 153 199 264 308 352
#     4  12  23  36  61  97 119 162 209 255 304 364
#
# _framework density 20.462516999999998
#
# number of rings (size 3 to 8) (size 9 to 14) (size 15 to 20)
#    1.000    0.667    3.333    2.500    2.333    0.667 
#    0.000    0.833    0.000    2.000    0.000    0.000 
#    0.000    0.000    0.000    0.000    0.000    0.000 
#
# Total GULP energy -297373.736286 kJ/mol
# GULP energy per Si atom -12390.572345 kJ/mol
# Density = 2.041594 g / cm^3
# Si number density = 20.462517 Si / 1000 Ang^3
#
#
#
# Elastic Constant Matrix: (Units=GPa)
#
#
# Indices 1 2 3 4 5 6 
#
# 1 109.2090 21.0789 27.8019 0.0000 -19.1648 0.0000
# 2 21.0789 62.9952 30.9424 0.0000 -0.8105 -0.0001
# 3 27.8019 30.9424 80.1295 0.0000 1.7427 0.0000
# 4 0.0000 0.0000 0.0000 34.8009 0.0000 -1.3616
# 5 -19.1648 -0.8105 1.7427 0.0000 26.7082 0.0000
# 6 0.0000 -0.0001 0.0000 -1.3616 0.0000 24.9800
#
#
#
# Elastic Compliance Matrix: (Units=1/GPa)
#
#
# Indices 1 2 3 4 5 6 
#
# 1 0.012015 -0.002179 -0.003518 0.000000 0.008785 0.000000
# 2 -0.002179 0.020017 -0.006963 0.000000 -0.000502 0.000000
# 3 -0.003518 -0.006963 0.016472 0.000000 -0.003811 0.000000
# 4 0.000000 0.000000 0.000000 0.028796 0.000000 0.001570
# 5 0.008785 -0.000502 -0.003811 0.000000 0.043979 0.000000
# 6 0.000000 0.000000 0.000000 0.001570 0.000000 0.040118
#
#
# Mechanical properties :
#
#
# Convention : Reuss Voigt Hill
#
# Bulk Modulus (GPa) = 43.13391 45.77558 44.45475
# Shear Modulus (GPa) = 25.71437 28.79852 27.25644
#
# Velocity S-wave (km/s) = 3.54878 3.75557 3.65364
# Velocity P-wave (km/s) = 6.15768 6.42065 6.29054
#
# Compressibility (1/GPa) = 0.02318362
#
# Stress axis : x y z
#
# Youngs Moduli (GPa) = 83.23213 49.95783 60.70899
#
# Poissons Ratio (x) = 0.10886 0.21359
# Poissons Ratio (y) = 0.18137 0.42270
# Poissons Ratio (z) = 0.29283 0.34784
#
# Static dielectric constant tensor:
#      x y z
#    x 3.653730 0.000000 -0.014780 
#    y 0.000000 3.855380 0.000000 
#    z -0.014780 0.000000 3.456420 
# 
# 
# High freq. dielectric constant tensor:
#      x y z
#    x 1.795450 0.000000 -0.003060 
#    y 0.000000 1.806410 0.000000 
#    z -0.003060 0.000000 1.763100 
# 
# From -- ./inp_files/166118.got.cif
#   From: 2010.06.25/outbox.cif.g09.slc.cpg/sg15_84_cif.got.tgz:166118.got - 2010.06.28 07:06:18.
