data_PCOD8152889
_publ_section_title
;
Structure prediction by ZEFSAII (Michael W. Deem and Ramdas Pophale) SiO2 
 PCOD8152889
Probable space group: C 2/C
;
_chemical_formula_sum "Si O2"
_cell_formula_units_Z 64
_cell_length_a 17.196043
_cell_length_b 22.037401
_cell_length_c 14.085940
_cell_angle_alpha 90.000000
_cell_angle_beta 144.998642
_cell_angle_gamma 90.000000
_cell_volume 3061.827592
_symmetry_space_group_name_H-M "C 2/C"
_symmetry_group_IT_number 15
_symmetry_cell_setting 'monoclinic'
loop_
_space_group_symop_operation_xyz
x,y,z
-x,y,1/2-z
-x,-y,-z
x,-y,1/2+z
1/2+x,1/2+y,z
1/2-x,1/2+y,1/2-z
1/2-x,1/2-y,-z
1/2+x,1/2-y,1/2+z
loop_
_atom_site_type_symbol
_atom_site_label
_atom_site_fract_x
_atom_site_fract_y
_atom_site_fract_z
Si Si1 0.000001 0.097530 0.639716
Si Si2 0.249998 0.750000 0.817141
Si Si3 0.499999 0.136136 0.362532
Si Si4 0.735833 0.066526 0.266674
Si Si5 0.735831 0.933474 0.204990
Si Si6 0.344461 0.869013 0.200389
Si Si7 0.655539 0.130987 0.011467
Si Si8 0.000002 0.772507 0.059867
O O1 0.873690 0.065318 0.462936
O O2 0.000002 0.170849 0.632268
O O3 0.000000 0.080094 0.750000
O O4 0.126314 0.065318 0.715562
O O5 0.177560 0.702660 0.814034
O O6 0.322438 0.797340 0.958911
O O7 0.135520 0.780428 0.637095
O O8 0.364475 0.719573 0.866048
O O9 0.500000 0.128205 0.250000
O O10 0.369800 0.103232 0.274857
O O11 0.630194 0.103230 0.535253
O O12 0.500001 0.207641 0.387124
O O13 0.756165 0.099675 0.186131
O O14 0.684916 0.000000 0.184917
O O15 0.756165 0.900324 0.326199
O O16 0.500000 0.884360 0.382576
O O17 0.310633 0.891510 0.060633
#
# Coordination Sequence:
#
# PCOD8152889 Si02
#       8
#     8   8   8   8   8   8   8   8
#     4  12  26  45  69  98 137 180 218 272 336 398
#     4  12  19  40  63  92 132 172 207 276 329 390
#     4  12  24  43  71 102 131 170 224 280 338 398
#     4  12  25  46  66  96 134 178 222 275 326 389
#     4  12  25  46  66  96 134 178 222 275 326 389
#     4  11  23  40  65  96 128 170 220 275 336 389
#     4  11  23  40  65  96 128 170 220 275 336 389
#     4  12  21  40  71  94 136 170 215 270 349 390
#
# _framework density 20.902549
#
# number of rings (size 3 to 8) (size 9 to 14) (size 15 to 20)
#    0.000    0.250    7.500    2.250    0.000    2.000 
#    0.000    5.625    0.000    0.000    0.000    0.000 
#    0.000    0.000    0.000    0.000    0.000    0.000 
#
# Total GULP energy -396805.449208 kJ/mol
# GULP energy per Si atom -12400.170288 kJ/mol
# Density = 2.085497 g / cm^3
# Si number density = 20.902549 Si / 1000 Ang^3
#
#
#
# Elastic Constant Matrix: (Units=GPa)
#
#
# Indices 1 2 3 4 5 6 
#
# 1 123.3588 24.1983 68.0114 0.0000 -25.1307 0.0000
# 2 24.1983 97.8760 5.4958 0.0000 -18.7225 0.0000
# 3 68.0114 5.4958 90.4320 0.0000 -7.8393 0.0000
# 4 0.0000 0.0000 0.0000 14.1134 0.0000 0.1858
# 5 -25.1307 -18.7225 -7.8393 0.0000 32.4322 0.0000
# 6 0.0000 0.0000 0.0000 0.1858 0.0000 13.9278
#
#
#
# Elastic Compliance Matrix: (Units=1/GPa)
#
#
# Indices 1 2 3 4 5 6 
#
# 1 0.016772 -0.001736 -0.011714 0.000000 0.009162 0.000000
# 2 -0.001736 0.011666 0.001087 0.000000 0.005652 0.000000
# 3 -0.011714 0.001087 0.019477 0.000000 -0.003741 0.000000
# 4 0.000000 0.000000 0.000000 0.070867 0.000000 -0.000945
# 5 0.009162 0.005652 -0.003741 0.000000 0.040292 0.000000
# 6 0.000000 0.000000 0.000000 -0.000945 0.000000 0.071812
#
#
# Mechanical properties :
#
#
# Convention : Reuss Voigt Hill
#
# Bulk Modulus (GPa) = 43.12408 56.34198 49.73303
# Shear Modulus (GPa) = 18.98674 26.35875 22.67275
#
# Velocity S-wave (km/s) = 3.01715 3.55495 3.29703
# Velocity P-wave (km/s) = 5.72830 6.62294 6.19180
#
# Compressibility (1/GPa) = 0.02318890
#
# Stress axis : x y z
#
# Youngs Moduli (GPa) = 59.62435 85.71599 51.34200
#
# Poissons Ratio (x) = 0.14882 0.60141
# Poissons Ratio (y) = 0.10352 -0.05579
# Poissons Ratio (z) = 0.69842 -0.09315
#
# Static dielectric constant tensor:
#      x y z
#    x 3.844630 0.000000 0.033130 
#    y 0.000000 3.825030 0.000000 
#    z 0.033130 0.000000 3.877710 
# 
# 
# High freq. dielectric constant tensor:
#      x y z
#    x 1.824440 0.000000 -0.002570 
#    y 0.000000 1.820630 0.000000 
#    z -0.002570 0.000000 1.821870 
# 
# From -- ./inp_files/164259.got.cif
#   From: 2010.06.25/outbox.cif.g09.slc.cpg/sg15_83_cif.got.tgz:164259.got - 2010.06.28 07:06:18.
