data_PCOD8152342
_publ_section_title
;
Structure prediction by ZEFSAII (Michael W. Deem and Ramdas Pophale) SiO2 
 PCOD8152342
Probable space group: C 2/C
;
_chemical_formula_sum "Si O2"
_cell_formula_units_Z 48
_cell_length_a 10.362270
_cell_length_b 8.455932
_cell_length_c 25.139688
_cell_angle_alpha 90.000000
_cell_angle_beta 71.995533
_cell_angle_gamma 90.000000
_cell_volume 2094.940014
_symmetry_space_group_name_H-M "C 2/C"
_symmetry_group_IT_number 15
_symmetry_cell_setting 'monoclinic'
loop_
_space_group_symop_operation_xyz
x,y,z
-x,y,1/2-z
-x,-y,-z
x,-y,1/2+z
1/2+x,1/2+y,z
1/2-x,1/2+y,1/2-z
1/2-x,1/2-y,-z
1/2+x,1/2-y,1/2+z
loop_
_atom_site_type_symbol
_atom_site_label
_atom_site_fract_x
_atom_site_fract_y
_atom_site_fract_z
Si Si1 0.433974 0.123490 0.047722
Si Si2 0.370852 0.831352 0.114316
Si Si3 0.130533 0.750491 0.764692
Si Si4 0.584198 0.622420 0.024606
Si Si5 0.588446 0.611006 0.787190
Si Si6 0.889599 0.848533 0.408114
O O1 0.558191 0.223832 0.055814
O O2 0.364688 0.021213 0.102920
O O3 0.339732 0.252453 0.026050
O O4 0.500000 0.000000 0.000000
O O5 0.376661 0.821087 0.176102
O O6 0.490544 0.733646 0.072762
O O7 0.229768 0.763440 0.109230
O O8 0.272604 0.704371 0.719266
O O9 0.000000 0.681429 0.750000
O O10 0.128966 0.937693 0.763664
O O11 0.669522 0.508470 0.053827
O O12 0.500000 0.500000 0.000000
O O13 0.500000 0.688069 0.750000
O O14 0.509359 0.602574 0.852845
#
# Coordination Sequence:
#
# PCOD8152342 Si02
#       6
#     8   8   8   8   8   8
#     4   9  22  39  62  95 131 163 216 262 319 387
#     4  11  22  42  66  96 128 172 216 266 327 396
#     4  11  26  43  67  97 134 168 223 274 327 398
#     4   9  20  41  61  93 130 166 215 265 319 383
#     4  11  24  44  66  97 129 173 218 275 328 391
#     4  11  22  40  70  91 132 174 213 266 333 389
#
# _framework density 22.91235
#
# number of rings (size 3 to 8) (size 9 to 14) (size 15 to 20)
#    0.000    1.667    3.333    0.000    2.333    8.667 
#    0.000    3.333    0.000    0.000    0.000    0.000 
#    0.000    0.000    0.000    0.000    0.000    0.000 
#
# Total GULP energy -297385.274937 kJ/mol
# GULP energy per Si atom -12391.053122 kJ/mol
# Density = 2.286020 g / cm^3
# Si number density = 22.912350 Si / 1000 Ang^3
#
#
#
# Elastic Constant Matrix: (Units=GPa)
#
#
# Indices 1 2 3 4 5 6 
#
# 1 91.7423 12.3323 8.1121 0.0000 26.6548 0.0000
# 2 12.3323 81.3889 21.9234 0.0000 13.6815 0.0000
# 3 8.1121 21.9234 73.3720 0.0000 19.0049 0.0000
# 4 0.0000 0.0000 0.0000 37.0551 0.0000 0.0188
# 5 26.6548 13.6815 19.0049 0.0000 41.1897 0.0000
# 6 0.0000 0.0000 0.0000 0.0188 0.0000 25.0985
#
#
#
# Elastic Compliance Matrix: (Units=1/GPa)
#
#
# Indices 1 2 3 4 5 6 
#
# 1 0.013523 -0.000831 0.001077 0.000000 -0.008972 0.000000
# 2 -0.000831 0.013736 -0.003373 0.000000 -0.002468 0.000000
# 3 0.001077 -0.003373 0.016364 0.000000 -0.007127 0.000000
# 4 0.000000 0.000000 0.000000 0.026987 0.000000 -0.000020
# 5 -0.008972 -0.002468 -0.007127 0.000000 0.034192 0.000000
# 6 0.000000 0.000000 0.000000 -0.000020 0.000000 0.039843
#
#
# Mechanical properties :
#
#
# Convention : Reuss Voigt Hill
#
# Bulk Modulus (GPa) = 26.75970 36.80431 31.78200
# Shear Modulus (GPa) = 30.60798 34.27769 32.44283
#
# Velocity S-wave (km/s) = 3.65892 3.87206 3.76700
# Velocity P-wave (km/s) = 5.43643 6.00736 5.72901
#
# Compressibility (1/GPa) = 0.03736963
#
# Stress axis : x y z
#
# Youngs Moduli (GPa) = 73.94618 72.80066 61.10976
#
# Poissons Ratio (x) = 0.06050 -0.06582
# Poissons Ratio (y) = 0.06145 0.20613
# Poissons Ratio (z) = -0.07965 0.24556
#
# Static dielectric constant tensor:
#      x y z
#    x 4.124990 0.000000 0.360640 
#    y 0.000000 4.534880 0.000000 
#    z 0.360640 0.000000 3.964740 
# 
# 
# High freq. dielectric constant tensor:
#      x y z
#    x 1.900800 0.000000 0.019900 
#    y 0.000000 1.914330 0.000000 
#    z 0.019900 0.000000 1.911100 
# 
# From -- ./inp_files/268017.got.cif
#   From: 2010.06.25/outbox.cif.g09.slc.cpg/sg15_135_cif.got.tgz:268017.got - 2010.06.28 07:06:18.
