data_PCOD8152902
_publ_section_title
;
Structure prediction by ZEFSAII (Michael W. Deem and Ramdas Pophale) SiO2 
 PCOD8152902
Probable space group: C 2/C
;
_chemical_formula_sum "Si O2"
_cell_formula_units_Z 64
_cell_length_a 11.320148
_cell_length_b 30.106736
_cell_length_c 12.724924
_cell_angle_alpha 90.000000
_cell_angle_beta 45.706755
_cell_angle_gamma 90.000000
_cell_volume 3104.184631
_symmetry_space_group_name_H-M "C 2/C"
_symmetry_group_IT_number 15
_symmetry_cell_setting 'monoclinic'
loop_
_space_group_symop_operation_xyz
x,y,z
-x,y,1/2-z
-x,-y,-z
x,-y,1/2+z
1/2+x,1/2+y,z
1/2-x,1/2+y,1/2-z
1/2-x,1/2-y,-z
1/2+x,1/2-y,1/2+z
loop_
_atom_site_type_symbol
_atom_site_label
_atom_site_fract_x
_atom_site_fract_y
_atom_site_fract_z
Si Si1 0.839259 0.710979 0.673391
Si Si2 0.331129 0.317907 0.417330
Si Si3 0.343987 0.584684 0.921754
Si Si4 0.577751 0.452825 0.434028
Si Si5 0.397748 0.378029 0.916626
Si Si6 0.490003 0.293760 0.993881
Si Si7 0.614532 0.042773 0.912843
Si Si8 0.033102 0.623080 0.612043
O O1 0.796765 0.709423 0.574906
O O2 0.961584 0.752885 0.613060
O O3 0.918199 0.665083 0.660749
O O4 0.680271 0.718426 0.844054
O O5 0.500000 0.322570 0.250000
O O6 0.258919 0.367215 0.477203
O O7 0.362650 0.296930 0.511853
O O8 0.500000 0.581932 0.750000
O O9 0.421548 0.574122 0.985700
O O10 0.201417 0.550949 0.971795
O O11 0.500000 0.500000 0.500000
O O12 0.626860 0.424582 0.506228
O O13 0.740603 0.460797 0.263312
O O14 0.500000 0.388758 0.750000
O O15 0.479710 0.339542 0.936169
O O16 0.221002 0.361075 0.986010
O O17 0.500753 0.084147 0.950408
O O18 0.500000 0.000000 0.000000
O O19 0.000000 0.605329 0.750000
#
# Coordination Sequence:
#
# PCOD8152902 Si02
#       8
#     8   8   8   8   8   8   8   8
#     4  11  23  40  68  98 131 172 217 272 333 393
#     4   9  17  37  66  93 125 166 214 264 327 384
#     4   9  18  37  67  92 120 165 213 258 320 386
#     4  11  24  43  67  96 132 170 217 269 323 391
#     4  12  28  45  68  92 133 181 222 269 324 394
#     4  11  23  42  66  98 130 171 221 273 328 393
#     4  11  24  41  69 100 129 167 215 271 328 392
#     4  12  24  45  67  93 133 178 218 265 331 391
#
# _framework density 20.617331
#
# number of rings (size 3 to 8) (size 9 to 14) (size 15 to 20)
#    0.000    1.250    5.000    0.375    5.250    1.500 
#    0.000    0.000    0.000    3.000    0.000    0.000 
#    0.000    0.000    0.000    0.000    0.000    0.000 
#
# Total GULP energy -396638.986780 kJ/mol
# GULP energy per Si atom -12394.968337 kJ/mol
# Density = 2.057040 g / cm^3
# Si number density = 20.617331 Si / 1000 Ang^3
#
#
#
# Elastic Constant Matrix: (Units=GPa)
#
#
# Indices 1 2 3 4 5 6 
#
# 1 93.1535 29.3578 38.4880 0.0000 -8.3328 0.0000
# 2 29.3578 138.2304 42.7802 0.0000 -7.4128 0.0000
# 3 38.4880 42.7802 90.2850 0.0000 -0.2923 0.0000
# 4 0.0000 0.0000 0.0000 33.4825 0.0000 -9.5171
# 5 -8.3328 -7.4128 -0.2923 0.0000 24.9607 0.0000
# 6 0.0000 0.0000 0.0000 -9.5171 0.0000 24.2053
#
#
#
# Elastic Compliance Matrix: (Units=1/GPa)
#
#
# Indices 1 2 3 4 5 6 
#
# 1 0.013626 -0.001027 -0.005309 0.000000 0.004182 0.000000
# 2 -0.001027 0.008710 -0.003682 0.000000 0.002201 0.000000
# 3 -0.005309 -0.003682 0.015075 0.000000 -0.002689 0.000000
# 4 0.000000 0.000000 0.000000 0.033624 0.000000 0.013220
# 5 0.004182 0.002201 -0.002689 0.000000 0.042081 0.000000
# 6 0.000000 0.000000 0.000000 0.013220 0.000000 0.046511
#
#
# Mechanical properties :
#
#
# Convention : Reuss Voigt Hill
#
# Bulk Modulus (GPa) = 57.55120 60.32452 58.93786
# Shear Modulus (GPa) = 26.96074 30.59924 28.77999
#
# Velocity S-wave (km/s) = 3.62010 3.85665 3.74024
# Velocity P-wave (km/s) = 6.74152 7.01101 6.87759
#
# Compressibility (1/GPa) = 0.01737583
#
# Stress axis : x y z
#
# Youngs Moduli (GPa) = 73.38926 114.81072 66.33428
#
# Poissons Ratio (x) = 0.11788 0.35214
# Poissons Ratio (y) = 0.07535 0.24426
# Poissons Ratio (z) = 0.38960 0.42277
#
# Static dielectric constant tensor:
#      x y z
#    x 4.285140 0.000000 -0.389870 
#    y 0.000000 3.858930 0.000000 
#    z -0.389870 0.000000 3.920080 
# 
# 
# High freq. dielectric constant tensor:
#      x y z
#    x 1.820740 0.000000 -0.006070 
#    y 0.000000 1.813950 0.000000 
#    z -0.006070 0.000000 1.779850 
# 
# From -- ./inp_files/148741.got.cif
#   From: 2010.06.25/outbox.cif.g09.slc.cpg/sg15_75_cif.got.tgz:148741.got - 2010.06.28 07:06:18.
