data_PCOD8152255
_publ_section_title
;
Structure prediction by ZEFSAII (Michael W. Deem and Ramdas Pophale) SiO2 
 PCOD8152255
Probable space group: C 2/C
;
_chemical_formula_sum "Si O2"
_cell_formula_units_Z 56
_cell_length_a 19.469036
_cell_length_b 16.483173
_cell_length_c 8.875289
_cell_angle_alpha 90.000000
_cell_angle_beta 110.596820
_cell_angle_gamma 90.000000
_cell_volume 2666.123726
_symmetry_space_group_name_H-M "C 2/C"
_symmetry_group_IT_number 15
_symmetry_cell_setting 'monoclinic'
loop_
_space_group_symop_operation_xyz
x,y,z
-x,y,1/2-z
-x,-y,-z
x,-y,1/2+z
1/2+x,1/2+y,z
1/2-x,1/2+y,1/2-z
1/2-x,1/2-y,-z
1/2+x,1/2-y,1/2+z
loop_
_atom_site_type_symbol
_atom_site_label
_atom_site_fract_x
_atom_site_fract_y
_atom_site_fract_z
Si Si1 0.742357 0.770093 0.319161
Si Si2 0.618709 0.161377 0.530644
Si Si3 0.794492 0.061662 0.911217
Si Si4 0.857510 0.665196 0.295188
Si Si5 0.964133 0.072110 0.063351
Si Si6 0.802516 0.488238 0.886938
Si Si7 0.483521 0.244690 0.560855
O O1 0.750000 0.750000 0.500000
O O2 0.662187 0.782513 0.184382
O O3 0.789062 0.850847 0.329622
O O4 0.774283 0.696150 0.247525
O O5 0.619919 0.186582 0.356959
O O6 0.535569 0.180971 0.512875
O O7 0.647823 0.068999 0.557933
O O8 0.772992 0.999368 0.763670
O O9 0.878261 0.051512 0.025001
O O10 0.729330 0.050428 0.984532
O O11 0.857804 0.570597 0.339233
O O12 0.903343 0.712490 0.457780
O O13 0.000000 0.070249 0.250000
O O14 0.983457 0.160651 0.006529
O O15 0.000000 0.000000 0.000000
O O16 0.500000 0.238461 0.750000
#
# Coordination Sequence:
#
# PCOD8152255 Si02
#       7
#     8   8   8   8   8   8   8
#     4  11  22  39  70  95 131 179 228 287 335 404
#     4  11  26  43  64 105 139 181 229 288 348 415
#     4  11  22  43  65  99 134 174 231 283 340 409
#     4  12  23  44  68  99 138 181 230 291 347 413
#     4  11  25  44  68 100 135 181 225 278 347 410
#     4  11  24  41  70  99 136 176 232 286 346 405
#     4  11  26  45  70  99 140 185 231 278 350 422
#
# _framework density 21.004276999999998
#
# number of rings (size 3 to 8) (size 9 to 14) (size 15 to 20)
#    0.000    0.857    4.286    2.571    4.000    2.857 
#    5.143    0.000    0.000    0.000    0.000    0.000 
#    0.000    0.000    0.000    0.000    0.000    0.000 
#
# Total GULP energy -346875.904461 kJ/mol
# GULP energy per Si atom -12388.425159 kJ/mol
# Density = 2.095647 g / cm^3
# Si number density = 21.004277 Si / 1000 Ang^3
#
#
#
# Elastic Constant Matrix: (Units=GPa)
#
#
# Indices 1 2 3 4 5 6 
#
# 1 82.4053 40.9723 7.1611 0.0000 -5.0688 0.0000
# 2 40.9723 117.7210 33.2767 0.0000 3.7350 0.0000
# 3 7.1611 33.2767 93.6347 0.0000 3.5452 0.0000
# 4 0.0000 0.0000 0.0000 32.4717 0.0000 -0.8421
# 5 -5.0688 3.7350 3.5452 0.0000 39.0974 0.0000
# 6 0.0000 0.0000 0.0000 -0.8421 0.0000 34.7428
#
#
#
# Elastic Compliance Matrix: (Units=1/GPa)
#
#
# Indices 1 2 3 4 5 6 
#
# 1 0.014945 -0.005479 0.000714 0.000000 0.002396 0.000000
# 2 -0.005479 0.011466 -0.003600 0.000000 -0.001479 0.000000
# 3 0.000714 -0.003600 0.011929 0.000000 -0.000645 0.000000
# 4 0.000000 0.000000 0.000000 0.030815 0.000000 0.000747
# 5 0.002396 -0.001479 -0.000645 0.000000 0.026088 0.000000
# 6 0.000000 0.000000 0.000000 0.000747 0.000000 0.028801
#
#
# Mechanical properties :
#
#
# Convention : Reuss Voigt Hill
#
# Bulk Modulus (GPa) = 46.27714 50.73122 48.50418
# Shear Modulus (GPa) = 33.78874 35.41910 34.60392
#
# Velocity S-wave (km/s) = 4.01516 4.11089 4.06331
# Velocity P-wave (km/s) = 6.60117 6.83650 6.71987
#
# Compressibility (1/GPa) = 0.02160894
#
# Stress axis : x y z
#
# Youngs Moduli (GPa) = 66.91279 87.21274 83.82914
#
# Poissons Ratio (x) = 0.47786 -0.05982
# Poissons Ratio (y) = 0.36663 0.30178
# Poissons Ratio (z) = -0.04775 0.31396
#
# Static dielectric constant tensor:
#      x y z
#    x 4.394900 0.000000 0.035300 
#    y 0.000000 4.141480 0.000000 
#    z 0.035300 0.000000 3.964060 
# 
# 
# High freq. dielectric constant tensor:
#      x y z
#    x 1.812890 0.000000 0.007620 
#    y 0.000000 1.834100 0.000000 
#    z 0.007620 0.000000 1.837760 
# 
# From -- ./inp_files/49149.got.cif
#   From: 2010.06.25/outbox.cif.g09.slc.cpg/sg15_25_cif.got.tgz:49149.got - 2010.06.28 07:06:18.
