data_PCOD8152405
_publ_section_title
;
Structure prediction by ZEFSAII (Michael W. Deem and Ramdas Pophale) SiO2 
 PCOD8152405
Probable space group: C 2/C
;
_chemical_formula_sum "Si O2"
_cell_formula_units_Z 48
_cell_length_a 23.144270
_cell_length_b 9.672774
_cell_length_c 13.313001
_cell_angle_alpha 90.000000
_cell_angle_beta 44.229235
_cell_angle_gamma 90.000000
_cell_volume 2078.901392
_symmetry_space_group_name_H-M "C 2/C"
_symmetry_group_IT_number 15
_symmetry_cell_setting 'monoclinic'
loop_
_space_group_symop_operation_xyz
x,y,z
-x,y,1/2-z
-x,-y,-z
x,-y,1/2+z
1/2+x,1/2+y,z
1/2-x,1/2+y,1/2-z
1/2-x,1/2-y,-z
1/2+x,1/2-y,1/2+z
loop_
_atom_site_type_symbol
_atom_site_label
_atom_site_fract_x
_atom_site_fract_y
_atom_site_fract_z
Si Si1 0.872897 0.489997 0.934283
Si Si2 0.081872 0.553994 0.841565
Si Si3 0.679645 0.158611 0.329152
Si Si4 0.316747 0.604362 0.834770
Si Si5 0.085425 0.807379 0.099502
Si Si6 0.864279 0.849292 0.670289
O O1 0.922530 0.522183 0.771235
O O2 0.916355 0.355135 0.929885
O O3 0.879161 0.624921 0.999894
O O4 0.777520 0.443751 0.039257
O O5 0.165031 0.478276 0.779263
O O6 0.090340 0.717483 0.840736
O O7 0.000000 0.500000 0.000000
O O8 0.660004 0.291227 0.285298
O O9 0.769698 0.180796 0.260877
O O10 0.340900 0.668651 0.912052
O O11 0.372871 0.470535 0.740980
O O12 0.000000 0.858945 0.250000
O O13 0.096081 0.895611 0.985155
#
# Coordination Sequence:
#
# PCOD8152405 Si02
#       6
#     8   8   8   8   8   8
#     4  11  23  41  73  94 136 180 233 280 346 413
#     4  12  25  43  70 102 136 180 235 286 342 418
#     4  11  22  41  68 102 128 180 230 282 334 418
#     4  11  24  42  70  98 135 178 229 286 343 411
#     4  12  23  41  66  95 134 184 226 276 355 412
#     4  11  24  43  66  98 137 173 230 286 344 413
#
# _framework density 23.089117000000002
#
# number of rings (size 3 to 8) (size 9 to 14) (size 15 to 20)
#    0.000    0.667    5.000    3.500    0.000    4.667 
#    0.000    0.000    0.000    0.000    0.000    0.000 
#    0.000    0.000    0.000    0.000    0.000    0.000 
#
# Total GULP energy -297422.256671 kJ/mol
# GULP energy per Si atom -12392.594028 kJ/mol
# Density = 2.303657 g / cm^3
# Si number density = 23.089117 Si / 1000 Ang^3
#
#
#
# Elastic Constant Matrix: (Units=GPa)
#
#
# Indices 1 2 3 4 5 6 
#
# 1 26.8540 4.9891 -5.0698 0.0000 6.9428 0.0000
# 2 4.9891 118.6575 35.1835 -0.0005 5.9086 0.0004
# 3 -5.0698 35.1835 126.0112 -0.0002 26.0560 0.0002
# 4 0.0000 -0.0005 -0.0002 34.2936 0.0001 0.8842
# 5 6.9428 5.9086 26.0560 0.0001 29.7535 -0.0001
# 6 0.0000 0.0004 0.0002 0.8842 -0.0001 30.8312
#
#
#
# Elastic Compliance Matrix: (Units=1/GPa)
#
#
# Indices 1 2 3 4 5 6 
#
# 1 0.042378 -0.002670 0.005355 0.000000 -0.014048 0.000000
# 2 -0.002670 0.009363 -0.003011 0.000000 0.001401 0.000000
# 3 0.005355 -0.003011 0.011145 0.000000 -0.010412 0.000000
# 4 0.000000 0.000000 0.000000 0.029182 0.000000 -0.000837
# 5 -0.014048 0.001401 -0.010412 0.000000 0.045727 0.000000
# 6 0.000000 0.000000 0.000000 -0.000837 0.000000 0.032459
#
#
# Mechanical properties :
#
#
# Convention : Reuss Voigt Hill
#
# Bulk Modulus (GPa) = 16.06861 37.96979 27.01920
# Shear Modulus (GPa) = 26.08928 34.73699 30.41314
#
# Velocity S-wave (km/s) = 3.36510 3.88296 3.63327
# Velocity P-wave (km/s) = 4.69820 6.04845 5.41557
#
# Compressibility (1/GPa) = 0.06223313
#
# Stress axis : x y z
#
# Youngs Moduli (GPa) = 23.59737 106.80295 89.72703
#
# Poissons Ratio (x) = 0.28519 -0.48052
# Poissons Ratio (y) = 0.06301 0.27020
# Poissons Ratio (z) = -0.12637 0.32162
#
# Static dielectric constant tensor:
#      x y z
#    x 4.207500 0.000000 0.198760 
#    y 0.000000 4.265440 0.000000 
#    z 0.198760 0.000000 4.537260 
# 
# 
# High freq. dielectric constant tensor:
#      x y z
#    x 1.910910 0.000000 0.012280 
#    y 0.000000 1.898830 0.000000 
#    z 0.012280 0.000000 1.924130 
# 
# From -- ./inp_files/176911.got.cif
#   From: 2010.06.25/outbox.cif.g09.slc.cpg/sg15_89_cif.got.tgz:176911.got - 2010.06.28 07:06:18.
