data_PCOD8152569
_publ_section_title
;
Structure prediction by ZEFSAII (Michael W. Deem and Ramdas Pophale) SiO2 
 PCOD8152569
Probable space group: C 2/C
;
_chemical_formula_sum "Si O2"
_cell_formula_units_Z 52
_cell_length_a 18.668501
_cell_length_b 13.366962
_cell_length_c 19.585613
_cell_angle_alpha 90.000000
_cell_angle_beta 30.504686
_cell_angle_gamma 90.000000
_cell_volume 2480.895654
_symmetry_space_group_name_H-M "C 2/C"
_symmetry_group_IT_number 15
_symmetry_cell_setting 'monoclinic'
loop_
_space_group_symop_operation_xyz
x,y,z
-x,y,1/2-z
-x,-y,-z
x,-y,1/2+z
1/2+x,1/2+y,z
1/2-x,1/2+y,1/2-z
1/2-x,1/2-y,-z
1/2+x,1/2-y,1/2+z
loop_
_atom_site_type_symbol
_atom_site_label
_atom_site_fract_x
_atom_site_fract_y
_atom_site_fract_z
Si Si1 0.245265 0.841431 0.699499
Si Si2 0.053887 0.736975 0.962406
Si Si3 0.758123 0.563414 0.661319
Si Si4 0.661157 0.328878 0.613816
Si Si5 0.261037 0.545315 0.978609
Si Si6 0.520434 0.684079 0.630956
Si Si7 0.500000 0.856247 0.750000
O O1 0.110263 0.804014 0.853546
O O2 0.384837 0.777360 0.602495
O O3 0.220185 0.830148 0.640675
O O4 0.260923 0.959604 0.700636
O O5 0.125598 0.629070 0.895775
O O6 0.102950 0.787398 0.993573
O O7 0.798304 0.553191 0.549019
O O8 0.605226 0.613505 0.790303
O O9 0.500000 0.295284 0.750000
O O10 0.750000 0.250000 0.500000
O O11 0.675191 0.434946 0.562893
O O12 0.382058 0.626516 0.894535
O O13 0.132412 0.569448 0.134527
O O14 0.472749 0.787134 0.705993
#
# Coordination Sequence:
#
# PCOD8152569 Si02
#       7
#     8   8   8   8   8   8   4
#     4  11  26  44  67  95 134 177 223 271 344 402
#     4  12  24  44  64  99 136 181 215 275 337 414
#     4  11  22  43  66  91 136 179 224 274 335 396
#     4  11  25  49  75  96 131 178 235 292 333 389
#     4  11  23  39  67 101 136 175 229 286 344 391
#     4  12  22  39  69 100 137 174 224 281 347 399
#     4  12  22  36  66 106 134 176 224 280 340 414
#
# _framework density 20.960173000000001
#
# number of rings (size 3 to 8) (size 9 to 14) (size 15 to 20)
#    0.000    0.615    4.615    4.615    1.077    0.615 
#    2.769    0.000    0.000    0.000    0.000    0.000 
#    0.000    0.000    0.000    0.000    0.000    0.000 
#
# Total GULP energy -322463.655036 kJ/mol
# GULP energy per Si atom -12402.448271 kJ/mol
# Density = 2.091247 g / cm^3
# Si number density = 20.960173 Si / 1000 Ang^3
#
#
#
# Elastic Constant Matrix: (Units=GPa)
#
#
# Indices 1 2 3 4 5 6 
#
# 1 55.9339 27.6289 18.6613 -0.0009 3.0985 0.0000
# 2 27.6289 114.3691 60.8487 -0.0009 14.8774 0.0005
# 3 18.6613 60.8487 132.9120 -0.0030 -0.9143 0.0004
# 4 -0.0009 -0.0009 -0.0030 21.2909 0.0011 -9.6547
# 5 3.0985 14.8774 -0.9143 0.0011 38.6320 -0.0001
# 6 0.0000 0.0005 0.0004 -9.6547 -0.0001 28.5363
#
#
#
# Elastic Compliance Matrix: (Units=1/GPa)
#
#
# Indices 1 2 3 4 5 6 
#
# 1 0.020366 -0.004508 -0.000795 0.000001 0.000084 0.000000
# 2 -0.004508 0.013427 -0.005548 0.000000 -0.004941 0.000000
# 3 -0.000795 -0.005548 0.010192 0.000001 0.002442 0.000000
# 4 0.000001 0.000000 0.000001 0.055480 -0.000001 0.018771
# 5 0.000084 -0.004941 0.002442 -0.000001 0.027839 0.000000
# 6 0.000000 0.000000 0.000000 0.018771 0.000000 0.041394
#
#
# Mechanical properties :
#
#
# Convention : Reuss Voigt Hill
#
# Bulk Modulus (GPa) = 44.87757 57.49920 51.18838
# Shear Modulus (GPa) = 25.27454 30.76358 28.01906
#
# Velocity S-wave (km/s) = 3.47628 3.83523 3.66016
# Velocity P-wave (km/s) = 6.12944 6.86325 6.50670
#
# Compressibility (1/GPa) = 0.02228285
#
# Stress axis : x y z
#
# Youngs Moduli (GPa) = 49.10264 74.47627 98.11393
#
# Poissons Ratio (x) = 0.33571 0.07801
# Poissons Ratio (y) = 0.22134 0.54435
# Poissons Ratio (z) = 0.03904 0.41321
#
# Static dielectric constant tensor:
#      x y z
#    x 3.733990 0.000000 -0.021780 
#    y 0.000000 4.221570 0.000000 
#    z -0.021780 0.000000 3.799360 
# 
# 
# High freq. dielectric constant tensor:
#      x y z
#    x 1.814220 0.000000 -0.000750 
#    y 0.000000 1.826270 0.000000 
#    z -0.000750 0.000000 1.828350 
# 
# From -- ./inp_files/70206.got.cif
#   From: 2010.06.25/outbox.cif.g09.slc.cpg/sg15_36_cif.got.tgz:70206.got - 2010.06.28 07:06:18.
