data_PCOD8152578
_publ_section_title
;
Structure prediction by ZEFSAII (Michael W. Deem and Ramdas Pophale) SiO2 
 PCOD8152578
Probable space group: C 2/C
;
_chemical_formula_sum "Si O2"
_cell_formula_units_Z 48
_cell_length_a 24.810704
_cell_length_b 7.402029
_cell_length_c 10.394289
_cell_angle_alpha 90.000000
_cell_angle_beta 89.228934
_cell_angle_gamma 90.000000
_cell_volume 1908.733646
_symmetry_space_group_name_H-M "C 2/C"
_symmetry_group_IT_number 15
_symmetry_cell_setting 'monoclinic'
loop_
_space_group_symop_operation_xyz
x,y,z
-x,y,1/2-z
-x,-y,-z
x,-y,1/2+z
1/2+x,1/2+y,z
1/2-x,1/2+y,1/2-z
1/2-x,1/2-y,-z
1/2+x,1/2-y,1/2+z
loop_
_atom_site_type_symbol
_atom_site_label
_atom_site_fract_x
_atom_site_fract_y
_atom_site_fract_z
Si Si1 0.020039 0.698685 0.957399
Si Si2 0.334327 0.034861 0.411401
Si Si3 0.453853 0.504016 0.848402
Si Si4 0.129505 0.350323 0.338248
Si Si5 0.159776 0.086454 0.688414
Si Si6 0.207781 0.966178 0.927588
O O1 0.064675 0.685344 0.841150
O O2 0.050908 0.818727 0.062194
O O3 0.968094 0.815529 0.917698
O O4 0.000000 0.500000 0.000000
O O5 0.359821 0.992485 0.552296
O O6 0.359440 0.218740 0.356311
O O7 0.270714 0.072487 0.422622
O O8 0.351768 0.885623 0.307834
O O9 0.500000 0.559414 0.750000
O O10 0.395594 0.474112 0.782100
O O11 0.170680 0.199334 0.386466
O O12 0.192373 0.978138 0.574294
O O13 0.194533 0.114353 0.817992
#
# Coordination Sequence:
#
# PCOD8152578 Si02
#       6
#     8   8   8   8   8   8
#     4  11  26  45  70 103 144 187 244 305 364 432
#     4  11  23  42  68  99 139 182 231 295 360 425
#     4  11  25  45  70 102 142 191 243 298 368 437
#     4  11  24  44  65 103 140 179 240 294 360 428
#     4  11  24  43  69  98 138 185 236 289 360 430
#     4  11  22  43  67  98 137 182 232 294 356 430
#
# _framework density 25.147562000000001
#
# number of rings (size 3 to 8) (size 9 to 14) (size 15 to 20)
#    0.000    1.000    3.333    5.000    4.667    4.667 
#    0.000    3.333    0.000    0.000    0.000    0.000 
#    0.000    0.000    0.000    0.000    0.000    0.000 
#
# Total GULP energy -297361.335690 kJ/mol
# GULP energy per Si atom -12390.055654 kJ/mol
# Density = 2.509033 g / cm^3
# Si number density = 25.147562 Si / 1000 Ang^3
#
#
#
# Elastic Constant Matrix: (Units=GPa)
#
#
# Indices 1 2 3 4 5 6 
#
# 1 131.8586 24.8940 -21.5291 0.0000 -12.8950 0.0000
# 2 24.8940 83.8074 4.4563 0.0000 -8.8194 0.0000
# 3 -21.5291 4.4563 49.9316 0.0000 -14.3882 0.0000
# 4 0.0000 0.0000 0.0000 24.2357 0.0000 -8.9109
# 5 -12.8950 -8.8194 -14.3882 0.0000 51.9633 0.0000
# 6 0.0000 0.0000 0.0000 -8.9109 0.0000 25.6443
#
#
#
# Elastic Compliance Matrix: (Units=1/GPa)
#
#
# Indices 1 2 3 4 5 6 
#
# 1 0.009255 -0.002679 0.005173 0.000000 0.003274 0.000000
# 2 -0.002679 0.012938 -0.002031 0.000000 0.000969 0.000000
# 3 0.005173 -0.002031 0.024679 0.000000 0.007772 0.000000
# 4 0.000000 0.000000 0.000000 0.047305 0.000000 0.016438
# 5 0.003274 0.000969 0.007772 0.000000 0.022373 0.000000
# 6 0.000000 0.000000 0.000000 0.016438 0.000000 0.044707
#
#
# Mechanical properties :
#
#
# Convention : Reuss Voigt Hill
#
# Bulk Modulus (GPa) = 20.92215 31.24890 26.08552
# Shear Modulus (GPa) = 28.36663 37.55374 32.96018
#
# Velocity S-wave (km/s) = 3.36223 3.86856 3.62425
# Velocity P-wave (km/s) = 4.83845 5.69276 5.28290
#
# Compressibility (1/GPa) = 0.04779624
#
# Stress axis : x y z
#
# Youngs Moduli (GPa) = 108.05523 77.29201 40.52083
#
# Poissons Ratio (x) = 0.20710 -0.20961
# Poissons Ratio (y) = 0.28953 0.08229
# Poissons Ratio (z) = -0.55896 0.15697
#
# Static dielectric constant tensor:
#      x y z
#    x 4.627430 0.000000 0.093190 
#    y 0.000000 4.280640 0.000000 
#    z 0.093190 0.000000 6.190130 
# 
# 
# High freq. dielectric constant tensor:
#      x y z
#    x 2.020870 0.000000 0.001920 
#    y 0.000000 1.982760 0.000000 
#    z 0.001920 0.000000 2.017100 
# 
# From -- ./inp_files/116471.got.cif
#   From: 2010.06.25/outbox.cif.g09.slc.cpg/sg15_59_cif.got.tgz:116471.got - 2010.06.28 07:06:18.
