data_PCOD8152585
_publ_section_title
;
Structure prediction by ZEFSAII (Michael W. Deem and Ramdas Pophale) SiO2 
 PCOD8152585
Probable space group: C 2/C
;
_chemical_formula_sum "Si O2"
_cell_formula_units_Z 56
_cell_length_a 23.653471
_cell_length_b 6.663689
_cell_length_c 17.634549
_cell_angle_alpha 90.000000
_cell_angle_beta 70.676441
_cell_angle_gamma 90.000000
_cell_volume 2622.960744
_symmetry_space_group_name_H-M "C 2/C"
_symmetry_group_IT_number 15
_symmetry_cell_setting 'monoclinic'
loop_
_space_group_symop_operation_xyz
x,y,z
-x,y,1/2-z
-x,-y,-z
x,-y,1/2+z
1/2+x,1/2+y,z
1/2-x,1/2+y,1/2-z
1/2-x,1/2-y,-z
1/2+x,1/2-y,1/2+z
loop_
_atom_site_type_symbol
_atom_site_label
_atom_site_fract_x
_atom_site_fract_y
_atom_site_fract_z
Si Si1 0.852882 0.512279 0.618723
Si Si2 0.568396 0.727279 0.009750
Si Si3 0.759310 0.115618 0.922475
Si Si4 0.140757 0.792848 0.627457
Si Si5 0.563401 0.587879 0.758126
Si Si6 0.164586 0.601993 0.208933
Si Si7 0.561810 0.366752 0.912806
O O1 0.905777 0.365594 0.568503
O O2 0.803964 0.523948 0.574221
O O3 0.820928 0.436913 0.709434
O O4 0.880881 0.728096 0.625354
O O5 0.605126 0.773895 0.069004
O O6 0.497789 0.770885 0.054063
O O7 0.573247 0.492257 0.984851
O O8 0.783836 0.250109 0.842837
O O9 0.804068 0.933782 0.921406
O O10 0.750000 0.250000 0.000000
O O11 0.166106 0.597728 0.658116
O O12 0.095050 0.903002 0.703045
O O13 0.500000 0.634269 0.750000
O O14 0.599929 0.793301 0.731581
O O15 0.555129 0.528439 0.848953
#
# Coordination Sequence:
#
# PCOD8152585 Si02
#       7
#     8   8   8   8   8   8   8
#     4  12  25  42  69  98 135 177 223 279 331 402
#     4  11  24  42  69  99 133 176 218 274 335 399
#     4  11  27  47  67  98 135 177 228 283 334 397
#     4  11  24  45  70  98 132 178 228 273 338 400
#     4  11  22  43  68  98 140 175 220 278 335 403
#     4  11  26  42  67 101 130 178 229 271 336 400
#     4  11  23  42  67 101 136 172 219 273 339 399
#
# _framework density 21.349920000000001
#
# number of rings (size 3 to 8) (size 9 to 14) (size 15 to 20)
#    0.000    0.857    4.286    2.143    2.000    6.286 
#    0.000    0.000    0.000    0.000    0.000    0.000 
#    0.000    0.000    0.000    0.000    0.000    0.000 
#
# Total GULP energy -347376.921477 kJ/mol
# GULP energy per Si atom -12406.318624 kJ/mol
# Density = 2.130133 g / cm^3
# Si number density = 21.349920 Si / 1000 Ang^3
#
#
#
# Elastic Constant Matrix: (Units=GPa)
#
#
# Indices 1 2 3 4 5 6 
#
# 1 95.4038 18.6022 15.7194 0.0000 -4.8370 0.0000
# 2 18.6022 71.9266 12.5075 0.0002 -5.9750 0.0000
# 3 15.7194 12.5075 89.4966 0.0001 0.4381 0.0000
# 4 0.0000 0.0002 0.0001 44.1559 0.0000 -0.3532
# 5 -4.8370 -5.9750 0.4381 0.0000 37.3776 0.0000
# 6 0.0000 0.0000 0.0000 -0.3532 0.0000 12.9999
#
#
#
# Elastic Compliance Matrix: (Units=1/GPa)
#
#
# Indices 1 2 3 4 5 6 
#
# 1 0.011303 -0.002550 -0.001634 0.000000 0.001074 0.000000
# 2 -0.002550 0.015025 -0.001662 0.000000 0.002091 0.000000
# 3 -0.001634 -0.001662 0.011696 0.000000 -0.000614 0.000000
# 4 0.000000 0.000000 0.000000 0.022652 0.000000 0.000615
# 5 0.001074 0.002091 -0.000614 0.000000 0.027235 0.000000
# 6 0.000000 0.000000 0.000000 0.000615 0.000000 0.076940
#
#
# Mechanical properties :
#
#
# Convention : Reuss Voigt Hill
#
# Bulk Modulus (GPa) = 37.97723 38.94282 38.46003
# Shear Modulus (GPa) = 26.98037 32.90657 29.94347
#
# Velocity S-wave (km/s) = 3.55874 3.93019 3.74907
# Velocity P-wave (km/s) = 5.89176 6.23499 6.06580
#
# Compressibility (1/GPa) = 0.02633157
#
# Stress axis : x y z
#
# Youngs Moduli (GPa) = 88.47492 66.55452 85.49976
#
# Poissons Ratio (x) = 0.16970 0.13972
# Poissons Ratio (y) = 0.22559 0.14212
# Poissons Ratio (z) = 0.14458 0.11063
#
# Static dielectric constant tensor:
#      x y z
#    x 3.730770 0.000000 -0.115980 
#    y 0.000000 3.821800 0.000000 
#    z -0.115980 0.000000 3.988870 
# 
# 
# High freq. dielectric constant tensor:
#      x y z
#    x 1.837410 0.000000 -0.004080 
#    y 0.000000 1.839490 0.000000 
#    z -0.004080 0.000000 1.853550 
# 
# From -- ./inp_files/221196.got.cif
#   From: 2010.06.25/outbox.cif.g09.slc.cpg/sg15_111_cif.got.tgz:221196.got - 2010.06.28 07:06:18.
