data_PCOD8152909
_publ_section_title
;
Structure prediction by ZEFSAII (Michael W. Deem and Ramdas Pophale) SiO2 
 PCOD8152909
Probable space group: C 2/C
;
_chemical_formula_sum "Si O2"
_cell_formula_units_Z 52
_cell_length_a 10.965443
_cell_length_b 21.427863
_cell_length_c 12.949188
_cell_angle_alpha 90.000000
_cell_angle_beta 53.933422
_cell_angle_gamma 90.000000
_cell_volume 2459.450713
_symmetry_space_group_name_H-M "C 2/C"
_symmetry_group_IT_number 15
_symmetry_cell_setting 'monoclinic'
loop_
_space_group_symop_operation_xyz
x,y,z
-x,y,1/2-z
-x,-y,-z
x,-y,1/2+z
1/2+x,1/2+y,z
1/2-x,1/2+y,1/2-z
1/2-x,1/2-y,-z
1/2+x,1/2-y,1/2+z
loop_
_atom_site_type_symbol
_atom_site_label
_atom_site_fract_x
_atom_site_fract_y
_atom_site_fract_z
Si Si1 0.884247 0.560677 0.897831
Si Si2 0.000000 0.871129 0.750000
Si Si3 0.843387 0.572808 0.386803
Si Si4 0.437665 0.868981 0.043540
Si Si5 0.033691 0.928636 0.952637
Si Si6 0.215604 0.149206 0.838980
Si Si7 0.215660 0.281911 0.909735
O O1 0.794348 0.495846 0.954265
O O2 0.791088 0.621931 0.907907
O O3 0.000000 0.545725 0.750000
O O4 0.955455 0.573501 0.974601
O O5 0.985566 0.915127 0.858027
O O6 0.150528 0.829267 0.687252
O O7 0.859062 0.620892 0.473282
O O8 0.708777 0.591286 0.376999
O O9 0.000000 0.575089 0.250000
O O10 0.306135 0.869159 0.192916
O O11 0.546260 0.809000 0.989225
O O12 0.947836 0.883465 0.077147
O O13 0.000000 0.000000 0.000000
O O14 0.210906 0.223727 0.833915
O O15 0.250000 0.250000 0.000000
#
# Coordination Sequence:
#
# PCOD8152909 Si02
#       7
#     8   4   8   8   8   8   8
#     4   9  18  36  62  98 133 169 218 273 329 408
#     4  12  26  44  74 104 138 188 232 294 358 402
#     4  11  24  43  65  98 140 179 225 279 346 427
#     4  11  23  40  69  94 137 187 220 281 350 401
#     4  12  26  46  69 105 145 178 233 293 350 429
#     4  11  23  42  67 105 135 175 237 287 341 410
#     4  12  22  42  74 102 138 179 239 295 334 408
#
# _framework density 21.142932999999999
#
# number of rings (size 3 to 8) (size 9 to 14) (size 15 to 20)
#    0.000    0.923    4.615    2.308    1.077    1.846 
#    0.000    0.769    3.385    0.000    0.000    0.000 
#    0.000    0.000    0.000    0.000    0.000    0.000 
#
# Total GULP energy -322163.306446 kJ/mol
# GULP energy per Si atom -12390.896402 kJ/mol
# Density = 2.109481 g / cm^3
# Si number density = 21.142933 Si / 1000 Ang^3
#
#
#
# Elastic Constant Matrix: (Units=GPa)
#
#
# Indices 1 2 3 4 5 6 
#
# 1 123.4539 45.3551 49.0810 0.0000 -9.4006 0.0000
# 2 45.3551 124.0759 47.3242 0.0000 1.1624 0.0000
# 3 49.0810 47.3242 102.9785 0.0000 -7.6931 0.0000
# 4 0.0000 0.0000 0.0000 25.8726 0.0000 -1.2408
# 5 -9.4006 1.1624 -7.6931 0.0000 39.8008 0.0000
# 6 0.0000 0.0000 0.0000 -1.2408 0.0000 25.3267
#
#
#
# Elastic Compliance Matrix: (Units=1/GPa)
#
#
# Indices 1 2 3 4 5 6 
#
# 1 0.010661 -0.002460 -0.003812 0.000000 0.001853 0.000000
# 2 -0.002460 0.010394 -0.003724 0.000000 -0.001605 0.000000
# 3 -0.003812 -0.003724 0.013373 0.000000 0.001793 0.000000
# 4 0.000000 0.000000 0.000000 0.038742 0.000000 0.001898
# 5 0.001853 -0.001605 0.001793 0.000000 0.025956 0.000000
# 6 0.000000 0.000000 0.000000 0.001898 0.000000 0.039577
#
#
# Mechanical properties :
#
#
# Convention : Reuss Voigt Hill
#
# Bulk Modulus (GPa) = 69.27419 70.44765 69.86092
# Shear Modulus (GPa) = 30.57962 32.11655 31.34809
#
# Velocity S-wave (km/s) = 3.80719 3.90169 3.85473
# Velocity P-wave (km/s) = 7.22233 7.32732 7.27502
#
# Compressibility (1/GPa) = 0.01443539
#
# Stress axis : x y z
#
# Youngs Moduli (GPa) = 93.80262 96.20591 74.77797
#
# Poissons Ratio (x) = 0.23670 0.28505
# Poissons Ratio (y) = 0.23079 0.27847
# Poissons Ratio (z) = 0.35757 0.35827
#
# Static dielectric constant tensor:
#      x y z
#    x 3.990880 0.000000 -0.110650 
#    y 0.000000 4.318530 0.000000 
#    z -0.110650 0.000000 3.880890 
# 
# 
# High freq. dielectric constant tensor:
#      x y z
#    x 1.818960 0.000000 -0.018080 
#    y 0.000000 1.830780 0.000000 
#    z -0.018080 0.000000 1.828190 
# 
# From -- ./inp_files/89521.got.cif
#   From: 2010.06.25/outbox.cif.g09.slc.cpg/sg15_45_cif.got.tgz:89521.got - 2010.06.28 07:06:18.
