data_PCOD8152542
_publ_section_title
;
Structure prediction by ZEFSAII (Michael W. Deem and Ramdas Pophale) SiO2 
 PCOD8152542
Probable space group: C 2/C
;
_chemical_formula_sum "Si O2"
_cell_formula_units_Z 48
_cell_length_a 18.995906
_cell_length_b 15.775226
_cell_length_c 16.066618
_cell_angle_alpha 90.000000
_cell_angle_beta 153.046591
_cell_angle_gamma 90.000000
_cell_volume 2182.292871
_symmetry_space_group_name_H-M "C 2/C"
_symmetry_group_IT_number 15
_symmetry_cell_setting 'monoclinic'
loop_
_space_group_symop_operation_xyz
x,y,z
-x,y,1/2-z
-x,-y,-z
x,-y,1/2+z
1/2+x,1/2+y,z
1/2-x,1/2+y,1/2-z
1/2-x,1/2-y,-z
1/2+x,1/2-y,1/2+z
loop_
_atom_site_type_symbol
_atom_site_label
_atom_site_fract_x
_atom_site_fract_y
_atom_site_fract_z
Si Si1 0.271681 0.230769 0.221537
Si Si2 0.469357 0.672168 0.814319
Si Si3 0.109469 0.827979 0.001590
Si Si4 0.592340 0.930479 0.546447
Si Si5 0.420639 0.489506 0.829390
Si Si6 0.914587 0.318024 0.246058
O O1 0.327276 0.268152 0.191672
O O2 0.286019 0.308402 0.304846
O O3 0.365165 0.147841 0.349194
O O4 0.098996 0.199002 0.019170
O O5 0.500000 0.691084 0.750000
O O6 0.430352 0.572893 0.782963
O O7 0.226421 0.816909 0.045522
O O8 0.027753 0.917556 0.901148
O O9 0.969081 0.762077 0.857543
O O10 0.741833 0.964882 0.654550
O O11 0.469558 0.904333 0.346801
O O12 0.500000 0.000000 0.500000
O O13 0.500000 0.500000 0.000000
O O14 0.000000 0.310007 0.250000
#
# Coordination Sequence:
#
# PCOD8152542 Si02
#       6
#     8   8   8   8   8   8
#     4  11  22  44  68  96 130 179 229 265 325 409
#     4  12  27  43  68 102 139 176 222 281 344 394
#     4  11  22  42  72  97 133 180 223 271 327 413
#     4  11  24  43  68  96 128 178 227 277 331 403
#     4  12  23  44  69  97 132 172 228 277 331 403
#     4  11  24  40  65 101 137 171 216 276 339 393
#
# _framework density 21.995214000000001
#
# number of rings (size 3 to 8) (size 9 to 14) (size 15 to 20)
#    0.000    0.667    3.333    6.000    2.333    2.000 
#    0.000    0.000    0.000    0.000    0.000    0.000 
#    0.000    0.000    0.000    0.000    0.000    0.000 
#
# Total GULP energy -297461.029502 kJ/mol
# GULP energy per Si atom -12394.209563 kJ/mol
# Density = 2.194515 g / cm^3
# Si number density = 21.995214 Si / 1000 Ang^3
#
#
#
# Elastic Constant Matrix: (Units=GPa)
#
#
# Indices 1 2 3 4 5 6 
#
# 1 101.7761 32.7868 9.9460 0.0020 24.3189 0.0006
# 2 32.7868 111.9961 31.8447 0.0030 19.1886 0.0013
# 3 9.9460 31.8447 56.3159 0.0020 23.9354 0.0011
# 4 0.0020 0.0030 0.0020 24.8719 0.0014 10.4918
# 5 24.3189 19.1886 23.9354 0.0014 45.7508 0.0007
# 6 0.0006 0.0013 0.0011 10.4918 0.0007 38.9197
#
#
#
# Elastic Compliance Matrix: (Units=1/GPa)
#
#
# Indices 1 2 3 4 5 6 
#
# 1 0.012121 -0.003121 0.002323 0.000000 -0.006349 0.000000
# 2 -0.003121 0.011546 -0.005947 -0.000001 -0.000072 0.000000
# 3 0.002323 -0.005947 0.025943 -0.000001 -0.012313 0.000000
# 4 0.000000 -0.000001 -0.000001 0.045365 0.000000 -0.012229
# 5 -0.006349 -0.000072 -0.012313 0.000000 0.031704 0.000000
# 6 0.000000 0.000000 0.000000 -0.012229 0.000000 0.028991
#
#
# Mechanical properties :
#
#
# Convention : Reuss Voigt Hill
#
# Bulk Modulus (GPa) = 27.68620 46.58253 37.13437
# Shear Modulus (GPa) = 27.59390 34.94251 31.26820
#
# Velocity S-wave (km/s) = 3.54579 3.99010 3.77449
# Velocity P-wave (km/s) = 5.42017 6.51555 5.99294
#
# Compressibility (1/GPa) = 0.03611908
#
# Stress axis : x y z
#
# Youngs Moduli (GPa) = 82.50135 86.61120 38.54652
#
# Poissons Ratio (x) = 0.27031 -0.08953
# Poissons Ratio (y) = 0.25749 0.22923
# Poissons Ratio (z) = -0.19162 0.51506
#
# Static dielectric constant tensor:
#      x y z
#    x 3.946920 0.000000 -0.010320 
#    y 0.000000 3.041580 -0.000010 
#    z -0.010320 -0.000010 4.688060 
# 
# 
# High freq. dielectric constant tensor:
#      x y z
#    x 1.871660 0.000000 0.018200 
#    y 0.000000 1.871600 0.000000 
#    z 0.018200 0.000000 1.862200 
# 
# From -- ./inp_files/163319.got.cif
#   From: 2010.06.25/outbox.cif.g09.slc.cpg/sg15_82_cif.got.tgz:163319.got - 2010.06.28 07:06:18.
