data_PCOD8152640
_publ_section_title
;
Structure prediction by ZEFSAII (Michael W. Deem and Ramdas Pophale) SiO2 
 PCOD8152640
Probable space group: C 2/C
;
_chemical_formula_sum "Si O2"
_cell_formula_units_Z 48
_cell_length_a 8.538618
_cell_length_b 18.712302
_cell_length_c 17.859968
_cell_angle_alpha 90.000000
_cell_angle_beta 54.627725
_cell_angle_gamma 90.000000
_cell_volume 2326.861063
_symmetry_space_group_name_H-M "C 2/C"
_symmetry_group_IT_number 15
_symmetry_cell_setting 'monoclinic'
loop_
_space_group_symop_operation_xyz
x,y,z
-x,y,1/2-z
-x,-y,-z
x,-y,1/2+z
1/2+x,1/2+y,z
1/2-x,1/2+y,1/2-z
1/2-x,1/2-y,-z
1/2+x,1/2-y,1/2+z
loop_
_atom_site_type_symbol
_atom_site_label
_atom_site_fract_x
_atom_site_fract_y
_atom_site_fract_z
Si Si1 0.926904 0.162941 0.187543
Si Si2 0.875954 0.898565 0.007515
Si Si3 0.782955 0.937432 0.326648
Si Si4 0.910411 0.433056 0.698747
Si Si5 0.767403 0.944512 0.506538
Si Si6 0.004893 0.674266 0.661393
O O1 0.000000 0.147830 0.250000
O O2 0.705168 0.138536 0.246638
O O3 0.944964 0.245108 0.159477
O O4 0.049965 0.115123 0.096637
O O5 0.721256 0.839010 0.072987
O O6 0.779129 0.976220 0.037976
O O7 0.051991 0.896295 0.017902
O O8 0.750478 0.949201 0.422964
O O9 0.644644 0.874261 0.340509
O O10 0.000000 0.914667 0.250000
O O11 0.736051 0.009366 0.294705
O O12 0.926919 0.410825 0.906009
O O13 0.000000 0.465636 0.750000
O O14 0.000000 0.657050 0.750000
#
# Coordination Sequence:
#
# PCOD8152640 Si02
#       6
#     8   8   8   8   8   8
#     4  11  25  43  68  93 129 179 219 262 321 402
#     4  11  22  44  66  98 131 168 219 267 330 380
#     4  12  25  41  66 100 131 170 220 272 325 384
#     4  12  23  42  67  97 131 169 219 271 324 380
#     4  11  24  39  70 101 129 166 218 277 323 383
#     4  11  25  44  66  92 134 176 215 268 327 384
#
# _framework density 20.628647000000001
#
# number of rings (size 3 to 8) (size 9 to 14) (size 15 to 20)
#    0.000    0.667    3.333    5.000    4.667    0.667 
#    0.000    0.833    0.000    0.000    0.000    0.000 
#    0.000    0.000    0.000    0.000    0.000    0.000 
#
# Total GULP energy -297766.033836 kJ/mol
# GULP energy per Si atom -12406.918076 kJ/mol
# Density = 2.058170 g / cm^3
# Si number density = 20.628647 Si / 1000 Ang^3
#
#
#
# Elastic Constant Matrix: (Units=GPa)
#
#
# Indices 1 2 3 4 5 6 
#
# 1 113.0300 52.6982 52.9406 0.0000 -9.2105 0.0000
# 2 52.6982 101.0651 36.3400 0.0000 -14.6848 0.0000
# 3 52.9406 36.3400 140.1857 0.0000 -14.4628 0.0000
# 4 0.0000 0.0000 0.0000 23.5791 0.0000 3.7621
# 5 -9.2105 -14.6848 -14.4628 0.0000 49.5666 0.0000
# 6 0.0000 0.0000 0.0000 3.7621 0.0000 -6.0939
#
#
#
# Elastic Compliance Matrix: (Units=1/GPa)
#
#
# Indices 1 2 3 4 5 6 
#
# 1 0.013081 -0.005593 -0.003516 0.000000 -0.000252 0.000000
# 2 -0.005593 0.013608 -0.001141 0.000000 0.002659 0.000000
# 3 -0.003516 -0.001141 0.008923 0.000000 0.001612 0.000000
# 4 0.000000 0.000000 0.000000 0.038608 0.000000 0.023835
# 5 -0.000252 0.002659 0.001612 0.000000 0.021386 0.000000
# 6 0.000000 0.000000 0.000000 0.023835 0.000000 -0.149385
#
#
# Mechanical properties :
#
#
# Convention : Reuss Voigt Hill
#
# Bulk Modulus (GPa) = 66.17396 70.91537 68.54467
# Shear Modulus (GPa) = -177.05046 27.56382 -74.74332
#
# Velocity S-wave (km/s) = -9.27436 3.65936 -6.02590
# Velocity P-wave (km/s) = 9.08497 7.23231 3.88783
#
# Compressibility (1/GPa) = 0.01511168
#
# Stress axis : x y z
#
# Youngs Moduli (GPa) = 76.44478 73.48766 112.06538
#
# Poissons Ratio (x) = 0.41104 0.39404
# Poissons Ratio (y) = 0.42758 0.12785
# Poissons Ratio (z) = 0.26880 0.08384
#
# Static dielectric constant tensor:
#      x y z
#    x 4.047620 0.000000 -0.137340 
#    y 0.000000 3.649960 0.000000 
#    z -0.137340 0.000000 3.937340 
# 
# 
# High freq. dielectric constant tensor:
#      x y z
#    x 1.821520 0.000000 -0.001180 
#    y 0.000000 1.788830 0.000000 
#    z -0.001180 0.000000 1.827930 
# 
# From -- ./inp_files/190265.got.cif
#   From: 2010.06.25/outbox.cif.g09.slc.cpg/sg15_96_cif.got.tgz:190265.got - 2010.06.28 07:06:18.
