data_PCOD8152386
_publ_section_title
;
Structure prediction by ZEFSAII (Michael W. Deem and Ramdas Pophale) SiO2 
 PCOD8152386
Probable space group: C 2/C
;
_chemical_formula_sum "Si O2"
_cell_formula_units_Z 44
_cell_length_a 6.626268
_cell_length_b 17.561198
_cell_length_c 18.799915
_cell_angle_alpha 90.000000
_cell_angle_beta 99.366831
_cell_angle_gamma 90.000000
_cell_volume 2158.486943
_symmetry_space_group_name_H-M "C 2/C"
_symmetry_group_IT_number 15
_symmetry_cell_setting 'monoclinic'
loop_
_space_group_symop_operation_xyz
x,y,z
-x,y,1/2-z
-x,-y,-z
x,-y,1/2+z
1/2+x,1/2+y,z
1/2-x,1/2+y,1/2-z
1/2-x,1/2-y,-z
1/2+x,1/2-y,1/2+z
loop_
_atom_site_type_symbol
_atom_site_label
_atom_site_fract_x
_atom_site_fract_y
_atom_site_fract_z
Si Si1 0.185771 0.518025 0.808106
Si Si2 0.991115 0.582821 0.570507
Si Si3 0.116417 0.708762 0.681111
Si Si4 0.831112 0.027418 0.046738
Si Si5 0.081215 0.878289 0.676969
Si Si6 0.500000 0.620332 0.750000
O O1 0.130082 0.523987 0.886789
O O2 0.215695 0.428068 0.798944
O O3 0.388874 0.565855 0.800782
O O4 0.000000 0.549915 0.750000
O O5 0.842942 0.585563 0.493377
O O6 0.999384 0.663040 0.612104
O O7 0.216495 0.549373 0.567088
O O8 0.342790 0.674815 0.700440
O O9 0.000000 0.702789 0.750000
O O10 0.132009 0.794319 0.650430
O O11 0.931047 0.073590 0.117475
O O12 0.000000 0.000000 0.000000
O O13 0.000000 0.863426 0.750000
#
# Coordination Sequence:
#
# PCOD8152386 Si02
#       6
#     8   8   8   8   8   4
#     4  12  21  37  67  95 124 169 219 263 309 383
#     4  11  22  41  67  92 127 168 219 262 317 387
#     4  11  24  41  62 100 133 167 213 266 325 383
#     4  11  24  43  69  93 125 171 223 266 316 381
#     4  11  24  42  65  97 132 167 212 270 325 379
#     4  12  20  38  64  96 126 174 214 258 318 378
#
# _framework density 20.384650000000001
#
# number of rings (size 3 to 8) (size 9 to 14) (size 15 to 20)
#    0.000    0.727    6.364    2.182    1.273    0.727 
#    0.000    0.909    0.000    0.000    0.000    0.000 
#    0.000    0.000    0.000    0.000    0.000    0.000 
#
# Total GULP energy -272675.498739 kJ/mol
# GULP energy per Si atom -12394.340852 kJ/mol
# Density = 2.033825 g / cm^3
# Si number density = 20.384650 Si / 1000 Ang^3
#
#
#
# Elastic Constant Matrix: (Units=GPa)
#
#
# Indices 1 2 3 4 5 6 
#
# 1 115.8840 48.6418 30.7862 0.0000 -3.4933 0.0000
# 2 48.6418 147.5826 33.8775 0.0000 3.7665 0.0000
# 3 30.7862 33.8775 85.5220 0.0000 9.7153 0.0000
# 4 0.0000 0.0000 0.0000 16.6973 0.0000 -10.7631
# 5 -3.4933 3.7665 9.7153 0.0000 41.6445 0.0000
# 6 0.0000 0.0000 0.0000 -10.7631 0.0000 15.2809
#
#
#
# Elastic Compliance Matrix: (Units=1/GPa)
#
#
# Indices 1 2 3 4 5 6 
#
# 1 0.010672 -0.002898 -0.002902 0.000000 0.001834 0.000000
# 2 -0.002898 0.008241 -0.002166 0.000000 -0.000483 0.000000
# 3 -0.002902 -0.002166 0.013971 0.000000 -0.003307 0.000000
# 4 0.000000 0.000000 0.000000 0.109694 0.000000 0.077263
# 5 0.001834 -0.000483 -0.003307 0.000000 0.024982 0.000000
# 6 0.000000 0.000000 0.000000 0.077263 0.000000 0.119862
#
#
# Mechanical properties :
#
#
# Convention : Reuss Voigt Hill
#
# Bulk Modulus (GPa) = 58.99260 63.95553 61.47406
# Shear Modulus (GPa) = 16.18096 30.43673 23.30885
#
# Velocity S-wave (km/s) = 2.82047 3.86828 3.38516
# Velocity P-wave (km/s) = 6.29359 7.16896 6.74549
#
# Compressibility (1/GPa) = 0.01695128
#
# Stress axis : x y z
#
# Youngs Moduli (GPa) = 93.70282 121.35014 71.57499
#
# Poissons Ratio (x) = 0.35168 0.20772
# Poissons Ratio (y) = 0.27155 0.15505
# Poissons Ratio (z) = 0.27194 0.26287
#
# Static dielectric constant tensor:
#      x y z
#    x 3.918220 0.000000 0.140430 
#    y 0.000000 3.895490 0.000000 
#    z 0.140430 0.000000 3.812090 
# 
# 
# High freq. dielectric constant tensor:
#      x y z
#    x 1.804100 0.000000 0.005470 
#    y 0.000000 1.791240 0.000000 
#    z 0.005470 0.000000 1.798020 
# 
# From -- ./inp_files/227004.got.cif
#   From: 2010.06.25/outbox.cif.g09.slc.cpg/sg15_114_cif.got.tgz:227004.got - 2010.06.28 07:06:18.
