data_PCOD8152358
_publ_section_title
;
Structure prediction by ZEFSAII (Michael W. Deem and Ramdas Pophale) SiO2 
 PCOD8152358
Probable space group: C 2/C
;
_chemical_formula_sum "Si O2"
_cell_formula_units_Z 40
_cell_length_a 10.235264
_cell_length_b 20.134577
_cell_length_c 14.102987
_cell_angle_alpha 90.000000
_cell_angle_beta 137.174869
_cell_angle_gamma 90.000000
_cell_volume 1975.651002
_symmetry_space_group_name_H-M "C 2/C"
_symmetry_group_IT_number 15
_symmetry_cell_setting 'monoclinic'
loop_
_space_group_symop_operation_xyz
x,y,z
-x,y,1/2-z
-x,-y,-z
x,-y,1/2+z
1/2+x,1/2+y,z
1/2-x,1/2+y,1/2-z
1/2-x,1/2-y,-z
1/2+x,1/2-y,1/2+z
loop_
_atom_site_type_symbol
_atom_site_label
_atom_site_fract_x
_atom_site_fract_y
_atom_site_fract_z
Si Si1 0.500000 0.958122 0.750000
Si Si2 0.002491 0.246605 0.533451
Si Si3 0.363558 0.963572 0.350795
Si Si4 0.403948 0.182888 0.800918
Si Si5 0.717286 0.846836 0.967264
Si Si6 0.000000 0.080382 0.750000
O O1 0.653073 0.914599 0.886092
O O2 0.621944 0.002516 0.743128
O O3 0.018433 0.266109 0.430602
O O4 0.811997 0.201119 0.439821
O O5 0.964289 0.311367 0.578795
O O6 0.187147 0.207219 0.668508
O O7 0.415064 0.886437 0.363308
O O8 0.141917 0.968147 0.266820
O O9 0.500000 0.000000 0.500000
O O10 0.500000 0.177799 0.750000
O O11 0.878421 0.867249 0.126457
#
# Coordination Sequence:
#
# PCOD8152358 Si02
#       6
#     4   8   8   8   8   4
#     4  12  24  43  68  96 139 174 232 280 338 400
#     4  11  22  42  69 101 132 165 233 279 342 402
#     4  12  25  45  68  99 140 182 228 281 333 411
#     4  12  24  42  66  97 139 180 213 279 347 405
#     4  11  22  40  74  98 124 175 224 291 330 396
#     4  12  22  45  68  98 133 178 228 272 344 394
#
# _framework density 20.246490000000001
#
# number of rings (size 3 to 8) (size 9 to 14) (size 15 to 20)
#    0.000    0.400    7.000    1.800    0.000    4.000 
#    3.600    0.000    4.400    0.000    0.000    0.000 
#    0.000    0.000    0.000    0.000    0.000    0.000 
#
# Total GULP energy -247962.741330 kJ/mol
# GULP energy per Si atom -12398.137067 kJ/mol
# Density = 2.020041 g / cm^3
# Si number density = 20.246490 Si / 1000 Ang^3
#
#
#
# Elastic Constant Matrix: (Units=GPa)
#
#
# Indices 1 2 3 4 5 6 
#
# 1 151.1175 62.9794 40.7569 -0.0001 -7.4825 -0.0001
# 2 62.9794 110.6967 55.8447 -0.0002 -4.5011 0.0001
# 3 40.7569 55.8447 94.0381 -0.0011 -1.8425 0.0000
# 4 -0.0001 -0.0002 -0.0011 56.6512 -0.0005 -16.1624
# 5 -7.4825 -4.5011 -1.8425 -0.0005 27.9500 0.0000
# 6 -0.0001 0.0001 0.0000 -16.1624 0.0000 55.3156
#
#
#
# Elastic Compliance Matrix: (Units=1/GPa)
#
#
# Indices 1 2 3 4 5 6 
#
# 1 0.008836 -0.004350 -0.001216 0.000000 0.001585 0.000000
# 2 -0.004350 0.015108 -0.007071 0.000000 0.000802 0.000000
# 3 -0.001216 -0.007071 0.015351 0.000000 -0.000452 0.000000
# 4 0.000000 0.000000 0.000000 0.019257 0.000000 0.005627
# 5 0.001585 0.000802 -0.000452 0.000000 0.036302 0.000000
# 6 0.000000 0.000000 0.000000 0.005627 0.000000 0.019722
#
#
# Mechanical properties :
#
#
# Convention : Reuss Voigt Hill
#
# Bulk Modulus (GPa) = 71.31162 75.00157 73.15659
# Shear Modulus (GPa) = 34.59620 41.06813 37.83217
#
# Velocity S-wave (km/s) = 4.13819 4.50867 4.32740
# Velocity P-wave (km/s) = 7.62437 8.01429 7.82176
#
# Compressibility (1/GPa) = 0.01402296
#
# Stress axis : x y z
#
# Youngs Moduli (GPa) = 113.16727 66.18880 65.14124
#
# Poissons Ratio (x) = 0.28790 0.07919
# Poissons Ratio (y) = 0.49224 0.46063
# Poissons Ratio (z) = 0.13758 0.46803
#
# Static dielectric constant tensor:
#      x y z
#    x 4.032280 0.000000 -0.083660 
#    y 0.000000 3.777960 0.000000 
#    z -0.083660 0.000000 3.343950 
# 
# 
# High freq. dielectric constant tensor:
#      x y z
#    x 1.800880 0.000000 -0.012430 
#    y 0.000000 1.796670 0.000000 
#    z -0.012430 0.000000 1.792460 
# 
# From -- ./inp_files/29376.got.cif
#   From: 2010.06.25/outbox.cif.g09.slc.cpg/sg15_15_cif.got.tgz:29376.got - 2010.06.28 07:06:18.
