data_PCOD8152621
_publ_section_title
;
Structure prediction by ZEFSAII (Michael W. Deem and Ramdas Pophale) SiO2 
 PCOD8152621
Probable space group: C 2/C
;
_chemical_formula_sum "Si O2"
_cell_formula_units_Z 40
_cell_length_a 19.357008
_cell_length_b 8.477545
_cell_length_c 12.013288
_cell_angle_alpha 90.000000
_cell_angle_beta 110.052001
_cell_angle_gamma 90.000000
_cell_volume 1851.878003
_symmetry_space_group_name_H-M "C 2/C"
_symmetry_group_IT_number 15
_symmetry_cell_setting 'monoclinic'
loop_
_space_group_symop_operation_xyz
x,y,z
-x,y,1/2-z
-x,-y,-z
x,-y,1/2+z
1/2+x,1/2+y,z
1/2-x,1/2+y,1/2-z
1/2-x,1/2-y,-z
1/2+x,1/2-y,1/2+z
loop_
_atom_site_type_symbol
_atom_site_label
_atom_site_fract_x
_atom_site_fract_y
_atom_site_fract_z
Si Si1 0.833428 0.295237 0.063290
Si Si2 0.430576 0.852956 0.773565
Si Si3 0.894978 0.322950 0.332307
Si Si4 0.033661 0.830166 0.997170
Si Si5 0.828227 0.329411 0.527569
O O1 0.856219 0.250359 0.202161
O O2 0.837281 0.481330 0.039725
O O3 0.750000 0.250000 0.000000
O O4 0.885205 0.187578 0.012309
O O5 0.500000 0.933483 0.750000
O O6 0.462554 0.726657 0.874776
O O7 0.378262 0.763629 0.655876
O O8 0.388794 0.988074 0.819441
O O9 0.854359 0.267684 0.421931
O O10 0.979897 0.270872 0.388334
O O11 0.000000 0.000000 0.000000
O O12 0.750000 0.250000 0.500000
#
# Coordination Sequence:
#
# PCOD8152621 Si02
#       5
#     8   8   8   8   8
#     4  11  27  45  68 104 143 181 231 292 353 415
#     4  11  22  43  73  97 129 180 236 285 343 424
#     4  11  23  46  71  96 138 181 233 287 350 422
#     4  12  26  44  70 102 141 186 235 292 346 419
#     4  11  25  42  72 104 136 182 228 287 357 420
#
# _framework density 21.599696000000002
#
# number of rings (size 3 to 8) (size 9 to 14) (size 15 to 20)
#    0.000    0.800    4.000    3.600    5.600    3.200 
#    0.000    0.000    0.000    0.000    0.000    0.000 
#    0.000    0.000    0.000    0.000    0.000    0.000 
#
# Total GULP energy -247917.504933 kJ/mol
# GULP energy per Si atom -12395.875247 kJ/mol
# Density = 2.155053 g / cm^3
# Si number density = 21.599696 Si / 1000 Ang^3
#
#
#
# Elastic Constant Matrix: (Units=GPa)
#
#
# Indices 1 2 3 4 5 6 
#
# 1 161.5054 35.8637 67.3617 0.0000 10.2280 0.0000
# 2 35.8637 80.8928 45.1490 0.0000 -2.8873 0.0000
# 3 67.3617 45.1490 176.5945 0.0000 16.6243 0.0000
# 4 0.0000 0.0000 0.0000 26.0339 0.0000 3.0050
# 5 10.2280 -2.8873 16.6243 0.0000 40.0340 0.0000
# 6 0.0000 0.0000 0.0000 3.0050 0.0000 39.0904
#
#
#
# Elastic Compliance Matrix: (Units=1/GPa)
#
#
# Indices 1 2 3 4 5 6 
#
# 1 0.007698 -0.002191 -0.002265 0.000000 -0.001184 0.000000
# 2 -0.002191 0.015324 -0.003371 0.000000 0.003065 0.000000
# 3 -0.002265 -0.003371 0.007656 0.000000 -0.002844 0.000000
# 4 0.000000 0.000000 0.000000 0.038755 0.000000 -0.002979
# 5 -0.001184 0.003065 -0.002844 0.000000 0.026683 0.000000
# 6 0.000000 0.000000 0.000000 -0.002979 0.000000 0.025811
#
#
# Mechanical properties :
#
#
# Convention : Reuss Voigt Hill
#
# Bulk Modulus (GPa) = 66.55453 79.52686 73.04069
# Shear Modulus (GPa) = 35.06601 39.07288 37.06945
#
# Velocity S-wave (km/s) = 4.03358 4.25780 4.14720
# Velocity P-wave (km/s) = 7.25070 7.81474 7.53800
#
# Compressibility (1/GPa) = 0.01502527
#
# Stress axis : x y z
#
# Youngs Moduli (GPa) = 129.90629 65.25692 130.61722
#
# Poissons Ratio (x) = 0.14299 0.29580
# Poissons Ratio (y) = 0.28464 0.44025
# Poissons Ratio (z) = 0.29419 0.21995
#
# Static dielectric constant tensor:
#      x y z
#    x 3.965860 0.000000 0.031940 
#    y 0.000000 3.671640 0.000000 
#    z 0.031940 0.000000 4.485150 
# 
# 
# High freq. dielectric constant tensor:
#      x y z
#    x 1.853010 0.000000 0.002440 
#    y 0.000000 1.825720 0.000000 
#    z 0.002440 0.000000 1.875960 
# 
# From -- ./inp_files/102689.got.cif
#   From: 2010.06.25/outbox.cif.g09.slc.cpg/sg15_52_cif.got.tgz:102689.got - 2010.06.28 07:06:18.
