data_PCOD8152688
_publ_section_title
;
Structure prediction by ZEFSAII (Michael W. Deem and Ramdas Pophale) SiO2 
 PCOD8152688
Probable space group: C 2/C
;
_chemical_formula_sum "Si O2"
_cell_formula_units_Z 44
_cell_length_a 13.271676
_cell_length_b 15.059019
_cell_length_c 28.235722
_cell_angle_alpha 90.000000
_cell_angle_beta 22.108595
_cell_angle_gamma 90.000000
_cell_volume 2123.873067
_symmetry_space_group_name_H-M "C 2/C"
_symmetry_group_IT_number 15
_symmetry_cell_setting 'monoclinic'
loop_
_space_group_symop_operation_xyz
x,y,z
-x,y,1/2-z
-x,-y,-z
x,-y,1/2+z
1/2+x,1/2+y,z
1/2-x,1/2+y,1/2-z
1/2-x,1/2-y,-z
1/2+x,1/2-y,1/2+z
loop_
_atom_site_type_symbol
_atom_site_label
_atom_site_fract_x
_atom_site_fract_y
_atom_site_fract_z
Si Si1 0.104551 0.156095 0.075282
Si Si2 0.500000 0.637533 0.750000
Si Si3 0.595708 0.160144 0.353971
Si Si4 0.469993 0.976036 0.067815
Si Si5 0.208942 0.230450 0.444346
Si Si6 0.172646 0.926992 0.895435
O O1 0.891436 0.181500 0.207999
O O2 0.953572 0.097415 0.100583
O O3 0.250000 0.250000 0.000000
O O4 0.300017 0.088381 0.015145
O O5 0.302187 0.576663 0.806405
O O6 0.628174 0.693374 0.652441
O O7 0.389300 0.176497 0.401978
O O8 0.546140 0.227031 0.418913
O O9 0.545750 0.060247 0.391723
O O10 0.500000 0.000000 0.000000
O O11 0.104697 0.163509 0.451091
O O12 0.500000 0.947163 0.750000
O O13 0.000000 0.000000 0.000000
#
# Coordination Sequence:
#
# PCOD8152688 Si02
#       6
#     8   4   8   8   8   8
#     4  12  27  47  73 108 143 187 248 301 363 445
#     4  12  22  46  72  96 142 190 232 286 372 416
#     4  11  24  42  70 104 140 184 240 291 359 431
#     4  12  25  44  69 106 142 186 233 301 354 435
#     4  11  22  44  72  99 139 194 231 289 363 439
#     4  12  26  49  76 108 150 195 248 309 375 443
#
# _framework density 20.716868999999999
#
# number of rings (size 3 to 8) (size 9 to 14) (size 15 to 20)
#    0.000    0.364    4.545    4.364    0.000    1.455 
#    0.000    0.000    0.000    0.000    0.000    0.000 
#    0.000    0.000    0.000    0.000    0.000    0.000 
#
# Total GULP energy -272638.943815 kJ/mol
# GULP energy per Si atom -12392.679264 kJ/mol
# Density = 2.066972 g / cm^3
# Si number density = 20.716869 Si / 1000 Ang^3
#
#
#
# Elastic Constant Matrix: (Units=GPa)
#
#
# Indices 1 2 3 4 5 6 
#
# 1 123.1464 66.6913 66.7546 0.1135 -0.6937 0.0433
# 2 66.6913 157.4448 93.9579 2.2376 6.8943 0.6565
# 3 66.7546 93.9579 186.6018 -5.5537 10.8512 -1.3350
# 4 0.1135 2.2376 -5.5537 -28.4110 4.1020 -14.1853
# 5 -0.6937 6.8943 10.8512 4.1020 45.5493 1.1425
# 6 0.0433 0.6565 -1.3350 -14.1853 1.1425 42.3881
#
#
#
# Elastic Compliance Matrix: (Units=1/GPa)
#
#
# Indices 1 2 3 4 5 6 
#
# 1 0.011260 -0.003416 -0.002367 0.000383 0.001216 0.000062
# 2 -0.003416 0.010054 -0.003754 0.001303 -0.000802 0.000187
# 3 -0.002367 -0.003754 0.008108 -0.001919 -0.001219 -0.000294
# 4 0.000383 0.001303 -0.001919 -0.029287 0.003153 -0.009967
# 5 0.001216 -0.000802 -0.001219 0.003153 0.022090 0.000433
# 6 0.000062 0.000187 -0.000294 -0.009967 0.000433 0.020232
#
#
# Mechanical properties :
#
#
# Convention : Reuss Voigt Hill
#
# Bulk Modulus (GPa) = 96.63427 102.44449 99.53938
# Shear Modulus (GPa) = 76.94671 27.89123 52.41897
#
# Velocity S-wave (km/s) = 6.10104 3.67318 5.03562
# Velocity P-wave (km/s) = 9.81716 8.21869 9.05328
#
# Compressibility (1/GPa) = 0.01034830
#
# Stress axis : x y z
#
# Youngs Moduli (GPa) = 88.81058 99.45941 123.34164
#
# Poissons Ratio (x) = 0.33975 0.29195
# Poissons Ratio (y) = 0.30337 0.46300
# Poissons Ratio (z) = 0.21021 0.37335
#
# Static dielectric constant tensor:
#      x y z
#    x 3.962620 -0.000690 0.058110 
#    y -0.000690 3.827980 0.001280 
#    z 0.058110 0.001280 4.132290 
# 
# 
# High freq. dielectric constant tensor:
#      x y z
#    x 1.824670 0.000000 0.007180 
#    y 0.000000 1.829080 0.000010 
#    z 0.007180 0.000010 1.825010 
# 
# From -- ./inp_files/313947.got.cif
#   From: 2010.06.25/outbox.cif.g09.slc.cpg/sg15_157_cif.got.tgz:313947.got - 2010.06.28 07:06:18.
