data_PCOD8152700
_publ_section_title
;
Structure prediction by ZEFSAII (Michael W. Deem and Ramdas Pophale) SiO2 
 PCOD8152700
Probable space group: C 2/C
;
_chemical_formula_sum "Si O2"
_cell_formula_units_Z 64
_cell_length_a 11.913807
_cell_length_b 15.636796
_cell_length_c 26.629469
_cell_angle_alpha 90.000000
_cell_angle_beta 37.029167
_cell_angle_gamma 90.000000
_cell_volume 2987.563140
_symmetry_space_group_name_H-M "C 2/C"
_symmetry_group_IT_number 15
_symmetry_cell_setting 'monoclinic'
loop_
_space_group_symop_operation_xyz
x,y,z
-x,y,1/2-z
-x,-y,-z
x,-y,1/2+z
1/2+x,1/2+y,z
1/2-x,1/2+y,1/2-z
1/2-x,1/2-y,-z
1/2+x,1/2-y,1/2+z
loop_
_atom_site_type_symbol
_atom_site_label
_atom_site_fract_x
_atom_site_fract_y
_atom_site_fract_z
Si Si1 0.318571 0.978388 0.349037
Si Si2 0.331807 0.716900 0.839734
Si Si3 0.786831 0.287445 0.345466
Si Si4 0.785244 0.180756 0.445650
Si Si5 0.556064 0.774566 0.593267
Si Si6 0.681321 0.620364 0.332578
Si Si7 0.050642 0.548591 0.349188
Si Si8 0.949208 0.434284 0.061574
O O1 0.500000 0.981106 0.250000
O O2 0.169629 0.045422 0.378888
O O3 0.375132 0.004981 0.384693
O O4 0.239798 0.882923 0.380759
O O5 0.500000 0.671285 0.750000
O O6 0.423795 0.760621 0.854913
O O7 0.249997 0.792285 0.834031
O O8 0.185867 0.643257 0.907048
O O9 0.754176 0.221137 0.401885
O O10 0.631084 0.273253 0.358402
O O11 0.000000 0.278798 0.250000
O O12 0.750000 0.250000 0.500000
O O13 0.644338 0.105291 0.507433
O O14 0.985547 0.138362 0.377399
O O15 0.750000 0.750000 0.500000
O O16 0.529087 0.873708 0.589725
O O17 0.803849 0.586404 0.242588
O O18 0.138128 0.481789 0.358142
O O19 0.000000 0.500000 0.000000
#
# Coordination Sequence:
#
# PCOD8152700 Si02
#       8
#     8   8   8   8   8   8   8   8
#     4   9  20  38  66 101 133 167 236 300 340 396
#     4  12  24  45  76 103 136 192 245 292 361 432
#     4  11  25  44  68 105 140 189 244 296 355 433
#     4  12  25  44  71 100 147 194 232 292 371 430
#     4  12  25  43  70 102 146 187 239 296 363 436
#     4  11  22  44  75 105 135 186 249 297 356 425
#     4  11  22  45  69  98 141 186 238 300 347 426
#     4  12  28  46  66 105 153 187 231 297 368 430
#
# _framework density 21.422141
#
# number of rings (size 3 to 8) (size 9 to 14) (size 15 to 20)
#    0.000    0.750    3.750    4.125    0.000    5.000 
#    0.000    2.500    0.000    0.000    0.000    0.000 
#    0.000    0.000    0.000    0.000    0.000    0.000 
#
# Total GULP energy -396677.333945 kJ/mol
# GULP energy per Si atom -12396.166686 kJ/mol
# Density = 2.137338 g / cm^3
# Si number density = 21.422141 Si / 1000 Ang^3
#
#
#
# Elastic Constant Matrix: (Units=GPa)
#
#
# Indices 1 2 3 4 5 6 
#
# 1 107.2857 51.5483 35.7355 0.0002 -17.3242 -0.0005
# 2 51.5483 132.9451 30.9897 -0.0007 -8.6433 -0.0002
# 3 35.7355 30.9897 83.2167 -0.0020 -7.9273 -0.0001
# 4 0.0002 -0.0007 -0.0020 34.8730 0.0002 8.3587
# 5 -17.3242 -8.6433 -7.9273 0.0002 33.7726 0.0001
# 6 -0.0005 -0.0002 -0.0001 8.3587 0.0001 45.0721
#
#
#
# Elastic Compliance Matrix: (Units=1/GPa)
#
#
# Indices 1 2 3 4 5 6 
#
# 1 0.013262 -0.003947 -0.003757 0.000000 0.004911 0.000000
# 2 -0.003947 0.009479 -0.001838 0.000000 -0.000030 0.000000
# 3 -0.003757 -0.001838 0.014408 0.000001 0.000984 0.000000
# 4 0.000000 0.000000 0.000001 0.030009 0.000000 -0.005565
# 5 0.004911 -0.000030 0.000984 0.000000 0.032352 0.000000
# 6 0.000000 0.000000 0.000000 -0.005565 0.000000 0.023219
#
#
# Mechanical properties :
#
#
# Convention : Reuss Voigt Hill
#
# Bulk Modulus (GPa) = 55.35633 62.22161 58.78897
# Shear Modulus (GPa) = 33.82140 36.42180 35.12160
#
# Velocity S-wave (km/s) = 3.97773 4.12781 4.05347
# Velocity P-wave (km/s) = 6.85516 7.19910 7.02923
#
# Compressibility (1/GPa) = 0.01806478
#
# Stress axis : x y z
#
# Youngs Moduli (GPa) = 75.40418 105.49895 69.40361
#
# Poissons Ratio (x) = 0.41641 0.26077
# Poissons Ratio (y) = 0.29762 0.12755
# Poissons Ratio (z) = 0.28332 0.19388
#
# Static dielectric constant tensor:
#      x y z
#    x 4.117440 0.000000 0.208860 
#    y 0.000000 4.178460 0.000010 
#    z 0.208860 0.000010 4.021990 
# 
# 
# High freq. dielectric constant tensor:
#      x y z
#    x 1.851520 0.000000 0.006980 
#    y 0.000000 1.856230 0.000000 
#    z 0.006980 0.000000 1.835200 
# 
# From -- ./inp_files/198356.got.cif
#   From: 2010.06.25/outbox.cif.g09.slc.cpg/sg15_100_cif.got.tgz:198356.got - 2010.06.28 07:06:18.
