data_PCOD8152647
_publ_section_title
;
Structure prediction by ZEFSAII (Michael W. Deem and Ramdas Pophale) SiO2 
 PCOD8152647
Probable space group: C 2/C
;
_chemical_formula_sum "Si O2"
_cell_formula_units_Z 48
_cell_length_a 13.830326
_cell_length_b 15.837678
_cell_length_c 9.366868
_cell_angle_alpha 90.000000
_cell_angle_beta 94.712644
_cell_angle_gamma 90.000000
_cell_volume 2044.784813
_symmetry_space_group_name_H-M "C 2/C"
_symmetry_group_IT_number 15
_symmetry_cell_setting 'monoclinic'
loop_
_space_group_symop_operation_xyz
x,y,z
-x,y,1/2-z
-x,-y,-z
x,-y,1/2+z
1/2+x,1/2+y,z
1/2-x,1/2+y,1/2-z
1/2-x,1/2-y,-z
1/2+x,1/2-y,1/2+z
loop_
_atom_site_type_symbol
_atom_site_label
_atom_site_fract_x
_atom_site_fract_y
_atom_site_fract_z
Si Si1 0.433774 0.537927 0.871804
Si Si2 0.168492 0.706067 0.900123
Si Si3 0.715544 0.979485 0.300713
Si Si4 0.348610 0.239951 0.923067
Si Si5 0.976960 0.222983 0.906041
Si Si6 0.100536 0.446964 0.015578
O O1 0.500000 0.515404 0.750000
O O2 0.328198 0.496242 0.835325
O O3 0.413341 0.638294 0.882992
O O4 0.500000 0.500000 0.000000
O O5 0.189646 0.609194 0.871271
O O6 0.162244 0.756048 0.747444
O O7 0.250000 0.750000 0.000000
O O8 0.074336 0.711787 0.990835
O O9 0.681599 0.984545 0.133383
O O10 0.649736 0.049785 0.367295
O O11 0.408131 0.151796 0.950907
O O12 0.250000 0.250000 0.000000
O O13 0.422140 0.306126 0.005541
O O14 0.000000 0.261600 0.750000
O O15 0.000000 0.500000 0.000000
#
# Coordination Sequence:
#
# PCOD8152647 Si02
#       6
#     8   8   8   8   8   8
#     4  11  25  43  67  96 136 180 230 289 348 413
#     4  11  22  44  68 100 135 183 233 286 359 420
#     4  11  24  44  72  98 141 182 232 288 350 428
#     4  11  26  42  70 104 142 183 237 296 355 433
#     4  11  24  43  69  98 139 175 230 288 351 421
#     4  11  25  45  70 102 140 185 235 291 355 425
#
# _framework density 23.474350999999999
#
# number of rings (size 3 to 8) (size 9 to 14) (size 15 to 20)
#    0.000    1.000    1.667    4.000    9.333    8.000 
#    0.000    0.000    0.000    0.000    0.000    0.000 
#    0.000    0.000    0.000    0.000    0.000    0.000 
#
# Total GULP energy -297356.990234 kJ/mol
# GULP energy per Si atom -12389.874593 kJ/mol
# Density = 2.342092 g / cm^3
# Si number density = 23.474351 Si / 1000 Ang^3
#
#
#
# Elastic Constant Matrix: (Units=GPa)
#
#
# Indices 1 2 3 4 5 6 
#
# 1 172.4230 15.0279 48.6753 0.0000 3.4028 0.0000
# 2 15.0279 31.3538 17.6295 0.0000 -0.3582 0.0000
# 3 48.6753 17.6295 164.1998 0.0000 -4.5649 0.0000
# 4 0.0000 0.0000 0.0000 35.6913 0.0000 3.2340
# 5 3.4028 -0.3582 -4.5649 0.0000 54.2009 0.0000
# 6 0.0000 0.0000 0.0000 3.2340 0.0000 35.2491
#
#
#
# Elastic Compliance Matrix: (Units=1/GPa)
#
#
# Indices 1 2 3 4 5 6 
#
# 1 0.006480 -0.002153 -0.001705 0.000000 -0.000565 0.000000
# 2 -0.002153 0.034659 -0.003080 0.000000 0.000105 0.000000
# 3 -0.001705 -0.003080 0.006945 0.000000 0.000672 0.000000
# 4 0.000000 0.000000 0.000000 0.028253 0.000000 -0.002592
# 5 -0.000565 0.000105 0.000672 0.000000 0.018543 0.000000
# 6 0.000000 0.000000 0.000000 -0.002592 0.000000 0.028607
#
#
# Mechanical properties :
#
#
# Convention : Reuss Voigt Hill
#
# Bulk Modulus (GPa) = 29.23407 58.96022 44.09715
# Shear Modulus (GPa) = 33.60967 44.13786 38.87377
#
# Velocity S-wave (km/s) = 3.78797 4.34090 4.07383
# Velocity P-wave (km/s) = 5.62248 7.09196 6.39954
#
# Compressibility (1/GPa) = 0.03420666
#
# Stress axis : x y z
#
# Youngs Moduli (GPa) = 154.32196 28.85239 143.98752
#
# Poissons Ratio (x) = 0.06213 0.24556
# Poissons Ratio (y) = 0.33232 0.44347
# Poissons Ratio (z) = 0.26318 0.08886
#
# Static dielectric constant tensor:
#      x y z
#    x 5.217530 0.000000 0.029400 
#    y 0.000000 6.661250 0.000000 
#    z 0.029400 0.000000 4.732850 
# 
# 
# High freq. dielectric constant tensor:
#      x y z
#    x 1.950930 0.000000 0.005160 
#    y 0.000000 1.906320 0.000000 
#    z 0.005160 0.000000 1.948950 
# 
# From -- ./inp_files/39649.got.cif
#   From: 2010.06.25/outbox.cif.g09.slc.cpg/sg15_20_cif.got.tgz:39649.got - 2010.06.28 07:06:18.
