data_PCOD8152783
_publ_section_title
;
Structure prediction by ZEFSAII (Michael W. Deem and Ramdas Pophale) SiO2 
 PCOD8152783
Probable space group: C 2/C
;
_chemical_formula_sum "Si O2"
_cell_formula_units_Z 60
_cell_length_a 14.324883
_cell_length_b 12.778400
_cell_length_c 16.786391
_cell_angle_alpha 90.000000
_cell_angle_beta 68.779971
_cell_angle_gamma 90.000000
_cell_volume 2864.393977
_symmetry_space_group_name_H-M "C 2/C"
_symmetry_group_IT_number 15
_symmetry_cell_setting 'monoclinic'
loop_
_space_group_symop_operation_xyz
x,y,z
-x,y,1/2-z
-x,-y,-z
x,-y,1/2+z
1/2+x,1/2+y,z
1/2-x,1/2+y,1/2-z
1/2-x,1/2-y,-z
1/2+x,1/2-y,1/2+z
loop_
_atom_site_type_symbol
_atom_site_label
_atom_site_fract_x
_atom_site_fract_y
_atom_site_fract_z
Si Si1 0.824490 0.326529 0.707823
Si Si2 0.711540 0.457985 0.436779
Si Si3 0.047558 0.153971 0.883669
Si Si4 0.302018 0.458150 0.876429
Si Si5 0.500000 0.525753 0.750000
Si Si6 0.385487 0.031136 0.767153
Si Si7 0.664614 0.688575 0.479328
Si Si8 0.702631 0.841871 0.342341
O O1 0.917849 0.274712 0.632530
O O2 0.752107 0.378972 0.666032
O O3 0.864019 0.408568 0.760393
O O4 0.773937 0.229429 0.767215
O O5 0.612501 0.407093 0.429362
O O6 0.718307 0.422416 0.526635
O O7 0.812146 0.422972 0.358489
O O8 0.707841 0.582778 0.428407
O O9 0.060196 0.095664 0.795316
O O10 0.930376 0.155742 0.939430
O O11 0.420113 0.452299 0.820139
O O12 0.266389 0.578509 0.877892
O O13 0.500000 0.050840 0.750000
O O14 0.369921 0.090902 0.689650
O O15 0.750000 0.750000 0.500000
O O16 0.633145 0.766646 0.417742
#
# Coordination Sequence:
#
# PCOD8152783 Si02
#       8
#     8   8   8   8   4   8   8   8
#     4  11  24  43  68  94 130 182 220 266 342 406
#     4  12  24  45  67 101 140 169 229 288 341 390
#     4  12  26  43  70 100 133 179 226 279 335 410
#     4  11  25  41  68  99 139 173 222 290 331 403
#     4  12  22  42  68  98 134 174 228 276 334 388
#     4  11  26  43  70  97 137 179 223 284 342 411
#     4  12  25  41  72 103 127 173 230 285 330 402
#     4  11  22  47  63  98 136 172 226 278 336 402
#
# _framework density 20.946840000000002
#
# number of rings (size 3 to 8) (size 9 to 14) (size 15 to 20)
#    0.000    0.533    6.667    1.200    2.800    1.600 
#    3.600    2.667    0.000    0.000    0.000    0.000 
#    0.000    0.000    0.000    0.000    0.000    0.000 
#
# Total GULP energy -372060.471358 kJ/mol
# GULP energy per Si atom -12402.015712 kJ/mol
# Density = 2.089916 g / cm^3
# Si number density = 20.946840 Si / 1000 Ang^3
#
#
#
# Elastic Constant Matrix: (Units=GPa)
#
#
# Indices 1 2 3 4 5 6 
#
# 1 119.9332 17.7453 45.5102 0.0000 -9.2040 0.0000
# 2 17.7453 47.5563 16.4176 0.0000 -2.8419 0.0000
# 3 45.5102 16.4176 112.4756 0.0000 3.5852 0.0000
# 4 0.0000 0.0000 0.0000 26.3423 0.0000 -8.0682
# 5 -9.2040 -2.8419 3.5852 0.0000 29.8297 0.0000
# 6 0.0000 0.0000 0.0000 -8.0682 0.0000 27.1725
#
#
#
# Elastic Compliance Matrix: (Units=1/GPa)
#
#
# Indices 1 2 3 4 5 6 
#
# 1 0.010470 -0.002314 -0.004010 0.000000 0.003492 0.000000
# 2 -0.002314 0.022843 -0.002454 0.000000 0.001757 0.000000
# 3 -0.004010 -0.002454 0.010960 0.000000 -0.002788 0.000000
# 4 0.000000 0.000000 0.000000 0.041760 0.000000 0.012399
# 5 0.003492 0.001757 -0.002788 0.000000 0.035104 0.000000
# 6 0.000000 0.000000 0.000000 0.012399 0.000000 0.040484
#
#
# Mechanical properties :
#
#
# Convention : Reuss Voigt Hill
#
# Bulk Modulus (GPa) = 37.42805 48.81238 43.12021
# Shear Modulus (GPa) = 26.58413 30.02171 28.30292
#
# Velocity S-wave (km/s) = 3.56634 3.78991 3.67983
# Velocity P-wave (km/s) = 5.90468 6.51957 6.21973
#
# Compressibility (1/GPa) = 0.02671793
#
# Stress axis : x y z
#
# Youngs Moduli (GPa) = 95.51156 43.77648 91.23714
#
# Poissons Ratio (x) = 0.10129 0.36586
# Poissons Ratio (y) = 0.22099 0.22391
# Poissons Ratio (z) = 0.38300 0.10743
#
# Static dielectric constant tensor:
#      x y z
#    x 3.630340 0.000000 0.071900 
#    y 0.000000 4.057880 0.000000 
#    z 0.071900 0.000000 3.969600 
# 
# 
# High freq. dielectric constant tensor:
#      x y z
#    x 1.815940 0.000000 0.004730 
#    y 0.000000 1.821550 0.000000 
#    z 0.004730 0.000000 1.832840 
# 
# From -- ./inp_files/204426.got.cif
#   From: 2010.06.25/outbox.cif.g09.slc.cpg/sg15_103_cif.got.tgz:204426.got - 2010.06.28 07:06:18.
