data_PCOD8152852
_publ_section_title
;
Structure prediction by ZEFSAII (Michael W. Deem and Ramdas Pophale) SiO2 
 PCOD8152852
Probable space group: C 2/C
;
_chemical_formula_sum "Si O2"
_cell_formula_units_Z 64
_cell_length_a 23.486854
_cell_length_b 19.195056
_cell_length_c 19.810346
_cell_angle_alpha 90.000000
_cell_angle_beta 21.402859
_cell_angle_gamma 90.000000
_cell_volume 3259.176030
_symmetry_space_group_name_H-M "C 2/C"
_symmetry_group_IT_number 15
_symmetry_cell_setting 'monoclinic'
loop_
_space_group_symop_operation_xyz
x,y,z
-x,y,1/2-z
-x,-y,-z
x,-y,1/2+z
1/2+x,1/2+y,z
1/2-x,1/2+y,1/2-z
1/2-x,1/2-y,-z
1/2+x,1/2-y,1/2+z
loop_
_atom_site_type_symbol
_atom_site_label
_atom_site_fract_x
_atom_site_fract_y
_atom_site_fract_z
Si Si1 0.453213 0.036968 0.981463
Si Si2 0.323819 0.181605 0.298353
Si Si3 0.942770 0.323559 0.081720
Si Si4 0.891865 0.964233 0.309219
Si Si5 0.417761 0.321734 0.059941
Si Si6 0.405106 0.543564 0.157902
Si Si7 0.032770 0.821016 0.339381
Si Si8 0.597918 0.054351 0.203184
O O1 0.508079 0.993311 0.855983
O O2 0.530387 0.113499 0.895273
O O3 0.268852 0.046740 0.178936
O O4 0.500000 0.000000 0.000000
O O5 0.453425 0.162757 0.099344
O O6 0.378440 0.249893 0.279577
O O7 0.310971 0.116693 0.361796
O O8 0.153381 0.192235 0.454295
O O9 0.000345 0.251032 0.050142
O O10 0.760211 0.321039 0.267379
O O11 0.910925 0.881591 0.272724
O O12 0.724794 0.988965 0.521269
O O13 0.000000 0.988239 0.250000
O O14 0.928092 0.006328 0.202941
O O15 0.415691 0.338135 0.141623
O O16 0.521329 0.380743 0.910660
O O17 0.500000 0.500000 0.000000
O O18 0.500000 0.087239 0.250000
#
# Coordination Sequence:
#
# PCOD8152852 Si02
#       8
#     8   8   8   8   8   8   8   8
#     4  12  25  42  69  97 128 171 223 268 322 382
#     4  11  23  39  62  90 130 173 221 261 317 385
#     4  11  23  40  67  97 130 167 216 272 321 380
#     4  12  27  44  62  93 135 172 217 265 327 383
#     4  11  23  40  67  97 130 166 216 271 324 377
#     4  12  25  42  69  97 129 171 219 271 323 383
#     4  11  23  39  62  91 129 175 218 264 316 385
#     4  12  27  44  62  92 132 176 215 265 324 386
#
# _framework density 19.636865
#
# number of rings (size 3 to 8) (size 9 to 14) (size 15 to 20)
#    0.000    0.500    5.000    5.250    7.000    1.000 
#    0.000    0.000    0.000    1.500    0.000    0.000 
#    0.000    0.000    0.000    0.000    0.000    0.000 
#
# Total GULP energy -396708.967302 kJ/mol
# GULP energy per Si atom -12397.155228 kJ/mol
# Density = 1.959217 g / cm^3
# Si number density = 19.636865 Si / 1000 Ang^3
#
#
#
# Elastic Constant Matrix: (Units=GPa)
#
#
# Indices 1 2 3 4 5 6 
#
# 1 105.0896 51.0804 50.0681 0.0050 -16.4624 -0.0150
# 2 51.0804 125.3087 50.2158 0.0200 -2.6953 -0.0114
# 3 50.0681 50.2158 140.4324 0.0305 -23.5442 0.0192
# 4 0.0050 0.0200 0.0305 31.4943 -0.0119 -5.0312
# 5 -16.4624 -2.6953 -23.5442 -0.0119 44.0522 0.0044
# 6 -0.0150 -0.0114 0.0192 -5.0312 0.0044 37.7444
#
#
#
# Elastic Compliance Matrix: (Units=1/GPa)
#
#
# Indices 1 2 3 4 5 6 
#
# 1 0.013413 -0.004322 -0.002681 0.000005 0.003315 0.000006
# 2 -0.004322 0.010779 -0.002717 -0.000004 -0.002408 0.000003
# 3 -0.002681 -0.002717 0.009724 -0.000007 0.004029 -0.000008
# 4 0.000005 -0.000004 -0.000007 0.032443 0.000006 0.004324
# 5 0.003315 -0.002408 0.004029 0.000006 0.025945 -0.000004
# 6 0.000006 0.000003 -0.000008 0.004324 -0.000004 0.027070
#
#
# Mechanical properties :
#
#
# Convention : Reuss Voigt Hill
#
# Bulk Modulus (GPa) = 69.08052 74.83990 71.96021
# Shear Modulus (GPa) = 34.80933 37.28927 36.04930
#
# Velocity S-wave (km/s) = 4.21486 4.36241 4.28927
# Velocity P-wave (km/s) = 7.67737 7.97301 7.82659
#
# Compressibility (1/GPa) = 0.01447586
#
# Stress axis : x y z
#
# Youngs Moduli (GPa) = 74.55423 92.77133 102.84113
#
# Poissons Ratio (x) = 0.40096 0.27570
# Poissons Ratio (y) = 0.32223 0.27944
# Poissons Ratio (z) = 0.19987 0.25208
#
# Static dielectric constant tensor:
#      x y z
#    x 2.355340 -0.002500 0.008330 
#    y -0.002500 4.204870 0.000430 
#    z 0.008330 0.000430 3.619320 
# 
# 
# High freq. dielectric constant tensor:
#      x y z
#    x 1.758570 0.000000 -0.021430 
#    y 0.000000 1.767210 0.000010 
#    z -0.021430 0.000010 1.779170 
# 
# From -- ./inp_files/255978.got.cif
#   From: 2010.06.25/outbox.cif.g09.slc.cpg/sg15_128_cif.got.tgz:255978.got - 2010.06.28 07:06:18.
