data_PCOD8152865
_publ_section_title
;
Structure prediction by ZEFSAII (Michael W. Deem and Ramdas Pophale) SiO2 
 PCOD8152865
Probable space group: C 2/C
;
_chemical_formula_sum "Si O2"
_cell_formula_units_Z 64
_cell_length_a 16.239289
_cell_length_b 27.393007
_cell_length_c 12.519540
_cell_angle_alpha 90.000000
_cell_angle_beta 146.518620
_cell_angle_gamma 90.000000
_cell_volume 3072.354170
_symmetry_space_group_name_H-M "C 2/C"
_symmetry_group_IT_number 15
_symmetry_cell_setting 'monoclinic'
loop_
_space_group_symop_operation_xyz
x,y,z
-x,y,1/2-z
-x,-y,-z
x,-y,1/2+z
1/2+x,1/2+y,z
1/2-x,1/2+y,1/2-z
1/2-x,1/2-y,-z
1/2+x,1/2-y,1/2+z
loop_
_atom_site_type_symbol
_atom_site_label
_atom_site_fract_x
_atom_site_fract_y
_atom_site_fract_z
Si Si1 0.993747 0.890890 0.367189
Si Si2 0.253747 0.732039 0.879764
Si Si3 0.229081 0.614324 0.061157
Si Si4 0.369770 0.510506 0.523527
Si Si5 0.654258 0.011841 0.960970
Si Si6 0.943150 0.185110 0.386653
Si Si7 0.079977 0.636815 0.683378
Si Si8 0.263567 0.938159 0.288233
O O1 0.029265 0.841531 0.470913
O O2 0.000000 0.876055 0.250000
O O3 0.832132 0.909298 0.227815
O O4 0.103263 0.937443 0.506296
O O5 0.194723 0.777545 0.746025
O O6 0.127645 0.692339 0.717813
O O7 0.250000 0.750000 0.000000
O O8 0.414363 0.712071 0.013433
O O9 0.385049 0.642537 0.244410
O O10 0.254681 0.557039 0.111400
O O11 0.180951 0.617451 0.887807
O O12 0.097671 0.636636 0.992741
O O13 0.500000 0.497865 0.750000
O O14 0.223059 0.517204 0.436056
O O15 0.345548 0.466140 0.413613
O O16 0.500000 0.034012 0.750000
O O17 0.632368 0.976930 0.038361
O O18 0.121074 0.600883 0.632352
#
# Coordination Sequence:
#
# PCOD8152865 Si02
#       8
#     8   8   8   8   8   8   8   8
#     4  11  24  45  66  99 132 178 236 286 321 402
#     4  12  25  42  68 107 131 168 220 281 353 423
#     4  11  23  42  62 103 139 182 218 273 336 413
#     4  11  23  39  66  99 140 180 234 283 331 409
#     4  12  24  41  63 100 142 186 236 280 329 391
#     4  12  26  43  75  96 137 178 218 279 362 406
#     4  11  23  42  65  96 146 173 222 275 335 420
#     4  12  23  41  68  98 139 187 232 279 344 395
#
# _framework density 20.830931
#
# number of rings (size 3 to 8) (size 9 to 14) (size 15 to 20)
#    0.000    0.500    7.500    2.250    3.500    3.000 
#    0.000    0.625    0.000    0.000    0.000    0.000 
#    0.000    0.000    0.000    0.000    0.000    0.000 
#
# Total GULP energy -396536.897635 kJ/mol
# GULP energy per Si atom -12391.778051 kJ/mol
# Density = 2.078352 g / cm^3
# Si number density = 20.830931 Si / 1000 Ang^3
#
#
#
# Elastic Constant Matrix: (Units=GPa)
#
#
# Indices 1 2 3 4 5 6 
#
# 1 102.7097 40.3972 37.3923 0.0000 -2.0666 0.0000
# 2 40.3972 134.3220 42.9554 0.0000 -6.6656 0.0000
# 3 37.3923 42.9554 74.5045 0.0000 -4.8652 0.0000
# 4 0.0000 0.0000 0.0000 95.5027 0.0000 16.1923
# 5 -2.0666 -6.6656 -4.8652 0.0000 27.7007 0.0000
# 6 0.0000 0.0000 0.0000 16.1923 0.0000 44.7221
#
#
#
# Elastic Compliance Matrix: (Units=1/GPa)
#
#
# Indices 1 2 3 4 5 6 
#
# 1 0.012397 -0.002148 -0.005014 0.000000 -0.000473 0.000000
# 2 -0.002148 0.009546 -0.004335 0.000000 0.001375 0.000000
# 3 -0.005014 -0.004335 0.018558 0.000000 0.001842 0.000000
# 4 0.000000 0.000000 0.000000 0.011156 0.000000 -0.004039
# 5 -0.000473 0.001375 0.001842 0.000000 0.036719 0.000000
# 6 0.000000 0.000000 0.000000 -0.004039 0.000000 0.023823
#
#
# Mechanical properties :
#
#
# Convention : Reuss Voigt Hill
#
# Bulk Modulus (GPa) = 57.12584 61.44733 59.28659
# Shear Modulus (GPa) = 35.45353 46.30453 40.87903
#
# Velocity S-wave (km/s) = 4.12996 4.71985 4.43473
# Velocity P-wave (km/s) = 7.08698 7.69836 7.39899
#
# Compressibility (1/GPa) = 0.01750521
#
# Stress axis : x y z
#
# Youngs Moduli (GPa) = 80.66426 104.76000 53.88410
#
# Poissons Ratio (x) = 0.22507 0.27018
# Poissons Ratio (y) = 0.17330 0.23361
# Poissons Ratio (z) = 0.40445 0.45418
#
# Static dielectric constant tensor:
#      x y z
#    x 3.900820 0.000000 0.068220 
#    y 0.000000 4.208190 0.000000 
#    z 0.068220 0.000000 3.414750 
# 
# 
# High freq. dielectric constant tensor:
#      x y z
#    x 1.813740 0.000000 0.012540 
#    y 0.000000 1.827560 0.000000 
#    z 0.012540 0.000000 1.797070 
# 
# From -- ./inp_files/101369.got.cif
#   From: 2010.06.25/outbox.cif.g09.slc.cpg/sg15_51_cif.got.tgz:101369.got - 2010.06.28 07:06:18.
