data_PCOD8152761
_publ_section_title
;
Structure prediction by ZEFSAII (Michael W. Deem and Ramdas Pophale) SiO2 
 PCOD8152761
Probable space group: C 2/C
;
_chemical_formula_sum "Si O2"
_cell_formula_units_Z 44
_cell_length_a 9.755442
_cell_length_b 29.846872
_cell_length_c 8.134221
_cell_angle_alpha 90.000000
_cell_angle_beta 128.117760
_cell_angle_gamma 90.000000
_cell_volume 1863.352531
_symmetry_space_group_name_H-M "C 2/C"
_symmetry_group_IT_number 15
_symmetry_cell_setting 'monoclinic'
loop_
_space_group_symop_operation_xyz
x,y,z
-x,y,1/2-z
-x,-y,-z
x,-y,1/2+z
1/2+x,1/2+y,z
1/2-x,1/2+y,1/2-z
1/2-x,1/2-y,-z
1/2+x,1/2-y,1/2+z
loop_
_atom_site_type_symbol
_atom_site_label
_atom_site_fract_x
_atom_site_fract_y
_atom_site_fract_z
Si Si1 0.022243 0.198609 0.081120
Si Si2 0.967894 0.375293 0.411350
Si Si3 0.113236 0.537267 0.994451
Si Si4 0.082317 0.286047 0.646634
Si Si5 0.000000 0.944846 0.750000
Si Si6 0.918779 0.108821 0.863307
O O1 0.221009 0.201076 0.177179
O O2 0.000000 0.181554 0.250000
O O3 0.929601 0.246971 0.997886
O O4 0.936797 0.162244 0.898307
O O5 0.785222 0.400855 0.296751
O O6 0.000000 0.358381 0.250000
O O7 0.108834 0.413113 0.576386
O O8 0.976550 0.330969 0.526859
O O9 0.000000 0.546950 0.750000
O O10 0.319732 0.524981 0.121645
O O11 0.000000 0.500000 0.000000
O O12 0.000000 0.265344 0.750000
O O13 0.000565 0.916442 0.581820
O O14 0.000000 0.092436 0.750000
#
# Coordination Sequence:
#
# PCOD8152761 Si02
#       6
#     8   8   8   8   4   8
#     4  12  23  40  62  99 139 195 242 298 365 422
#     4  11  22  46  67  99 144 187 240 305 365 438
#     4  11  26  49  77 111 148 188 247 301 369 454
#     4  12  24  39  62  96 141 185 246 306 356 429
#     4  12  24  52  78 108 156 198 236 306 380 432
#     4  12  24  43  75 108 146 195 250 299 364 444
#
# _framework density 23.613354000000001
#
# number of rings (size 3 to 8) (size 9 to 14) (size 15 to 20)
#    0.000    0.364    4.545    6.545    0.000    2.909 
#    1.636    0.000    0.000    0.000    0.000    0.000 
#    0.000    0.000    0.000    0.000    0.000    0.000 
#
# Total GULP energy -272724.021828 kJ/mol
# GULP energy per Si atom -12396.546447 kJ/mol
# Density = 2.355961 g / cm^3
# Si number density = 23.613354 Si / 1000 Ang^3
#
#
#
# Elastic Constant Matrix: (Units=GPa)
#
#
# Indices 1 2 3 4 5 6 
#
# 1 157.5403 26.2850 45.7053 0.0000 9.4629 0.0000
# 2 26.2850 93.9864 31.1213 0.0000 -2.0211 0.0000
# 3 45.7053 31.1213 76.4193 0.0000 5.6201 0.0000
# 4 0.0000 0.0000 0.0000 13.5604 0.0000 4.3505
# 5 9.4629 -2.0211 5.6201 0.0000 55.1026 0.0000
# 6 0.0000 0.0000 0.0000 4.3505 0.0000 36.1657
#
#
#
# Elastic Compliance Matrix: (Units=1/GPa)
#
#
# Indices 1 2 3 4 5 6 
#
# 1 0.007770 -0.000782 -0.004260 0.000000 -0.000929 0.000000
# 2 -0.000782 0.012429 -0.004672 0.000000 0.001067 0.000000
# 3 -0.004260 -0.004672 0.017627 0.000000 -0.001238 0.000000
# 4 0.000000 0.000000 0.000000 0.076704 0.000000 -0.009227
# 5 -0.000929 0.001067 -0.001238 0.000000 0.018473 0.000000
# 6 0.000000 0.000000 0.000000 -0.009227 0.000000 0.028760
#
#
# Mechanical properties :
#
#
# Convention : Reuss Voigt Hill
#
# Bulk Modulus (GPa) = 54.35739 59.35212 56.85476
# Shear Modulus (GPa) = 26.69166 35.95470 31.32318
#
# Velocity S-wave (km/s) = 3.36573 3.90634 3.64607
# Velocity P-wave (km/s) = 6.17851 6.74800 6.46952
#
# Compressibility (1/GPa) = 0.01839676
#
# Stress axis : x y z
#
# Youngs Moduli (GPa) = 128.70304 80.45970 56.73020
#
# Poissons Ratio (x) = 0.06294 0.24168
# Poissons Ratio (y) = 0.10068 0.26505
# Poissons Ratio (z) = 0.54829 0.37591
#
# Static dielectric constant tensor:
#      x y z
#    x 3.834240 0.000000 0.132300 
#    y 0.000000 6.164850 0.000000 
#    z 0.132300 0.000000 4.426270 
# 
# 
# High freq. dielectric constant tensor:
#      x y z
#    x 1.948620 0.000000 0.010030 
#    y 0.000000 1.931320 0.000000 
#    z 0.010030 0.000000 1.929870 
# 
# From -- ./inp_files/26281.got.cif
#   From: 2010.06.25/outbox.cif.g09.slc.cpg/sg15_14_cif.got.tgz:26281.got - 2010.06.28 07:06:18.
