data_PCOD8152826
_publ_section_title
;
Structure prediction by ZEFSAII (Michael W. Deem and Ramdas Pophale) SiO2 
 PCOD8152826
Probable space group: C 2/C
;
_chemical_formula_sum "Si O2"
_cell_formula_units_Z 64
_cell_length_a 12.804035
_cell_length_b 25.162543
_cell_length_c 14.763289
_cell_angle_alpha 90.000000
_cell_angle_beta 140.212349
_cell_angle_gamma 90.000000
_cell_volume 3043.873087
_symmetry_space_group_name_H-M "C 2/C"
_symmetry_group_IT_number 15
_symmetry_cell_setting 'monoclinic'
loop_
_space_group_symop_operation_xyz
x,y,z
-x,y,1/2-z
-x,-y,-z
x,-y,1/2+z
1/2+x,1/2+y,z
1/2-x,1/2+y,1/2-z
1/2-x,1/2-y,-z
1/2+x,1/2-y,1/2+z
loop_
_atom_site_type_symbol
_atom_site_label
_atom_site_fract_x
_atom_site_fract_y
_atom_site_fract_z
Si Si1 0.640965 0.645565 0.775725
Si Si2 0.593088 0.131898 0.226015
Si Si3 0.257438 0.036202 0.261120
Si Si4 0.305784 0.533001 0.620993
Si Si5 0.542183 0.602045 0.383582
Si Si6 0.630607 0.774896 0.996319
Si Si7 0.456517 0.331908 0.983355
Si Si8 0.810978 0.474624 0.119983
O O1 0.500000 0.663513 0.750000
O O2 0.728572 0.592932 0.871552
O O3 0.767672 0.693886 0.859610
O O4 0.570331 0.634929 0.628804
O O5 0.500000 0.107719 0.250000
O O6 0.607498 0.082808 0.164316
O O7 0.772267 0.149576 0.375674
O O8 0.500585 0.184272 0.131078
O O9 0.078944 0.061635 0.147430
O O10 0.292793 0.006878 0.379134
O O11 0.251641 0.991611 0.179586
O O12 0.500000 0.519895 0.750000
O O13 0.228445 0.525024 0.470728
O O14 0.500000 0.611424 0.250000
O O15 0.522802 0.657803 0.425384
O O16 0.721037 0.577255 0.518067
O O17 0.529094 0.729974 0.981426
O O18 0.750000 0.750000 0.000000
O O19 0.000000 0.459918 0.250000
#
# Coordination Sequence:
#
# PCOD8152826 Si02
#       8
#     8   8   8   8   8   8   8   8
#     4  11  23  37  62  98 138 173 216 267 337 417
#     4  11  23  38  64  98 134 174 223 272 335 410
#     4  11  23  41  68  93 134 182 226 265 335 404
#     4  11  24  43  64  96 137 184 223 261 330 406
#     4  11  23  48  68  96 129 184 238 279 325 407
#     4  12  23  41  64  99 144 172 214 285 354 401
#     4  11  24  40  70  95 129 183 226 273 344 392
#     4  12  25  40  67  99 141 173 222 278 338 402
#
# _framework density 21.025842999999998
#
# number of rings (size 3 to 8) (size 9 to 14) (size 15 to 20)
#    0.000    0.750    5.000    2.250   10.500    0.500 
#    2.250    0.000    0.000    6.750    0.000    0.875 
#    0.000    0.000    0.000    0.000    0.000    0.000 
#
# Total GULP energy -396787.860004 kJ/mol
# GULP energy per Si atom -12399.620625 kJ/mol
# Density = 2.097799 g / cm^3
# Si number density = 21.025843 Si / 1000 Ang^3
#
#
#
# Elastic Constant Matrix: (Units=GPa)
#
#
# Indices 1 2 3 4 5 6 
#
# 1 106.9255 48.0039 44.5944 0.0000 -12.6445 0.0000
# 2 48.0039 111.1741 27.4463 0.0000 1.0259 0.0000
# 3 44.5944 27.4463 103.6537 0.0000 0.8333 0.0000
# 4 0.0000 0.0000 0.0000 25.2005 0.0000 2.4267
# 5 -12.6445 1.0259 0.8333 0.0000 28.6472 0.0000
# 6 0.0000 0.0000 0.0000 2.4267 0.0000 32.4352
#
#
#
# Elastic Compliance Matrix: (Units=1/GPa)
#
#
# Indices 1 2 3 4 5 6 
#
# 1 0.014499 -0.005103 -0.004941 0.000000 0.006726 0.000000
# 2 -0.005103 0.011422 -0.000808 0.000000 -0.002638 0.000000
# 3 -0.004941 -0.000808 0.012007 0.000000 -0.002501 0.000000
# 4 0.000000 0.000000 0.000000 0.039970 0.000000 -0.002990
# 5 0.006726 -0.002638 -0.002501 0.000000 0.038044 0.000000
# 6 0.000000 0.000000 0.000000 -0.002990 0.000000 0.031054
#
#
# Mechanical properties :
#
#
# Convention : Reuss Voigt Hill
#
# Bulk Modulus (GPa) = 61.63185 62.42694 62.02940
# Shear Modulus (GPa) = 28.71779 30.70380 29.71080
#
# Velocity S-wave (km/s) = 3.69973 3.82552 3.76315
# Velocity P-wave (km/s) = 6.90121 7.01910 6.96041
#
# Compressibility (1/GPa) = 0.01622538
#
# Stress axis : x y z
#
# Youngs Moduli (GPa) = 68.96885 87.54968 83.28349
#
# Poissons Ratio (x) = 0.44676 0.41149
# Poissons Ratio (y) = 0.35195 0.06728
# Poissons Ratio (z) = 0.34076 0.07072
#
# Static dielectric constant tensor:
#      x y z
#    x 3.967550 0.000000 -0.054840 
#    y 0.000000 3.978730 0.000000 
#    z -0.054840 0.000000 3.825820 
# 
# 
# High freq. dielectric constant tensor:
#      x y z
#    x 1.803680 0.000000 -0.002950 
#    y 0.000000 1.819880 0.000000 
#    z -0.002950 0.000000 1.832710 
# 
# From -- ./inp_files/148787.got.cif
#   From: 2010.06.25/outbox.cif.g09.slc.cpg/sg15_75_cif.got.tgz:148787.got - 2010.06.28 07:06:18.
