data_PCOD8152723
_publ_section_title
;
Structure prediction by ZEFSAII (Michael W. Deem and Ramdas Pophale) SiO2 
 PCOD8152723
Probable space group: C 2/C
;
_chemical_formula_sum "Si O2"
_cell_formula_units_Z 44
_cell_length_a 8.712422
_cell_length_b 16.594302
_cell_length_c 14.124797
_cell_angle_alpha 90.000000
_cell_angle_beta 100.366633
_cell_angle_gamma 90.000000
_cell_volume 2008.779990
_symmetry_space_group_name_H-M "C 2/C"
_symmetry_group_IT_number 15
_symmetry_cell_setting 'monoclinic'
loop_
_space_group_symop_operation_xyz
x,y,z
-x,y,1/2-z
-x,-y,-z
x,-y,1/2+z
1/2+x,1/2+y,z
1/2-x,1/2+y,1/2-z
1/2-x,1/2-y,-z
1/2+x,1/2-y,1/2+z
loop_
_atom_site_type_symbol
_atom_site_label
_atom_site_fract_x
_atom_site_fract_y
_atom_site_fract_z
Si Si1 0.000000 0.829786 0.750000
Si Si2 0.597855 0.330930 0.068366
Si Si3 0.712276 0.591823 0.932473
Si Si4 0.235238 0.778446 0.283637
Si Si5 0.246326 0.093767 0.409439
Si Si6 0.554083 0.179848 0.410813
O O1 0.106860 0.772528 0.698209
O O2 0.099330 0.888889 0.827076
O O3 0.474746 0.403337 0.072819
O O4 0.688044 0.302784 0.172460
O O5 0.498016 0.252444 0.023435
O O6 0.724743 0.358694 0.006001
O O7 0.762004 0.638799 0.843312
O O8 0.763516 0.500304 0.929241
O O9 0.802628 0.629900 0.031449
O O10 0.103519 0.723429 0.318798
O O11 0.404951 0.122493 0.376075
#
# Coordination Sequence:
#
# PCOD8152723 Si02
#       6
#     4   8   8   8   8   8
#     4  12  26  44  70  96 136 180 250 268 352 404
#     4  11  23  44  69  99 138 181 231 274 343 408
#     4  11  24  43  70  99 140 178 227 282 354 400
#     4  11  25  45  71  99 132 190 232 284 328 426
#     4  12  26  42  69 105 138 178 226 298 336 414
#     4  11  22  45  69  97 134 179 232 272 347 410
#
# _framework density 21.903842000000001
#
# number of rings (size 3 to 8) (size 9 to 14) (size 15 to 20)
#    0.000    0.727    1.818    8.182    5.091    0.000 
#    0.000    0.000    0.000    0.000    0.000    0.000 
#    0.000    0.000    0.000    0.000    0.000    0.000 
#
# Total GULP energy -272802.868334 kJ/mol
# GULP energy per Si atom -12400.130379 kJ/mol
# Density = 2.185399 g / cm^3
# Si number density = 21.903842 Si / 1000 Ang^3
#
#
#
# Elastic Constant Matrix: (Units=GPa)
#
#
# Indices 1 2 3 4 5 6 
#
# 1 85.4373 39.3086 33.1008 0.0000 3.9522 0.0000
# 2 39.3086 122.9341 33.1422 0.0000 -7.9168 0.0000
# 3 33.1008 33.1422 120.4009 0.0000 5.8798 0.0000
# 4 0.0000 0.0000 0.0000 11.7665 0.0000 -6.7005
# 5 3.9522 -7.9168 5.8798 0.0000 34.1478 0.0000
# 6 0.0000 0.0000 0.0000 -6.7005 0.0000 21.8111
#
#
#
# Elastic Compliance Matrix: (Units=1/GPa)
#
#
# Indices 1 2 3 4 5 6 
#
# 1 0.014791 -0.004107 -0.002830 0.000000 -0.002177 0.000000
# 2 -0.004107 0.010139 -0.001815 0.000000 0.003139 0.000000
# 3 -0.002830 -0.001815 0.009669 0.000000 -0.001758 0.000000
# 4 0.000000 0.000000 0.000000 0.103007 0.000000 0.031644
# 5 -0.002177 0.003139 -0.001758 0.000000 0.030567 0.000000
# 6 0.000000 0.000000 0.000000 0.031644 0.000000 0.055569
#
#
# Mechanical properties :
#
#
# Convention : Reuss Voigt Hill
#
# Bulk Modulus (GPa) = 58.49342 59.98616 59.23979
# Shear Modulus (GPa) = 20.24751 28.42646 24.33698
#
# Velocity S-wave (km/s) = 3.04366 3.60639 3.33691
# Velocity P-wave (km/s) = 6.25416 6.69230 6.47694
#
# Compressibility (1/GPa) = 0.01709594
#
# Stress axis : x y z
#
# Youngs Moduli (GPa) = 67.60900 98.62839 103.42321
#
# Poissons Ratio (x) = 0.40505 0.29264
# Poissons Ratio (y) = 0.27766 0.18773
# Poissons Ratio (z) = 0.19131 0.17903
#
# Static dielectric constant tensor:
#      x y z
#    x 4.228920 0.000000 -0.054620 
#    y 0.000000 3.966920 0.000000 
#    z -0.054620 0.000000 3.784310 
# 
# 
# High freq. dielectric constant tensor:
#      x y z
#    x 1.873780 0.000000 0.005450 
#    y 0.000000 1.858180 0.000000 
#    z 0.005450 0.000000 1.858160 
# 
# From -- ./inp_files/134528.got.cif
#   From: 2010.06.25/outbox.cif.g09.slc.cpg/sg15_68_cif.got.tgz:134528.got - 2010.06.28 07:06:18.
