data_PCOD8152676
_publ_section_title
;
Structure prediction by ZEFSAII (Michael W. Deem and Ramdas Pophale) SiO2 
 PCOD8152676
Probable space group: C 2/C
;
_chemical_formula_sum "Si O2"
_cell_formula_units_Z 48
_cell_length_a 11.133458
_cell_length_b 11.112966
_cell_length_c 22.125479
_cell_angle_alpha 90.000000
_cell_angle_beta 50.991380
_cell_angle_gamma 90.000000
_cell_volume 2127.171074
_symmetry_space_group_name_H-M "C 2/C"
_symmetry_group_IT_number 15
_symmetry_cell_setting 'monoclinic'
loop_
_space_group_symop_operation_xyz
x,y,z
-x,y,1/2-z
-x,-y,-z
x,-y,1/2+z
1/2+x,1/2+y,z
1/2-x,1/2+y,1/2-z
1/2-x,1/2-y,-z
1/2+x,1/2-y,1/2+z
loop_
_atom_site_type_symbol
_atom_site_label
_atom_site_fract_x
_atom_site_fract_y
_atom_site_fract_z
Si Si1 0.835058 0.264521 0.829267
Si Si2 0.337714 0.406675 0.824565
Si Si3 0.829450 0.602365 0.699509
Si Si4 0.650725 0.582714 0.573706
Si Si5 0.819768 0.837919 0.132659
Si Si6 0.164233 0.497339 0.597045
O O1 0.704420 0.234632 0.819760
O O2 0.788395 0.188454 0.902855
O O3 0.842742 0.403673 0.844992
O O4 0.000000 0.223527 0.750000
O O5 0.500000 0.350538 0.750000
O O6 0.290994 0.512013 0.793548
O O7 0.362891 0.459042 0.884059
O O8 0.204286 0.305366 0.866747
O O9 0.798886 0.610270 0.780186
O O10 0.001182 0.557401 0.633475
O O11 0.492359 0.628556 0.594985
O O12 0.776721 0.565881 0.481901
O O13 0.781014 0.897963 0.080569
#
# Coordination Sequence:
#
# PCOD8152676 Si02
#       6
#     8   8   8   8   8   8
#     4  11  22  44  71  92 131 182 226 282 338 399
#     4  11  23  43  71  93 131 182 230 288 333 398
#     4  11  23  42  68  97 132 174 234 282 334 408
#     4  11  24  46  65  96 140 177 225 281 348 403
#     4  12  24  42  67  96 134 182 227 274 344 409
#     4  12  27  39  65 106 137 171 227 286 342 413
#
# _framework density 22.565180000000002
#
# number of rings (size 3 to 8) (size 9 to 14) (size 15 to 20)
#    0.000    0.667    3.333    5.500    2.333    6.000 
#    0.000    0.000    0.000    0.000    0.000    0.000 
#    0.000    0.000    0.000    0.000    0.000    0.000 
#
# Total GULP energy -297673.612866 kJ/mol
# GULP energy per Si atom -12403.067203 kJ/mol
# Density = 2.251382 g / cm^3
# Si number density = 22.565180 Si / 1000 Ang^3
#
#
#
# Elastic Constant Matrix: (Units=GPa)
#
#
# Indices 1 2 3 4 5 6 
#
# 1 97.1408 33.3755 13.0793 0.0000 -8.9986 0.0000
# 2 33.3755 91.4144 14.4199 0.0000 -0.9694 0.0000
# 3 13.0793 14.4199 67.0886 0.0000 -2.4508 0.0000
# 4 0.0000 0.0000 0.0000 21.2000 0.0000 3.1851
# 5 -8.9986 -0.9694 -2.4508 0.0000 32.0497 0.0000
# 6 0.0000 0.0000 0.0000 3.1851 0.0000 23.4212
#
#
#
# Elastic Compliance Matrix: (Units=1/GPa)
#
#
# Indices 1 2 3 4 5 6 
#
# 1 0.012222 -0.004214 -0.001360 0.000000 0.003200 0.000000
# 2 -0.004214 0.012777 -0.001959 0.000000 -0.000946 0.000000
# 3 -0.001360 -0.001959 0.015619 0.000000 0.000753 0.000000
# 4 0.000000 0.000000 0.000000 0.048154 0.000000 -0.006548
# 5 0.003200 -0.000946 0.000753 0.000000 0.032129 0.000000
# 6 0.000000 0.000000 0.000000 -0.006548 0.000000 0.043587
#
#
# Mechanical properties :
#
#
# Convention : Reuss Voigt Hill
#
# Bulk Modulus (GPa) = 39.13641 41.93257 40.53449
# Shear Modulus (GPa) = 26.58579 28.31879 27.45229
#
# Velocity S-wave (km/s) = 3.43618 3.54641 3.49173
# Velocity P-wave (km/s) = 5.75539 5.94917 5.85308
#
# Compressibility (1/GPa) = 0.02555166
#
# Stress axis : x y z
#
# Youngs Moduli (GPa) = 81.82233 78.26797 64.02267
#
# Poissons Ratio (x) = 0.32979 0.08708
# Poissons Ratio (y) = 0.34477 0.12544
# Poissons Ratio (z) = 0.11129 0.15335
#
# Static dielectric constant tensor:
#      x y z
#    x 4.156990 0.000000 0.280930 
#    y 0.000000 4.110770 0.000000 
#    z 0.280930 0.000000 3.973990 
# 
# 
# High freq. dielectric constant tensor:
#      x y z
#    x 1.896870 0.000000 0.010400 
#    y 0.000000 1.895350 0.000000 
#    z 0.010400 0.000000 1.879950 
# 
# From -- ./inp_files/196054.got.cif
#   From: 2010.06.25/outbox.cif.g09.slc.cpg/sg15_99_cif.got.tgz:196054.got - 2010.06.28 07:06:18.
