data_PCOD8152609
_publ_section_title
;
Structure prediction by ZEFSAII (Michael W. Deem and Ramdas Pophale) SiO2 
 PCOD8152609
Probable space group: C 2/C
;
_chemical_formula_sum "Si O2"
_cell_formula_units_Z 48
_cell_length_a 11.236028
_cell_length_b 10.368757
_cell_length_c 19.165460
_cell_angle_alpha 90.000000
_cell_angle_beta 114.237058
_cell_angle_gamma 90.000000
_cell_volume 2036.031263
_symmetry_space_group_name_H-M "C 2/C"
_symmetry_group_IT_number 15
_symmetry_cell_setting 'monoclinic'
loop_
_space_group_symop_operation_xyz
x,y,z
-x,y,1/2-z
-x,-y,-z
x,-y,1/2+z
1/2+x,1/2+y,z
1/2-x,1/2+y,1/2-z
1/2-x,1/2-y,-z
1/2+x,1/2-y,1/2+z
loop_
_atom_site_type_symbol
_atom_site_label
_atom_site_fract_x
_atom_site_fract_y
_atom_site_fract_z
Si Si1 0.512691 0.336007 0.385087
Si Si2 0.397097 0.066877 0.330016
Si Si3 0.536248 0.285056 0.545570
Si Si4 0.290012 0.955314 0.435470
Si Si5 0.871133 0.389241 0.086787
Si Si6 0.291874 0.508051 0.337955
O O1 0.486967 0.193200 0.351555
O O2 0.491392 0.353113 0.463494
O O3 0.656245 0.376915 0.396836
O O4 0.407909 0.433568 0.325433
O O5 0.311123 0.066843 0.240115
O O6 0.303589 0.057293 0.375391
O O7 0.492725 0.945914 0.352608
O O8 0.591354 0.145626 0.536850
O O9 0.410343 0.254602 0.566315
O O10 0.648120 0.369672 0.607746
O O11 0.299451 0.028954 0.510104
O O12 0.773584 0.397068 0.128790
#
# Coordination Sequence:
#
# PCOD8152609 Si02
#       6
#     8   8   8   8   8   8
#     4  12  24  43  71  99 135 183 226 283 349 414
#     4  11  25  46  64 101 138 177 228 295 341 405
#     4  11  22  43  71  99 134 178 233 287 335 416
#     4  11  22  43  73  98 130 180 240 275 337 418
#     4  11  22  44  70  98 134 182 230 282 340 414
#     4  12  28  41  65 103 142 176 232 280 357 417
#
# _framework density 23.575277
#
# number of rings (size 3 to 8) (size 9 to 14) (size 15 to 20)
#    0.000    0.667    5.000    3.500    4.667    2.667 
#    0.000    0.000    0.000    0.000    0.000    0.000 
#    0.000    0.000    0.000    0.000    0.000    0.000 
#
# Total GULP energy -297596.445325 kJ/mol
# GULP energy per Si atom -12399.851889 kJ/mol
# Density = 2.352162 g / cm^3
# Si number density = 23.575277 Si / 1000 Ang^3
#
#
#
# Elastic Constant Matrix: (Units=GPa)
#
#
# Indices 1 2 3 4 5 6 
#
# 1 92.8096 20.2677 38.9714 0.0000 17.1528 0.0000
# 2 20.2677 41.1964 -3.4290 0.0000 3.7654 0.0000
# 3 38.9714 -3.4290 50.0026 0.0000 -9.4441 0.0000
# 4 0.0000 0.0000 0.0000 22.4492 0.0000 7.6702
# 5 17.1528 3.7654 -9.4441 0.0000 17.1140 0.0000
# 6 0.0000 0.0000 0.0000 7.6702 0.0000 48.1475
#
#
#
# Elastic Compliance Matrix: (Units=1/GPa)
#
#
# Indices 1 2 3 4 5 6 
#
# 1 0.065599 -0.029207 -0.071820 0.000000 -0.098955 0.000000
# 2 -0.029207 0.037801 0.032725 0.000000 0.039015 0.000000
# 3 -0.071820 0.032725 0.100979 0.000000 0.120508 0.000000
# 4 0.000000 0.000000 0.000000 0.047109 0.000000 -0.007505
# 5 -0.098955 0.039015 0.120508 0.000000 0.215529 0.000000
# 6 0.000000 0.000000 0.000000 -0.007505 0.000000 0.021965
#
#
# Mechanical properties :
#
#
# Convention : Reuss Voigt Hill
#
# Bulk Modulus (GPa) = 14.75474 32.84763 23.80118
# Shear Modulus (GPa) = 7.71391 26.08870 16.90131
#
# Velocity S-wave (km/s) = 1.81084 3.33019 2.68042
# Velocity P-wave (km/s) = 3.26257 5.36192 4.43816
#
# Compressibility (1/GPa) = 0.06777484
#
# Stress axis : x y z
#
# Youngs Moduli (GPa) = 15.24404 26.45434 9.90300
#
# Poissons Ratio (x) = 0.77265 0.71124
# Poissons Ratio (y) = 0.44523 -0.32407
# Poissons Ratio (z) = 1.09483 -0.86571
#
# Static dielectric constant tensor:
#      x y z
#    x 4.385720 0.000000 -0.057100 
#    y 0.000000 4.166550 0.000000 
#    z -0.057100 0.000000 4.200800 
# 
# 
# High freq. dielectric constant tensor:
#      x y z
#    x 1.945870 0.000000 0.012210 
#    y 0.000000 1.926630 0.000000 
#    z 0.012210 0.000000 1.925480 
# 
# From -- ./inp_files/196584.got.cif
#   From: 2010.06.25/outbox.cif.g09.slc.cpg/sg15_99_cif.got.tgz:196584.got - 2010.06.28 07:06:18.
