data_PCOD8152429
_publ_section_title
;
Structure prediction by ZEFSAII (Michael W. Deem and Ramdas Pophale) SiO2 
 PCOD8152429
Probable space group: C 2/C
;
_chemical_formula_sum "Si O2"
_cell_formula_units_Z 56
_cell_length_a 22.175328
_cell_length_b 14.050550
_cell_length_c 8.411614
_cell_angle_alpha 90.000000
_cell_angle_beta 114.296698
_cell_angle_gamma 90.000000
_cell_volume 2388.716436
_symmetry_space_group_name_H-M "C 2/C"
_symmetry_group_IT_number 15
_symmetry_cell_setting 'monoclinic'
loop_
_space_group_symop_operation_xyz
x,y,z
-x,y,1/2-z
-x,-y,-z
x,-y,1/2+z
1/2+x,1/2+y,z
1/2-x,1/2+y,1/2-z
1/2-x,1/2-y,-z
1/2+x,1/2-y,1/2+z
loop_
_atom_site_type_symbol
_atom_site_label
_atom_site_fract_x
_atom_site_fract_y
_atom_site_fract_z
Si Si1 0.752102 0.041224 0.550939
Si Si2 0.384440 0.928850 0.472022
Si Si3 0.246088 0.859873 0.767351
Si Si4 0.347879 0.305459 0.270027
Si Si5 0.519814 0.727539 0.453950
Si Si6 0.550724 0.928944 0.636936
Si Si7 0.387785 0.724995 0.449769
O O1 0.683982 0.092572 0.518054
O O2 0.764042 0.061364 0.380149
O O3 0.808118 0.095579 0.715027
O O4 0.744041 0.926821 0.566828
O O5 0.444831 0.934715 0.667058
O O6 0.400667 0.831986 0.394957
O O7 0.380310 0.022897 0.355725
O O8 0.302258 0.780149 0.794441
O O9 0.174459 0.812784 0.716050
O O10 0.411266 0.330830 0.450763
O O11 0.373630 0.274383 0.122987
O O12 0.500000 0.741010 0.250000
O O13 0.541842 0.824520 0.563325
O O14 0.458298 0.675632 0.479536
O O15 0.500000 0.000000 0.500000
#
# Coordination Sequence:
#
# PCOD8152429 Si02
#       7
#     8   8   8   8   8   8   8
#     4  11  22  41  69  93 130 168 222 277 323 383
#     4  12  21  39  60  92 132 176 208 263 320 388
#     4  11  23  44  67 100 128 170 225 271 330 394
#     4  11  22  45  67  95 129 179 222 265 329 406
#     4  12  25  41  59  95 135 170 215 278 328 383
#     4  12  24  34  57  93 134 168 214 251 319 399
#     4  11  22  42  68  89 130 180 217 257 330 408
#
# _framework density 23.443550999999999
#
# number of rings (size 3 to 8) (size 9 to 14) (size 15 to 20)
#    0.000    0.571    5.714    4.286    0.000    1.143 
#    2.571    2.143    0.000    0.000    0.000    0.000 
#    0.000    0.000    0.000    0.000    0.000    0.000 
#
# Total GULP energy -346905.399314 kJ/mol
# GULP energy per Si atom -12389.478547 kJ/mol
# Density = 2.339019 g / cm^3
# Si number density = 23.443551 Si / 1000 Ang^3
#
#
#
# Elastic Constant Matrix: (Units=GPa)
#
#
# Indices 1 2 3 4 5 6 
#
# 1 129.3336 27.5479 21.8068 0.0000 27.9813 0.0000
# 2 27.5479 45.3381 6.3091 0.0000 -3.0258 0.0000
# 3 21.8068 6.3091 66.9546 0.0000 14.6252 0.0000
# 4 0.0000 0.0000 0.0000 32.9069 0.0000 4.2093
# 5 27.9813 -3.0258 14.6252 0.0000 39.5708 0.0000
# 6 0.0000 0.0000 0.0000 4.2093 0.0000 34.4430
#
#
#
# Elastic Compliance Matrix: (Units=1/GPa)
#
#
# Indices 1 2 3 4 5 6 
#
# 1 0.011199 -0.007170 -0.001221 0.000000 -0.008016 0.000000
# 2 -0.007170 0.027209 -0.001948 0.000000 0.007870 0.000000
# 3 -0.001221 -0.001948 0.016710 0.000000 -0.005461 0.000000
# 4 0.000000 0.000000 0.000000 0.030871 0.000000 -0.003773
# 5 -0.008016 0.007870 -0.005461 0.000000 0.033560 0.000000
# 6 0.000000 0.000000 0.000000 -0.003773 0.000000 0.029495
#
#
# Mechanical properties :
#
#
# Convention : Reuss Voigt Hill
#
# Bulk Modulus (GPa) = 29.03528 39.21709 34.12619
# Shear Modulus (GPa) = 27.59356 33.78165 30.68761
#
# Velocity S-wave (km/s) = 3.43450 3.80014 3.62194
# Velocity P-wave (km/s) = 5.30469 6.00161 5.66388
#
# Compressibility (1/GPa) = 0.03444086
#
# Stress axis : x y z
#
# Youngs Moduli (GPa) = 89.29153 36.75216 59.84559
#
# Poissons Ratio (x) = 0.26351 0.07307
# Poissons Ratio (y) = 0.64021 0.11657
# Poissons Ratio (z) = 0.10902 0.07159
#
# Static dielectric constant tensor:
#      x y z
#    x 2.309500 0.000000 3.195570 
#    y 0.000000 14.401550 0.000000 
#    z 3.195570 0.000000 1.352790 
# 
# 
# High freq. dielectric constant tensor:
#      x y z
#    x 1.959580 0.000000 0.018400 
#    y 0.000000 1.897440 0.000000 
#    z 0.018400 0.000000 1.921070 
# 
# From -- ./inp_files/61833.got.cif
#   From: 2010.06.25/outbox.cif.g09.slc.cpg/sg15_31_cif.got.tgz:61833.got - 2010.06.28 07:06:18.
