data_PCOD8152581
_publ_section_title
;
Structure prediction by ZEFSAII (Michael W. Deem and Ramdas Pophale) SiO2 
 PCOD8152581
Probable space group: C 2/C
;
_chemical_formula_sum "Si O2"
_cell_formula_units_Z 60
_cell_length_a 17.289596
_cell_length_b 26.781767
_cell_length_c 11.833537
_cell_angle_alpha 90.000000
_cell_angle_beta 150.396970
_cell_angle_gamma 90.000000
_cell_volume 2706.792168
_symmetry_space_group_name_H-M "C 2/C"
_symmetry_group_IT_number 15
_symmetry_cell_setting 'monoclinic'
loop_
_space_group_symop_operation_xyz
x,y,z
-x,y,1/2-z
-x,-y,-z
x,-y,1/2+z
1/2+x,1/2+y,z
1/2-x,1/2+y,1/2-z
1/2-x,1/2-y,-z
1/2+x,1/2-y,1/2+z
loop_
_atom_site_type_symbol
_atom_site_label
_atom_site_fract_x
_atom_site_fract_y
_atom_site_fract_z
Si Si1 0.704746 0.694149 0.419421
Si Si2 0.315632 0.635218 0.439331
Si Si3 0.000000 0.635114 0.750000
Si Si4 0.956798 0.575901 0.491043
Si Si5 0.861041 0.820599 0.412816
Si Si6 0.839466 0.750846 0.998942
Si Si7 0.870864 0.902178 0.246824
Si Si8 0.373972 0.024425 0.991089
O O1 0.750000 0.750000 0.500000
O O2 0.686764 0.668603 0.519152
O O3 0.845821 0.668460 0.528529
O O4 0.545647 0.693787 0.143476
O O5 0.153934 0.622612 0.176011
O O6 0.366036 0.692753 0.485660
O O7 0.444983 0.597314 0.549979
O O8 0.287212 0.624745 0.535620
O O9 0.055148 0.598446 0.719229
O O10 0.854911 0.527965 0.401693
O O11 0.066469 0.564582 0.524570
O O12 0.750098 0.778704 0.214290
O O13 0.837167 0.871935 0.317470
O O14 0.750000 0.750000 0.000000
O O15 0.000000 0.726668 0.250000
O O16 0.792615 0.956930 0.168545
O O17 0.500000 0.018928 0.250000
#
# Coordination Sequence:
#
# PCOD8152581 Si02
#       8
#     8   8   4   8   8   8   8   8
#     4  11  27  44  64  96 137 189 236 284 338 421
#     4  11  23  41  64 102 134 181 222 287 349 417
#     4  12  24  44  70 100 134 184 236 290 344 412
#     4  11  25  42  73 100 134 175 230 289 353 419
#     4  11  25  45  64  95 140 188 233 284 351 419
#     4  12  25  42  67 103 143 180 237 296 346 415
#     4  11  22  43  68  94 137 174 224 285 354 414
#     4  11  23  45  68 102 135 171 227 292 355 426
#
# _framework density 22.166460000000001
#
# number of rings (size 3 to 8) (size 9 to 14) (size 15 to 20)
#    0.000    0.800    4.667    2.400    7.467    2.133 
#    0.000    0.000    0.000    1.600    0.000    0.000 
#    0.000    0.000    0.000    0.000    0.000    0.000 
#
# Total GULP energy -371781.360612 kJ/mol
# GULP energy per Si atom -12392.712020 kJ/mol
# Density = 2.211601 g / cm^3
# Si number density = 22.166460 Si / 1000 Ang^3
#
#
#
# Elastic Constant Matrix: (Units=GPa)
#
#
# Indices 1 2 3 4 5 6 
#
# 1 90.6679 12.5123 30.3804 0.0000 -3.8682 0.0000
# 2 12.5123 63.1079 29.6955 0.0000 4.1406 0.0000
# 3 30.3804 29.6955 119.8524 0.0000 6.9048 0.0000
# 4 0.0000 0.0000 0.0000 20.9542 0.0000 -1.1595
# 5 -3.8682 4.1406 6.9048 0.0000 38.7167 0.0000
# 6 0.0000 0.0000 0.0000 -1.1595 0.0000 40.1544
#
#
#
# Elastic Compliance Matrix: (Units=1/GPa)
#
#
# Indices 1 2 3 4 5 6 
#
# 1 0.012250 -0.001177 -0.002921 0.000000 0.001871 0.000000
# 2 -0.001177 0.018100 -0.004110 0.000000 -0.001320 0.000000
# 3 -0.002921 -0.004110 0.010199 0.000000 -0.001671 0.000000
# 4 0.000000 0.000000 0.000000 0.047799 0.000000 0.001380
# 5 0.001871 -0.001320 -0.001671 0.000000 0.026455 0.000000
# 6 0.000000 0.000000 0.000000 0.001380 0.000000 0.024944
#
#
# Mechanical properties :
#
#
# Convention : Reuss Voigt Hill
#
# Bulk Modulus (GPa) = 41.43873 46.53384 43.98629
# Shear Modulus (GPa) = 30.44918 33.36774 31.90846
#
# Velocity S-wave (km/s) = 3.71031 3.88406 3.79818
# Velocity P-wave (km/s) = 6.09017 6.41507 6.25473
#
# Compressibility (1/GPa) = 0.02413201
#
# Stress axis : x y z
#
# Youngs Moduli (GPa) = 81.63012 55.24888 98.05100
#
# Poissons Ratio (x) = 0.06502 0.28645
# Poissons Ratio (y) = 0.09607 0.40301
# Poissons Ratio (z) = 0.23848 0.22708
#
# Static dielectric constant tensor:
#      x y z
#    x 4.135660 0.000000 -0.253970 
#    y 0.000000 3.722860 0.000000 
#    z -0.253970 0.000000 4.158460 
# 
# 
# High freq. dielectric constant tensor:
#      x y z
#    x 1.887930 0.000000 -0.014180 
#    y 0.000000 1.855280 0.000000 
#    z -0.014180 0.000000 1.875500 
# 
# From -- ./inp_files/108446.got.cif
#   From: 2010.06.25/outbox.cif.g09.slc.cpg/sg15_55_cif.got.tgz:108446.got - 2010.06.28 07:06:18.
