data_PCOD8152619
_publ_section_title
;
Structure prediction by ZEFSAII (Michael W. Deem and Ramdas Pophale) SiO2 
 PCOD8152619
Probable space group: C 2/C
;
_chemical_formula_sum "Si O2"
_cell_formula_units_Z 56
_cell_length_a 14.504483
_cell_length_b 11.728982
_cell_length_c 14.436072
_cell_angle_alpha 90.000000
_cell_angle_beta 84.392868
_cell_angle_gamma 90.000000
_cell_volume 2444.154375
_symmetry_space_group_name_H-M "C 2/C"
_symmetry_group_IT_number 15
_symmetry_cell_setting 'monoclinic'
loop_
_space_group_symop_operation_xyz
x,y,z
-x,y,1/2-z
-x,-y,-z
x,-y,1/2+z
1/2+x,1/2+y,z
1/2-x,1/2+y,1/2-z
1/2-x,1/2-y,-z
1/2+x,1/2-y,1/2+z
loop_
_atom_site_type_symbol
_atom_site_label
_atom_site_fract_x
_atom_site_fract_y
_atom_site_fract_z
Si Si1 0.672745 0.884622 0.098960
Si Si2 0.463055 0.703677 0.963793
Si Si3 0.022323 0.429242 0.645432
Si Si4 0.644560 0.321146 0.334543
Si Si5 0.860139 0.050575 0.847708
Si Si6 0.825915 0.571808 0.113600
Si Si7 0.542855 0.313527 0.650151
O O1 0.769587 0.899021 0.141809
O O2 0.634340 0.757922 0.118206
O O3 0.601032 0.976234 0.145812
O O4 0.693320 0.896880 0.989685
O O5 0.443652 0.830462 0.927248
O O6 0.561120 0.659460 0.914555
O O7 0.379632 0.620433 0.940541
O O8 0.467781 0.701437 0.074943
O O9 0.000000 0.379562 0.750000
O O10 0.927674 0.485795 0.613884
O O11 0.612480 0.364222 0.237588
O O12 0.673400 0.188013 0.325899
O O13 0.752730 0.016119 0.846932
O O14 0.927762 0.943326 0.839142
O O15 0.500000 0.267182 0.750000
#
# Coordination Sequence:
#
# PCOD8152619 Si02
#       7
#     8   8   8   8   8   8   8
#     4  12  23  45  72 101 139 187 235 286 347 415
#     4  11  24  46  73  98 143 187 230 284 355 416
#     4  11  23  43  72 103 137 187 237 287 346 413
#     4  11  22  43  72  99 138 185 231 281 343 427
#     4  12  25  43  71 108 137 181 235 289 348 420
#     4  11  23  43  71  98 139 188 231 279 349 420
#     4  12  25  42  69 103 140 180 238 292 349 407
#
# _framework density 22.911808000000001
#
# number of rings (size 3 to 8) (size 9 to 14) (size 15 to 20)
#    0.000    0.571    4.286    6.429    0.000    1.143 
#    0.000    0.714    3.143    0.000    0.000    0.000 
#    0.000    0.000    0.000    0.000    0.000    0.000 
#
# Total GULP energy -347328.557737 kJ/mol
# GULP energy per Si atom -12404.591348 kJ/mol
# Density = 2.285966 g / cm^3
# Si number density = 22.911808 Si / 1000 Ang^3
#
#
#
# Elastic Constant Matrix: (Units=GPa)
#
#
# Indices 1 2 3 4 5 6 
#
# 1 90.0177 38.9361 2.2690 0.0000 16.3151 0.0000
# 2 38.9361 96.8672 31.5294 0.0000 3.1610 0.0000
# 3 2.2690 31.5294 126.1404 0.0000 10.1828 0.0000
# 4 0.0000 0.0000 0.0000 31.3916 0.0000 10.7564
# 5 16.3151 3.1610 10.1828 0.0000 32.1062 0.0000
# 6 0.0000 0.0000 0.0000 10.7564 0.0000 34.7571
#
#
#
# Elastic Compliance Matrix: (Units=1/GPa)
#
#
# Indices 1 2 3 4 5 6 
#
# 1 0.015294 -0.006541 0.001986 0.000000 -0.007758 0.000000
# 2 -0.006541 0.014037 -0.003641 0.000000 0.003097 0.000000
# 3 0.001986 -0.003641 0.009087 0.000000 -0.003533 0.000000
# 4 0.000000 0.000000 0.000000 0.035634 0.000000 -0.011028
# 5 -0.007758 0.003097 -0.003533 0.000000 0.035904 0.000000
# 6 0.000000 0.000000 0.000000 -0.011028 0.000000 0.032184
#
#
# Mechanical properties :
#
#
# Convention : Reuss Voigt Hill
#
# Bulk Modulus (GPa) = 45.39955 50.94380 48.17167
# Shear Modulus (GPa) = 30.14340 35.67035 32.90688
#
# Velocity S-wave (km/s) = 3.63109 3.94998 3.79389
# Velocity P-wave (km/s) = 6.11864 6.56400 6.34523
#
# Compressibility (1/GPa) = 0.02202665
#
# Stress axis : x y z
#
# Youngs Moduli (GPa) = 65.38490 71.24278 110.04512
#
# Poissons Ratio (x) = 0.46598 -0.21855
# Poissons Ratio (y) = 0.42767 0.40065
# Poissons Ratio (z) = -0.12986 0.25938
#
# Static dielectric constant tensor:
#      x y z
#    x 4.269980 0.000000 0.278950 
#    y 0.000000 4.043370 0.000000 
#    z 0.278950 0.000000 4.162690 
# 
# 
# High freq. dielectric constant tensor:
#      x y z
#    x 1.904520 0.000000 0.020210 
#    y 0.000000 1.900100 0.000000 
#    z 0.020210 0.000000 1.909220 
# 
# From -- ./inp_files/152628.got.cif
#   From: 2010.06.25/outbox.cif.g09.slc.cpg/sg15_77_cif.got.tgz:152628.got - 2010.06.28 07:06:18.
