data_PCOD8152555
_publ_section_title
;
Structure prediction by ZEFSAII (Michael W. Deem and Ramdas Pophale) SiO2 
 PCOD8152555
Probable space group: C 2/C
;
_chemical_formula_sum "Si O2"
_cell_formula_units_Z 56
_cell_length_a 19.451118
_cell_length_b 8.272050
_cell_length_c 14.327471
_cell_angle_alpha 90.000000
_cell_angle_beta 97.591051
_cell_angle_gamma 90.000000
_cell_volume 2285.095763
_symmetry_space_group_name_H-M "C 2/C"
_symmetry_group_IT_number 15
_symmetry_cell_setting 'monoclinic'
loop_
_space_group_symop_operation_xyz
x,y,z
-x,y,1/2-z
-x,-y,-z
x,-y,1/2+z
1/2+x,1/2+y,z
1/2-x,1/2+y,1/2-z
1/2-x,1/2-y,-z
1/2+x,1/2-y,1/2+z
loop_
_atom_site_type_symbol
_atom_site_label
_atom_site_fract_x
_atom_site_fract_y
_atom_site_fract_z
Si Si1 0.687877 0.128852 0.475801
Si Si2 0.469135 0.767695 0.347194
Si Si3 0.942458 0.840915 0.460852
Si Si4 0.373760 0.042300 0.365180
Si Si5 0.218173 0.428442 0.307405
Si Si6 0.153656 0.912572 0.753998
Si Si7 0.086387 0.902139 0.414306
O O1 0.750000 0.250000 0.500000
O O2 0.708868 0.984218 0.411473
O O3 0.620366 0.225613 0.428047
O O4 0.676662 0.049173 0.573259
O O5 0.500000 0.768320 0.250000
O O6 0.524513 0.721856 0.435537
O O7 0.402057 0.648954 0.332566
O O8 0.446573 0.949416 0.369053
O O9 0.888074 0.721803 0.403887
O O10 0.002245 0.880752 0.395163
O O11 0.899323 0.998556 0.486685
O O12 0.334355 0.042496 0.260030
O O13 0.199090 0.239293 0.298320
O O14 0.296591 0.456561 0.286098
O O15 0.113530 0.000841 0.830263
#
# Coordination Sequence:
#
# PCOD8152555 Si02
#       7
#     8   8   8   8   8   8   8
#     4  12  25  46  73 101 144 188 234 293 356 417
#     4  11  22  42  75  95 139 189 226 288 360 419
#     4  11  24  45  68 104 139 182 236 287 357 424
#     4  11  25  45  72 103 138 184 243 291 348 425
#     4  11  26  46  73 105 138 187 239 296 352 422
#     4  11  23  46  68 103 137 184 239 288 359 419
#     4  11  24  43  69  99 139 181 230 287 357 419
#
# _framework density 24.506630999999999
#
# number of rings (size 3 to 8) (size 9 to 14) (size 15 to 20)
#    0.000    0.857    2.857    4.714    2.000    1.143 
#   10.286    2.857    0.000    0.000    0.000    0.000 
#    0.000    0.000    0.000    0.000    0.000    0.000 
#
# Total GULP energy -347212.873379 kJ/mol
# GULP energy per Si atom -12400.459764 kJ/mol
# Density = 2.445085 g / cm^3
# Si number density = 24.506631 Si / 1000 Ang^3
#
#
#
# Elastic Constant Matrix: (Units=GPa)
#
#
# Indices 1 2 3 4 5 6 
#
# 1 66.8635 10.8246 20.6421 0.0000 -27.2432 0.0000
# 2 10.8246 62.4695 9.5853 0.0000 -14.7716 0.0000
# 3 20.6421 9.5853 84.6615 0.0000 -12.9363 0.0000
# 4 0.0000 0.0000 0.0000 40.7382 0.0000 -7.2539
# 5 -27.2432 -14.7716 -12.9363 0.0000 34.2956 0.0000
# 6 0.0000 0.0000 0.0000 -7.2539 0.0000 44.9295
#
#
#
# Elastic Compliance Matrix: (Units=1/GPa)
#
#
# Indices 1 2 3 4 5 6 
#
# 1 0.022811 0.000584 -0.002993 0.000000 0.017243 0.000000
# 2 0.000584 0.017902 -0.000976 0.000000 0.007806 0.000000
# 3 -0.002993 -0.000976 0.012972 0.000000 0.002095 0.000000
# 4 0.000000 0.000000 0.000000 0.025274 0.000000 0.004080
# 5 0.017243 0.007806 0.002095 0.000000 0.047008 0.000000
# 6 0.000000 0.000000 0.000000 0.004080 0.000000 0.022916
#
#
# Mechanical properties :
#
#
# Convention : Reuss Voigt Hill
#
# Bulk Modulus (GPa) = 21.31569 32.89983 27.10776
# Shear Modulus (GPa) = 29.18997 35.52216 32.35607
#
# Velocity S-wave (km/s) = 3.45498 3.81135 3.63753
# Velocity P-wave (km/s) = 4.96313 5.72909 5.35981
#
# Compressibility (1/GPa) = 0.04691381
#
# Stress axis : x y z
#
# Youngs Moduli (GPa) = 43.83895 55.85858 77.08799
#
# Poissons Ratio (x) = -0.03261 0.23074
# Poissons Ratio (y) = -0.02560 0.07527
# Poissons Ratio (z) = 0.13122 0.05454
#
# Static dielectric constant tensor:
#      x y z
#    x 4.605950 0.000000 -0.171560 
#    y 0.000000 4.692260 0.000000 
#    z -0.171560 0.000000 4.393620 
# 
# 
# High freq. dielectric constant tensor:
#      x y z
#    x 1.978570 0.000000 -0.013810 
#    y 0.000000 1.981880 0.000000 
#    z -0.013810 0.000000 1.980130 
# 
# From -- ./inp_files/166680.got.cif
#   From: 2010.06.25/outbox.cif.g09.slc.cpg/sg15_84_cif.got.tgz:166680.got - 2010.06.28 07:06:18.
