data_PCOD8152000
_publ_section_title
;
Structure prediction by ZEFSAII (Michael W. Deem and Ramdas Pophale) SiO2 
 PCOD8152000
Probable space group: C 2/C
;
_chemical_formula_sum "Si O2"
_cell_formula_units_Z 64
_cell_length_a 17.347004
_cell_length_b 9.502784
_cell_length_c 26.367757
_cell_angle_alpha 90.000000
_cell_angle_beta 44.617460
_cell_angle_gamma 90.000000
_cell_volume 3052.913344
_symmetry_space_group_name_H-M "C 2/C"
_symmetry_group_IT_number 15
_symmetry_cell_setting 'monoclinic'
loop_
_space_group_symop_operation_xyz
x,y,z
-x,y,1/2-z
-x,-y,-z
x,-y,1/2+z
1/2+x,1/2+y,z
1/2-x,1/2+y,1/2-z
1/2-x,1/2-y,-z
1/2+x,1/2-y,1/2+z
loop_
_atom_site_type_symbol
_atom_site_label
_atom_site_fract_x
_atom_site_fract_y
_atom_site_fract_z
Si Si1 0.774676 0.285364 0.642318
Si Si2 0.171568 0.483947 0.140255
Si Si3 0.319699 0.705259 0.014835
Si Si4 0.390037 0.002768 0.519786
Si Si5 0.948518 0.840806 0.135182
Si Si6 0.640372 0.643621 0.298930
Si Si7 0.506850 0.902088 0.130705
Si Si8 0.633558 0.125185 0.259280
O O1 0.738525 0.143455 0.632384
O O2 0.800603 0.402166 0.587794
O O3 0.880765 0.251487 0.626419
O O4 0.676056 0.342834 0.723591
O O5 0.258708 0.582005 0.072127
O O6 0.077961 0.420380 0.148267
O O7 0.115226 0.578225 0.210258
O O8 0.341443 0.839575 0.040769
O O9 0.250000 0.750000 0.000000
O O10 0.431329 0.636746 0.942555
O O11 0.415575 0.949033 0.451428
O O12 0.500000 0.000000 0.500000
O O13 0.950026 0.752173 0.187326
O O14 0.894282 0.988057 0.171455
O O15 0.536075 0.744067 0.358271
O O16 0.742376 0.678114 0.288270
O O17 0.396879 0.995986 0.188379
#
# Coordination Sequence:
#
# PCOD8152000 Si02
#       8
#     8   8   8   8   8   8   8   8
#     4  11  25  43  69 108 139 182 238 289 362 426
#     4  12  26  44  72 100 146 188 232 292 366 425
#     4  12  26  47  66 101 138 186 236 292 351 424
#     4  12  25  44  71  98 139 184 235 290 349 421
#     4  11  23  44  69 104 139 179 243 293 341 424
#     4  11  24  42  70 104 136 176 236 295 341 422
#     4  12  25  46  70  99 143 188 227 290 361 418
#     4  11  21  44  71  99 136 184 231 284 352 423
#
# _framework density 20.963581999999999
#
# number of rings (size 3 to 8) (size 9 to 14) (size 15 to 20)
#    0.000    0.500    6.250    1.875    5.250    2.000 
#    0.000    0.000    2.750    0.000    0.000    0.000 
#    0.000    0.000    0.000    0.000    0.000    0.000 
#
# Total GULP energy -396879.938463 kJ/mol
# GULP energy per Si atom -12402.498077 kJ/mol
# Density = 2.091587 g / cm^3
# Si number density = 20.963582 Si / 1000 Ang^3
#
#
#
# Elastic Constant Matrix: (Units=GPa)
#
#
# Indices 1 2 3 4 5 6 
#
# 1 89.6552 21.2400 18.7210 0.0000 4.9086 0.0001
# 2 21.2400 70.6285 41.7336 -0.0001 -0.3716 0.0004
# 3 18.7210 41.7336 103.4032 0.0000 5.6613 0.0000
# 4 0.0000 -0.0001 0.0000 49.6368 0.0000 3.1213
# 5 4.9086 -0.3716 5.6613 0.0000 28.8555 0.0000
# 6 0.0001 0.0004 0.0000 3.1213 0.0000 35.3011
#
#
#
# Elastic Compliance Matrix: (Units=1/GPa)
#
#
# Indices 1 2 3 4 5 6 
#
# 1 0.012187 -0.003197 -0.000809 0.000000 -0.001956 0.000000
# 2 -0.003197 0.019517 -0.007422 0.000000 0.002251 0.000000
# 3 -0.000809 -0.007422 0.012950 0.000000 -0.002499 0.000000
# 4 0.000000 0.000000 0.000000 0.020259 0.000000 -0.001791
# 5 -0.001956 0.002251 -0.002499 0.000000 0.035507 0.000000
# 6 0.000000 0.000000 0.000000 -0.001791 0.000000 0.028486
#
#
# Mechanical properties :
#
#
# Convention : Reuss Voigt Hill
#
# Bulk Modulus (GPa) = 45.87512 47.45289 46.66400
# Shear Modulus (GPa) = 31.44090 34.89148 33.16619
#
# Velocity S-wave (km/s) = 3.87691 4.08411 3.98186
# Velocity P-wave (km/s) = 6.47853 6.70261 6.59152
#
# Compressibility (1/GPa) = 0.02179831
#
# Stress axis : x y z
#
# Youngs Moduli (GPa) = 82.05252 51.23655 77.22304
#
# Poissons Ratio (x) = 0.16382 0.06247
# Poissons Ratio (y) = 0.26235 0.57312
# Poissons Ratio (z) = 0.06638 0.38026
#
# Static dielectric constant tensor:
#      x y z
#    x 3.846100 0.000000 0.160310 
#    y 0.000000 3.884390 0.000000 
#    z 0.160310 0.000000 3.960050 
# 
# 
# High freq. dielectric constant tensor:
#      x y z
#    x 1.815310 0.000000 0.003230 
#    y 0.000000 1.830240 0.000000 
#    z 0.003230 0.000000 1.834380 
# 
# From -- ./inp_files/315688.got.cif
#   From: 2010.06.25/outbox.cif.g09.slc.cpg/sg15_158_cif.got.tgz:315688.got - 2010.06.28 07:06:18.
