data_PCOD8152312
_publ_section_title
;
Structure prediction by ZEFSAII (Michael W. Deem and Ramdas Pophale) SiO2 
 PCOD8152312
Probable space group: C 2/C
;
_chemical_formula_sum "Si O2"
_cell_formula_units_Z 40
_cell_length_a 15.653591
_cell_length_b 12.090987
_cell_length_c 17.840330
_cell_angle_alpha 90.000000
_cell_angle_beta 146.052918
_cell_angle_gamma 90.000000
_cell_volume 1885.580187
_symmetry_space_group_name_H-M "C 2/C"
_symmetry_group_IT_number 15
_symmetry_cell_setting 'monoclinic'
loop_
_space_group_symop_operation_xyz
x,y,z
-x,y,1/2-z
-x,-y,-z
x,-y,1/2+z
1/2+x,1/2+y,z
1/2-x,1/2+y,1/2-z
1/2-x,1/2-y,-z
1/2+x,1/2-y,1/2+z
loop_
_atom_site_type_symbol
_atom_site_label
_atom_site_fract_x
_atom_site_fract_y
_atom_site_fract_z
Si Si1 0.673198 0.795168 0.083435
Si Si2 0.047937 0.880530 0.008690
Si Si3 0.072176 0.239177 0.381358
Si Si4 0.958598 0.642626 0.302223
Si Si5 0.866984 0.583363 0.800246
O O1 0.846572 0.748846 0.211883
O O2 0.654027 0.899931 0.125488
O O3 0.554937 0.702608 0.020761
O O4 0.618968 0.829438 0.960506
O O5 0.224219 0.857985 0.156078
O O6 0.027842 0.861296 0.905082
O O7 0.000000 0.000000 0.000000
O O8 0.250000 0.250000 0.500000
O O9 0.000000 0.208581 0.250000
O O10 0.015575 0.355445 0.375310
O O11 0.872272 0.546955 0.286157
O O12 0.000000 0.597871 0.250000
#
# Coordination Sequence:
#
# PCOD8152312 Si02
#       5
#     8   8   8   8   8
#     4  11  24  44  66  94 130 174 219 262 324 399
#     4  11  22  40  67  94 132 175 215 266 328 393
#     4  11  23  42  67  98 136 170 221 280 333 381
#     4  12  25  43  68  96 133 169 218 275 326 384
#     4  11  23  42  70  95 130 178 224 266 329 395
#
# _framework density 21.213628
#
# number of rings (size 3 to 8) (size 9 to 14) (size 15 to 20)
#    0.000    0.800    6.000    1.800    0.000    0.000 
#    3.600    1.000    0.000    0.000    0.000    0.000 
#    0.000    0.000    0.000    0.000    0.000    0.000 
#
# Total GULP energy -248028.524281 kJ/mol
# GULP energy per Si atom -12401.426214 kJ/mol
# Density = 2.116535 g / cm^3
# Si number density = 21.213628 Si / 1000 Ang^3
#
#
#
# Elastic Constant Matrix: (Units=GPa)
#
#
# Indices 1 2 3 4 5 6 
#
# 1 83.1324 33.7619 42.5750 -0.0002 -17.3818 -0.0001
# 2 33.7619 81.1829 25.4260 -0.0005 -17.7123 -0.0003
# 3 42.5750 25.4260 147.3894 -0.0007 -21.5384 -0.0004
# 4 -0.0002 -0.0005 -0.0007 31.2843 -0.0003 -2.5970
# 5 -17.3818 -17.7123 -21.5384 -0.0003 50.1384 -0.0002
# 6 -0.0001 -0.0003 -0.0004 -2.5970 -0.0002 25.2351
#
#
#
# Elastic Compliance Matrix: (Units=1/GPa)
#
#
# Indices 1 2 3 4 5 6 
#
# 1 0.016436 -0.005226 -0.003503 0.000000 0.002347 0.000000
# 2 -0.005226 0.015431 -0.000662 0.000000 0.003355 0.000000
# 3 -0.003503 -0.000662 0.008215 0.000000 0.002081 0.000000
# 4 0.000000 0.000000 0.000000 0.032240 0.000000 0.003318
# 5 0.002347 0.003355 0.002081 0.000000 0.022837 0.000000
# 6 0.000000 0.000000 0.000000 0.003318 0.000000 0.039969
#
#
# Mechanical properties :
#
#
# Convention : Reuss Voigt Hill
#
# Bulk Modulus (GPa) = 46.95073 57.24783 52.09928
# Shear Modulus (GPa) = 31.05377 35.32768 33.19072
#
# Velocity S-wave (km/s) = 3.83019 4.08527 3.95979
# Velocity P-wave (km/s) = 6.46072 7.02122 6.74679
#
# Compressibility (1/GPa) = 0.02129892
#
# Stress axis : x y z
#
# Youngs Moduli (GPa) = 60.84078 64.80618 121.72916
#
# Poissons Ratio (x) = 0.33869 0.42645
# Poissons Ratio (y) = 0.31797 0.08059
# Poissons Ratio (z) = 0.21314 0.04290
#
# Static dielectric constant tensor:
#      x y z
#    x 3.851830 -0.000010 -0.075280 
#    y -0.000010 5.923650 0.000010 
#    z -0.075280 0.000010 4.216010 
# 
# 
# High freq. dielectric constant tensor:
#      x y z
#    x 1.835790 0.000000 -0.002310 
#    y 0.000000 1.815140 0.000000 
#    z -0.002310 0.000000 1.849590 
# 
# From -- ./inp_files/46077.got.cif
#   From: 2010.06.25/outbox.cif.g09.slc.cpg/sg15_24_cif.got.tgz:46077.got - 2010.06.28 07:06:18.
