data_PCOD8152964
_publ_section_title
;
Structure prediction by ZEFSAII (Michael W. Deem and Ramdas Pophale) SiO2 
 PCOD8152964
Probable space group: C 2/C
;
_chemical_formula_sum "Si O2"
_cell_formula_units_Z 56
_cell_length_a 11.336928
_cell_length_b 15.737572
_cell_length_c 28.073475
_cell_angle_alpha 90.000000
_cell_angle_beta 33.107296
_cell_angle_gamma 90.000000
_cell_volume 2735.822084
_symmetry_space_group_name_H-M "C 2/C"
_symmetry_group_IT_number 15
_symmetry_cell_setting 'monoclinic'
loop_
_space_group_symop_operation_xyz
x,y,z
-x,y,1/2-z
-x,-y,-z
x,-y,1/2+z
1/2+x,1/2+y,z
1/2-x,1/2+y,1/2-z
1/2-x,1/2-y,-z
1/2+x,1/2-y,1/2+z
loop_
_atom_site_type_symbol
_atom_site_label
_atom_site_fract_x
_atom_site_fract_y
_atom_site_fract_z
Si Si1 0.043135 0.223184 0.597375
Si Si2 0.896649 0.925117 0.722272
Si Si3 0.597167 0.033309 0.893233
Si Si4 0.866484 0.307072 0.748001
Si Si5 0.290005 0.552800 0.926515
Si Si6 0.344800 0.256064 0.837295
Si Si7 0.930223 0.703670 0.908163
O O1 0.250000 0.250000 0.500000
O O2 0.056625 0.122076 0.600298
O O3 0.018066 0.258943 0.659029
O O4 0.872829 0.263138 0.618488
O O5 0.703465 0.893996 0.753737
O O6 0.039419 0.847842 0.694682
O O7 0.789112 0.985078 0.799537
O O8 0.059907 0.971841 0.631700
O O9 0.701351 0.079595 0.904153
O O10 0.475147 0.106088 0.905107
O O11 0.415493 0.965674 0.970263
O O12 0.656736 0.252421 0.832624
O O13 0.000000 0.328023 0.750000
O O14 0.500000 0.201642 0.750000
O O15 0.319476 0.203876 0.893890
O O16 0.750000 0.750000 0.000000
#
# Coordination Sequence:
#
# PCOD8152964 Si02
#       7
#     8   8   8   8   8   8   8
#     4  12  26  43  69  99 135 175 229 276 342 405
#     4  11  23  43  69  94 134 175 223 280 340 396
#     4  11  23  41  67  97 131 176 227 283 336 397
#     4  11  24  43  66  97 132 176 226 278 335 410
#     4  11  25  39  66  98 132 166 229 283 333 394
#     4  11  23  44  69  93 135 181 225 270 341 410
#     4  11  24  42  70  97 133 179 226 275 344 405
#
# _framework density 20.469168
#
# number of rings (size 3 to 8) (size 9 to 14) (size 15 to 20)
#    0.000    0.857    2.857    5.571    8.000    0.000 
#    2.571    0.714    0.000    0.000    0.000    0.000 
#    0.000    0.000    0.000    0.000    0.000    0.000 
#
# Total GULP energy -346938.542927 kJ/mol
# GULP energy per Si atom -12390.662247 kJ/mol
# Density = 2.042258 g / cm^3
# Si number density = 20.469168 Si / 1000 Ang^3
#
#
#
# Elastic Constant Matrix: (Units=GPa)
#
#
# Indices 1 2 3 4 5 6 
#
# 1 144.8946 61.6663 55.7252 -0.0052 6.8042 0.0020
# 2 61.6663 88.5040 32.5205 -0.0024 3.1172 -0.0035
# 3 55.7252 32.5205 147.3067 -0.0312 3.6607 -0.0072
# 4 -0.0052 -0.0024 -0.0312 27.3957 0.0116 -9.8725
# 5 6.8042 3.1172 3.6607 0.0116 31.5257 -0.0056
# 6 0.0020 -0.0035 -0.0072 -9.8725 -0.0056 19.9965
#
#
#
# Elastic Compliance Matrix: (Units=1/GPa)
#
#
# Indices 1 2 3 4 5 6 
#
# 1 0.010714 -0.006464 -0.002592 -0.000003 -0.001372 -0.000005
# 2 -0.006464 0.016223 -0.001134 0.000000 -0.000077 0.000003
# 3 -0.002592 -0.001134 0.008026 0.000012 -0.000260 0.000009
# 4 -0.000003 0.000000 0.000012 0.044402 -0.000013 0.021922
# 5 -0.001372 -0.000077 -0.000260 -0.000013 0.032054 0.000003
# 6 -0.000005 0.000003 0.000009 0.021922 0.000003 0.060832
#
#
# Mechanical properties :
#
#
# Convention : Reuss Voigt Hill
#
# Bulk Modulus (GPa) = 68.57848 75.61437 72.09643
# Shear Modulus (GPa) = 25.31751 31.16978 28.24365
#
# Velocity S-wave (km/s) = 3.52072 3.90650 3.71861
# Velocity P-wave (km/s) = 7.07837 7.57420 7.33048
#
# Compressibility (1/GPa) = 0.01458183
#
# Stress axis : x y z
#
# Youngs Moduli (GPa) = 93.33558 61.64267 124.59742
#
# Poissons Ratio (x) = 0.39849 0.32293
# Poissons Ratio (y) = 0.60336 0.14130
# Poissons Ratio (z) = 0.24191 0.06990
#
# Static dielectric constant tensor:
#      x y z
#    x 3.904190 0.000070 0.238550 
#    y 0.000070 4.453840 0.000050 
#    z 0.238550 0.000050 3.989220 
# 
# 
# High freq. dielectric constant tensor:
#      x y z
#    x 1.802700 0.000000 0.006770 
#    y 0.000000 1.784950 0.000000 
#    z 0.006770 0.000000 1.829480 
# 
# From -- ./inp_files/311328.got.cif
#   From: 2010.06.25/outbox.cif.g09.slc.cpg/sg15_156_cif.got.tgz:311328.got - 2010.06.28 07:06:18.
