data_PCOD8152999
_publ_section_title
;
Structure prediction by ZEFSAII (Michael W. Deem and Ramdas Pophale) SiO2 
 PCOD8152999
Probable space group: C 2/C
;
_chemical_formula_sum "Si O2"
_cell_formula_units_Z 48
_cell_length_a 25.665746
_cell_length_b 9.001001
_cell_length_c 18.835597
_cell_angle_alpha 90.000000
_cell_angle_beta 31.262930
_cell_angle_gamma 90.000000
_cell_volume 2258.203849
_symmetry_space_group_name_H-M "C 2/C"
_symmetry_group_IT_number 15
_symmetry_cell_setting 'monoclinic'
loop_
_space_group_symop_operation_xyz
x,y,z
-x,y,1/2-z
-x,-y,-z
x,-y,1/2+z
1/2+x,1/2+y,z
1/2-x,1/2+y,1/2-z
1/2-x,1/2-y,-z
1/2+x,1/2-y,1/2+z
loop_
_atom_site_type_symbol
_atom_site_label
_atom_site_fract_x
_atom_site_fract_y
_atom_site_fract_z
Si Si1 0.280414 0.165354 0.394093
Si Si2 0.803714 0.635476 0.627334
Si Si3 0.346808 0.368463 0.969288
Si Si4 0.008261 0.467578 0.824411
Si Si5 0.795311 0.829566 0.774010
Si Si6 0.547907 0.301683 0.796611
O O1 0.250000 0.250000 0.500000
O O2 0.266209 0.268868 0.342743
O O3 0.396943 0.127184 0.261554
O O4 0.213629 0.019531 0.464431
O O5 0.817591 0.714284 0.686088
O O6 0.749106 0.479983 0.706375
O O7 0.911805 0.615604 0.466655
O O8 0.448086 0.397902 0.897130
O O9 0.374725 0.309640 0.858910
O O10 0.282490 0.238378 0.079291
O O11 0.016152 0.631886 0.847205
O O12 0.000000 0.477846 0.750000
O O13 0.899043 0.864169 0.694644
#
# Coordination Sequence:
#
# PCOD8152999 Si02
#       6
#     8   8   8   8   8   8
#     4  12  26  44  72 105 146 182 232 297 351 414
#     4  12  28  47  71 104 142 191 235 290 356 427
#     4  11  23  43  72 107 135 183 241 281 349 421
#     4  12  23  45  73 106 138 185 237 290 359 412
#     4  12  25  46  69 101 144 186 238 286 354 422
#     4  11  23  41  77 104 139 184 235 296 344 420
#
# _framework density 21.255831000000001
#
# number of rings (size 3 to 8) (size 9 to 14) (size 15 to 20)
#    0.000    0.333    6.667    2.500    0.000    6.000 
#    0.000    2.500    0.000    0.000    0.000    0.000 
#    0.000    0.000    0.000    0.000    0.000    0.000 
#
# Total GULP energy -297773.929318 kJ/mol
# GULP energy per Si atom -12407.247055 kJ/mol
# Density = 2.120745 g / cm^3
# Si number density = 21.255831 Si / 1000 Ang^3
#
#
#
# Elastic Constant Matrix: (Units=GPa)
#
#
# Indices 1 2 3 4 5 6 
#
# 1 134.6339 26.8475 31.9961 0.0020 -18.5783 0.0186
# 2 26.8475 91.6568 11.0210 0.0170 -13.2789 0.1937
# 3 31.9961 11.0210 51.5344 0.0129 -28.1045 0.1524
# 4 0.0020 0.0170 0.0129 16.2115 0.0054 -75.0245
# 5 -18.5783 -13.2789 -28.1045 0.0054 32.7626 0.0624
# 6 0.0186 0.1937 0.1524 -75.0245 0.0624 -663.9661
#
#
#
# Elastic Compliance Matrix: (Units=1/GPa)
#
#
# Indices 1 2 3 4 5 6 
#
# 1 0.009068 -0.002053 -0.005338 -0.000001 -0.000269 -0.000001
# 2 -0.002053 0.012056 0.001365 0.000003 0.004893 0.000004
# 3 -0.005338 0.001365 0.039606 0.000009 0.031501 0.000011
# 4 -0.000001 0.000003 0.000009 0.040504 0.000011 -0.004577
# 5 -0.000269 0.004893 0.031501 0.000011 0.059376 0.000013
# 6 -0.000001 0.000004 0.000011 -0.004577 0.000013 -0.000989
#
#
# Mechanical properties :
#
#
# Convention : Reuss Voigt Hill
#
# Bulk Modulus (GPa) = 20.54289 46.39491 33.46890
# Shear Modulus (GPa) = 26.60979 -109.13437 -41.26229
#
# Velocity S-wave (km/s) = 3.54203 -7.17319 -4.41071
# Velocity P-wave (km/s) = 5.13941 6.83608 3.18735
#
# Compressibility (1/GPa) = 0.04867863
#
# Stress axis : x y z
#
# Youngs Moduli (GPa) = 110.27232 82.94292 25.24870
#
# Poissons Ratio (x) = 0.17031 0.13477
# Poissons Ratio (y) = 0.22643 -0.03446
# Poissons Ratio (z) = 0.58861 -0.11322
#
# Static dielectric constant tensor:
#      x y z
#    x 4.174620 -0.000010 -0.216650 
#    y -0.000010 4.027690 0.000000 
#    z -0.216650 0.000000 3.920860 
# 
# 
# High freq. dielectric constant tensor:
#      x y z
#    x 1.849100 0.000000 -0.013600 
#    y 0.000000 1.837640 0.000000 
#    z -0.013600 0.000000 1.836870 
# 
# From -- ./inp_files/254792.got.cif
#   From: 2010.06.25/outbox.cif.g09.slc.cpg/sg15_128_cif.got.tgz:254792.got - 2010.06.28 07:06:18.
