data_PCOD8152685
_publ_section_title
;
Structure prediction by ZEFSAII (Michael W. Deem and Ramdas Pophale) SiO2 
 PCOD8152685
Probable space group: C 2/C
;
_chemical_formula_sum "Si O2"
_cell_formula_units_Z 56
_cell_length_a 9.310965
_cell_length_b 16.376658
_cell_length_c 18.053085
_cell_angle_alpha 90.000000
_cell_angle_beta 72.520680
_cell_angle_gamma 90.000000
_cell_volume 2625.670923
_symmetry_space_group_name_H-M "C 2/C"
_symmetry_group_IT_number 15
_symmetry_cell_setting 'monoclinic'
loop_
_space_group_symop_operation_xyz
x,y,z
-x,y,1/2-z
-x,-y,-z
x,-y,1/2+z
1/2+x,1/2+y,z
1/2-x,1/2+y,1/2-z
1/2-x,1/2-y,-z
1/2+x,1/2-y,1/2+z
loop_
_atom_site_type_symbol
_atom_site_label
_atom_site_fract_x
_atom_site_fract_y
_atom_site_fract_z
Si Si1 0.651647 0.243614 0.692458
Si Si2 0.323465 0.513730 0.046464
Si Si3 0.122763 0.373875 0.666894
Si Si4 0.355517 0.123530 0.106904
Si Si5 0.130166 0.633420 0.558271
Si Si6 0.829724 0.192885 0.793999
Si Si7 0.309954 0.057878 0.585212
O O1 0.500000 0.277760 0.750000
O O2 0.760613 0.320942 0.676763
O O3 0.610442 0.206678 0.618745
O O4 0.727983 0.178145 0.736312
O O5 0.268349 0.566171 0.128318
O O6 0.263873 0.422424 0.068395
O O7 0.500000 0.500000 0.000000
O O8 0.242226 0.558670 0.991164
O O9 0.191982 0.284831 0.672159
O O10 0.000000 0.402261 0.750000
O O11 0.028485 0.372450 0.605146
O O12 0.285713 0.032867 0.121320
O O13 0.334782 0.166112 0.029491
O O14 0.984899 0.576748 0.569001
O O15 0.787453 0.126258 0.860486
O O16 0.000000 0.174838 0.750000
#
# Coordination Sequence:
#
# PCOD8152685 Si02
#       7
#     8   8   8   8   8   8   8
#     4  12  25  43  68 104 136 180 239 287 347 418
#     4  11  25  43  71 109 140 177 244 293 343 421
#     4  11  22  44  72  95 141 189 234 277 359 418
#     4  11  22  46  70  96 136 186 229 281 349 423
#     4  11  23  45  71  96 139 184 229 283 352 419
#     4  11  25  43  65 103 143 180 234 292 346 422
#     4  11  23  46  69  98 139 187 230 285 352 417
#
# _framework density 21.327883
#
# number of rings (size 3 to 8) (size 9 to 14) (size 15 to 20)
#    0.000    0.857    7.143    1.286    2.000    5.143 
#    2.571    0.000    0.000    0.000    0.000    0.000 
#    0.000    0.000    0.000    0.000    0.000    0.000 
#
# Total GULP energy -346989.983685 kJ/mol
# GULP energy per Si atom -12392.499417 kJ/mol
# Density = 2.127934 g / cm^3
# Si number density = 21.327883 Si / 1000 Ang^3
#
#
#
# Elastic Constant Matrix: (Units=GPa)
#
#
# Indices 1 2 3 4 5 6 
#
# 1 99.2845 22.8256 28.0411 0.0000 -18.1645 0.0000
# 2 22.8256 70.0041 53.1556 0.0000 -6.7378 0.0000
# 3 28.0411 53.1556 90.3787 0.0000 -13.1247 0.0000
# 4 0.0000 0.0000 0.0000 37.1777 0.0000 -21.2451
# 5 -18.1645 -6.7378 -13.1247 0.0000 43.7037 0.0000
# 6 0.0000 0.0000 0.0000 -21.2451 0.0000 64.6661
#
#
#
# Elastic Compliance Matrix: (Units=1/GPa)
#
#
# Indices 1 2 3 4 5 6 
#
# 1 0.011808 -0.002033 -0.001883 0.000000 0.004029 0.000000
# 2 -0.002033 0.026178 -0.014954 0.000000 -0.001300 0.000000
# 3 -0.001883 -0.014954 0.020907 0.000000 0.003191 0.000000
# 4 0.000000 0.000000 0.000000 0.033115 0.000000 0.010879
# 5 0.004029 -0.001300 0.003191 0.000000 0.025314 0.000000
# 6 0.000000 0.000000 0.000000 0.010879 0.000000 0.019038
#
#
# Mechanical properties :
#
#
# Convention : Reuss Voigt Hill
#
# Bulk Modulus (GPa) = 47.27388 51.96798 49.62093
# Shear Modulus (GPa) = 27.60121 39.48585 33.54353
#
# Velocity S-wave (km/s) = 3.60132 4.30743 3.97010
# Velocity P-wave (km/s) = 6.28538 7.01125 6.65822
#
# Compressibility (1/GPa) = 0.02115333
#
# Stress axis : x y z
#
# Youngs Moduli (GPa) = 84.68602 38.20048 47.82980
#
# Poissons Ratio (x) = 0.07764 0.09007
# Poissons Ratio (y) = 0.17212 0.71527
# Poissons Ratio (z) = 0.15948 0.57126
#
# Static dielectric constant tensor:
#      x y z
#    x 3.972560 0.000000 -0.063470 
#    y 0.000000 3.683990 0.000000 
#    z -0.063470 0.000000 3.860130 
# 
# 
# High freq. dielectric constant tensor:
#      x y z
#    x 1.841120 0.000000 0.000530 
#    y 0.000000 1.825660 0.000000 
#    z 0.000530 0.000000 1.845960 
# 
# From -- ./inp_files/190928.got.cif
#   From: 2010.06.25/outbox.cif.g09.slc.cpg/sg15_96_cif.got.tgz:190928.got - 2010.06.28 07:06:18.
