data_PCOD8152741
_publ_section_title
;
Structure prediction by ZEFSAII (Michael W. Deem and Ramdas Pophale) SiO2 
 PCOD8152741
Probable space group: C 2/C
;
_chemical_formula_sum "Si O2"
_cell_formula_units_Z 64
_cell_length_a 24.894398
_cell_length_b 14.658751
_cell_length_c 11.653495
_cell_angle_alpha 90.000000
_cell_angle_beta 45.988662
_cell_angle_gamma 90.000000
_cell_volume 3058.481601
_symmetry_space_group_name_H-M "C 2/C"
_symmetry_group_IT_number 15
_symmetry_cell_setting 'monoclinic'
loop_
_space_group_symop_operation_xyz
x,y,z
-x,y,1/2-z
-x,-y,-z
x,-y,1/2+z
1/2+x,1/2+y,z
1/2-x,1/2+y,1/2-z
1/2-x,1/2-y,-z
1/2+x,1/2-y,1/2+z
loop_
_atom_site_type_symbol
_atom_site_label
_atom_site_fract_x
_atom_site_fract_y
_atom_site_fract_z
Si Si1 0.582874 0.588552 0.150765
Si Si2 0.649409 0.365266 0.786285
Si Si3 0.090872 0.432197 0.607914
Si Si4 0.082483 0.112452 0.613598
Si Si5 0.331125 0.714818 0.624156
Si Si6 0.682517 0.885130 0.015030
Si Si7 0.327869 0.836193 0.206299
Si Si8 0.337571 0.764431 0.867244
O O1 0.500000 0.620267 0.250000
O O2 0.613087 0.636333 0.217554
O O3 0.589563 0.481966 0.170614
O O4 0.626944 0.622881 0.974157
O O5 0.734262 0.403575 0.657754
O O6 0.635483 0.261699 0.843647
O O7 0.603239 0.417771 0.952640
O O8 0.124883 0.532651 0.578645
O O9 0.115239 0.404030 0.442970
O O10 0.128811 0.361770 0.642013
O O11 0.000000 0.433849 0.750000
O O12 0.137014 0.186007 0.584814
O O13 0.000000 0.153402 0.750000
O O14 0.345340 0.793666 0.507548
O O15 0.246123 0.680342 0.759833
O O16 0.363387 0.749869 0.697632
O O17 0.690853 0.872251 0.139044
O O18 0.250000 0.750000 0.000000
#
# Coordination Sequence:
#
# PCOD8152741 Si02
#       8
#     8   8   8   8   8   8   8   8
#     4  11  26  39  66 103 132 174 224 284 350 399
#     4  11  22  45  72  93 134 185 230 278 344 411
#     4  12  29  47  69 107 145 184 228 288 355 415
#     4  11  27  43  64 101 141 178 217 287 358 401
#     4  11  23  45  69 103 134 175 240 287 333 409
#     4  11  25  45  73  99 134 186 232 282 344 409
#     4  11  22  47  71  94 137 180 235 286 336 405
#     4  12  25  44  70 101 135 180 233 280 339 421
#
# _framework density 20.925415999999998
#
# number of rings (size 3 to 8) (size 9 to 14) (size 15 to 20)
#    0.000    0.750    5.000    1.875    8.750    2.000 
#    0.000    0.000    0.000    0.000    0.000    0.000 
#    0.000    0.000    0.000    0.000    0.000    0.000 
#
# Total GULP energy -396630.775160 kJ/mol
# GULP energy per Si atom -12394.711724 kJ/mol
# Density = 2.087779 g / cm^3
# Si number density = 20.925416 Si / 1000 Ang^3
#
#
#
# Elastic Constant Matrix: (Units=GPa)
#
#
# Indices 1 2 3 4 5 6 
#
# 1 85.1368 44.6952 48.8946 0.0000 -7.8421 0.0000
# 2 44.6952 67.5943 29.0521 0.0000 -22.0959 0.0000
# 3 48.8946 29.0521 121.9889 0.0000 1.9142 0.0000
# 4 0.0000 0.0000 0.0000 27.5931 0.0000 -8.5652
# 5 -7.8421 -22.0959 1.9142 0.0000 44.9499 0.0000
# 6 0.0000 0.0000 0.0000 -8.5652 0.0000 36.6102
#
#
#
# Elastic Compliance Matrix: (Units=1/GPa)
#
#
# Indices 1 2 3 4 5 6 
#
# 1 0.021202 -0.012341 -0.005525 0.000000 -0.002132 0.000000
# 2 -0.012341 0.027446 -0.001769 0.000000 0.011414 0.000000
# 3 -0.005525 -0.001769 0.010869 0.000000 -0.002296 0.000000
# 4 0.000000 0.000000 0.000000 0.039079 0.000000 0.009143
# 5 -0.002132 0.011414 -0.002296 0.000000 0.027583 0.000000
# 6 0.000000 0.000000 0.000000 0.009143 0.000000 0.029454
#
#
# Mechanical properties :
#
#
# Convention : Reuss Voigt Hill
#
# Bulk Modulus (GPa) = 49.39285 57.77820 53.58552
# Shear Modulus (GPa) = 24.79514 31.96917 28.38216
#
# Velocity S-wave (km/s) = 3.44601 3.91291 3.68686
# Velocity P-wave (km/s) = 6.28401 6.93440 6.61720
#
# Compressibility (1/GPa) = 0.02024584
#
# Stress axis : x y z
#
# Youngs Moduli (GPa) = 47.16640 36.43532 92.00187
#
# Poissons Ratio (x) = 0.44966 0.50833
# Poissons Ratio (y) = 0.58210 0.16274
# Poissons Ratio (z) = 0.26060 0.06445
#
# Static dielectric constant tensor:
#      x y z
#    x 4.565630 0.000000 0.155140 
#    y 0.000000 3.921530 0.000000 
#    z 0.155140 0.000000 3.938530 
# 
# 
# High freq. dielectric constant tensor:
#      x y z
#    x 1.821190 0.000000 0.008700 
#    y 0.000000 1.822340 0.000000 
#    z 0.008700 0.000000 1.831470 
# 
# From -- ./inp_files/123488.got.cif
#   From: 2010.06.25/outbox.cif.g09.slc.cpg/sg15_62_cif.got.tgz:123488.got - 2010.06.28 07:06:18.
