data_PCOD8152198
_publ_section_title
;
Structure prediction by ZEFSAII (Michael W. Deem and Ramdas Pophale) SiO2 
 PCOD8152198
Probable space group: C 2/C
;
_chemical_formula_sum "Si O2"
_cell_formula_units_Z 48
_cell_length_a 17.284635
_cell_length_b 9.319364
_cell_length_c 16.539577
_cell_angle_alpha 90.000000
_cell_angle_beta 60.395741
_cell_angle_gamma 90.000000
_cell_volume 2316.432232
_symmetry_space_group_name_H-M "C 2/C"
_symmetry_group_IT_number 15
_symmetry_cell_setting 'monoclinic'
loop_
_space_group_symop_operation_xyz
x,y,z
-x,y,1/2-z
-x,-y,-z
x,-y,1/2+z
1/2+x,1/2+y,z
1/2-x,1/2+y,1/2-z
1/2-x,1/2-y,-z
1/2+x,1/2-y,1/2+z
loop_
_atom_site_type_symbol
_atom_site_label
_atom_site_fract_x
_atom_site_fract_y
_atom_site_fract_z
Si Si1 0.161421 0.193438 0.771050
Si Si2 0.479753 0.630969 0.952942
Si Si3 0.089437 0.695812 0.653351
Si Si4 0.027543 0.624143 0.928081
Si Si5 0.682777 0.025012 0.731552
Si Si6 0.902530 0.013895 0.837950
O O1 0.065978 0.196671 0.863680
O O2 0.226510 0.107787 0.796578
O O3 0.194463 0.354307 0.734280
O O4 0.159997 0.108930 0.686789
O O5 0.406831 0.586271 0.924029
O O6 0.500000 0.500000 0.000000
O O7 0.436983 0.747538 0.034276
O O8 0.061953 0.665639 0.575093
O O9 0.154425 0.571573 0.654880
O O10 0.000000 0.697052 0.750000
O O11 0.136608 0.852246 0.635025
O O12 0.107743 0.580486 0.830151
O O13 0.000000 0.500000 0.000000
O O14 0.000000 0.004701 0.750000
#
# Coordination Sequence:
#
# PCOD8152198 Si02
#       6
#     8   8   8   8   8   8
#     4  11  24  40  61  87 120 160 198 241 295 355
#     4  11  22  39  65  91 117 155 199 244 295 348
#     4   9  19  36  60  85 117 158 195 236 290 355
#     4  11  22  39  63  91 119 151 199 249 292 343
#     4  11  24  40  61  86 121 159 198 242 296 354
#     4   9  19  36  60  86 116 155 199 235 288 359
#
# _framework density 20.721522
#
# number of rings (size 3 to 8) (size 9 to 14) (size 15 to 20)
#    0.000    1.667    3.333    1.000    7.000    2.000 
#    0.000    3.333    0.000    0.000    0.000    0.000 
#    0.000    0.000    0.000    0.000    0.000    0.000 
#
# Total GULP energy -297560.343452 kJ/mol
# GULP energy per Si atom -12398.347644 kJ/mol
# Density = 2.067436 g / cm^3
# Si number density = 20.721522 Si / 1000 Ang^3
#
#
#
# Elastic Constant Matrix: (Units=GPa)
#
#
# Indices 1 2 3 4 5 6 
#
# 1 86.9369 35.9095 15.1369 0.0000 25.2675 0.0000
# 2 35.9095 156.7134 16.4841 0.0000 18.7321 0.0000
# 3 15.1369 16.4841 45.4917 0.0000 25.6374 0.0000
# 4 0.0000 0.0000 0.0000 36.1014 0.0000 9.3985
# 5 25.2675 18.7321 25.6374 0.0000 36.7984 0.0000
# 6 0.0000 0.0000 0.0000 9.3985 0.0000 40.3993
#
#
#
# Elastic Compliance Matrix: (Units=1/GPa)
#
#
# Indices 1 2 3 4 5 6 
#
# 1 0.015232 -0.002424 0.001661 0.000000 -0.010383 0.000000
# 2 -0.002424 0.007200 -0.001111 0.000000 -0.001227 0.000000
# 3 0.001661 -0.001111 0.036479 0.000000 -0.025990 0.000000
# 4 0.000000 0.000000 0.000000 0.029486 0.000000 -0.006859
# 5 -0.010383 -0.001227 -0.025990 0.000000 0.053036 0.000000
# 6 0.000000 0.000000 0.000000 -0.006859 0.000000 0.026349
#
#
# Mechanical properties :
#
#
# Convention : Reuss Voigt Hill
#
# Bulk Modulus (GPa) = 18.12808 47.13367 32.63088
# Shear Modulus (GPa) = 26.32738 37.43393 31.88065
#
# Velocity S-wave (km/s) = 3.56832 4.25493 3.92666
# Velocity P-wave (km/s) = 5.07392 6.85090 6.02825
#
# Compressibility (1/GPa) = 0.05516305
#
# Stress axis : x y z
#
# Youngs Moduli (GPa) = 65.65034 138.88867 27.41323
#
# Poissons Ratio (x) = 0.33667 -0.04554
# Poissons Ratio (y) = 0.15914 0.03046
# Poissons Ratio (z) = -0.10906 0.15432
#
# Static dielectric constant tensor:
#      x y z
#    x 3.826960 0.000000 0.468520 
#    y 0.000000 3.800350 0.000000 
#    z 0.468520 0.000000 3.486650 
# 
# 
# High freq. dielectric constant tensor:
#      x y z
#    x 1.801140 0.000000 0.031550 
#    y 0.000000 1.828810 0.000000 
#    z 0.031550 0.000000 1.793000 
# 
# From -- ./inp_files/208915.got.cif
#   From: 2010.06.25/outbox.cif.g09.slc.cpg/sg15_105_cif.got.tgz:208915.got - 2010.06.28 07:06:18.
