data_PCOD8152925
_publ_section_title
;
Structure prediction by ZEFSAII (Michael W. Deem and Ramdas Pophale) SiO2 
 PCOD8152925
Probable space group: C 2/C
;
_chemical_formula_sum "Si O2"
_cell_formula_units_Z 32
_cell_length_a 21.657488
_cell_length_b 10.429292
_cell_length_c 8.716372
_cell_angle_alpha 90.000000
_cell_angle_beta 48.999312
_cell_angle_gamma 90.000000
_cell_volume 1485.846672
_symmetry_space_group_name_H-M "C 2/C"
_symmetry_group_IT_number 15
_symmetry_cell_setting 'monoclinic'
loop_
_space_group_symop_operation_xyz
x,y,z
-x,y,1/2-z
-x,-y,-z
x,-y,1/2+z
1/2+x,1/2+y,z
1/2-x,1/2+y,1/2-z
1/2-x,1/2-y,-z
1/2+x,1/2-y,1/2+z
loop_
_atom_site_type_symbol
_atom_site_label
_atom_site_fract_x
_atom_site_fract_y
_atom_site_fract_z
Si Si1 0.971795 0.871471 0.468894
Si Si2 0.039751 0.615677 0.350703
Si Si3 0.724774 0.113859 0.106528
Si Si4 0.282962 0.369226 0.847286
O O1 0.019324 0.750659 0.468758
O O2 0.000000 0.885070 0.250000
O O3 0.875273 0.845389 0.641430
O O4 0.000000 0.000000 0.500000
O O5 0.135014 0.586596 0.189653
O O6 0.000000 0.626422 0.250000
O O7 0.000000 0.500000 0.500000
O O8 0.726991 0.115418 0.287419
O O9 0.750000 0.250000 0.000000
O O10 0.781491 0.999146 0.950264
O O11 0.250000 0.250000 0.000000
#
# Coordination Sequence:
#
# PCOD8152925 Si02
#       4
#     8   8   8   8
#     4  11  24  43  65  94 130 169 215 268 324 390
#     4  11  23  41  62  91 126 166 212 264 319 383
#     4  12  24  42  66  96 132 174 219 273 329 391
#     4  12  25  44  68  99 133 175 223 275 332 396
#
# _framework density 21.536543999999999
#
# number of rings (size 3 to 8) (size 9 to 14) (size 15 to 20)
#    0.000    0.500    0.000   10.500    0.000    3.000 
#    0.000    0.000    0.000    0.000    0.000    0.000 
#    0.000    0.000    0.000    0.000    0.000    0.000 
#
# Total GULP energy -198429.503593 kJ/mol
# GULP energy per Si atom -12401.843975 kJ/mol
# Density = 2.148753 g / cm^3
# Si number density = 21.536544 Si / 1000 Ang^3
#
#
#
# Elastic Constant Matrix: (Units=GPa)
#
#
# Indices 1 2 3 4 5 6 
#
# 1 88.3987 8.6997 47.2906 0.0000 5.3448 0.0000
# 2 8.6997 194.1939 70.3481 0.0000 19.9254 0.0000
# 3 47.2906 70.3481 149.8480 0.0000 -8.2029 0.0000
# 4 0.0000 0.0000 0.0000 53.7653 0.0000 0.4243
# 5 5.3448 19.9254 -8.2029 0.0000 49.2379 0.0000
# 6 0.0000 0.0000 0.0000 0.4243 0.0000 35.8594
#
#
#
# Elastic Compliance Matrix: (Units=1/GPa)
#
#
# Indices 1 2 3 4 5 6 
#
# 1 0.014252 0.001655 -0.005446 0.000000 -0.003124 0.000000
# 2 0.001655 0.006877 -0.003949 0.000000 -0.003621 0.000000
# 3 -0.005446 -0.003949 0.010461 0.000000 0.003932 0.000000
# 4 0.000000 0.000000 0.000000 0.018601 0.000000 -0.000220
# 5 -0.003124 -0.003621 0.003932 0.000000 0.022769 0.000000
# 6 0.000000 0.000000 0.000000 -0.000220 0.000000 0.027889
#
#
# Mechanical properties :
#
#
# Convention : Reuss Voigt Hill
#
# Bulk Modulus (GPa) = 62.07153 76.12416 69.09784
# Shear Modulus (GPa) = 41.08478 48.17932 44.63205
#
# Velocity S-wave (km/s) = 4.37243 4.73493 4.55729
# Velocity P-wave (km/s) = 7.37394 8.08183 7.73598
#
# Compressibility (1/GPa) = 0.01611045
#
# Stress axis : x y z
#
# Youngs Moduli (GPa) = 70.16758 145.40227 95.59126
#
# Poissons Ratio (x) = -0.24060 0.52054
# Poissons Ratio (y) = -0.11611 0.37750
# Poissons Ratio (z) = 0.38210 0.57421
#
# Static dielectric constant tensor:
#      x y z
#    x 4.031780 0.000000 -0.022060 
#    y 0.000000 8.324170 0.000000 
#    z -0.022060 0.000000 3.922300 
# 
# 
# High freq. dielectric constant tensor:
#      x y z
#    x 1.847910 0.000000 -0.007610 
#    y 0.000000 1.878030 0.000000 
#    z -0.007610 0.000000 1.855680 
# 
# From -- ./inp_files/36816.got.cif
#   From: 2010.06.25/outbox.cif.g09.slc.cpg/sg15_19_cif.got.tgz:36816.got - 2010.06.28 07:06:18.
