data_PCOD8152846
_publ_section_title
;
Structure prediction by ZEFSAII (Michael W. Deem and Ramdas Pophale) SiO2 
 PCOD8152846
Probable space group: C 2/C
;
_chemical_formula_sum "Si O2"
_cell_formula_units_Z 36
_cell_length_a 8.910898
_cell_length_b 28.118378
_cell_length_c 11.598388
_cell_angle_alpha 90.000000
_cell_angle_beta 141.157097
_cell_angle_gamma 90.000000
_cell_volume 1822.663761
_symmetry_space_group_name_H-M "C 2/C"
_symmetry_group_IT_number 15
_symmetry_cell_setting 'monoclinic'
loop_
_space_group_symop_operation_xyz
x,y,z
-x,y,1/2-z
-x,-y,-z
x,-y,1/2+z
1/2+x,1/2+y,z
1/2-x,1/2+y,1/2-z
1/2-x,1/2-y,-z
1/2+x,1/2-y,1/2+z
loop_
_atom_site_type_symbol
_atom_site_label
_atom_site_fract_x
_atom_site_fract_y
_atom_site_fract_z
Si Si1 0.377856 0.549107 0.957044
Si Si2 0.498370 0.306478 0.622560
Si Si3 0.314550 0.884711 0.741132
Si Si4 0.000000 0.714894 0.750000
Si Si5 0.455585 0.949607 0.033015
O O1 0.279437 0.546318 0.028392
O O2 0.177968 0.563289 0.745829
O O3 0.500000 0.500000 0.000000
O O4 0.573354 0.589250 0.063190
O O5 0.500000 0.330847 0.750000
O O6 0.729156 0.329528 0.698592
O O7 0.527811 0.249022 0.652815
O O8 0.239962 0.317105 0.406579
O O9 0.500000 0.889803 0.750000
O O10 0.428173 0.907278 0.924209
O O11 0.500000 0.000000 0.000000
#
# Coordination Sequence:
#
# PCOD8152846 Si02
#       5
#     8   8   8   4   8
#     4  11  23  39  60  85 114 160 205 253 301 348
#     4   9  18  38  64  90 114 151 196 245 306 360
#     4  12  25  38  57  89 125 162 203 246 291 368
#     4   8  18  38  70  88 116 148 192 262 306 366
#     4  11  23  39  60  83 116 158 205 254 302 346
#
# _framework density 19.751311999999999
#
# number of rings (size 3 to 8) (size 9 to 14) (size 15 to 20)
#    0.667    0.889    2.222    3.333    0.000    6.222 
#    0.000    1.111    0.000    0.000    0.000    0.000 
#    0.000    0.000    0.000    0.000    0.000    0.000 
#
# Total GULP energy -223077.264275 kJ/mol
# GULP energy per Si atom -12393.181349 kJ/mol
# Density = 1.970636 g / cm^3
# Si number density = 19.751312 Si / 1000 Ang^3
#
#
#
# Elastic Constant Matrix: (Units=GPa)
#
#
# Indices 1 2 3 4 5 6 
#
# 1 168.7293 44.6668 58.8493 0.0000 8.9070 0.0000
# 2 44.6668 64.7324 28.9191 0.0000 6.3511 0.0000
# 3 58.8493 28.9191 136.2330 0.0000 5.1337 0.0000
# 4 0.0000 0.0000 0.0000 25.6988 0.0000 17.3324
# 5 8.9070 6.3511 5.1337 0.0000 26.3636 0.0000
# 6 0.0000 0.0000 0.0000 17.3324 0.0000 32.4116
#
#
#
# Elastic Compliance Matrix: (Units=1/GPa)
#
#
# Indices 1 2 3 4 5 6 
#
# 1 0.007995 -0.004284 -0.002500 0.000000 -0.001182 0.000000
# 2 -0.004284 0.019676 -0.002218 0.000000 -0.002861 0.000000
# 3 -0.002500 -0.002218 0.008904 0.000000 -0.000355 0.000000
# 4 0.000000 0.000000 0.000000 0.060864 0.000000 -0.032548
# 5 -0.001182 -0.002861 -0.000355 0.000000 0.039089 0.000000
# 6 0.000000 0.000000 0.000000 -0.032548 0.000000 0.048258
#
#
# Mechanical properties :
#
#
# Convention : Reuss Voigt Hill
#
# Bulk Modulus (GPa) = 53.84646 70.50723 62.17684
# Shear Modulus (GPa) = 23.92563 32.71211 28.31887
#
# Velocity S-wave (km/s) = 3.48421 4.07406 3.79063
# Velocity P-wave (km/s) = 6.59604 7.60957 7.12086
#
# Compressibility (1/GPa) = 0.01857132
#
# Stress axis : x y z
#
# Youngs Moduli (GPa) = 125.07848 50.82343 112.30327
#
# Poissons Ratio (x) = 0.21773 0.28072
# Poissons Ratio (y) = 0.53583 0.24913
# Poissons Ratio (z) = 0.31266 0.11275
#
# Static dielectric constant tensor:
#      x y z
#    x 3.568930 0.000000 0.020070 
#    y 0.000000 2.948100 0.000000 
#    z 0.020070 0.000000 3.733730 
# 
# 
# High freq. dielectric constant tensor:
#      x y z
#    x 1.749540 0.000000 0.007000 
#    y 0.000000 1.758080 0.000000 
#    z 0.007000 0.000000 1.792600 
# 
# From -- ./inp_files/81943.got.cif
#   From: 2010.06.25/outbox.cif.g09.slc.cpg/sg15_41_cif.got.tgz:81943.got - 2010.06.28 07:06:18.
