data_PCOD8152281
_publ_section_title
;
Structure prediction by ZEFSAII (Michael W. Deem and Ramdas Pophale) SiO2 
 PCOD8152281
Probable space group: C 2/C
;
_chemical_formula_sum "Si O2"
_cell_formula_units_Z 48
_cell_length_a 30.662021
_cell_length_b 8.890058
_cell_length_c 8.242894
_cell_angle_alpha 90.000000
_cell_angle_beta 91.779261
_cell_angle_gamma 90.000000
_cell_volume 2245.823629
_symmetry_space_group_name_H-M "C 2/C"
_symmetry_group_IT_number 15
_symmetry_cell_setting 'monoclinic'
loop_
_space_group_symop_operation_xyz
x,y,z
-x,y,1/2-z
-x,-y,-z
x,-y,1/2+z
1/2+x,1/2+y,z
1/2-x,1/2+y,1/2-z
1/2-x,1/2-y,-z
1/2+x,1/2-y,1/2+z
loop_
_atom_site_type_symbol
_atom_site_label
_atom_site_fract_x
_atom_site_fract_y
_atom_site_fract_z
Si Si1 0.791581 0.795445 0.293124
Si Si2 0.292625 0.381350 0.665397
Si Si3 0.372504 0.119073 0.169849
Si Si4 0.047298 0.878097 0.827797
Si Si5 0.047541 0.798829 0.204340
Si Si6 0.126807 0.703928 0.702346
O O1 0.748906 0.695610 0.254278
O O2 0.794529 0.845581 0.477702
O O3 0.834010 0.699503 0.260682
O O4 0.788932 0.939719 0.177796
O O5 0.336165 0.326007 0.758293
O O6 0.418266 0.167707 0.254450
O O7 0.366447 0.940651 0.183477
O O8 0.370675 0.157535 0.982516
O O9 0.080130 0.775750 0.731193
O O10 0.000000 0.845559 0.750000
O O11 0.059749 0.053374 0.809965
O O12 0.048592 0.839340 0.016108
O O13 0.000000 0.738177 0.250000
#
# Coordination Sequence:
#
# PCOD8152281 Si02
#       6
#     8   8   8   8   8   8
#     4  11  24  42  65  93 125 162 204 251 304 361
#     4  11  24  42  65  93 125 162 204 251 304 361
#     4  12  25  42  63  90 124 162 205 253 306 363
#     4  11  22  40  64  92 124 161 205 252 305 362
#     4  11  22  40  64  92 124 161 205 252 305 362
#     4  12  25  42  63  90 124 162 205 253 306 363
#
# _framework density 21.373004000000002
#
# number of rings (size 3 to 8) (size 9 to 14) (size 15 to 20)
#    0.000    0.667    0.000   10.000    0.000    6.000 
#    0.000    3.333    0.000    0.000    0.000    0.000 
#    0.000    0.000    0.000    0.000    0.000    0.000 
#
# Total GULP energy -297818.285367 kJ/mol
# GULP energy per Si atom -12409.095224 kJ/mol
# Density = 2.132436 g / cm^3
# Si number density = 21.373004 Si / 1000 Ang^3
#
#
#
# Elastic Constant Matrix: (Units=GPa)
#
#
# Indices 1 2 3 4 5 6 
#
# 1 117.0175 48.7677 -0.5650 0.0000 -14.2931 0.0000
# 2 48.7677 84.8873 -28.4152 0.0000 -7.5365 0.0000
# 3 -0.5650 -28.4152 34.3973 0.0000 4.2413 0.0000
# 4 0.0000 0.0000 0.0000 45.5984 0.0000 2.3293
# 5 -14.2931 -7.5365 4.2413 0.0000 33.7624 0.0000
# 6 0.0000 0.0000 0.0000 2.3293 0.0000 33.6057
#
#
#
# Elastic Compliance Matrix: (Units=1/GPa)
#
#
# Indices 1 2 3 4 5 6 
#
# 1 0.013277 -0.010150 -0.008716 0.000000 0.004450 0.000000
# 2 -0.010150 0.024173 0.019976 0.000000 -0.001411 0.000000
# 3 -0.008716 0.019976 0.046050 0.000000 -0.005015 0.000000
# 4 0.000000 0.000000 0.000000 0.022009 0.000000 -0.001525
# 5 0.004450 -0.001411 -0.005015 0.000000 0.031818 0.000000
# 6 0.000000 0.000000 0.000000 -0.001525 0.000000 0.029863
#
#
# Mechanical properties :
#
#
# Convention : Reuss Voigt Hill
#
# Bulk Modulus (GPa) = 11.66567 30.65301 21.15934
# Shear Modulus (GPa) = 25.83423 37.02760 31.43091
#
# Velocity S-wave (km/s) = 3.48045 4.16678 3.83899
# Velocity P-wave (km/s) = 4.64988 6.12556 5.43801
#
# Compressibility (1/GPa) = 0.08572164
#
# Stress axis : x y z
#
# Youngs Moduli (GPa) = 75.31623 41.36796 21.71572
#
# Poissons Ratio (x) = 0.41989 0.18926
# Poissons Ratio (y) = 0.76447 -0.43380
# Poissons Ratio (z) = 0.65642 -0.82639
#
# Static dielectric constant tensor:
#      x y z
#    x 4.278480 0.000000 -0.110890 
#    y 0.000000 4.093740 0.000000 
#    z -0.110890 0.000000 3.930740 
# 
# 
# High freq. dielectric constant tensor:
#      x y z
#    x 1.855740 0.000000 -0.007280 
#    y 0.000000 1.842660 0.000000 
#    z -0.007280 0.000000 1.856770 
# 
# From -- ./inp_files/68544.got.cif
#   From: 2010.06.25/outbox.cif.g09.slc.cpg/sg15_35_cif.got.tgz:68544.got - 2010.06.28 07:06:18.
