data_PCOD8152063
_publ_section_title
;
Structure prediction by ZEFSAII (Michael W. Deem and Ramdas Pophale) SiO2 
 PCOD8152063
Probable space group: C 2/C
;
_chemical_formula_sum "Si O2"
_cell_formula_units_Z 48
_cell_length_a 13.096594
_cell_length_b 13.042136
_cell_length_c 24.734866
_cell_angle_alpha 90.000000
_cell_angle_beta 37.972598
_cell_angle_gamma 90.000000
_cell_volume 2599.516929
_symmetry_space_group_name_H-M "C 2/C"
_symmetry_group_IT_number 15
_symmetry_cell_setting 'monoclinic'
loop_
_space_group_symop_operation_xyz
x,y,z
-x,y,1/2-z
-x,-y,-z
x,-y,1/2+z
1/2+x,1/2+y,z
1/2-x,1/2+y,1/2-z
1/2-x,1/2-y,-z
1/2+x,1/2-y,1/2+z
loop_
_atom_site_type_symbol
_atom_site_label
_atom_site_fract_x
_atom_site_fract_y
_atom_site_fract_z
Si Si1 0.844840 0.793693 0.852322
Si Si2 0.798935 0.135429 0.992528
Si Si3 0.181836 0.127568 0.846880
Si Si4 0.488785 0.864094 0.150703
Si Si5 0.374266 0.035829 0.007880
Si Si6 0.651382 0.963266 0.655357
O O1 0.713893 0.720387 0.875748
O O2 0.913449 0.740991 0.878264
O O3 0.000000 0.820094 0.750000
O O4 0.765337 0.899787 0.903471
O O5 0.994832 0.124746 0.904531
O O6 0.750000 0.250000 0.000000
O O7 0.746543 0.114315 0.076387
O O8 0.708149 0.058445 0.989438
O O9 0.293984 0.145404 0.746462
O O10 0.217744 0.016394 0.858647
O O11 0.516965 0.892864 0.077055
O O12 0.563100 0.946677 0.160067
O O13 0.500000 0.000000 0.000000
O O14 0.500000 0.905134 0.750000
#
# Coordination Sequence:
#
# PCOD8152063 Si02
#       6
#     8   8   8   8   8   8
#     4   9  18  35  58  80 102 131 171 217 263 312
#     4  11  22  35  50  76 110 139 168 210 261 307
#     4   9  17  35  59  79  98 130 174 218 256 305
#     4   8  17  34  57  79 101 131 173 216 257 306
#     4  11  22  35  52  76 109 143 173 213 259 308
#     4   8  16  34  58  78  97 130 176 216 251 300
#
# _framework density 18.464970000000001
#
# number of rings (size 3 to 8) (size 9 to 14) (size 15 to 20)
#    0.000    2.667    0.000    4.000    0.000    1.333 
#    0.000   10.833    0.000    0.000    0.000    0.000 
#    0.000    0.000    0.000    0.000    0.000    0.000 
#
# Total GULP energy -297534.070470 kJ/mol
# GULP energy per Si atom -12397.252936 kJ/mol
# Density = 1.842294 g / cm^3
# Si number density = 18.464970 Si / 1000 Ang^3
#
#
#
# Elastic Constant Matrix: (Units=GPa)
#
#
# Indices 1 2 3 4 5 6 
#
# 1 111.0456 46.5623 66.7461 -0.0001 -7.6802 0.0000
# 2 46.5623 105.8966 58.0412 0.0001 0.2448 0.0001
# 3 66.7461 58.0412 117.8561 0.0014 -10.6727 0.0003
# 4 -0.0001 0.0001 0.0014 30.8202 0.0001 -1.3838
# 5 -7.6802 0.2448 -10.6727 0.0001 31.4613 -0.0001
# 6 0.0000 0.0001 0.0003 -1.3838 -0.0001 24.5113
#
#
#
# Elastic Compliance Matrix: (Units=1/GPa)
#
#
# Indices 1 2 3 4 5 6 
#
# 1 0.014166 -0.002596 -0.006633 0.000000 0.001228 0.000000
# 2 -0.002596 0.013578 -0.005451 0.000000 -0.002589 0.000000
# 3 -0.006633 -0.005451 0.015252 -0.000001 0.003597 0.000000
# 4 0.000000 0.000000 -0.000001 0.032529 0.000000 0.001836
# 5 0.001228 -0.002589 0.003597 0.000000 0.033325 0.000000
# 6 0.000000 0.000000 0.000000 0.001836 0.000000 0.040901
#
#
# Mechanical properties :
#
#
# Convention : Reuss Voigt Hill
#
# Bulk Modulus (GPa) = 73.33757 75.27749 74.30753
# Shear Modulus (GPa) = 27.22484 28.25514 27.73999
#
# Velocity S-wave (km/s) = 3.84396 3.91602 3.88016
# Velocity P-wave (km/s) = 7.71393 7.82964 7.77200
#
# Compressibility (1/GPa) = 0.01363558
#
# Stress axis : x y z
#
# Youngs Moduli (GPa) = 70.59393 73.64644 65.56677
#
# Poissons Ratio (x) = 0.19119 0.43489
# Poissons Ratio (y) = 0.18326 0.35742
# Poissons Ratio (z) = 0.46823 0.40146
#
# Static dielectric constant tensor:
#      x y z
#    x 3.350840 0.000000 0.147710 
#    y 0.000000 3.352270 0.000000 
#    z 0.147710 0.000000 3.720720 
# 
# 
# High freq. dielectric constant tensor:
#      x y z
#    x 1.702750 0.000000 -0.000550 
#    y 0.000000 1.700920 0.000000 
#    z -0.000550 0.000000 1.731170 
# 
# From -- ./inp_files/196511.got.cif
#   From: 2010.06.25/outbox.cif.g09.slc.cpg/sg15_99_cif.got.tgz:196511.got - 2010.06.28 07:06:18.
