data_PCOD8152319
_publ_section_title
;
Structure prediction by ZEFSAII (Michael W. Deem and Ramdas Pophale) SiO2 
 PCOD8152319
Probable space group: C 2/C
;
_chemical_formula_sum "Si O2"
_cell_formula_units_Z 56
_cell_length_a 11.865634
_cell_length_b 9.390117
_cell_length_c 26.944827
_cell_angle_alpha 90.000000
_cell_angle_beta 125.086130
_cell_angle_gamma 90.000000
_cell_volume 2456.654066
_symmetry_space_group_name_H-M "C 2/C"
_symmetry_group_IT_number 15
_symmetry_cell_setting 'monoclinic'
loop_
_space_group_symop_operation_xyz
x,y,z
-x,y,1/2-z
-x,-y,-z
x,-y,1/2+z
1/2+x,1/2+y,z
1/2-x,1/2+y,1/2-z
1/2-x,1/2-y,-z
1/2+x,1/2-y,1/2+z
loop_
_atom_site_type_symbol
_atom_site_label
_atom_site_fract_x
_atom_site_fract_y
_atom_site_fract_z
Si Si1 0.722533 0.498146 0.362890
Si Si2 0.553616 0.718762 0.367278
Si Si3 0.473610 0.277627 0.145822
Si Si4 0.841998 0.993961 0.764442
Si Si5 0.475873 0.003634 0.798024
Si Si6 0.892135 0.666256 0.025236
Si Si7 0.492261 0.866987 0.050013
O O1 0.696826 0.648876 0.384827
O O2 0.658268 0.379570 0.383215
O O3 0.636151 0.500783 0.289646
O O4 0.880547 0.460023 0.395004
O O5 0.424967 0.634985 0.310927
O O6 0.544300 0.883831 0.351681
O O7 0.547582 0.730897 0.425888
O O8 0.611583 0.359038 0.198087
O O9 0.493693 0.219020 0.095009
O O10 0.444180 0.144528 0.174469
O O11 0.682818 0.970705 0.733092
O O12 0.500000 0.065649 0.750000
O O13 0.874201 0.491602 0.018030
O O14 0.750000 0.750000 0.000000
O O15 0.966993 0.704450 0.992198
#
# Coordination Sequence:
#
# PCOD8152319 Si02
#       7
#     8   8   8   8   8   8   8
#     4  11  22  44  69  97 141 179 220 280 350 418
#     4  11  23  41  64 100 133 176 225 273 343 410
#     4  11  22  40  67  97 129 180 227 279 343 403
#     4  11  23  40  64  98 142 179 219 277 353 417
#     4  12  23  35  62 100 136 174 224 273 335 419
#     4  11  23  44  74  95 132 185 238 283 343 397
#     4  11  24  45  73  97 133 186 227 288 344 396
#
# _framework density 22.795231000000001
#
# number of rings (size 3 to 8) (size 9 to 14) (size 15 to 20)
#    0.000    0.857    4.286    4.286    2.000    1.143 
#    0.000    5.714    3.143    0.000    0.000    0.000 
#    0.000    0.000    0.000    0.000    0.000    0.000 
#
# Total GULP energy -347065.727041 kJ/mol
# GULP energy per Si atom -12395.204537 kJ/mol
# Density = 2.274335 g / cm^3
# Si number density = 22.795231 Si / 1000 Ang^3
#
#
#
# Elastic Constant Matrix: (Units=GPa)
#
#
# Indices 1 2 3 4 5 6 
#
# 1 73.8977 35.1686 25.2471 0.0000 -16.3650 0.0000
# 2 35.1686 116.1752 25.7602 0.0000 -12.1617 0.0000
# 3 25.2471 25.7602 99.0540 0.0000 -43.6272 0.0000
# 4 0.0000 0.0000 0.0000 47.1581 0.0000 -8.8562
# 5 -16.3650 -12.1617 -43.6272 0.0000 43.1194 0.0000
# 6 0.0000 0.0000 0.0000 -8.8562 0.0000 39.8160
#
#
#
# Elastic Compliance Matrix: (Units=1/GPa)
#
#
# Indices 1 2 3 4 5 6 
#
# 1 0.016969 -0.004407 -0.001605 0.000000 0.003573 0.000000
# 2 -0.004407 0.010281 -0.001822 0.000000 -0.000616 0.000000
# 3 -0.001605 -0.001822 0.018911 0.000000 0.018011 0.000000
# 4 0.000000 0.000000 0.000000 0.022130 0.000000 0.004922
# 5 0.003573 -0.000616 0.018011 0.000000 0.042596 0.000000
# 6 0.000000 0.000000 0.000000 0.004922 0.000000 0.026210
#
#
# Mechanical properties :
#
#
# Convention : Reuss Voigt Hill
#
# Bulk Modulus (GPa) = 32.79415 51.27539 42.03477
# Shear Modulus (GPa) = 30.68788 39.54877 35.11832
#
# Velocity S-wave (km/s) = 3.67310 4.16980 3.92931
# Velocity P-wave (km/s) = 5.69267 6.76208 6.25029
#
# Compressibility (1/GPa) = 0.03049324
#
# Stress axis : x y z
#
# Youngs Moduli (GPa) = 58.93008 97.26464 52.87910
#
# Poissons Ratio (x) = 0.42864 0.08489
# Poissons Ratio (y) = 0.25970 0.09634
# Poissons Ratio (z) = 0.09461 0.17720
#
# Static dielectric constant tensor:
#      x y z
#    x 3.934520 0.000000 -0.171790 
#    y 0.000000 4.091340 0.000000 
#    z -0.171790 0.000000 4.485450 
# 
# 
# High freq. dielectric constant tensor:
#      x y z
#    x 1.884600 0.000000 -0.012280 
#    y 0.000000 1.896420 0.000000 
#    z -0.012280 0.000000 1.917470 
# 
# From -- ./inp_files/291610.got.cif
#   From: 2010.06.25/outbox.cif.g09.slc.cpg/sg15_146_cif.got.tgz:291610.got - 2010.06.28 07:06:18.
