data_PCOD8152347
_publ_section_title
;
Structure prediction by ZEFSAII (Michael W. Deem and Ramdas Pophale) SiO2 
 PCOD8152347
Probable space group: C 2/C
;
_chemical_formula_sum "Si O2"
_cell_formula_units_Z 48
_cell_length_a 20.363231
_cell_length_b 11.617102
_cell_length_c 9.127247
_cell_angle_alpha 90.000000
_cell_angle_beta 88.094257
_cell_angle_gamma 90.000000
_cell_volume 2157.963098
_symmetry_space_group_name_H-M "C 2/C"
_symmetry_group_IT_number 15
_symmetry_cell_setting 'monoclinic'
loop_
_space_group_symop_operation_xyz
x,y,z
-x,y,1/2-z
-x,-y,-z
x,-y,1/2+z
1/2+x,1/2+y,z
1/2-x,1/2+y,1/2-z
1/2-x,1/2-y,-z
1/2+x,1/2-y,1/2+z
loop_
_atom_site_type_symbol
_atom_site_label
_atom_site_fract_x
_atom_site_fract_y
_atom_site_fract_z
Si Si1 0.549954 0.483226 0.865076
Si Si2 0.789484 0.598398 0.758718
Si Si3 0.851362 0.181093 0.723161
Si Si4 0.839989 0.581450 0.075123
Si Si5 0.128746 0.230091 0.446694
Si Si6 0.958966 0.575899 0.609855
O O1 0.500000 0.433663 0.750000
O O2 0.585308 0.601290 0.810537
O O3 0.609586 0.395282 0.888152
O O4 0.500000 0.500000 0.000000
O O5 0.716916 0.625303 0.822788
O O6 0.778913 0.480322 0.663204
O O7 0.818522 0.706549 0.662863
O O8 0.834058 0.576880 0.900451
O O9 0.859436 0.291687 0.620274
O O10 0.842908 0.217063 0.892707
O O11 0.893329 0.495288 0.144061
O O12 0.061081 0.302960 0.461313
O O13 0.000000 0.603422 0.750000
O O14 0.000000 0.500000 0.500000
#
# Coordination Sequence:
#
# PCOD8152347 Si02
#       6
#     8   8   8   8   8   8
#     4  12  28  47  69 104 146 192 239 288 362 434
#     4  11  26  45  74 102 142 184 236 304 360 423
#     4  12  27  44  75  99 142 192 235 301 353 431
#     4  11  25  44  67 107 137 178 243 287 359 426
#     4  11  25  46  69 103 141 181 238 295 355 427
#     4  11  22  40  70  98 134 178 219 289 347 411
#
# _framework density 22.243196999999999
#
# number of rings (size 3 to 8) (size 9 to 14) (size 15 to 20)
#    0.000    0.667    1.667    6.500    9.333    0.667 
#    0.000    0.000    0.000    0.000    0.000    0.000 
#    0.000    0.000    0.000    0.000    0.000    0.000 
#
# Total GULP energy -297474.593763 kJ/mol
# GULP energy per Si atom -12394.774740 kJ/mol
# Density = 2.219257 g / cm^3
# Si number density = 22.243197 Si / 1000 Ang^3
#
#
#
# Elastic Constant Matrix: (Units=GPa)
#
#
# Indices 1 2 3 4 5 6 
#
# 1 80.7915 21.4803 26.6286 0.0000 6.6943 0.0000
# 2 21.4803 109.5515 34.8000 0.0000 -3.9998 0.0000
# 3 26.6286 34.8000 125.4344 0.0000 15.9122 0.0000
# 4 0.0000 0.0000 0.0000 37.7996 0.0000 1.7661
# 5 6.6943 -3.9998 15.9122 0.0000 30.7372 0.0000
# 6 0.0000 0.0000 0.0000 1.7661 0.0000 24.4981
#
#
#
# Elastic Compliance Matrix: (Units=1/GPa)
#
#
# Indices 1 2 3 4 5 6 
#
# 1 0.013807 -0.002135 -0.002057 0.000000 -0.002220 0.000000
# 2 -0.002135 0.010594 -0.002911 0.000000 0.003350 0.000000
# 3 -0.002057 -0.002911 0.009855 0.000000 -0.005033 0.000000
# 4 0.000000 0.000000 0.000000 0.026545 0.000000 -0.001914
# 5 -0.002220 0.003350 -0.005033 0.000000 0.036059 0.000000
# 6 0.000000 0.000000 0.000000 -0.001914 0.000000 0.040957
#
#
# Mechanical properties :
#
#
# Convention : Reuss Voigt Hill
#
# Bulk Modulus (GPa) = 49.87536 53.51058 51.69297
# Shear Modulus (GPa) = 31.50483 34.13155 32.81819
#
# Velocity S-wave (km/s) = 3.76757 3.92148 3.84529
# Velocity P-wave (km/s) = 6.43409 6.67932 6.55785
#
# Compressibility (1/GPa) = 0.02004998
#
# Stress axis : x y z
#
# Youngs Moduli (GPa) = 72.42633 94.39573 101.47096
#
# Poissons Ratio (x) = 0.20151 0.20875
# Poissons Ratio (y) = 0.15461 0.29537
# Poissons Ratio (z) = 0.14900 0.27478
#
# Static dielectric constant tensor:
#      x y z
#    x 3.450880 0.000000 0.394300 
#    y 0.000000 4.069060 0.000000 
#    z 0.394300 0.000000 3.570300 
# 
# 
# High freq. dielectric constant tensor:
#      x y z
#    x 1.882320 0.000000 0.006080 
#    y 0.000000 1.884930 0.000000 
#    z 0.006080 0.000000 1.884710 
# 
# From -- ./inp_files/60538.got.cif
#   From: 2010.06.25/outbox.cif.g09.slc.cpg/sg15_31_cif.got.tgz:60538.got - 2010.06.28 07:06:18.
