data_PCOD8152652
_publ_section_title
;
Structure prediction by ZEFSAII (Michael W. Deem and Ramdas Pophale) SiO2 
 PCOD8152652
Probable space group: C 2/C
;
_chemical_formula_sum "Si O2"
_cell_formula_units_Z 52
_cell_length_a 14.530700
_cell_length_b 12.640819
_cell_length_c 13.634790
_cell_angle_alpha 90.000000
_cell_angle_beta 105.651935
_cell_angle_gamma 90.000000
_cell_volume 2411.569007
_symmetry_space_group_name_H-M "C 2/C"
_symmetry_group_IT_number 15
_symmetry_cell_setting 'monoclinic'
loop_
_space_group_symop_operation_xyz
x,y,z
-x,y,1/2-z
-x,-y,-z
x,-y,1/2+z
1/2+x,1/2+y,z
1/2-x,1/2+y,1/2-z
1/2-x,1/2-y,-z
1/2+x,1/2-y,1/2+z
loop_
_atom_site_type_symbol
_atom_site_label
_atom_site_fract_x
_atom_site_fract_y
_atom_site_fract_z
Si Si1 0.085943 0.031321 0.091677
Si Si2 0.898603 0.626611 0.265354
Si Si3 0.242651 0.635430 0.452998
Si Si4 0.000000 0.849542 0.750000
Si Si5 0.221382 0.495222 0.124011
Si Si6 0.181163 0.161428 0.706869
Si Si7 0.810670 0.787190 0.613354
O O1 0.149085 0.109811 0.045141
O O2 0.058846 0.078282 0.190142
O O3 0.143532 0.922583 0.118841
O O4 0.000000 0.000000 0.000000
O O5 0.816575 0.626985 0.162230
O O6 0.869063 0.539548 0.339598
O O7 0.901314 0.748508 0.303696
O O8 0.000000 0.593103 0.250000
O O9 0.250000 0.750000 0.500000
O O10 0.189196 0.553430 0.510918
O O11 0.927091 0.778926 0.659519
O O12 0.283920 0.399765 0.186914
O O13 0.293412 0.589676 0.124056
O O14 0.274894 0.218464 0.693414
O O15 0.750000 0.750000 0.500000
#
# Coordination Sequence:
#
# PCOD8152652 Si02
#       7
#     8   8   8   4   8   8   8
#     4  12  26  42  74 109 134 182 239 298 356 421
#     4  11  26  44  68 103 136 183 230 282 352 416
#     4  12  25  44  71 100 139 180 232 282 346 415
#     4  12  24  44  70 110 144 174 240 298 354 420
#     4  11  23  46  71  94 139 184 224 289 352 407
#     4  11  22  44  68  95 143 177 225 285 354 410
#     4  11  24  44  68 102 140 188 227 288 358 422
#
# _framework density 21.562726000000001
#
# number of rings (size 3 to 8) (size 9 to 14) (size 15 to 20)
#    0.000    0.615    4.615    3.692    3.231    0.615 
#    1.385    0.000    0.000    0.000    0.000    0.000 
#    0.000    0.000    0.000    0.000    0.000    0.000 
#
# Total GULP energy -322154.304346 kJ/mol
# GULP energy per Si atom -12390.550167 kJ/mol
# Density = 2.151365 g / cm^3
# Si number density = 21.562726 Si / 1000 Ang^3
#
#
#
# Elastic Constant Matrix: (Units=GPa)
#
#
# Indices 1 2 3 4 5 6 
#
# 1 130.6285 51.0464 42.3719 0.0000 -6.2676 0.0000
# 2 51.0464 115.3252 42.8225 0.0000 -16.1484 0.0000
# 3 42.3719 42.8225 102.5074 0.0000 -1.9245 0.0000
# 4 0.0000 0.0000 0.0000 45.4674 0.0000 -9.4977
# 5 -6.2676 -16.1484 -1.9245 0.0000 43.5869 0.0000
# 6 0.0000 0.0000 0.0000 -9.4977 0.0000 23.3692
#
#
#
# Elastic Compliance Matrix: (Units=1/GPa)
#
#
# Indices 1 2 3 4 5 6 
#
# 1 0.009833 -0.003357 -0.002661 0.000000 0.000053 0.000000
# 2 -0.003357 0.012012 -0.003559 0.000000 0.003810 0.000000
# 3 -0.002661 -0.003559 0.012320 0.000000 -0.001157 0.000000
# 4 0.000000 0.000000 0.000000 0.024034 0.000000 0.009768
# 5 0.000053 0.003810 -0.001157 0.000000 0.024311 0.000000
# 6 0.000000 0.000000 0.000000 0.009768 0.000000 0.046761
#
#
# Mechanical properties :
#
#
# Convention : Reuss Voigt Hill
#
# Bulk Modulus (GPa) = 66.61562 68.99362 67.80462
# Shear Modulus (GPa) = 32.58833 36.63271 34.61052
#
# Velocity S-wave (km/s) = 3.89180 4.12623 4.01073
# Velocity P-wave (km/s) = 7.15232 7.40049 7.27746
#
# Compressibility (1/GPa) = 0.01501149
#
# Stress axis : x y z
#
# Youngs Moduli (GPa) = 101.70083 83.25012 81.16605
#
# Poissons Ratio (x) = 0.27945 0.21599
# Poissons Ratio (y) = 0.34138 0.28887
# Poissons Ratio (z) = 0.27064 0.29628
#
# Static dielectric constant tensor:
#      x y z
#    x 3.960900 0.000000 0.153320 
#    y 0.000000 3.733460 0.000000 
#    z 0.153320 0.000000 4.079320 
# 
# 
# High freq. dielectric constant tensor:
#      x y z
#    x 1.835960 0.000000 -0.008280 
#    y 0.000000 1.857150 0.000000 
#    z -0.008280 0.000000 1.860370 
# 
# From -- ./inp_files/152700.got.cif
#   From: 2010.06.25/outbox.cif.g09.slc.cpg/sg15_77_cif.got.tgz:152700.got - 2010.06.28 07:06:18.
