data_PCOD8152019
_publ_section_title
;
Structure prediction by ZEFSAII (Michael W. Deem and Ramdas Pophale) SiO2 
 PCOD8152019
Probable space group: C 2/C
;
_chemical_formula_sum "Si O2"
_cell_formula_units_Z 44
_cell_length_a 16.548688
_cell_length_b 16.270120
_cell_length_c 9.702828
_cell_angle_alpha 90.000000
_cell_angle_beta 53.018651
_cell_angle_gamma 90.000000
_cell_volume 2086.929456
_symmetry_space_group_name_H-M "C 2/C"
_symmetry_group_IT_number 15
_symmetry_cell_setting 'monoclinic'
loop_
_space_group_symop_operation_xyz
x,y,z
-x,y,1/2-z
-x,-y,-z
x,-y,1/2+z
1/2+x,1/2+y,z
1/2-x,1/2+y,1/2-z
1/2-x,1/2-y,-z
1/2+x,1/2-y,1/2+z
loop_
_atom_site_type_symbol
_atom_site_label
_atom_site_fract_x
_atom_site_fract_y
_atom_site_fract_z
Si Si1 0.001945 0.878108 0.590529
Si Si2 0.489815 0.797307 0.482806
Si Si3 0.833705 0.321558 0.409392
Si Si4 0.791752 0.493070 0.967742
Si Si5 0.164843 0.012173 0.350223
Si Si6 0.000000 0.401144 0.750000
O O1 0.025850 0.799717 0.470244
O O2 0.000000 0.846038 0.750000
O O3 0.892625 0.912945 0.663218
O O4 0.086465 0.946629 0.488997
O O5 0.396113 0.827939 0.487539
O O6 0.595491 0.807694 0.295130
O O7 0.492087 0.844987 0.623798
O O8 0.750000 0.250000 0.500000
O O9 0.781918 0.409955 0.446338
O O10 0.729783 0.449298 0.908438
O O11 0.905812 0.462121 0.855474
O O12 0.739388 0.469045 0.164998
#
# Coordination Sequence:
#
# PCOD8152019 Si02
#       6
#     8   8   8   8   8   4
#     4  11  21  45  70  96 130 162 215 276 341 397
#     4  11  24  43  66  93 129 174 226 266 327 388
#     4  11  22  41  72  96 120 173 227 268 316 399
#     4  12  24  43  63  96 137 171 223 265 324 391
#     4  11  24  39  72 100 124 169 210 277 338 404
#     4  12  28  44  58  94 144 186 214 272 332 384
#
# _framework density 21.083604999999999
#
# number of rings (size 3 to 8) (size 9 to 14) (size 15 to 20)
#    0.000    0.727    3.636    5.455    0.000    3.636 
#    0.000    2.727    0.000    0.000    0.000    0.000 
#    0.000    0.000    0.000    0.000    0.000    0.000 
#
# Total GULP energy -272893.561265 kJ/mol
# GULP energy per Si atom -12404.252785 kJ/mol
# Density = 2.103562 g / cm^3
# Si number density = 21.083605 Si / 1000 Ang^3
#
#
#
# Elastic Constant Matrix: (Units=GPa)
#
#
# Indices 1 2 3 4 5 6 
#
# 1 121.5781 24.8675 49.0640 0.0000 3.3461 0.0000
# 2 24.8675 87.9915 7.5564 0.0000 8.4431 0.0000
# 3 49.0640 7.5564 103.0470 0.0000 14.1754 0.0000
# 4 0.0000 0.0000 0.0000 27.2885 0.0000 4.3414
# 5 3.3461 8.4431 14.1754 0.0000 35.5608 0.0000
# 6 0.0000 0.0000 0.0000 4.3414 0.0000 20.2805
#
#
#
# Elastic Compliance Matrix: (Units=1/GPa)
#
#
# Indices 1 2 3 4 5 6 
#
# 1 0.010843 -0.002783 -0.005194 0.000000 0.001711 0.000000
# 2 -0.002783 0.012368 0.000831 0.000000 -0.003006 0.000000
# 3 -0.005194 0.000831 0.012777 0.000000 -0.004802 0.000000
# 4 0.000000 0.000000 0.000000 0.037938 0.000000 -0.008121
# 5 0.001711 -0.003006 -0.004802 0.000000 0.030588 0.000000
# 6 0.000000 0.000000 0.000000 -0.008121 0.000000 0.051047
#
#
# Mechanical properties :
#
#
# Convention : Reuss Voigt Hill
#
# Bulk Modulus (GPa) = 46.08733 52.84362 49.46547
# Shear Modulus (GPa) = 28.23514 32.03451 30.13482
#
# Velocity S-wave (km/s) = 3.66348 3.90218 3.78471
# Velocity P-wave (km/s) = 6.30884 6.73951 6.52773
#
# Compressibility (1/GPa) = 0.02169794
#
# Stress axis : x y z
#
# Youngs Moduli (GPa) = 92.22204 80.85266 78.26545
#
# Poissons Ratio (x) = 0.22498 0.40653
# Poissons Ratio (y) = 0.25662 -0.06507
# Poissons Ratio (z) = 0.47902 -0.06723
#
# Static dielectric constant tensor:
#      x y z
#    x 4.037640 0.000000 -0.058170 
#    y 0.000000 3.778630 0.000000 
#    z -0.058170 0.000000 3.792020 
# 
# 
# High freq. dielectric constant tensor:
#      x y z
#    x 1.845990 0.000000 -0.007430 
#    y 0.000000 1.824850 0.000000 
#    z -0.007430 0.000000 1.828470 
# 
# From -- ./inp_files/39566.got.cif
#   From: 2010.06.25/outbox.cif.g09.slc.cpg/sg15_20_cif.got.tgz:39566.got - 2010.06.28 07:06:18.
