data_PCOD8152536
_publ_section_title
;
Structure prediction by ZEFSAII (Michael W. Deem and Ramdas Pophale) SiO2 
 PCOD8152536
Probable space group: C 2/C
;
_chemical_formula_sum "Si O2"
_cell_formula_units_Z 48
_cell_length_a 15.737029
_cell_length_b 6.317764
_cell_length_c 22.407984
_cell_angle_alpha 90.000000
_cell_angle_beta 68.695587
_cell_angle_gamma 90.000000
_cell_volume 2075.620221
_symmetry_space_group_name_H-M "C 2/C"
_symmetry_group_IT_number 15
_symmetry_cell_setting 'monoclinic'
loop_
_space_group_symop_operation_xyz
x,y,z
-x,y,1/2-z
-x,-y,-z
x,-y,1/2+z
1/2+x,1/2+y,z
1/2-x,1/2+y,1/2-z
1/2-x,1/2-y,-z
1/2+x,1/2-y,1/2+z
loop_
_atom_site_type_symbol
_atom_site_label
_atom_site_fract_x
_atom_site_fract_y
_atom_site_fract_z
Si Si1 0.424110 0.882767 0.481345
Si Si2 0.378845 0.800957 0.196746
Si Si3 0.771091 0.487965 0.817038
Si Si4 0.518806 0.489935 0.610077
Si Si5 0.676678 0.202832 0.071017
Si Si6 0.866155 0.318551 0.615802
O O1 0.461865 0.659725 0.450447
O O2 0.344499 0.843958 0.550592
O O3 0.500000 0.000000 0.500000
O O4 0.388861 0.016660 0.434603
O O5 0.287268 0.664141 0.210726
O O6 0.468082 0.646576 0.175911
O O7 0.366460 0.948103 0.259437
O O8 0.390829 0.954811 0.137273
O O9 0.779014 0.375140 0.878833
O O10 0.723289 0.715295 0.834169
O O11 0.615254 0.593146 0.605155
O O12 0.453102 0.669981 0.602784
O O13 0.750000 0.250000 0.000000
#
# Coordination Sequence:
#
# PCOD8152536 Si02
#       6
#     8   8   8   8   8   8
#     4  12  23  42  71 100 141 188 234 285 366 429
#     4  11  22  45  73 101 133 194 236 294 371 442
#     4  11  25  43  73 101 142 182 249 301 362 440
#     4  11  24  43  70 100 144 187 232 296 368 432
#     4  12  27  45  69 112 145 186 245 313 365 426
#     4  11  22  42  72 102 137 187 241 288 357 444
#
# _framework density 23.125617999999999
#
# number of rings (size 3 to 8) (size 9 to 14) (size 15 to 20)
#    0.000    0.667    5.000    2.500    2.333    4.000 
#    0.000    5.000    0.000    0.000    0.000    0.000 
#    0.000    0.000    0.000    0.000    0.000    0.000 
#
# Total GULP energy -297454.963291 kJ/mol
# GULP energy per Si atom -12393.956804 kJ/mol
# Density = 2.307298 g / cm^3
# Si number density = 23.125618 Si / 1000 Ang^3
#
#
#
# Elastic Constant Matrix: (Units=GPa)
#
#
# Indices 1 2 3 4 5 6 
#
# 1 72.6707 32.4844 33.0417 0.0000 -12.7561 -0.0003
# 2 32.4844 116.8446 39.9654 0.0000 -18.4450 -0.0009
# 3 33.0417 39.9654 141.2505 0.0006 -17.8475 0.0005
# 4 0.0000 0.0000 0.0006 50.1865 0.0003 -6.1013
# 5 -12.7561 -18.4450 -17.8475 0.0003 31.7925 -0.0002
# 6 -0.0003 -0.0009 0.0005 -6.1013 -0.0002 31.3755
#
#
#
# Elastic Compliance Matrix: (Units=1/GPa)
#
#
# Indices 1 2 3 4 5 6 
#
# 1 0.017028 -0.003295 -0.002615 0.000000 0.003453 0.000000
# 2 -0.003295 0.010692 -0.001763 0.000000 0.003891 0.000000
# 3 -0.002615 -0.001763 0.008534 0.000000 0.002719 0.000000
# 4 0.000000 0.000000 0.000000 0.020408 0.000000 0.003969
# 5 0.003453 0.003891 0.002719 0.000000 0.036623 0.000000
# 6 0.000000 0.000000 0.000000 0.003969 0.000000 0.032644
#
#
# Mechanical properties :
#
#
# Convention : Reuss Voigt Hill
#
# Bulk Modulus (GPa) = 47.82597 60.19431 54.01014
# Shear Modulus (GPa) = 33.72845 37.68920 35.70882
#
# Velocity S-wave (km/s) = 3.82316 4.04141 3.93380
# Velocity P-wave (km/s) = 6.34150 6.91832 6.63618
#
# Compressibility (1/GPa) = 0.02090914
#
# Stress axis : x y z
#
# Youngs Moduli (GPa) = 58.72515 93.53177 117.18461
#
# Poissons Ratio (x) = 0.30816 0.30642
# Poissons Ratio (y) = 0.19348 0.20656
# Poissons Ratio (z) = 0.15356 0.16486
#
# Static dielectric constant tensor:
#      x y z
#    x 3.932920 0.000000 -0.263530 
#    y 0.000000 4.586350 0.000000 
#    z -0.263530 0.000000 4.705490 
# 
# 
# High freq. dielectric constant tensor:
#      x y z
#    x 1.883460 0.000000 -0.025900 
#    y 0.000000 1.936170 0.000000 
#    z -0.025900 0.000000 1.925560 
# 
# From -- ./inp_files/275835.got.cif
#   From: 2010.06.25/outbox.cif.g09.slc.cpg/sg15_138_cif.got.tgz:275835.got - 2010.06.28 07:06:18.
