data_PCOD8152538
_publ_section_title
;
Structure prediction by ZEFSAII (Michael W. Deem and Ramdas Pophale) SiO2 
 PCOD8152538
Probable space group: C 2/C
;
_chemical_formula_sum "Si O2"
_cell_formula_units_Z 64
_cell_length_a 28.249450
_cell_length_b 9.233948
_cell_length_c 16.080908
_cell_angle_alpha 90.000000
_cell_angle_beta 137.111280
_cell_angle_gamma 90.000000
_cell_volume 2854.861380
_symmetry_space_group_name_H-M "C 2/C"
_symmetry_group_IT_number 15
_symmetry_cell_setting 'monoclinic'
loop_
_space_group_symop_operation_xyz
x,y,z
-x,y,1/2-z
-x,-y,-z
x,-y,1/2+z
1/2+x,1/2+y,z
1/2-x,1/2+y,1/2-z
1/2-x,1/2-y,-z
1/2+x,1/2-y,1/2+z
loop_
_atom_site_type_symbol
_atom_site_label
_atom_site_fract_x
_atom_site_fract_y
_atom_site_fract_z
Si Si1 0.844325 0.235691 0.370555
Si Si2 0.562245 0.241966 0.669416
Si Si3 0.364174 0.049753 0.603377
Si Si4 0.409575 0.740090 0.023606
Si Si5 0.593860 0.522651 0.333057
Si Si6 0.771101 0.911024 0.054124
Si Si7 0.927883 0.272752 0.643003
Si Si8 0.208374 0.084375 0.729693
O O1 0.896643 0.272919 0.363001
O O2 0.899271 0.230273 0.516115
O O3 0.786298 0.362512 0.304416
O O4 0.804097 0.082648 0.312246
O O5 0.591243 0.120017 0.767466
O O6 0.478219 0.223923 0.556636
O O7 0.578700 0.399805 0.726840
O O8 0.382921 0.116758 0.537517
O O9 0.282342 0.048067 0.516185
O O10 0.372052 0.876143 0.613249
O O11 0.428809 0.620079 0.117730
O O12 0.348684 0.686875 0.885966
O O13 0.674437 0.474677 0.442533
O O14 0.553879 0.371160 0.280734
O O15 0.802790 0.897829 0.186806
O O16 0.750000 0.750000 0.000000
O O17 0.000000 0.361766 0.750000
#
# Coordination Sequence:
#
# PCOD8152538 Si02
#       8
#     8   8   8   8   8   8   8   8
#     4  12  27  48  74 106 143 190 238 296 363 419
#     4  11  26  46  72 107 139 185 242 291 356 434
#     4  11  24  47  71  99 146 184 238 294 355 430
#     4  11  25  45  72 102 144 185 230 293 360 419
#     4  11  22  42  72 103 135 187 233 296 352 417
#     4  12  24  44  70 105 135 183 241 290 353 422
#     4  12  24  45  71 100 143 189 236 292 357 421
#     4  12  26  47  72 105 149 183 234 301 354 426
#
# _framework density 22.417899999999999
#
# number of rings (size 3 to 8) (size 9 to 14) (size 15 to 20)
#    0.000    0.500    5.000    3.750    1.750    2.500 
#    0.000    1.250    0.000    0.000    0.000    0.000 
#    0.000    0.000    0.000    0.000    0.000    0.000 
#
# Total GULP energy -396525.099681 kJ/mol
# GULP energy per Si atom -12391.409365 kJ/mol
# Density = 2.236688 g / cm^3
# Si number density = 22.417900 Si / 1000 Ang^3
#
#
#
# Elastic Constant Matrix: (Units=GPa)
#
#
# Indices 1 2 3 4 5 6 
#
# 1 134.4604 34.0799 30.2034 0.0000 18.8432 0.0000
# 2 34.0799 104.5416 23.4103 0.0000 -4.3790 0.0000
# 3 30.2034 23.4103 104.9571 0.0000 0.9553 0.0000
# 4 0.0000 0.0000 0.0000 22.9122 0.0000 2.6925
# 5 18.8432 -4.3790 0.9553 0.0000 42.3518 0.0000
# 6 0.0000 0.0000 0.0000 2.6925 0.0000 24.1525
#
#
#
# Elastic Compliance Matrix: (Units=1/GPa)
#
#
# Indices 1 2 3 4 5 6 
#
# 1 0.009182 -0.002728 -0.001995 0.000000 -0.004322 0.000000
# 2 -0.002728 0.010930 -0.001674 0.000000 0.002381 0.000000
# 3 -0.001995 -0.001674 0.010471 0.000000 0.000478 0.000000
# 4 0.000000 0.000000 0.000000 0.044224 0.000000 -0.004930
# 5 -0.004322 0.002381 0.000478 0.000000 0.025770 0.000000
# 6 0.000000 0.000000 0.000000 -0.004930 0.000000 0.041953
#
#
# Mechanical properties :
#
#
# Convention : Reuss Voigt Hill
#
# Bulk Modulus (GPa) = 56.21487 57.70514 56.96000
# Shear Modulus (GPa) = 31.00704 34.96768 32.98736
#
# Velocity S-wave (km/s) = 3.72309 3.95373 3.84014
# Velocity P-wave (km/s) = 6.60395 6.82929 6.71756
#
# Compressibility (1/GPa) = 0.01778889
#
# Stress axis : x y z
#
# Youngs Moduli (GPa) = 108.90532 91.49524 95.50347
#
# Poissons Ratio (x) = 0.24958 0.19049
# Poissons Ratio (y) = 0.29707 0.15992
# Poissons Ratio (z) = 0.21722 0.15321
#
# Static dielectric constant tensor:
#      x y z
#    x 4.249600 0.000000 0.301840 
#    y 0.000000 4.212930 0.000000 
#    z 0.301840 0.000000 4.465780 
# 
# 
# High freq. dielectric constant tensor:
#      x y z
#    x 1.891140 0.000000 0.020210 
#    y 0.000000 1.894720 0.000000 
#    z 0.020210 0.000000 1.886860 
# 
# From -- ./inp_files/224617.got.cif
#   From: 2010.06.25/outbox.cif.g09.slc.cpg/sg15_113_cif.got.tgz:224617.got - 2010.06.28 07:06:18.
