data_PCOD8152270
_publ_section_title
;
Structure prediction by ZEFSAII (Michael W. Deem and Ramdas Pophale) SiO2 
 PCOD8152270
Probable space group: C 2/C
;
_chemical_formula_sum "Si O2"
_cell_formula_units_Z 64
_cell_length_a 23.655811
_cell_length_b 17.713324
_cell_length_c 20.082164
_cell_angle_alpha 90.000000
_cell_angle_beta 21.752315
_cell_angle_gamma 90.000000
_cell_volume 3118.515683
_symmetry_space_group_name_H-M "C 2/C"
_symmetry_group_IT_number 15
_symmetry_cell_setting 'monoclinic'
loop_
_space_group_symop_operation_xyz
x,y,z
-x,y,1/2-z
-x,-y,-z
x,-y,1/2+z
1/2+x,1/2+y,z
1/2-x,1/2+y,1/2-z
1/2-x,1/2-y,-z
1/2+x,1/2-y,1/2+z
loop_
_atom_site_type_symbol
_atom_site_label
_atom_site_fract_x
_atom_site_fract_y
_atom_site_fract_z
Si Si1 0.471389 0.565490 0.479002
Si Si2 0.874724 0.826253 0.488730
Si Si3 0.812187 0.662407 0.705267
Si Si4 0.700539 0.331802 0.782435
Si Si5 0.897238 0.476809 0.921531
Si Si6 0.029936 0.437865 0.023636
Si Si7 0.984901 0.673633 0.147387
Si Si8 0.460545 0.522406 0.721663
O O1 0.500000 0.500000 0.500000
O O2 0.329810 0.612444 0.662317
O O3 0.609462 0.625286 0.323879
O O4 0.450975 0.529042 0.428864
O O5 0.898418 0.831436 0.542200
O O6 0.697679 0.825346 0.661208
O O7 0.957979 0.748624 0.376762
O O8 0.965445 0.894704 0.356589
O O9 0.759517 0.746401 0.784243
O O10 0.881596 0.616241 0.692341
O O11 0.933476 0.665227 0.513059
O O12 0.846974 0.380285 0.639657
O O13 0.920141 0.528103 0.961289
O O14 0.000000 0.512379 0.750000
O O15 0.964136 0.394345 0.861393
O O16 0.719615 0.473926 0.096153
O O17 0.000000 0.500000 0.000000
O O18 0.500000 0.485472 0.750000
#
# Coordination Sequence:
#
# PCOD8152270 Si02
#       8
#     8   8   8   8   8   8   8   8
#     4  12  23  40  68  98 131 172 221 275 329 386
#     4  11  23  39  65  96 139 171 216 261 328 401
#     4  11  24  36  68  99 136 170 213 273 332 390
#     4  11  22  40  63 101 135 169 216 269 335 389
#     4  12  26  44  67  93 131 173 222 273 331 393
#     4  12  22  41  68 100 132 169 222 273 328 386
#     4  11  23  40  63  99 135 175 213 264 326 401
#     4  12  27  44  65  94 131 176 221 273 331 391
#
# _framework density 20.522584999999999
#
# number of rings (size 3 to 8) (size 9 to 14) (size 15 to 20)
#    0.000    0.500    5.000    3.750    8.750    0.500 
#    0.000    2.500    0.000    4.500    0.000    0.000 
#    0.000    0.000    0.000    0.000    0.000    0.000 
#
# Total GULP energy -396697.131666 kJ/mol
# GULP energy per Si atom -12396.785365 kJ/mol
# Density = 2.047587 g / cm^3
# Si number density = 20.522585 Si / 1000 Ang^3
#
#
#
# Elastic Constant Matrix: (Units=GPa)
#
#
# Indices 1 2 3 4 5 6 
#
# 1 122.1038 56.3087 42.4825 -0.0020 -10.3376 -0.0073
# 2 56.3087 133.2792 57.1453 -0.0204 -10.8127 0.0132
# 3 42.4825 57.1453 114.1992 -0.0190 -24.5927 -0.0080
# 4 -0.0020 -0.0204 -0.0190 39.4350 0.0055 -5.9885
# 5 -10.3376 -10.8127 -24.5927 0.0055 38.8524 0.0104
# 6 -0.0073 0.0132 -0.0080 -5.9885 0.0104 15.5109
#
#
#
# Elastic Compliance Matrix: (Units=1/GPa)
#
#
# Indices 1 2 3 4 5 6 
#
# 1 0.010584 -0.003551 -0.002045 -0.000001 0.000533 0.000006
# 2 -0.003551 0.010750 -0.004188 0.000002 -0.000604 -0.000012
# 3 -0.002045 -0.004188 0.013020 0.000004 0.006531 0.000006
# 4 -0.000001 0.000002 0.000004 0.026938 -0.000004 0.010400
# 5 0.000533 -0.000604 0.006531 -0.000004 0.029846 -0.000017
# 6 0.000006 -0.000012 0.000006 0.010400 -0.000017 0.068486
#
#
# Mechanical properties :
#
#
# Convention : Reuss Voigt Hill
#
# Bulk Modulus (GPa) = 67.64112 75.71726 71.67919
# Shear Modulus (GPa) = 27.15567 33.00269 30.07918
#
# Velocity S-wave (km/s) = 3.64154 4.01448 3.83255
# Velocity P-wave (km/s) = 7.12124 7.64610 7.38833
#
# Compressibility (1/GPa) = 0.01478391
#
# Stress axis : x y z
#
# Youngs Moduli (GPa) = 94.47939 93.02048 76.80505
#
# Poissons Ratio (x) = 0.33036 0.15710
# Poissons Ratio (y) = 0.33554 0.32169
# Poissons Ratio (z) = 0.19325 0.38961
#
# Static dielectric constant tensor:
#      x y z
#    x 3.437160 0.000200 0.477570 
#    y 0.000200 4.180880 -0.000570 
#    z 0.477570 -0.000570 1.914300 
# 
# 
# High freq. dielectric constant tensor:
#      x y z
#    x 1.791130 0.000000 -0.026040 
#    y 0.000000 1.812540 0.000000 
#    z -0.026040 0.000000 1.805360 
# 
# From -- ./inp_files/255992.got.cif
#   From: 2010.06.25/outbox.cif.g09.slc.cpg/sg15_128_cif.got.tgz:255992.got - 2010.06.28 07:06:18.
