data_PCOD8152709
_publ_section_title
;
Structure prediction by ZEFSAII (Michael W. Deem and Ramdas Pophale) SiO2 
 PCOD8152709
Probable space group: C 2/C
;
_chemical_formula_sum "Si O2"
_cell_formula_units_Z 48
_cell_length_a 20.910253
_cell_length_b 17.171526
_cell_length_c 17.623820
_cell_angle_alpha 90.000000
_cell_angle_beta 21.191885
_cell_angle_gamma 90.000000
_cell_volume 2287.533911
_symmetry_space_group_name_H-M "C 2/C"
_symmetry_group_IT_number 15
_symmetry_cell_setting 'monoclinic'
loop_
_space_group_symop_operation_xyz
x,y,z
-x,y,1/2-z
-x,-y,-z
x,-y,1/2+z
1/2+x,1/2+y,z
1/2-x,1/2+y,1/2-z
1/2-x,1/2-y,-z
1/2+x,1/2-y,1/2+z
loop_
_atom_site_type_symbol
_atom_site_label
_atom_site_fract_x
_atom_site_fract_y
_atom_site_fract_z
Si Si1 0.059972 0.656460 0.466710
Si Si2 0.727948 0.056853 0.163405
Si Si3 0.330755 0.296992 0.477004
Si Si4 0.746654 0.805583 0.300717
Si Si5 0.947385 0.448488 0.395233
Si Si6 0.912069 0.962681 0.170643
O O1 0.177797 0.584689 0.303944
O O2 0.132934 0.743347 0.376610
O O3 0.053534 0.636771 0.563759
O O4 0.873762 0.651940 0.628469
O O5 0.601089 0.991765 0.271477
O O6 0.698371 0.133790 0.145168
O O7 0.934827 0.032218 0.934342
O O8 0.500000 0.335036 0.250000
O O9 0.250000 0.250000 0.500000
O O10 0.367906 0.240361 0.508448
O O11 0.868175 0.871713 0.204624
O O12 0.760277 0.492661 0.607970
O O13 0.000000 0.438117 0.250000
O O14 0.000000 0.000000 0.000000
#
# Coordination Sequence:
#
# PCOD8152709 Si02
#       6
#     8   8   8   8   8   8
#     4  11  22  45  66  99 134 180 237 277 341 415
#     4  11  23  42  67  99 135 182 225 273 339 426
#     4  11  23  36  59 101 146 172 215 269 349 421
#     4  11  23  40  71  98 134 186 229 282 336 422
#     4  12  28  45  68 102 142 179 230 294 349 397
#     4  12  24  43  74 101 132 176 232 283 341 413
#
# _framework density 20.983295999999999
#
# number of rings (size 3 to 8) (size 9 to 14) (size 15 to 20)
#    0.000    0.667    3.333    6.500    4.667    0.000 
#    0.000    0.833    0.000    0.000    0.000    0.000 
#    0.000    0.000    0.000    0.000    0.000    0.000 
#
# Total GULP energy -297480.946720 kJ/mol
# GULP energy per Si atom -12395.039447 kJ/mol
# Density = 2.093554 g / cm^3
# Si number density = 20.983296 Si / 1000 Ang^3
#
#
#
# Elastic Constant Matrix: (Units=GPa)
#
#
# Indices 1 2 3 4 5 6 
#
# 1 97.3139 31.6719 53.0862 -0.0139 7.6962 0.0296
# 2 31.6719 75.9718 36.1833 -0.0162 12.2239 0.0180
# 3 53.0862 36.1833 113.1747 -0.0316 -2.3430 0.0399
# 4 -0.0139 -0.0162 -0.0316 28.8646 0.0022 -5.7282
# 5 7.6962 12.2239 -2.3430 0.0022 50.7754 -0.0045
# 6 0.0296 0.0180 0.0399 -5.7282 -0.0045 26.6558
#
#
#
# Elastic Compliance Matrix: (Units=1/GPa)
#
#
# Indices 1 2 3 4 5 6 
#
# 1 0.014630 -0.002982 -0.005946 -0.000002 -0.001774 -0.000006
# 2 -0.002982 0.016978 -0.004109 0.000004 -0.003825 -0.000002
# 3 -0.005946 -0.004109 0.012990 0.000007 0.002490 -0.000008
# 4 -0.000002 0.000004 0.000007 0.036188 -0.000001 0.007777
# 5 -0.001774 -0.003825 0.002490 -0.000001 0.020999 0.000004
# 6 -0.000006 -0.000002 -0.000008 0.007777 0.000004 0.039186
#
#
# Mechanical properties :
#
#
# Convention : Reuss Voigt Hill
#
# Bulk Modulus (GPa) = 53.97914 58.70478 56.34196
# Shear Modulus (GPa) = 28.86497 32.29377 30.57937
#
# Velocity S-wave (km/s) = 3.71295 3.92729 3.82163
# Velocity P-wave (km/s) = 6.64545 6.97155 6.81045
#
# Compressibility (1/GPa) = 0.01852568
#
# Stress axis : x y z
#
# Youngs Moduli (GPa) = 68.35059 58.89912 76.98189
#
# Poissons Ratio (x) = 0.17563 0.45773
# Poissons Ratio (y) = 0.20382 0.31629
# Poissons Ratio (z) = 0.40641 0.24199
#
# Static dielectric constant tensor:
#      x y z
#    x 3.772220 -0.000020 0.101890 
#    y -0.000020 3.714310 -0.000070 
#    z 0.101890 -0.000070 3.490480 
# 
# 
# High freq. dielectric constant tensor:
#      x y z
#    x 1.816940 -0.000010 -0.011510 
#    y -0.000010 1.814970 0.000010 
#    z -0.011510 0.000010 1.830010 
# 
# From -- ./inp_files/216231.got.cif
#   From: 2010.06.25/outbox.cif.g09.slc.cpg/sg15_109_cif.got.tgz:216231.got - 2010.06.28 07:06:18.
