data_PCOD8152980
_publ_section_title
;
Structure prediction by ZEFSAII (Michael W. Deem and Ramdas Pophale) SiO2 
 PCOD8152980
Probable space group: C 2/C
;
_chemical_formula_sum "Si O2"
_cell_formula_units_Z 40
_cell_length_a 9.608549
_cell_length_b 12.594337
_cell_length_c 21.025930
_cell_angle_alpha 90.000000
_cell_angle_beta 37.563764
_cell_angle_gamma 90.000000
_cell_volume 1551.188637
_symmetry_space_group_name_H-M "C 2/C"
_symmetry_group_IT_number 15
_symmetry_cell_setting 'monoclinic'
loop_
_space_group_symop_operation_xyz
x,y,z
-x,y,1/2-z
-x,-y,-z
x,-y,1/2+z
1/2+x,1/2+y,z
1/2-x,1/2+y,1/2-z
1/2-x,1/2-y,-z
1/2+x,1/2-y,1/2+z
loop_
_atom_site_type_symbol
_atom_site_label
_atom_site_fract_x
_atom_site_fract_y
_atom_site_fract_z
Si Si1 0.965147 0.649754 0.885824
Si Si2 0.294177 0.079750 0.076160
Si Si3 0.401679 0.296919 0.078768
Si Si4 0.263979 0.328598 0.653731
Si Si5 0.138069 0.969116 0.307342
O O1 0.110933 0.757270 0.838550
O O2 0.142706 0.550575 0.817355
O O3 0.815135 0.649161 0.876890
O O4 0.795039 0.639749 0.007300
O O5 0.335525 0.171916 0.114132
O O6 0.058204 0.015272 0.167854
O O7 0.500000 0.000000 0.000000
O O8 0.438765 0.357754 0.131938
O O9 0.633079 0.306739 0.953726
O O10 0.297539 0.451125 0.659437
O O11 0.000000 0.296109 0.750000
#
# Coordination Sequence:
#
# PCOD8152980 Si02
#       5
#     8   8   8   8   8
#     4  11  24  45  67 101 140 176 231 293 347 412
#     4  11  26  46  67 101 144 184 225 297 354 413
#     4  11  23  48  69  97 140 179 234 292 349 413
#     4  11  23  41  69  99 134 179 229 291 346 418
#     4  12  25  42  75 100 133 189 237 282 355 425
#
# _framework density 25.786677999999998
#
# number of rings (size 3 to 8) (size 9 to 14) (size 15 to 20)
#    0.000    0.800    4.000    3.600    8.400    2.400 
#    3.600    0.000    0.000    0.000    0.000    0.000 
#    0.000    0.000    0.000    0.000    0.000    0.000 
#
# Total GULP energy -248082.516910 kJ/mol
# GULP energy per Si atom -12404.125846 kJ/mol
# Density = 2.572799 g / cm^3
# Si number density = 25.786678 Si / 1000 Ang^3
#
#
#
# Elastic Constant Matrix: (Units=GPa)
#
#
# Indices 1 2 3 4 5 6 
#
# 1 42.5906 23.3282 26.0734 -0.0001 -19.5242 0.0001
# 2 23.3282 137.9202 25.1933 0.0002 -12.9516 -0.0002
# 3 26.0734 25.1933 130.6896 0.0020 -31.2447 0.0001
# 4 -0.0001 0.0002 0.0020 45.7628 0.0006 -6.4847
# 5 -19.5242 -12.9516 -31.2447 0.0006 46.5036 0.0001
# 6 0.0001 -0.0002 0.0001 -6.4847 0.0001 21.6941
#
#
#
# Elastic Compliance Matrix: (Units=1/GPa)
#
#
# Indices 1 2 3 4 5 6 
#
# 1 0.032325 -0.003909 -0.003230 0.000000 0.010313 0.000000
# 2 -0.003909 0.008058 -0.000750 0.000000 0.000099 0.000000
# 3 -0.003230 -0.000750 0.009610 -0.000001 0.004892 0.000000
# 4 0.000000 0.000000 -0.000001 0.022818 -0.000001 0.006821
# 5 0.010313 0.000099 0.004892 -0.000001 0.029148 0.000000
# 6 0.000000 0.000000 0.000000 0.006821 0.000000 0.048134
#
#
# Mechanical properties :
#
#
# Convention : Reuss Voigt Hill
#
# Bulk Modulus (GPa) = 29.22626 51.15447 40.19036
# Shear Modulus (GPa) = 28.20439 38.56579 33.38509
#
# Velocity S-wave (km/s) = 3.31079 3.87146 3.60205
# Velocity P-wave (km/s) = 5.09643 6.31386 5.73753
#
# Compressibility (1/GPa) = 0.03421581
#
# Stress axis : x y z
#
# Youngs Moduli (GPa) = 30.93543 124.09955 104.05611
#
# Poissons Ratio (x) = 0.48512 0.33610
# Poissons Ratio (y) = 0.12093 0.07801
# Poissons Ratio (z) = 0.09992 0.09304
#
# Static dielectric constant tensor:
#      x y z
#    x 4.226770 0.000000 -0.134840 
#    y 0.000000 4.836580 0.000000 
#    z -0.134840 0.000000 4.860920 
# 
# 
# High freq. dielectric constant tensor:
#      x y z
#    x 2.006770 0.000000 -0.014880 
#    y 0.000000 2.044180 0.000000 
#    z -0.014880 0.000000 2.040440 
# 
# From -- ./inp_files/141829.got.cif
#   From: 2010.06.25/outbox.cif.g09.slc.cpg/sg15_71_cif.got.tgz:141829.got - 2010.06.28 07:06:18.
