data_PCOD8152835
_publ_section_title
;
Structure prediction by ZEFSAII (Michael W. Deem and Ramdas Pophale) SiO2 
 PCOD8152835
Probable space group: C 2/C
;
_chemical_formula_sum "Si O2"
_cell_formula_units_Z 48
_cell_length_a 19.522649
_cell_length_b 13.997992
_cell_length_c 19.625537
_cell_angle_alpha 90.000000
_cell_angle_beta 29.661747
_cell_angle_gamma 90.000000
_cell_volume 2654.145525
_symmetry_space_group_name_H-M "C 2/C"
_symmetry_group_IT_number 15
_symmetry_cell_setting 'monoclinic'
loop_
_space_group_symop_operation_xyz
x,y,z
-x,y,1/2-z
-x,-y,-z
x,-y,1/2+z
1/2+x,1/2+y,z
1/2-x,1/2+y,1/2-z
1/2-x,1/2-y,-z
1/2+x,1/2-y,1/2+z
loop_
_atom_site_type_symbol
_atom_site_label
_atom_site_fract_x
_atom_site_fract_y
_atom_site_fract_z
Si Si1 0.636092 0.946353 0.405847
Si Si2 0.847393 0.964109 0.620375
Si Si3 0.694165 0.935288 0.136192
Si Si4 0.865652 0.758313 0.651918
Si Si5 0.164312 0.249830 0.948100
Si Si6 0.383624 0.053613 0.946139
O O1 0.620649 0.833408 0.408617
O O2 0.500000 0.000000 0.500000
O O3 0.762894 0.988883 0.254643
O O4 0.654507 0.966719 0.470461
O O5 0.840979 0.849807 0.625911
O O6 0.792513 0.995091 0.593858
O O7 0.000000 0.000000 0.500000
O O8 0.763886 0.831459 0.068440
O O9 0.674481 0.976081 0.077342
O O10 0.548205 0.926878 0.301609
O O11 0.732451 0.747474 0.814786
O O12 0.002007 0.772182 0.580022
O O13 0.189338 0.350496 0.963363
#
# Coordination Sequence:
#
# PCOD8152835 Si02
#       6
#     8   8   8   8   8   8
#     4  12  20  40  61  85 117 161 202 236 285 362
#     4  12  22  38  59  88 125 150 193 253 297 340
#     4  11  23  39  57  91 123 156 195 248 301 351
#     4  12  22  34  64  90 116 148 209 244 285 353
#     4  12  19  38  58  89 119 153 189 252 300 345
#     4  11  23  38  61  86 123 159 199 240 297 364
#
# _framework density 18.084917000000001
#
# number of rings (size 3 to 8) (size 9 to 14) (size 15 to 20)
#    0.000    0.333   10.000    0.500    0.000    0.000 
#    0.000    3.333    0.000    0.000    0.000    0.000 
#    0.000    0.000    0.000    0.000    0.000    0.000 
#
# Total GULP energy -297697.446021 kJ/mol
# GULP energy per Si atom -12404.060251 kJ/mol
# Density = 1.804375 g / cm^3
# Si number density = 18.084917 Si / 1000 Ang^3
#
#
#
# Elastic Constant Matrix: (Units=GPa)
#
#
# Indices 1 2 3 4 5 6 
#
# 1 117.0378 47.8852 44.4674 -0.0002 4.6492 0.0001
# 2 47.8852 118.0727 30.7308 -0.0001 2.6765 0.0000
# 3 44.4674 30.7308 93.6789 -0.0001 -3.1592 -0.0001
# 4 -0.0002 -0.0001 -0.0001 27.4346 0.0000 5.3418
# 5 4.6492 2.6765 -3.1592 0.0000 28.1885 0.0001
# 6 0.0001 0.0000 -0.0001 5.3418 0.0001 31.6852
#
#
#
# Elastic Compliance Matrix: (Units=1/GPa)
#
#
# Indices 1 2 3 4 5 6 
#
# 1 0.011797 -0.003565 -0.004502 0.000000 -0.002112 0.000000
# 2 -0.003565 0.010379 -0.001733 0.000000 -0.000592 0.000000
# 3 -0.004502 -0.001733 0.013461 0.000000 0.002416 0.000000
# 4 0.000000 0.000000 0.000000 0.037687 0.000000 -0.006354
# 5 -0.002112 -0.000592 0.002416 0.000000 0.036151 0.000000
# 6 0.000000 0.000000 0.000000 -0.006354 0.000000 0.032632
#
#
# Mechanical properties :
#
#
# Convention : Reuss Voigt Hill
#
# Bulk Modulus (GPa) = 62.34559 63.88402 63.11481
# Shear Modulus (GPa) = 29.93071 31.17540 30.55306
#
# Velocity S-wave (km/s) = 4.07259 4.15641 4.11472
# Velocity P-wave (km/s) = 7.52751 7.64431 7.58613
#
# Compressibility (1/GPa) = 0.01603963
#
# Stress axis : x y z
#
# Youngs Moduli (GPa) = 84.76735 96.34379 74.28621
#
# Poissons Ratio (x) = 0.34345 0.33440
# Poissons Ratio (y) = 0.30218 0.12872
# Poissons Ratio (z) = 0.38159 0.16694
#
# Static dielectric constant tensor:
#      x y z
#    x 3.322720 0.000000 0.005470 
#    y 0.000000 3.573380 0.000000 
#    z 0.005470 0.000000 3.601320 
# 
# 
# High freq. dielectric constant tensor:
#      x y z
#    x 1.687910 0.000000 -0.005090 
#    y 0.000000 1.697680 0.000000 
#    z -0.005090 0.000000 1.713690 
# 
# From -- ./inp_files/66395.got.cif
#   From: 2010.06.25/outbox.cif.g09.slc.cpg/sg15_34_cif.got.tgz:66395.got - 2010.06.28 07:06:18.
