data_PCOD8152220
_publ_section_title
;
Structure prediction by ZEFSAII (Michael W. Deem and Ramdas Pophale) SiO2 
 PCOD8152220
Probable space group: C 2/C
;
_chemical_formula_sum "Si O2"
_cell_formula_units_Z 64
_cell_length_a 8.659114
_cell_length_b 15.702193
_cell_length_c 22.181294
_cell_angle_alpha 90.000000
_cell_angle_beta 89.999451
_cell_angle_gamma 90.000000
_cell_volume 3015.925759
_symmetry_space_group_name_H-M "C 2/C"
_symmetry_group_IT_number 15
_symmetry_cell_setting 'monoclinic'
loop_
_space_group_symop_operation_xyz
x,y,z
-x,y,1/2-z
-x,-y,-z
x,-y,1/2+z
1/2+x,1/2+y,z
1/2-x,1/2+y,1/2-z
1/2-x,1/2-y,-z
1/2+x,1/2-y,1/2+z
loop_
_atom_site_type_symbol
_atom_site_label
_atom_site_fract_x
_atom_site_fract_y
_atom_site_fract_z
Si Si1 0.431269 0.915173 0.816738
Si Si2 0.920246 0.251937 0.627857
Si Si3 0.711285 0.385099 0.999993
Si Si4 0.106529 0.921424 0.130021
Si Si5 0.568720 0.915169 0.316738
Si Si6 0.393474 0.421437 0.630022
Si Si7 0.995528 0.720049 0.500007
Si Si8 0.920226 0.251926 0.372138
O O1 0.500000 0.914009 0.750000
O O2 0.477635 0.827421 0.846818
O O3 0.245887 0.919555 0.821768
O O4 0.499994 0.000002 0.849344
O O5 0.750012 0.250016 0.657996
O O6 0.008551 0.164166 0.638667
O O7 0.895368 0.273507 0.557707
O O8 0.667141 0.435406 0.938732
O O9 0.624519 0.296515 0.999968
O O10 0.667114 0.435380 0.061261
O O11 0.895362 0.367348 0.999999
O O12 0.245902 0.919544 0.178223
O O13 0.000007 0.999995 0.147957
O O14 0.500000 0.914054 0.250000
O O15 0.522326 0.827402 0.346788
O O16 0.491457 0.335846 0.638656
O O17 0.104651 0.726460 0.557717
#
# Coordination Sequence:
#
# PCOD8152220 Si02
#       8
#     8   8   8   8   8   8   8   8
#     4  11  25  45  64  89 123 165 219 275 320 378
#     4  11  22  39  65  96 131 170 210 259 317 384
#     4   9  17  34  64  97 132 170 206 253 320 389
#     4  11  22  41  68  98 132 168 210 263 324 387
#     4  11  25  45  64  89 123 165 219 275 320 378
#     4  11  22  41  68  98 132 168 210 263 324 387
#     4   9  17  34  60  95 134 170 204 253 314 379
#     4  11  22  39  65  96 131 170 210 259 317 384
#
# _framework density 21.220682
#
# number of rings (size 3 to 8) (size 9 to 14) (size 15 to 20)
#    0.000    1.500    2.500    3.000    0.000    2.000 
#    0.000   12.500    0.000    0.000    0.000    0.000 
#    0.000    0.000    0.000    0.000    0.000    0.000 
#
# Total GULP energy -396665.273503 kJ/mol
# GULP energy per Si atom -12395.789797 kJ/mol
# Density = 2.117238 g / cm^3
# Si number density = 21.220682 Si / 1000 Ang^3
#
#
#
# Elastic Constant Matrix: (Units=GPa)
#
#
# Indices 1 2 3 4 5 6 
#
# 1 172.0694 74.2826 46.5218 0.0000 -0.0069 0.0000
# 2 74.2826 169.5994 39.2248 0.0000 -0.0060 0.0000
# 3 46.5218 39.2248 88.4598 0.0000 0.0205 0.0000
# 4 0.0000 0.0000 0.0000 13.2082 0.0000 0.0107
# 5 -0.0069 -0.0060 0.0205 0.0000 18.2486 0.0000
# 6 0.0000 0.0000 0.0000 0.0107 0.0000 37.6857
#
#
#
# Elastic Compliance Matrix: (Units=1/GPa)
#
#
# Indices 1 2 3 4 5 6 
#
# 1 0.007771 -0.002739 -0.002872 0.000000 0.000005 0.000000
# 2 -0.002739 0.007536 -0.001901 0.000000 0.000004 0.000000
# 3 -0.002872 -0.001901 0.013658 0.000000 -0.000017 0.000000
# 4 0.000000 0.000000 0.000000 0.075711 0.000000 -0.000022
# 5 0.000005 0.000004 -0.000017 0.000000 0.054799 0.000000
# 6 0.000000 0.000000 0.000000 -0.000022 0.000000 0.026535
#
#
# Mechanical properties :
#
#
# Convention : Reuss Voigt Hill
#
# Bulk Modulus (GPa) = 71.73640 83.35412 77.54526
# Shear Modulus (GPa) = 24.30963 31.83511 28.07237
#
# Velocity S-wave (km/s) = 3.38829 3.87743 3.64108
# Velocity P-wave (km/s) = 7.01325 7.70785 7.36874
#
# Compressibility (1/GPa) = 0.01393993
#
# Stress axis : x y z
#
# Youngs Moduli (GPa) = 128.68968 132.70300 73.21780
#
# Poissons Ratio (x) = 0.36350 0.21028
# Poissons Ratio (y) = 0.35251 0.13918
# Poissons Ratio (z) = 0.36960 0.25225
#
# Static dielectric constant tensor:
#      x y z
#    x 3.828560 0.000000 0.000280 
#    y 0.000000 4.157720 0.000000 
#    z 0.000280 0.000000 4.027550 
# 
# 
# High freq. dielectric constant tensor:
#      x y z
#    x 1.841990 0.000000 0.000000 
#    y 0.000000 1.835650 0.000000 
#    z 0.000000 0.000000 1.816230 
# 
# From -- ./inp_files/264700.got.cif
#   From: 2010.06.25/outbox.cif.g09.slc.cpg/sg15_133_cif.got.tgz:264700.got - 2010.06.28 07:06:18.
