data_PCOD8152258
_publ_section_title
;
Structure prediction by ZEFSAII (Michael W. Deem and Ramdas Pophale) SiO2 
 PCOD8152258
Probable space group: C 2/C
;
_chemical_formula_sum "Si O2"
_cell_formula_units_Z 52
_cell_length_a 13.357121
_cell_length_b 8.517756
_cell_length_c 27.300325
_cell_angle_alpha 90.000000
_cell_angle_beta 51.017139
_cell_angle_gamma 90.000000
_cell_volume 2414.424531
_symmetry_space_group_name_H-M "C 2/C"
_symmetry_group_IT_number 15
_symmetry_cell_setting 'monoclinic'
loop_
_space_group_symop_operation_xyz
x,y,z
-x,y,1/2-z
-x,-y,-z
x,-y,1/2+z
1/2+x,1/2+y,z
1/2-x,1/2+y,1/2-z
1/2-x,1/2-y,-z
1/2+x,1/2-y,1/2+z
loop_
_atom_site_type_symbol
_atom_site_label
_atom_site_fract_x
_atom_site_fract_y
_atom_site_fract_z
Si Si1 0.250680 0.902422 0.064481
Si Si2 0.943666 0.595022 0.666697
Si Si3 0.768877 0.781451 0.655068
Si Si4 0.699235 0.250082 0.570032
Si Si5 0.500000 0.057328 0.250000
Si Si6 0.607862 0.562236 0.930398
Si Si7 0.546707 0.809230 0.576548
O O1 0.304040 0.819841 0.096405
O O2 0.121571 0.815911 0.086775
O O3 0.223517 0.081691 0.087114
O O4 0.356285 0.900408 0.989037
O O5 0.809363 0.678360 0.690644
O O6 0.047968 0.721478 0.617522
O O7 0.951562 0.560383 0.722124
O O8 0.967287 0.429283 0.633722
O O9 0.618449 0.826609 0.701604
O O10 0.855064 0.938249 0.623140
O O11 0.750000 0.250000 0.500000
O O12 0.764163 0.104544 0.578556
O O13 0.560646 0.721611 0.921232
O O14 0.500000 0.500000 0.000000
#
# Coordination Sequence:
#
# PCOD8152258 Si02
#       7
#     8   8   8   8   4   8   8
#     4  11  22  40  68 110 144 179 232 289 369 433
#     4  12  26  49  75 101 141 191 244 298 366 429
#     4  12  26  49  75 101 140 194 238 305 361 438
#     4  12  23  40  68 110 146 183 230 296 365 440
#     4  12  28  56  72  98 152 194 258 302 356 440
#     4  12  23  39  69 109 148 183 234 294 372 436
#     4  11  22  39  71 107 146 183 224 297 366 434
#
# _framework density 21.537223000000001
#
# number of rings (size 3 to 8) (size 9 to 14) (size 15 to 20)
#    0.000    0.308    6.154    3.692    0.000    2.462 
#    5.538    0.000    0.000    0.000    0.000    0.000 
#    0.000    0.000    0.000    0.000    0.000    0.000 
#
# Total GULP energy -322473.459202 kJ/mol
# GULP energy per Si atom -12402.825354 kJ/mol
# Density = 2.148820 g / cm^3
# Si number density = 21.537223 Si / 1000 Ang^3
#
#
#
# Elastic Constant Matrix: (Units=GPa)
#
#
# Indices 1 2 3 4 5 6 
#
# 1 101.6050 28.3038 24.8040 0.0000 10.1690 0.0000
# 2 28.3038 110.7309 28.3393 0.0000 1.7710 0.0000
# 3 24.8040 28.3393 71.1874 0.0000 8.0451 0.0000
# 4 0.0000 0.0000 0.0000 24.8831 0.0000 4.3990
# 5 10.1690 1.7710 8.0451 0.0000 39.5658 0.0000
# 6 0.0000 0.0000 0.0000 4.3990 0.0000 53.1377
#
#
#
# Elastic Compliance Matrix: (Units=1/GPa)
#
#
# Indices 1 2 3 4 5 6 
#
# 1 0.011358 -0.002137 -0.002853 0.000000 -0.002243 0.000000
# 2 -0.002137 0.010463 -0.003510 0.000000 0.000795 0.000000
# 3 -0.002853 -0.003510 0.016723 0.000000 -0.002510 0.000000
# 4 0.000000 0.000000 0.000000 0.040785 0.000000 -0.003376
# 5 -0.002243 0.000795 -0.002510 0.000000 0.026326 0.000000
# 6 0.000000 0.000000 0.000000 -0.003376 0.000000 0.019099
#
#
# Mechanical properties :
#
#
# Convention : Reuss Voigt Hill
#
# Bulk Modulus (GPa) = 46.42026 49.60196 48.01111
# Shear Modulus (GPa) = 33.57153 36.98907 35.28030
#
# Velocity S-wave (km/s) = 3.95241 4.14871 4.05175
# Velocity P-wave (km/s) = 6.51375 6.78453 6.65052
#
# Compressibility (1/GPa) = 0.02154232
#
# Stress axis : x y z
#
# Youngs Moduli (GPa) = 88.03992 95.57600 59.79888
#
# Poissons Ratio (x) = 0.20426 0.17063
# Poissons Ratio (y) = 0.18816 0.20992
# Poissons Ratio (z) = 0.25121 0.33551
#
# Static dielectric constant tensor:
#      x y z
#    x 4.303750 0.000000 0.045240 
#    y 0.000000 4.194670 0.000000 
#    z 0.045240 0.000000 3.725330 
# 
# 
# High freq. dielectric constant tensor:
#      x y z
#    x 1.857590 0.000000 0.003300 
#    y 0.000000 1.859730 0.000000 
#    z 0.003300 0.000000 1.823410 
# 
# From -- ./inp_files/291467.got.cif
#   From: 2010.06.25/outbox.cif.g09.slc.cpg/sg15_146_cif.got.tgz:291467.got - 2010.06.28 07:06:18.
