data_PCOD8152248
_publ_section_title
;
Structure prediction by ZEFSAII (Michael W. Deem and Ramdas Pophale) SiO2 
 PCOD8152248
Probable space group: C 2/C
;
_chemical_formula_sum "Si O2"
_cell_formula_units_Z 64
_cell_length_a 14.168387
_cell_length_b 14.614127
_cell_length_c 18.495820
_cell_angle_alpha 90.000000
_cell_angle_beta 51.707407
_cell_angle_gamma 90.000000
_cell_volume 3005.779584
_symmetry_space_group_name_H-M "C 2/C"
_symmetry_group_IT_number 15
_symmetry_cell_setting 'monoclinic'
loop_
_space_group_symop_operation_xyz
x,y,z
-x,y,1/2-z
-x,-y,-z
x,-y,1/2+z
1/2+x,1/2+y,z
1/2-x,1/2+y,1/2-z
1/2-x,1/2-y,-z
1/2+x,1/2-y,1/2+z
loop_
_atom_site_type_symbol
_atom_site_label
_atom_site_fract_x
_atom_site_fract_y
_atom_site_fract_z
Si Si1 0.006001 0.867341 0.671332
Si Si2 0.786990 0.206189 0.187022
Si Si3 0.508040 0.468539 0.076768
Si Si4 0.669196 0.802425 0.095243
Si Si5 0.868619 0.781209 0.485195
Si Si6 0.969997 0.656408 0.184748
Si Si7 0.503623 0.952296 0.331244
Si Si8 0.244379 0.121047 0.793699
O O1 0.077453 0.776685 0.660226
O O2 0.000000 0.921337 0.750000
O O3 0.880784 0.836681 0.696997
O O4 0.063432 0.943611 0.591855
O O5 0.848488 0.227582 0.080573
O O6 0.673127 0.137965 0.241589
O O7 0.726589 0.296895 0.246797
O O8 0.371637 0.442688 0.162765
O O9 0.500000 0.500000 0.000000
O O10 0.601498 0.386604 0.045395
O O11 0.597483 0.884551 0.086821
O O12 0.742828 0.841682 0.129507
O O13 0.750000 0.750000 0.000000
O O14 0.750000 0.750000 0.500000
O O15 0.981837 0.721406 0.402684
O O16 0.032152 0.557910 0.140401
O O17 0.000000 0.696723 0.250000
O O18 0.500000 0.923014 0.250000
O O19 0.639143 0.932497 0.292332
#
# Coordination Sequence:
#
# PCOD8152248 Si02
#       8
#     8   8   8   8   8   8   8   8
#     4  12  24  44  69 102 140 185 236 296 355 424
#     4  12  23  44  73  97 141 185 234 293 363 422
#     4  12  26  43  71 105 141 187 245 294 358 432
#     4  11  22  39  68  99 138 181 233 289 351 422
#     4  12  27  44  70 103 141 187 238 287 359 437
#     4  11  23  44  72  99 136 183 233 297 359 415
#     4   9  20  39  65  94 129 177 229 277 348 420
#     4  11  22  42  69  98 137 187 234 287 356 422
#
# _framework density 21.292313
#
# number of rings (size 3 to 8) (size 9 to 14) (size 15 to 20)
#    0.000    0.750    6.250    1.875    0.000    3.500 
#    0.000    0.625    0.000    0.000    0.000    0.000 
#    0.000    0.000    0.000    0.000    0.000    0.000 
#
# Total GULP energy -396499.805206 kJ/mol
# GULP energy per Si atom -12390.618913 kJ/mol
# Density = 2.124385 g / cm^3
# Si number density = 21.292313 Si / 1000 Ang^3
#
#
#
# Elastic Constant Matrix: (Units=GPa)
#
#
# Indices 1 2 3 4 5 6 
#
# 1 89.8641 12.4702 30.5145 0.0000 3.4277 0.0000
# 2 12.4702 112.7083 33.3624 0.0000 6.0301 0.0000
# 3 30.5145 33.3624 111.9274 0.0000 3.6463 0.0000
# 4 0.0000 0.0000 0.0000 35.4029 0.0000 1.7356
# 5 3.4277 6.0301 3.6463 0.0000 35.5699 0.0000
# 6 0.0000 0.0000 0.0000 1.7356 0.0000 26.9259
#
#
#
# Elastic Compliance Matrix: (Units=1/GPa)
#
#
# Indices 1 2 3 4 5 6 
#
# 1 0.012302 -0.000366 -0.003219 0.000000 -0.000793 0.000000
# 2 -0.000366 0.009808 -0.002780 0.000000 -0.001342 0.000000
# 3 -0.003219 -0.002780 0.010651 0.000000 -0.000310 0.000000
# 4 0.000000 0.000000 0.000000 0.028336 0.000000 -0.001826
# 5 -0.000793 -0.001342 -0.000310 0.000000 0.028449 0.000000
# 6 0.000000 0.000000 0.000000 -0.001826 0.000000 0.037257
#
#
# Mechanical properties :
#
#
# Convention : Reuss Voigt Hill
#
# Bulk Modulus (GPa) = 49.92294 51.91046 50.91670
# Shear Modulus (GPa) = 34.19771 35.45659 34.82715
#
# Velocity S-wave (km/s) = 4.01197 4.08515 4.04873
# Velocity P-wave (km/s) = 6.70512 6.83258 6.76915
#
# Compressibility (1/GPa) = 0.02003087
#
# Stress axis : x y z
#
# Youngs Moduli (GPa) = 81.28771 101.96141 93.89079
#
# Poissons Ratio (x) = 0.03730 0.30223
# Poissons Ratio (y) = 0.02974 0.26101
# Poissons Ratio (z) = 0.26166 0.28344
#
# Static dielectric constant tensor:
#      x y z
#    x 4.038070 0.000000 -0.282810 
#    y 0.000000 4.267360 0.000000 
#    z -0.282810 0.000000 4.034370 
# 
# 
# High freq. dielectric constant tensor:
#      x y z
#    x 1.834450 0.000000 -0.012130 
#    y 0.000000 1.847550 0.000000 
#    z -0.012130 0.000000 1.828300 
# 
# From -- ./inp_files/205704.got.cif
#   From: 2010.06.25/outbox.cif.g09.slc.cpg/sg15_103_cif.got.tgz:205704.got - 2010.06.28 07:06:18.
