data_PCOD8152140
_publ_section_title
;
Structure prediction by ZEFSAII (Michael W. Deem and Ramdas Pophale) SiO2 
 PCOD8152140
Probable space group: C 2/C
;
_chemical_formula_sum "Si O2"
_cell_formula_units_Z 32
_cell_length_a 11.081278
_cell_length_b 9.657917
_cell_length_c 13.415681
_cell_angle_alpha 90.000000
_cell_angle_beta 105.265196
_cell_angle_gamma 90.000000
_cell_volume 1385.116210
_symmetry_space_group_name_H-M "C 2/C"
_symmetry_group_IT_number 15
_symmetry_cell_setting 'monoclinic'
loop_
_space_group_symop_operation_xyz
x,y,z
-x,y,1/2-z
-x,-y,-z
x,-y,1/2+z
1/2+x,1/2+y,z
1/2-x,1/2+y,1/2-z
1/2-x,1/2-y,-z
1/2+x,1/2-y,1/2+z
loop_
_atom_site_type_symbol
_atom_site_label
_atom_site_fract_x
_atom_site_fract_y
_atom_site_fract_z
Si Si1 0.971322 0.890328 0.128664
Si Si2 0.789559 0.475174 0.457382
Si Si3 0.997108 0.533644 0.637629
Si Si4 0.913144 0.176294 0.043764
O O1 0.822330 0.863501 0.075100
O O2 0.000000 0.852449 0.250000
O O3 0.998904 0.052777 0.110360
O O4 0.053852 0.802606 0.067339
O O5 0.896935 0.432699 0.560636
O O6 0.732736 0.628409 0.473087
O O7 0.861358 0.487268 0.368400
O O8 0.949355 0.689694 0.613964
O O9 0.000000 0.484292 0.750000
#
# Coordination Sequence:
#
# PCOD8152140 Si02
#       4
#     8   8   8   8
#     4   9  19  37  60  86 120 158 193 251 302 345
#     4   9  22  38  56  88 121 149 203 246 287 368
#     4  11  22  38  61  86 121 161 194 247 307 351
#     4   9  20  38  58  87 117 152 206 236 292 365
#
# _framework density 23.102753
#
# number of rings (size 3 to 8) (size 9 to 14) (size 15 to 20)
#    1.500    1.000    0.000    1.500    3.500    1.000 
#    0.000    5.000    0.000    0.000    0.000    0.000 
#    0.000    0.000    0.000    0.000    0.000    0.000 
#
# Total GULP energy -198217.504012 kJ/mol
# GULP energy per Si atom -12388.594001 kJ/mol
# Density = 2.305017 g / cm^3
# Si number density = 23.102753 Si / 1000 Ang^3
#
#
#
# Elastic Constant Matrix: (Units=GPa)
#
#
# Indices 1 2 3 4 5 6 
#
# 1 187.9721 6.5402 52.3144 0.0000 -17.9951 0.0000
# 2 6.5402 20.3553 -11.9764 0.0000 3.5844 0.0000
# 3 52.3144 -11.9764 135.0124 0.0000 -33.1877 0.0000
# 4 0.0000 0.0000 0.0000 4.3912 0.0000 -1.8815
# 5 -17.9951 3.5844 -33.1877 0.0000 38.4440 0.0000
# 6 0.0000 0.0000 0.0000 -1.8815 0.0000 15.2542
#
#
#
# Elastic Compliance Matrix: (Units=1/GPa)
#
#
# Indices 1 2 3 4 5 6 
#
# 1 0.006241 -0.003655 -0.002463 0.000000 0.001136 0.000000
# 2 -0.003655 0.054009 0.005774 0.000000 -0.001762 0.000000
# 3 -0.002463 0.005774 0.010736 0.000000 0.007577 0.000000
# 4 0.000000 0.000000 0.000000 0.240438 0.000000 0.029657
# 5 0.001136 -0.001762 0.007577 0.000000 0.033248 0.000000
# 6 0.000000 0.000000 0.000000 0.029657 0.000000 0.069214
#
#
# Mechanical properties :
#
#
# Convention : Reuss Voigt Hill
#
# Bulk Modulus (GPa) = 14.22516 48.56624 31.39570
# Shear Modulus (GPa) = 11.41532 31.38197 21.39865
#
# Velocity S-wave (km/s) = 2.22527 3.68960 3.04672
# Velocity P-wave (km/s) = 3.57396 6.26245 5.09860
#
# Compressibility (1/GPa) = 0.07029796
#
# Stress axis : x y z
#
# Youngs Moduli (GPa) = 160.21982 18.51537 93.14580
#
# Poissons Ratio (x) = 0.06767 0.22946
# Poissons Ratio (y) = 0.58557 -0.53783
# Poissons Ratio (z) = 0.39470 -0.10691
#
# Static dielectric constant tensor:
#      x y z
#    x 4.267780 0.000000 -0.084310 
#    y 0.000000 3.738940 0.000000 
#    z -0.084310 0.000000 3.849060 
# 
# 
# High freq. dielectric constant tensor:
#      x y z
#    x 1.924760 0.000000 -0.008440 
#    y 0.000000 1.901260 0.000000 
#    z -0.008440 0.000000 1.890750 
# 
# From -- ./inp_files/84034.got.cif
#   From: 2010.06.25/outbox.cif.g09.slc.cpg/sg15_43_cif.got.tgz:84034.got - 2010.06.28 07:06:18.
