data_PCOD8152493
_publ_section_title
;
Structure prediction by ZEFSAII (Michael W. Deem and Ramdas Pophale) SiO2 
 PCOD8152493
Probable space group: C 2/C
;
_chemical_formula_sum "Si O2"
_cell_formula_units_Z 40
_cell_length_a 15.350517
_cell_length_b 7.356002
_cell_length_c 23.152072
_cell_angle_alpha 90.000000
_cell_angle_beta 133.200002
_cell_angle_gamma 90.000000
_cell_volume 1905.739492
_symmetry_space_group_name_H-M "C 2/C"
_symmetry_group_IT_number 15
_symmetry_cell_setting 'monoclinic'
loop_
_space_group_symop_operation_xyz
x,y,z
-x,y,1/2-z
-x,-y,-z
x,-y,1/2+z
1/2+x,1/2+y,z
1/2-x,1/2+y,1/2-z
1/2-x,1/2-y,-z
1/2+x,1/2-y,1/2+z
loop_
_atom_site_type_symbol
_atom_site_label
_atom_site_fract_x
_atom_site_fract_y
_atom_site_fract_z
Si Si1 0.603347 0.455661 0.163812
Si Si2 0.240960 0.622953 0.175155
Si Si3 0.142603 0.833971 0.487590
Si Si4 0.192719 0.226274 0.535873
Si Si5 0.075727 0.298386 0.075464
O O1 0.637850 0.544680 0.241167
O O2 0.693409 0.293450 0.189898
O O3 0.467115 0.383048 0.105107
O O4 0.617824 0.607402 0.121088
O O5 0.141467 0.466536 0.134665
O O6 0.270634 0.683968 0.122808
O O7 0.250000 0.750000 0.500000
O O8 0.100362 0.695007 0.517793
O O9 0.183747 0.011398 0.541672
O O10 0.250000 0.250000 0.500000
O O11 0.064910 0.324670 0.478950
#
# Coordination Sequence:
#
# PCOD8152493 Si02
#       5
#     8   8   8   8   8
#     4  11  23  41  68  99 135 177 226 283 349 401
#     4  12  22  41  71  96 138 176 225 287 353 393
#     4  11  23  43  67 100 137 180 236 277 330 414
#     4  11  23  40  67 104 131 175 234 276 333 412
#     4  11  22  42  68  97 131 180 232 276 332 411
#
# _framework density 20.989229000000002
#
# number of rings (size 3 to 8) (size 9 to 14) (size 15 to 20)
#    0.000    0.800    6.000    3.000    2.800    0.000 
#    0.000    9.000    0.000    7.200    0.000    0.000 
#    0.000    0.000    0.000    0.000    0.000    0.000 
#
# Total GULP energy -247982.786810 kJ/mol
# GULP energy per Si atom -12399.139341 kJ/mol
# Density = 2.094146 g / cm^3
# Si number density = 20.989229 Si / 1000 Ang^3
#
#
#
# Elastic Constant Matrix: (Units=GPa)
#
#
# Indices 1 2 3 4 5 6 
#
# 1 143.1203 22.6315 70.6034 0.0000 -12.0142 0.0000
# 2 22.6315 93.3884 57.8160 0.0000 1.6311 0.0000
# 3 70.6034 57.8160 171.3719 0.0000 -9.5313 0.0000
# 4 0.0000 0.0000 0.0000 44.8535 0.0000 -2.4477
# 5 -12.0142 1.6311 -9.5313 0.0000 22.1665 0.0000
# 6 0.0000 0.0000 0.0000 -2.4477 0.0000 27.2994
#
#
#
# Elastic Compliance Matrix: (Units=1/GPa)
#
#
# Indices 1 2 3 4 5 6 
#
# 1 0.009009 -0.000077 -0.003497 0.000000 0.003385 0.000000
# 2 -0.000077 0.013737 -0.004776 0.000000 -0.003106 0.000000
# 3 -0.003497 -0.004776 0.009017 0.000000 0.002333 0.000000
# 4 0.000000 0.000000 0.000000 0.022404 0.000000 0.002009
# 5 0.003385 -0.003106 0.002333 0.000000 0.048179 0.000000
# 6 0.000000 0.000000 0.000000 0.002009 0.000000 0.036811
#
#
# Mechanical properties :
#
#
# Convention : Reuss Voigt Hill
#
# Bulk Modulus (GPa) = 66.38698 78.88693 72.63695
# Shear Modulus (GPa) = 31.07930 35.98586 33.53258
#
# Velocity S-wave (km/s) = 3.85219 4.14513 4.00135
# Velocity P-wave (km/s) = 7.17521 7.78303 7.48529
#
# Compressibility (1/GPa) = 0.01506319
#
# Stress axis : x y z
#
# Youngs Moduli (GPa) = 111.00419 72.79379 110.90193
#
# Poissons Ratio (x) = 0.00562 0.38785
# Poissons Ratio (y) = 0.00857 0.52962
# Poissons Ratio (z) = 0.38820 0.34763
#
# Static dielectric constant tensor:
#      x y z
#    x 3.555200 0.000000 -0.118390 
#    y 0.000000 2.853830 0.000000 
#    z -0.118390 0.000000 3.987090 
# 
# 
# High freq. dielectric constant tensor:
#      x y z
#    x 1.795660 0.000000 -0.006710 
#    y 0.000000 1.850780 0.000000 
#    z -0.006710 0.000000 1.821050 
# 
# From -- ./inp_files/202257.got.cif
#   From: 2010.06.25/outbox.cif.g09.slc.cpg/sg15_102_cif.got.tgz:202257.got - 2010.06.28 07:06:18.
