data_PCOD8152520
_publ_section_title
;
Structure prediction by ZEFSAII (Michael W. Deem and Ramdas Pophale) SiO2 
 PCOD8152520
Probable space group: C 2/C
;
_chemical_formula_sum "Si O2"
_cell_formula_units_Z 60
_cell_length_a 9.609413
_cell_length_b 16.502200
_cell_length_c 17.720962
_cell_angle_alpha 90.000000
_cell_angle_beta 101.584538
_cell_angle_gamma 90.000000
_cell_volume 2752.883574
_symmetry_space_group_name_H-M "C 2/C"
_symmetry_group_IT_number 15
_symmetry_cell_setting 'monoclinic'
loop_
_space_group_symop_operation_xyz
x,y,z
-x,y,1/2-z
-x,-y,-z
x,-y,1/2+z
1/2+x,1/2+y,z
1/2-x,1/2+y,1/2-z
1/2-x,1/2-y,-z
1/2+x,1/2-y,1/2+z
loop_
_atom_site_type_symbol
_atom_site_label
_atom_site_fract_x
_atom_site_fract_y
_atom_site_fract_z
Si Si1 0.660779 0.452549 0.773591
Si Si2 0.719719 0.103252 0.371418
Si Si3 0.242474 0.101215 0.861840
Si Si4 0.500000 0.312560 0.250000
Si Si5 0.581964 0.751493 0.061445
Si Si6 0.158371 0.003786 0.991309
Si Si7 0.816450 0.841241 0.590341
Si Si8 0.483438 0.791878 0.892867
O O1 0.500000 0.490692 0.750000
O O2 0.735817 0.423418 0.706412
O O3 0.775059 0.514861 0.824329
O O4 0.634932 0.374236 0.823170
O O5 0.809486 0.182397 0.402650
O O6 0.743806 0.026447 0.427461
O O7 0.554632 0.127760 0.363506
O O8 0.373043 0.162036 0.894858
O O9 0.167651 0.076196 0.931687
O O10 0.138057 0.139143 0.789238
O O11 0.548141 0.264855 0.181040
O O12 0.425627 0.727249 0.074193
O O13 0.586245 0.756603 0.970164
O O14 0.201187 0.915130 0.969509
O O15 0.000000 0.000000 0.000000
O O16 0.661287 0.804485 0.578664
#
# Coordination Sequence:
#
# PCOD8152520 Si02
#       8
#     8   8   8   4   8   8   8   8
#     4  11  22  44  71 102 141 189 240 295 363 432
#     4  12  22  41  75  96 136 187 236 290 353 431
#     4  11  24  42  68 105 140 178 240 305 346 424
#     4  12  24  38  70 100 138 170 232 292 352 414
#     4  12  23  46  71 103 138 189 234 295 359 417
#     4  11  22  42  70  99 128 186 239 277 350 434
#     4  11  26  42  71  97 144 183 238 291 354 433
#     4  12  26  43  67 105 142 183 233 295 363 419
#
# _framework density 21.795328000000001
#
# number of rings (size 3 to 8) (size 9 to 14) (size 15 to 20)
#    0.000    0.533    6.000    3.200    0.000    0.533 
#    0.000    0.000    5.867    0.000    0.000    0.000 
#    0.000    0.000    0.000    0.000    0.000    0.000 
#
# Total GULP energy -371764.884449 kJ/mol
# GULP energy per Si atom -12392.162815 kJ/mol
# Density = 2.174572 g / cm^3
# Si number density = 21.795328 Si / 1000 Ang^3
#
#
#
# Elastic Constant Matrix: (Units=GPa)
#
#
# Indices 1 2 3 4 5 6 
#
# 1 94.3157 46.8468 26.2969 0.0000 -22.0695 0.0000
# 2 46.8468 104.0745 64.3073 0.0000 -7.3235 0.0000
# 3 26.2969 64.3073 129.2246 0.0000 -40.9618 0.0000
# 4 0.0000 0.0000 0.0000 31.5047 0.0000 23.1311
# 5 -22.0695 -7.3235 -40.9618 0.0000 12.2952 0.0000
# 6 0.0000 0.0000 0.0000 23.1311 0.0000 8.7112
#
#
#
# Elastic Compliance Matrix: (Units=1/GPa)
#
#
# Indices 1 2 3 4 5 6 
#
# 1 0.004948 0.003507 -0.012941 0.000000 -0.032142 0.000000
# 2 0.003507 0.005614 0.008068 0.000000 0.036519 0.000000
# 3 -0.012941 0.008068 -0.009231 0.000000 -0.049175 0.000000
# 4 0.000000 0.000000 0.000000 -0.033427 0.000000 0.088760
# 5 -0.032142 0.036519 -0.049175 0.000000 -0.118438 0.000000
# 6 0.000000 0.000000 0.000000 0.088760 0.000000 -0.120891
#
#
# Mechanical properties :
#
#
# Convention : Reuss Voigt Hill
#
# Bulk Modulus (GPa) = -714.63250 66.94633 -323.84309
# Shear Modulus (GPa) = -18.57620 23.17979 2.30180
#
# Velocity S-wave (km/s) = -2.92259 3.26471 1.02878
# Velocity P-wave (km/s) = 18.43865 6.70773 12.14476
#
# Compressibility (1/GPa) = -0.00139932
#
# Stress axis : x y z
#
# Youngs Moduli (GPa) = 202.11716 178.11833 -108.33263
#
# Poissons Ratio (x) = -0.62468 -1.40189
# Poissons Ratio (y) = -0.70885 0.87406
# Poissons Ratio (z) = 2.61551 -1.43711
#
# Static dielectric constant tensor:
#      x y z
#    x 4.452640 0.000000 0.129710 
#    y 0.000000 4.829490 0.000000 
#    z 0.129710 0.000000 4.108760 
# 
# 
# High freq. dielectric constant tensor:
#      x y z
#    x 1.841840 0.000000 -0.001160 
#    y 0.000000 1.859040 0.000000 
#    z -0.001160 0.000000 1.878410 
# 
# From -- ./inp_files/190991.got.cif
#   From: 2010.06.25/outbox.cif.g09.slc.cpg/sg15_96_cif.got.tgz:190991.got - 2010.06.28 07:06:18.
