data_PCOD8152361
_publ_section_title
;
Structure prediction by ZEFSAII (Michael W. Deem and Ramdas Pophale) SiO2 
 PCOD8152361
Probable space group: C 2/C
;
_chemical_formula_sum "Si O2"
_cell_formula_units_Z 56
_cell_length_a 9.334439
_cell_length_b 28.523315
_cell_length_c 12.103444
_cell_angle_alpha 90.000000
_cell_angle_beta 127.535850
_cell_angle_gamma 90.000000
_cell_volume 2555.378242
_symmetry_space_group_name_H-M "C 2/C"
_symmetry_group_IT_number 15
_symmetry_cell_setting 'monoclinic'
loop_
_space_group_symop_operation_xyz
x,y,z
-x,y,1/2-z
-x,-y,-z
x,-y,1/2+z
1/2+x,1/2+y,z
1/2-x,1/2+y,1/2-z
1/2-x,1/2-y,-z
1/2+x,1/2-y,1/2+z
loop_
_atom_site_type_symbol
_atom_site_label
_atom_site_fract_x
_atom_site_fract_y
_atom_site_fract_z
Si Si1 0.573892 0.379146 0.043830
Si Si2 0.651019 0.925801 0.181352
Si Si3 0.500000 0.471081 0.750000
Si Si4 0.224708 0.295356 0.634994
Si Si5 0.500000 0.004921 0.250000
Si Si6 0.266277 0.897532 0.914212
Si Si7 0.183296 0.047264 0.966326
Si Si8 0.002701 0.218900 0.437895
O O1 0.757363 0.385686 0.200559
O O2 0.419145 0.414476 0.009799
O O3 0.612025 0.388557 0.933167
O O4 0.507257 0.325400 0.023549
O O5 0.777592 0.931764 0.135685
O O6 0.639597 0.974199 0.243572
O O7 0.448755 0.912199 0.058299
O O8 0.677395 0.439504 0.799878
O O9 0.555732 0.501754 0.884583
O O10 0.192068 0.350940 0.637503
O O11 0.041322 0.266283 0.525759
O O12 0.350361 0.288536 0.588308
O O13 0.309312 0.275472 0.788020
O O14 0.624112 0.036386 0.387740
#
# Coordination Sequence:
#
# PCOD8152361 Si02
#       8
#     8   8   4   8   4   8   8   8
#     4  11  22  41  61  93 127 172 211 266 327 389
#     4  12  23  42  60  97 124 175 222 271 314 380
#     4  12  22  40  60  89 128 177 212 266 310 386
#     4   9  19  36  57  97 122 163 202 274 328 385
#     4  12  26  42  62  93 132 171 228 276 312 374
#     4  11  23  36  64  89 131 163 219 266 323 378
#     4  12  27  40  65  89 133 177 224 260 325 382
#     4   9  19  35  62  90 129 157 210 262 337 385
#
# _framework density 21.914563999999999
#
# number of rings (size 3 to 8) (size 9 to 14) (size 15 to 20)
#    0.000    1.143    4.286    2.143    4.000    2.286 
#    0.000    0.000    0.000    0.857    0.000    0.000 
#    0.000    0.000    0.000    0.000    0.000    0.000 
#
# Total GULP energy -347178.162619 kJ/mol
# GULP energy per Si atom -12399.220094 kJ/mol
# Density = 2.186469 g / cm^3
# Si number density = 21.914564 Si / 1000 Ang^3
#
#
#
# Elastic Constant Matrix: (Units=GPa)
#
#
# Indices 1 2 3 4 5 6 
#
# 1 52.8924 25.9746 13.8867 0.0000 -2.8416 0.0000
# 2 25.9746 147.7578 66.8529 0.0000 4.3510 0.0000
# 3 13.8867 66.8529 141.2087 0.0000 24.4841 0.0000
# 4 0.0000 0.0000 0.0000 32.0040 0.0000 3.2762
# 5 -2.8416 4.3510 24.4841 0.0000 23.5966 0.0000
# 6 0.0000 0.0000 0.0000 3.2762 0.0000 10.7973
#
#
#
# Elastic Compliance Matrix: (Units=1/GPa)
#
#
# Indices 1 2 3 4 5 6 
#
# 1 0.021087 -0.003242 -0.001320 0.000000 0.004507 0.000000
# 2 -0.003242 0.009317 -0.004544 0.000000 0.002607 0.000000
# 3 -0.001320 -0.004544 0.011273 0.000000 -0.011018 0.000000
# 4 0.000000 0.000000 0.000000 0.032248 0.000000 -0.009785
# 5 0.004507 0.002607 -0.011018 0.000000 0.053874 0.000000
# 6 0.000000 0.000000 0.000000 -0.009785 0.000000 0.095585
#
#
# Mechanical properties :
#
#
# Convention : Reuss Voigt Hill
#
# Bulk Modulus (GPa) = 42.61778 61.69858 52.15818
# Shear Modulus (GPa) = 20.04655 28.95588 24.50122
#
# Velocity S-wave (km/s) = 3.02778 3.63892 3.34733
# Velocity P-wave (km/s) = 5.63141 6.77281 6.22831
#
# Compressibility (1/GPa) = 0.02346438
#
# Stress axis : x y z
#
# Youngs Moduli (GPa) = 47.42182 107.33043 88.70476
#
# Poissons Ratio (x) = 0.34800 0.11711
# Poissons Ratio (y) = 0.15376 0.40308
# Poissons Ratio (z) = 0.06261 0.48772
#
# Static dielectric constant tensor:
#      x y z
#    x 3.523420 0.000000 0.172240 
#    y 0.000000 4.199210 0.000000 
#    z 0.172240 0.000000 4.215540 
# 
# 
# High freq. dielectric constant tensor:
#      x y z
#    x 1.813740 0.000000 0.018960 
#    y 0.000000 1.857380 0.000000 
#    z 0.018960 0.000000 1.882960 
# 
# From -- ./inp_files/82721.got.cif
#   From: 2010.06.25/outbox.cif.g09.slc.cpg/sg15_42_cif.got.tgz:82721.got - 2010.06.28 07:06:18.
