data_PCOD8152752
_publ_section_title
;
Structure prediction by ZEFSAII (Michael W. Deem and Ramdas Pophale) SiO2 
 PCOD8152752
Probable space group: C 2/C
;
_chemical_formula_sum "Si O2"
_cell_formula_units_Z 36
_cell_length_a 12.006405
_cell_length_b 22.958296
_cell_length_c 5.196014
_cell_angle_alpha 90.000000
_cell_angle_beta 88.809625
_cell_angle_gamma 90.000000
_cell_volume 1431.954492
_symmetry_space_group_name_H-M "C 2/C"
_symmetry_group_IT_number 15
_symmetry_cell_setting 'monoclinic'
loop_
_space_group_symop_operation_xyz
x,y,z
-x,y,1/2-z
-x,-y,-z
x,-y,1/2+z
1/2+x,1/2+y,z
1/2-x,1/2+y,1/2-z
1/2-x,1/2-y,-z
1/2+x,1/2-y,1/2+z
loop_
_atom_site_type_symbol
_atom_site_label
_atom_site_fract_x
_atom_site_fract_y
_atom_site_fract_z
Si Si1 0.118364 0.078672 0.824681
Si Si2 0.500000 0.249901 0.750000
Si Si3 0.838112 0.150889 0.180899
Si Si4 0.844934 0.532364 0.858800
Si Si5 0.901411 0.350183 0.582125
O O1 0.162143 0.116631 0.585024
O O2 0.209398 0.028338 0.873812
O O3 0.000000 0.050165 0.750000
O O4 0.102545 0.117836 0.081990
O O5 0.596938 0.288935 0.872033
O O6 0.559505 0.210609 0.535383
O O7 0.708950 0.162269 0.248676
O O8 0.892945 0.504447 0.596763
O O9 0.878443 0.600262 0.868228
O O10 0.000000 0.375923 0.750000
#
# Coordination Sequence:
#
# PCOD8152752 Si02
#       5
#     8   4   8   8   8
#     4  11  22  45  76 110 145 187 241 298 366 445
#     4  12  26  46  76 110 144 202 228 300 370 434
#     4  11  25  46  73 109 155 185 234 299 364 433
#     4  11  26  48  73 103 145 192 245 308 360 411
#     4  11  29  46  73 109 147 193 252 293 352 448
#
# _framework density 25.140464000000001
#
# number of rings (size 3 to 8) (size 9 to 14) (size 15 to 20)
#    0.000    0.889    2.222    3.333   12.444    2.667 
#    0.000    0.000    0.000    0.000    0.000    0.000 
#    0.000    0.000    0.000    0.000    0.000    0.000 
#
# Total GULP energy -223247.666699 kJ/mol
# GULP energy per Si atom -12402.648150 kJ/mol
# Density = 2.508324 g / cm^3
# Si number density = 25.140464 Si / 1000 Ang^3
#
#
#
# Elastic Constant Matrix: (Units=GPa)
#
#
# Indices 1 2 3 4 5 6 
#
# 1 108.4266 11.6736 12.8769 0.0000 0.5508 0.0000
# 2 11.6736 92.7858 43.4623 0.0000 -2.0267 0.0000
# 3 12.8769 43.4623 152.6211 0.0000 5.2916 0.0000
# 4 0.0000 0.0000 0.0000 38.4108 0.0000 -6.4640
# 5 0.5508 -2.0267 5.2916 0.0000 37.8192 0.0000
# 6 0.0000 0.0000 0.0000 -6.4640 0.0000 20.5234
#
#
#
# Elastic Compliance Matrix: (Units=1/GPa)
#
#
# Indices 1 2 3 4 5 6 
#
# 1 0.009386 -0.000940 -0.000520 0.000000 -0.000114 0.000000
# 2 -0.000940 0.012582 -0.003545 0.000000 0.001184 0.000000
# 3 -0.000520 -0.003545 0.007649 0.000000 -0.001253 0.000000
# 4 0.000000 0.000000 0.000000 0.027491 0.000000 0.008659
# 5 -0.000114 0.001184 -0.001253 0.000000 0.026682 0.000000
# 6 0.000000 0.000000 0.000000 0.008659 0.000000 0.051452
#
#
# Mechanical properties :
#
#
# Convention : Reuss Voigt Hill
#
# Bulk Modulus (GPa) = 51.00036 54.42878 52.71457
# Shear Modulus (GPa) = 32.94062 38.40541 35.67301
#
# Velocity S-wave (km/s) = 3.62368 3.91274 3.77098
# Velocity P-wave (km/s) = 6.15128 6.48919 6.32249
#
# Compressibility (1/GPa) = 0.01960771
#
# Stress axis : x y z
#
# Youngs Moduli (GPa) = 106.53738 79.47841 130.73650
#
# Poissons Ratio (x) = 0.07468 0.06803
# Poissons Ratio (y) = 0.10011 0.46343
# Poissons Ratio (z) = 0.05544 0.28173
#
# Static dielectric constant tensor:
#      x y z
#    x 5.059270 0.000000 0.130750 
#    y 0.000000 4.249780 0.000000 
#    z 0.130750 0.000000 4.483090 
# 
# 
# High freq. dielectric constant tensor:
#      x y z
#    x 2.032020 0.000000 -0.000470 
#    y 0.000000 1.986340 0.000000 
#    z -0.000470 0.000000 2.009600 
# 
# From -- ./inp_files/4290.got.cif
#   From: 2010.06.25/outbox.cif.g09.slc.cpg/sg15_3_cif.got.tgz:4290.got - 2010.06.28 07:06:18.
