data_PCOD8152395
_publ_section_title
;
Structure prediction by ZEFSAII (Michael W. Deem and Ramdas Pophale) SiO2 
 PCOD8152395
Probable space group: C 2/C
;
_chemical_formula_sum "Si O2"
_cell_formula_units_Z 56
_cell_length_a 8.878437
_cell_length_b 11.645734
_cell_length_c 26.103569
_cell_angle_alpha 90.000000
_cell_angle_beta 107.071258
_cell_angle_gamma 90.000000
_cell_volume 2580.085445
_symmetry_space_group_name_H-M "C 2/C"
_symmetry_group_IT_number 15
_symmetry_cell_setting 'monoclinic'
loop_
_space_group_symop_operation_xyz
x,y,z
-x,y,1/2-z
-x,-y,-z
x,-y,1/2+z
1/2+x,1/2+y,z
1/2-x,1/2+y,1/2-z
1/2-x,1/2-y,-z
1/2+x,1/2-y,1/2+z
loop_
_atom_site_type_symbol
_atom_site_label
_atom_site_fract_x
_atom_site_fract_y
_atom_site_fract_z
Si Si1 0.402718 0.005994 0.689553
Si Si2 0.596212 0.740640 0.809678
Si Si3 0.133782 0.343648 0.013924
Si Si4 0.198349 0.347791 0.575196
Si Si5 0.638316 0.079230 0.625843
Si Si6 0.619726 0.355546 0.130884
Si Si7 0.099638 0.992167 0.959758
O O1 0.500000 0.036516 0.750000
O O2 0.488432 0.048992 0.646316
O O3 0.237660 0.071473 0.677140
O O4 0.351514 0.872985 0.684390
O O5 0.500000 0.707110 0.750000
O O6 0.739835 0.651191 0.827325
O O7 0.479511 0.732424 0.845697
O O8 0.104404 0.338876 0.072688
O O9 0.224453 0.461579 0.011681
O O10 0.250000 0.250000 0.000000
O O11 0.968969 0.344391 0.969444
O O12 0.208369 0.456037 0.615262
O O13 0.221664 0.223926 0.602935
O O14 0.353596 0.362918 0.553669
O O15 0.493471 0.438493 0.092206
O O16 0.000000 0.000000 0.000000
#
# Coordination Sequence:
#
# PCOD8152395 Si02
#       7
#     8   8   8   8   8   8   8
#     4  11  27  45  69 101 131 176 232 284 343 408
#     4  11  23  46  72  95 131 177 227 287 341 399
#     4  11  22  41  67  96 136 186 224 264 339 418
#     4  11  23  43  66  98 138 182 219 277 341 407
#     4  11  22  43  69  96 134 183 219 276 351 393
#     4  12  24  44  68  99 137 171 230 278 338 412
#     4  11  25  39  63 100 135 178 225 275 331 406
#
# _framework density 21.704708
#
# number of rings (size 3 to 8) (size 9 to 14) (size 15 to 20)
#    0.000    0.857    5.714    2.571    4.000    2.857 
#    0.000    0.714    0.000    0.000    0.000    0.000 
#    0.000    0.000    0.000    0.000    0.000    0.000 
#
# Total GULP energy -346973.961050 kJ/mol
# GULP energy per Si atom -12391.927180 kJ/mol
# Density = 2.165531 g / cm^3
# Si number density = 21.704708 Si / 1000 Ang^3
#
#
#
# Elastic Constant Matrix: (Units=GPa)
#
#
# Indices 1 2 3 4 5 6 
#
# 1 66.5276 36.7394 21.1142 0.0000 -4.0116 0.0000
# 2 36.7394 93.3718 43.2334 0.0000 31.6540 0.0000
# 3 21.1142 43.2334 103.7822 0.0000 10.7293 0.0000
# 4 0.0000 0.0000 0.0000 31.7431 0.0000 0.4437
# 5 -4.0116 31.6540 10.7293 0.0000 35.3207 0.0000
# 6 0.0000 0.0000 0.0000 0.4437 0.0000 33.4862
#
#
#
# Elastic Compliance Matrix: (Units=1/GPa)
#
#
# Indices 1 2 3 4 5 6 
#
# 1 0.024379 -0.014904 -0.000432 0.000000 0.016257 0.000000
# 2 -0.014904 0.027712 -0.005957 0.000000 -0.024719 0.000000
# 3 -0.000432 -0.005957 0.012036 0.000000 0.001633 0.000000
# 4 0.000000 0.000000 0.000000 0.031509 0.000000 -0.000417
# 5 0.016257 -0.024719 0.001633 0.000000 0.051815 0.000000
# 6 0.000000 0.000000 0.000000 -0.000417 0.000000 0.029869
#
#
# Mechanical properties :
#
#
# Convention : Reuss Voigt Hill
#
# Bulk Modulus (GPa) = 46.41982 51.76171 49.09076
# Shear Modulus (GPa) = 22.01817 30.94965 26.48391
#
# Velocity S-wave (km/s) = 3.18849 3.78026 3.49691
# Velocity P-wave (km/s) = 5.91512 6.55391 6.24269
#
# Compressibility (1/GPa) = 0.02154252
#
# Stress axis : x y z
#
# Youngs Moduli (GPa) = 41.01844 36.08534 83.08393
#
# Poissons Ratio (x) = 0.53781 0.03589
# Poissons Ratio (y) = 0.61133 0.49490
# Poissons Ratio (z) = 0.01772 0.21495
#
# Static dielectric constant tensor:
#      x y z
#    x 4.097090 0.000000 -0.246330 
#    y 0.000000 3.924730 0.000000 
#    z -0.246330 0.000000 4.099500 
# 
# 
# High freq. dielectric constant tensor:
#      x y z
#    x 1.859450 0.000000 -0.004090 
#    y 0.000000 1.859710 0.000000 
#    z -0.004090 0.000000 1.852930 
# 
# From -- ./inp_files/288069.got.cif
#   From: 2010.06.25/outbox.cif.g09.slc.cpg/sg15_145_cif.got.tgz:288069.got - 2010.06.28 07:06:18.
