data_PCOD8152054
_publ_section_title
;
Structure prediction by ZEFSAII (Michael W. Deem and Ramdas Pophale) SiO2 
 PCOD8152054
Probable space group: C 2/C
;
_chemical_formula_sum "Si O2"
_cell_formula_units_Z 52
_cell_length_a 25.759264
_cell_length_b 9.000467
_cell_length_c 13.823757
_cell_angle_alpha 90.000000
_cell_angle_beta 46.270776
_cell_angle_gamma 90.000000
_cell_volume 2315.961606
_symmetry_space_group_name_H-M "C 2/C"
_symmetry_group_IT_number 15
_symmetry_cell_setting 'monoclinic'
loop_
_space_group_symop_operation_xyz
x,y,z
-x,y,1/2-z
-x,-y,-z
x,-y,1/2+z
1/2+x,1/2+y,z
1/2-x,1/2+y,1/2-z
1/2-x,1/2-y,-z
1/2+x,1/2-y,1/2+z
loop_
_atom_site_type_symbol
_atom_site_label
_atom_site_fract_x
_atom_site_fract_y
_atom_site_fract_z
Si Si1 0.625040 0.222179 0.002252
Si Si2 0.841150 0.344404 0.834745
Si Si3 0.000000 0.265737 0.250000
Si Si4 0.270685 0.620465 0.779822
Si Si5 0.123429 0.048071 0.027420
Si Si6 0.509401 0.027096 0.376385
Si Si7 0.263616 0.421676 0.967517
O O1 0.690632 0.172744 0.847202
O O2 0.668896 0.229373 0.047284
O O3 0.594215 0.388500 0.025461
O O4 0.561191 0.101913 0.080708
O O5 0.810421 0.246648 0.789154
O O6 0.800068 0.500720 0.889871
O O7 0.926125 0.358477 0.713694
O O8 0.940931 0.164400 0.378650
O O9 0.029515 0.373280 0.296676
O O10 0.316653 0.602057 0.624509
O O11 0.264409 0.470174 0.853142
O O12 0.159479 0.033464 0.086358
O O13 0.500000 0.000000 0.500000
O O14 0.250000 0.250000 0.000000
#
# Coordination Sequence:
#
# PCOD8152054 Si02
#       7
#     8   8   4   8   8   8   8
#     4  11  24  47  72 102 144 199 234 302 371 441
#     4  11  21  48  70  97 143 191 240 290 365 435
#     4  12  28  48  66 114 144 184 244 310 358 442
#     4  11  25  45  73 107 140 188 251 293 373 440
#     4  12  27  43  73 104 148 186 243 308 364 438
#     4  12  27  46  76 103 145 198 240 295 376 442
#     4  11  24  40  70 104 143 183 235 305 359 427
#
# _framework density 22.452876
#
# number of rings (size 3 to 8) (size 9 to 14) (size 15 to 20)
#    0.000    0.615    4.615    2.769    8.615    1.231 
#    0.000    2.308    0.000    0.000    0.000    0.000 
#    0.000    0.000    0.000    0.000    0.000    0.000 
#
# Total GULP energy -322322.502304 kJ/mol
# GULP energy per Si atom -12397.019319 kJ/mol
# Density = 2.240177 g / cm^3
# Si number density = 22.452876 Si / 1000 Ang^3
#
#
#
# Elastic Constant Matrix: (Units=GPa)
#
#
# Indices 1 2 3 4 5 6 
#
# 1 58.6148 21.1517 10.5055 0.0000 -17.5503 0.0000
# 2 21.1517 157.4371 48.2851 0.0001 -13.9224 0.0000
# 3 10.5055 48.2851 104.7537 0.0000 -14.6004 0.0000
# 4 0.0000 0.0001 0.0000 30.8737 0.0000 -9.9452
# 5 -17.5503 -13.9224 -14.6004 0.0000 43.2967 0.0000
# 6 0.0000 0.0000 0.0000 -9.9452 0.0000 30.3514
#
#
#
# Elastic Compliance Matrix: (Units=1/GPa)
#
#
# Indices 1 2 3 4 5 6 
#
# 1 0.020029 -0.002020 -0.000038 0.000000 0.007456 0.000000
# 2 -0.002020 0.007670 -0.003256 0.000000 0.000550 0.000000
# 3 -0.000038 -0.003256 0.011441 0.000000 0.002795 0.000000
# 4 0.000000 0.000000 0.000000 0.036212 0.000000 0.011866
# 5 0.007456 0.000550 0.002795 0.000000 0.027238 0.000000
# 6 0.000000 0.000000 0.000000 0.011866 0.000000 0.036835
#
#
# Mechanical properties :
#
#
# Convention : Reuss Voigt Hill
#
# Bulk Modulus (GPa) = 35.07452 53.41002 44.24227
# Shear Modulus (GPa) = 31.33649 36.96192 34.14920
#
# Velocity S-wave (km/s) = 3.73990 4.06174 3.90414
# Velocity P-wave (km/s) = 5.85700 6.77025 6.33011
#
# Compressibility (1/GPa) = 0.02851072
#
# Stress axis : x y z
#
# Youngs Moduli (GPa) = 49.92815 130.37070 87.40740
#
# Poissons Ratio (x) = 0.26331 0.00336
# Poissons Ratio (y) = 0.10084 0.28464
# Poissons Ratio (z) = 0.00192 0.42454
#
# Static dielectric constant tensor:
#      x y z
#    x 4.000810 0.000000 0.011910 
#    y 0.000000 4.125400 0.000000 
#    z 0.011910 0.000000 3.943670 
# 
# 
# High freq. dielectric constant tensor:
#      x y z
#    x 1.878240 0.000000 -0.004880 
#    y 0.000000 1.894900 0.000000 
#    z -0.004880 0.000000 1.892370 
# 
# From -- ./inp_files/181080.got.cif
#   From: 2010.06.25/outbox.cif.g09.slc.cpg/sg15_91_cif.got.tgz:181080.got - 2010.06.28 07:06:18.
