data_PCOD8152691
_publ_section_title
;
Structure prediction by ZEFSAII (Michael W. Deem and Ramdas Pophale) SiO2 
 PCOD8152691
Probable space group: C 2/C
;
_chemical_formula_sum "Si O2"
_cell_formula_units_Z 52
_cell_length_a 18.400971
_cell_length_b 7.741745
_cell_length_c 18.657121
_cell_angle_alpha 90.000000
_cell_angle_beta 61.835505
_cell_angle_gamma 90.000000
_cell_volume 2343.116584
_symmetry_space_group_name_H-M "C 2/C"
_symmetry_group_IT_number 15
_symmetry_cell_setting 'monoclinic'
loop_
_space_group_symop_operation_xyz
x,y,z
-x,y,1/2-z
-x,-y,-z
x,-y,1/2+z
1/2+x,1/2+y,z
1/2-x,1/2+y,1/2-z
1/2-x,1/2-y,-z
1/2+x,1/2-y,1/2+z
loop_
_atom_site_type_symbol
_atom_site_label
_atom_site_fract_x
_atom_site_fract_y
_atom_site_fract_z
Si Si1 0.868319 0.898531 0.665851
Si Si2 0.859011 0.032407 0.322225
Si Si3 0.814013 0.401852 0.087553
Si Si4 0.112707 0.754355 0.411044
Si Si5 0.949965 0.792007 0.910955
Si Si6 0.456519 0.103768 0.412489
Si Si7 0.000000 0.785011 0.250000
O O1 0.835465 0.857507 0.761885
O O2 0.825559 0.761486 0.633581
O O3 0.967658 0.901154 0.616468
O O4 0.843347 0.094163 0.654467
O O5 0.900047 0.152619 0.363343
O O6 0.781585 0.926531 0.390177
O O7 0.925223 0.901150 0.256803
O O8 0.837349 0.576409 0.119480
O O9 0.866424 0.377051 0.990336
O O10 0.111063 0.821163 0.493916
O O11 0.019100 0.710003 0.432636
O O12 0.980699 0.595323 0.893927
O O13 0.458676 0.174163 0.331550
#
# Coordination Sequence:
#
# PCOD8152691 Si02
#       7
#     8   8   8   8   8   8   4
#     4  12  23  43  73  97 138 192 227 291 355 425
#     4  12  27  44  66 109 144 181 246 295 360 434
#     4  11  27  46  68 105 144 182 238 298 351 429
#     4  11  22  44  73 102 132 185 245 278 356 444
#     4  11  22  44  73  95 138 188 230 297 352 428
#     4  11  23  44  73 103 137 189 241 287 359 434
#     4  12  26  42  68 100 140 184 240 292 350 440
#
# _framework density 22.192663
#
# number of rings (size 3 to 8) (size 9 to 14) (size 15 to 20)
#    0.000    0.615    6.154    1.385    6.462    3.077 
#    2.769    0.000    0.000    0.000    0.000    0.000 
#    0.000    0.000    0.000    0.000    0.000    0.000 
#
# Total GULP energy -322360.649469 kJ/mol
# GULP energy per Si atom -12398.486518 kJ/mol
# Density = 2.214215 g / cm^3
# Si number density = 22.192663 Si / 1000 Ang^3
#
#
#
# Elastic Constant Matrix: (Units=GPa)
#
#
# Indices 1 2 3 4 5 6 
#
# 1 64.9490 29.6590 35.6326 0.0002 -6.0606 -0.0003
# 2 29.6590 114.7407 38.1290 0.0006 13.3871 -0.0003
# 3 35.6326 38.1290 95.6457 -0.0001 17.4401 0.0001
# 4 0.0002 0.0006 -0.0001 27.1583 0.0001 10.1571
# 5 -6.0606 13.3871 17.4401 0.0001 44.4757 0.0001
# 6 -0.0003 -0.0003 0.0001 10.1571 0.0001 21.9176
#
#
#
# Elastic Compliance Matrix: (Units=1/GPa)
#
#
# Indices 1 2 3 4 5 6 
#
# 1 0.022332 -0.003946 -0.008097 0.000000 0.007406 0.000000
# 2 -0.003946 0.010846 -0.002327 0.000000 -0.002890 0.000000
# 3 -0.008097 -0.002327 0.015587 0.000000 -0.006515 0.000000
# 4 0.000000 0.000000 0.000000 0.044541 0.000000 -0.020641
# 5 0.007406 -0.002890 -0.006515 0.000000 0.026918 0.000000
# 6 0.000000 0.000000 0.000000 -0.020641 0.000000 0.055191
#
#
# Mechanical properties :
#
#
# Convention : Reuss Voigt Hill
#
# Bulk Modulus (GPa) = 49.93593 53.57517 51.75555
# Shear Modulus (GPa) = 23.71590 30.17130 26.94360
#
# Velocity S-wave (km/s) = 3.27255 3.69116 3.48814
# Velocity P-wave (km/s) = 6.06872 6.50842 6.29241
#
# Compressibility (1/GPa) = 0.02002566
#
# Stress axis : x y z
#
# Youngs Moduli (GPa) = 44.77903 92.20350 64.15480
#
# Poissons Ratio (x) = 0.36382 0.51947
# Poissons Ratio (y) = 0.17669 0.14926
# Poissons Ratio (z) = 0.36258 0.21452
#
# Static dielectric constant tensor:
#      x y z
#    x 3.864770 0.000000 0.081130 
#    y 0.000000 4.106000 0.000000 
#    z 0.081130 0.000000 4.064380 
# 
# 
# High freq. dielectric constant tensor:
#      x y z
#    x 1.857250 0.000000 0.007130 
#    y 0.000000 1.879170 0.000000 
#    z 0.007130 0.000000 1.883610 
# 
# From -- ./inp_files/209457.got.cif
#   From: 2010.06.25/outbox.cif.g09.slc.cpg/sg15_105_cif.got.tgz:209457.got - 2010.06.28 07:06:18.
