data_PCOD8152034
_publ_section_title
;
Structure prediction by ZEFSAII (Michael W. Deem and Ramdas Pophale) SiO2 
 PCOD8152034
Probable space group: C 2/C
;
_chemical_formula_sum "Si O2"
_cell_formula_units_Z 52
_cell_length_a 10.944288
_cell_length_b 16.511266
_cell_length_c 13.285413
_cell_angle_alpha 90.000000
_cell_angle_beta 72.909393
_cell_angle_gamma 90.000000
_cell_volume 2294.714690
_symmetry_space_group_name_H-M "C 2/C"
_symmetry_group_IT_number 15
_symmetry_cell_setting 'monoclinic'
loop_
_space_group_symop_operation_xyz
x,y,z
-x,y,1/2-z
-x,-y,-z
x,-y,1/2+z
1/2+x,1/2+y,z
1/2-x,1/2+y,1/2-z
1/2-x,1/2-y,-z
1/2+x,1/2-y,1/2+z
loop_
_atom_site_type_symbol
_atom_site_label
_atom_site_fract_x
_atom_site_fract_y
_atom_site_fract_z
Si Si1 0.500000 0.648799 0.750000
Si Si2 0.646813 0.775304 0.605462
Si Si3 0.654013 0.114504 0.610485
Si Si4 0.596772 0.536961 0.896732
Si Si5 0.000000 0.753596 0.750000
Si Si6 0.307007 0.628296 0.212701
Si Si7 0.584575 0.127074 0.403526
Si Si8 0.000000 0.511563 0.250000
O O1 0.623087 0.704369 0.692943
O O2 0.519665 0.594194 0.841732
O O3 0.750000 0.750000 0.500000
O O4 0.705163 0.852240 0.649232
O O5 0.510705 0.796250 0.586479
O O6 0.805987 0.098328 0.568578
O O7 0.607481 0.200883 0.665709
O O8 0.586399 0.100935 0.519251
O O9 0.619130 0.045602 0.698758
O O10 0.654090 0.464112 0.815640
O O11 0.500000 0.500000 0.000000
O O12 0.928412 0.811267 0.685965
O O13 0.231651 0.642548 0.336216
O O14 0.529761 0.058697 0.344348
#
# Coordination Sequence:
#
# PCOD8152034 Si02
#       8
#     4   8   8   8   4   8   8   4
#     4  12  26  48  74 106 150 186 244 302 354 438
#     4  12  24  47  76 104 140 195 246 297 366 439
#     4  11  26  43  72 106 141 183 241 297 355 425
#     4  12  28  46  72 109 145 193 241 294 368 434
#     4  11  27  46  69 107 144 188 238 297 361 430
#     4  12  24  48  71 100 151 187 237 296 362 431
#     4  12  23  44  74 104 143 187 238 302 360 425
#     4  11  21  46  67 103 138 182 238 287 353 430
#
# _framework density 22.660769999999999
#
# number of rings (size 3 to 8) (size 9 to 14) (size 15 to 20)
#    0.000    0.308    4.615    3.692    4.308    1.846 
#    0.000    0.000    0.000    0.000    0.000    0.000 
#    0.000    0.000    0.000    0.000    0.000    0.000 
#
# Total GULP energy -322294.045130 kJ/mol
# GULP energy per Si atom -12395.924813 kJ/mol
# Density = 2.260919 g / cm^3
# Si number density = 22.660770 Si / 1000 Ang^3
#
#
#
# Elastic Constant Matrix: (Units=GPa)
#
#
# Indices 1 2 3 4 5 6 
#
# 1 112.4678 40.2126 29.9936 0.0000 -1.1809 0.0000
# 2 40.2126 99.3570 26.3972 0.0000 -5.6474 0.0000
# 3 29.9936 26.3972 104.6025 0.0000 -10.0225 0.0000
# 4 0.0000 0.0000 0.0000 2.3837 0.0000 44.1580
# 5 -1.1809 -5.6474 -10.0225 0.0000 49.6113 0.0000
# 6 0.0000 0.0000 0.0000 44.1580 0.0000 -5.1791
#
#
#
# Elastic Compliance Matrix: (Units=1/GPa)
#
#
# Indices 1 2 3 4 5 6 
#
# 1 0.010845 -0.003840 -0.002200 0.000000 -0.000623 0.000000
# 2 -0.003840 0.012171 -0.001883 0.000000 0.000914 0.000000
# 3 -0.002200 -0.001883 0.010851 0.000000 0.001925 0.000000
# 4 0.000000 0.000000 0.000000 0.002639 0.000000 0.022503
# 5 -0.000623 0.000914 0.001925 0.000000 0.020635 0.000000
# 6 0.000000 0.000000 0.000000 0.022503 0.000000 -0.001215
#
#
# Mechanical properties :
#
#
# Convention : Reuss Voigt Hill
#
# Bulk Modulus (GPa) = 55.49388 56.62604 56.05996
# Shear Modulus (GPa) = 64.28508 24.01808 44.15158
#
# Velocity S-wave (km/s) = 5.33198 3.25914 4.41882
# Velocity P-wave (km/s) = 7.90246 6.26143 7.12932
#
# Compressibility (1/GPa) = 0.01802000
#
# Stress axis : x y z
#
# Youngs Moduli (GPa) = 92.21129 82.16224 92.16142
#
# Poissons Ratio (x) = 0.31550 0.20278
# Poissons Ratio (y) = 0.35409 0.17352
# Poissons Ratio (z) = 0.20289 0.15470
#
# Static dielectric constant tensor:
#      x y z
#    x 4.237820 0.000000 -0.145810 
#    y 0.000000 4.268010 0.000000 
#    z -0.145810 0.000000 4.217810 
# 
# 
# High freq. dielectric constant tensor:
#      x y z
#    x 1.899880 0.000000 -0.008300 
#    y 0.000000 1.902400 0.000000 
#    z -0.008300 0.000000 1.894350 
# 
# From -- ./inp_files/144203.got.cif
#   From: 2010.06.25/outbox.cif.g09.slc.cpg/sg15_73_cif.got.tgz:144203.got - 2010.06.28 07:06:18.
