data_PCOD8152840
_publ_section_title
;
Structure prediction by ZEFSAII (Michael W. Deem and Ramdas Pophale) SiO2 
 PCOD8152840
Probable space group: C 2/C
;
_chemical_formula_sum "Si O2"
_cell_formula_units_Z 64
_cell_length_a 15.691671
_cell_length_b 17.522799
_cell_length_c 14.740958
_cell_angle_alpha 90.000000
_cell_angle_beta 51.179328
_cell_angle_gamma 90.000000
_cell_volume 3157.898637
_symmetry_space_group_name_H-M "C 2/C"
_symmetry_group_IT_number 15
_symmetry_cell_setting 'monoclinic'
loop_
_space_group_symop_operation_xyz
x,y,z
-x,y,1/2-z
-x,-y,-z
x,-y,1/2+z
1/2+x,1/2+y,z
1/2-x,1/2+y,1/2-z
1/2-x,1/2-y,-z
1/2+x,1/2-y,1/2+z
loop_
_atom_site_type_symbol
_atom_site_label
_atom_site_fract_x
_atom_site_fract_y
_atom_site_fract_z
Si Si1 0.081363 0.290258 0.777602
Si Si2 0.213570 0.848357 0.239832
Si Si3 0.868809 0.998146 0.944700
Si Si4 0.267425 0.348782 0.069922
Si Si5 0.625183 0.488727 0.771615
Si Si6 0.690622 0.373471 0.880082
Si Si7 0.072007 0.268626 0.120298
Si Si8 0.568989 0.214755 0.954920
O O1 0.121405 0.202465 0.752182
O O2 0.184386 0.346256 0.699859
O O3 0.000000 0.303279 0.750000
O O4 0.013948 0.309591 0.912036
O O5 0.235493 0.815694 0.326151
O O6 0.326454 0.841250 0.108741
O O7 0.173263 0.933592 0.278591
O O8 0.841832 0.988448 0.856283
O O9 0.834942 0.079262 0.010921
O O10 0.996610 0.985633 0.875118
O O11 0.797664 0.937469 0.047868
O O12 0.150368 0.337156 0.100770
O O13 0.360532 0.304589 0.954093
O O14 0.676475 0.419668 0.795215
O O15 0.606916 0.302696 0.936050
O O16 0.000000 0.236768 0.250000
O O17 0.994070 0.301928 0.095635
#
# Coordination Sequence:
#
# PCOD8152840 Si02
#       8
#     8   8   8   8   8   8   8   8
#     4  11  27  44  67  94 131 175 225 269 320 382
#     4  11  23  42  66  96 128 172 220 272 323 383
#     4  11  25  41  66  96 132 168 209 273 333 381
#     4  11  23  39  64  98 133 167 216 270 325 399
#     4  11  25  41  68  98 130 164 216 267 335 385
#     4  11  25  45  68  97 131 171 221 270 324 389
#     4  11  23  38  65  96 134 167 213 262 330 392
#     4  11  24  42  68  95 133 173 220 270 324 387
#
# _framework density 20.266642000000001
#
# number of rings (size 3 to 8) (size 9 to 14) (size 15 to 20)
#    0.000    1.000    3.750    1.875   10.500    1.000 
#    0.000    2.500    0.000    0.000    0.000    0.000 
#    0.000    0.000    0.000    0.000    0.000    0.000 
#
# Total GULP energy -396884.614706 kJ/mol
# GULP energy per Si atom -12402.644210 kJ/mol
# Density = 2.022051 g / cm^3
# Si number density = 20.266642 Si / 1000 Ang^3
#
#
#
# Elastic Constant Matrix: (Units=GPa)
#
#
# Indices 1 2 3 4 5 6 
#
# 1 129.0835 36.3999 38.9956 0.0000 -3.1911 0.0000
# 2 36.3999 83.0391 13.9163 0.0000 -7.5336 0.0000
# 3 38.9956 13.9163 104.6725 0.0000 -4.4510 0.0000
# 4 0.0000 0.0000 0.0000 26.2304 0.0000 -0.2596
# 5 -3.1911 -7.5336 -4.4510 0.0000 35.0328 0.0000
# 6 0.0000 0.0000 0.0000 -0.2596 0.0000 27.2995
#
#
#
# Elastic Compliance Matrix: (Units=1/GPa)
#
#
# Indices 1 2 3 4 5 6 
#
# 1 0.009755 -0.003778 -0.003146 0.000000 -0.000324 0.000000
# 2 -0.003778 0.013994 -0.000341 0.000000 0.002622 0.000000
# 3 -0.003146 -0.000341 0.010814 0.000000 0.001014 0.000000
# 4 0.000000 0.000000 0.000000 0.038127 0.000000 0.000363
# 5 -0.000324 0.002622 0.001014 0.000000 0.029208 0.000000
# 6 0.000000 0.000000 0.000000 0.000363 0.000000 0.036634
#
#
# Mechanical properties :
#
#
# Convention : Reuss Voigt Hill
#
# Bulk Modulus (GPa) = 49.91984 55.04652 52.48318
# Shear Modulus (GPa) = 31.30107 32.87809 32.08958
#
# Velocity S-wave (km/s) = 3.93423 4.03212 3.98347
# Velocity P-wave (km/s) = 6.73220 6.99267 6.86367
#
# Compressibility (1/GPa) = 0.02003211
#
# Stress axis : x y z
#
# Youngs Moduli (GPa) = 102.51638 71.46075 92.47287
#
# Poissons Ratio (x) = 0.26998 0.29087
# Poissons Ratio (y) = 0.38731 0.03158
# Poissons Ratio (z) = 0.32247 0.02440
#
# Static dielectric constant tensor:
#      x y z
#    x 3.829160 0.000000 -0.022520 
#    y 0.000000 3.474870 0.000000 
#    z -0.022520 0.000000 3.783860 
# 
# 
# High freq. dielectric constant tensor:
#      x y z
#    x 1.804200 0.000000 0.002900 
#    y 0.000000 1.775430 0.000000 
#    z 0.002900 0.000000 1.808130 
# 
# From -- ./inp_files/155473.got.cif
#   From: 2010.06.25/outbox.cif.g09.slc.cpg/sg15_78_cif.got.tgz:155473.got - 2010.06.28 07:06:18.
