data_PCOD8152464
_publ_section_title
;
Structure prediction by ZEFSAII (Michael W. Deem and Ramdas Pophale) SiO2 
 PCOD8152464
Probable space group: C 2/C
;
_chemical_formula_sum "Si O2"
_cell_formula_units_Z 36
_cell_length_a 15.180146
_cell_length_b 7.746403
_cell_length_c 22.268485
_cell_angle_alpha 90.000000
_cell_angle_beta 139.986962
_cell_angle_gamma 90.000000
_cell_volume 1683.650537
_symmetry_space_group_name_H-M "C 2/C"
_symmetry_group_IT_number 15
_symmetry_cell_setting 'monoclinic'
loop_
_space_group_symop_operation_xyz
x,y,z
-x,y,1/2-z
-x,-y,-z
x,-y,1/2+z
1/2+x,1/2+y,z
1/2-x,1/2+y,1/2-z
1/2-x,1/2-y,-z
1/2+x,1/2-y,1/2+z
loop_
_atom_site_type_symbol
_atom_site_label
_atom_site_fract_x
_atom_site_fract_y
_atom_site_fract_z
Si Si1 0.433811 0.385227 0.862888
Si Si2 0.500000 0.105042 0.250000
Si Si3 0.790502 0.628099 0.703586
Si Si4 0.037049 0.306086 0.531717
Si Si5 0.906274 0.196228 0.585505
O O1 0.302526 0.509975 0.801364
O O2 0.400913 0.225457 0.802605
O O3 0.562291 0.489962 0.900653
O O4 0.469950 0.319842 0.948104
O O5 0.529198 0.228102 0.320882
O O6 0.631184 0.987247 0.304298
O O7 0.699795 0.767134 0.619086
O O8 0.000000 0.500000 0.500000
O O9 0.980133 0.275700 0.567458
O O10 0.750000 0.250000 0.500000
#
# Coordination Sequence:
#
# PCOD8152464 Si02
#       5
#     8   4   8   8   8
#     4  11  22  42  65  91 123 166 209 253 306 367
#     4  12  24  40  60  94 128 162 204 254 310 366
#     4  11  23  40  63  92 124 162 207 255 307 369
#     4  11  23  41  65  91 122 164 208 253 305 366
#     4  11  24  41  63  90 124 164 204 255 309 364
#
# _framework density 21.382110000000001
#
# number of rings (size 3 to 8) (size 9 to 14) (size 15 to 20)
#    0.000    0.889    0.000   10.667    0.000    4.444 
#    0.000    4.444    0.000    0.000    0.000    0.000 
#    0.000    0.000    0.000    0.000    0.000    0.000 
#
# Total GULP energy -223217.627015 kJ/mol
# GULP energy per Si atom -12400.979279 kJ/mol
# Density = 2.133344 g / cm^3
# Si number density = 21.382110 Si / 1000 Ang^3
#
#
#
# Elastic Constant Matrix: (Units=GPa)
#
#
# Indices 1 2 3 4 5 6 
#
# 1 112.3264 58.3801 62.8902 0.0000 -5.7929 0.0000
# 2 58.3801 120.9965 59.1349 0.0000 -16.2541 0.0000
# 3 62.8902 59.1349 139.8107 0.0000 -21.2015 0.0000
# 4 0.0000 0.0000 0.0000 43.4372 0.0000 7.5093
# 5 -5.7929 -16.2541 -21.2015 0.0000 43.4763 0.0000
# 6 0.0000 0.0000 0.0000 7.5093 0.0000 37.3243
#
#
#
# Elastic Compliance Matrix: (Units=1/GPa)
#
#
# Indices 1 2 3 4 5 6 
#
# 1 0.013782 -0.004725 -0.004525 0.000000 -0.002137 0.000000
# 2 -0.004725 0.012184 -0.002627 0.000000 0.002644 0.000000
# 3 -0.004525 -0.002627 0.010862 0.000000 0.003712 0.000000
# 4 0.000000 0.000000 0.000000 0.023851 0.000000 -0.004799
# 5 -0.002137 0.002644 0.003712 0.000000 0.025515 0.000000
# 6 0.000000 0.000000 0.000000 -0.004799 0.000000 0.027758
#
#
# Mechanical properties :
#
#
# Convention : Reuss Voigt Hill
#
# Bulk Modulus (GPa) = 76.48961 81.54934 79.01948
# Shear Modulus (GPa) = 35.19585 37.69614 36.44600
#
# Velocity S-wave (km/s) = 4.06155 4.20334 4.13305
# Velocity P-wave (km/s) = 7.60561 7.85998 7.73384
#
# Compressibility (1/GPa) = 0.01307367
#
# Stress axis : x y z
#
# Youngs Moduli (GPa) = 72.56023 82.07766 92.06619
#
# Poissons Ratio (x) = 0.38784 0.41658
# Poissons Ratio (y) = 0.34286 0.24183
# Poissons Ratio (z) = 0.32832 0.21559
#
# Static dielectric constant tensor:
#      x y z
#    x 3.991640 0.000000 -0.065680 
#    y 0.000000 3.976180 0.000000 
#    z -0.065680 0.000000 3.883050 
# 
# 
# High freq. dielectric constant tensor:
#      x y z
#    x 1.834690 0.000000 -0.005280 
#    y 0.000000 1.851520 0.000000 
#    z -0.005280 0.000000 1.854450 
# 
# From -- ./inp_files/150278.got.cif
#   From: 2010.06.25/outbox.cif.g09.slc.cpg/sg15_76_cif.got.tgz:150278.got - 2010.06.28 07:06:18.
