data_PCOD8152664
_publ_section_title
;
Structure prediction by ZEFSAII (Michael W. Deem and Ramdas Pophale) SiO2 
 PCOD8152664
Probable space group: C 2/C
;
_chemical_formula_sum "Si O2"
_cell_formula_units_Z 40
_cell_length_a 21.867809
_cell_length_b 16.049553
_cell_length_c 15.748084
_cell_angle_alpha 90.000000
_cell_angle_beta 19.510046
_cell_angle_gamma 90.000000
_cell_volume 1845.891483
_symmetry_space_group_name_H-M "C 2/C"
_symmetry_group_IT_number 15
_symmetry_cell_setting 'monoclinic'
loop_
_space_group_symop_operation_xyz
x,y,z
-x,y,1/2-z
-x,-y,-z
x,-y,1/2+z
1/2+x,1/2+y,z
1/2-x,1/2+y,1/2-z
1/2-x,1/2-y,-z
1/2+x,1/2-y,1/2+z
loop_
_atom_site_type_symbol
_atom_site_label
_atom_site_fract_x
_atom_site_fract_y
_atom_site_fract_z
Si Si1 0.462702 0.075868 0.891470
Si Si2 0.109500 0.220717 0.755079
Si Si3 0.262503 0.851065 0.799303
Si Si4 0.810793 0.035972 0.545853
Si Si5 0.175169 0.940382 0.282928
O O1 0.500000 0.113907 0.750000
O O2 0.649273 0.071449 0.699876
O O3 0.324751 0.137689 0.120673
O O4 0.363131 0.986840 0.011588
O O5 0.250000 0.250000 0.500000
O O6 0.083646 0.298900 0.852105
O O7 0.167371 0.138472 0.731483
O O8 0.919185 0.204293 0.957847
O O9 0.228798 0.939066 0.887691
O O10 0.816940 0.084631 0.627748
O O11 0.000000 0.049280 0.250000
O O12 0.000000 0.000000 0.500000
#
# Coordination Sequence:
#
# PCOD8152664 Si02
#       5
#     8   8   8   8   8
#     4  11  25  43  72  96 137 188 242 290 355 425
#     4  12  26  43  69 102 144 187 226 293 366 415
#     4  11  26  44  64 104 145 176 238 297 351 433
#     4  11  23  43  72 102 136 183 246 294 352 425
#     4  11  22  44  70 100 143 187 235 292 347 432
#
# _framework density 21.669747000000001
#
# number of rings (size 3 to 8) (size 9 to 14) (size 15 to 20)
#    0.000    0.800    4.000    5.400    8.400    0.000 
#    0.000    2.000    0.000    0.000    0.000    0.000 
#    0.000    0.000    0.000    0.000    0.000    0.000 
#
# Total GULP energy -248009.479945 kJ/mol
# GULP energy per Si atom -12400.473997 kJ/mol
# Density = 2.162043 g / cm^3
# Si number density = 21.669747 Si / 1000 Ang^3
#
#
#
# Elastic Constant Matrix: (Units=GPa)
#
#
# Indices 1 2 3 4 5 6 
#
# 1 144.4787 37.2544 49.9375 0.0281 10.7737 -0.0191
# 2 37.2544 78.5623 34.0954 0.0323 11.1642 -0.0236
# 3 49.9375 34.0954 120.8568 0.0359 13.4962 -0.0250
# 4 0.0281 0.0323 0.0359 31.4188 -0.0280 -1.0699
# 5 10.7737 11.1642 13.4962 -0.0280 47.1213 0.0187
# 6 -0.0191 -0.0236 -0.0250 -1.0699 0.0187 32.7478
#
#
#
# Elastic Compliance Matrix: (Units=1/GPa)
#
#
# Indices 1 2 3 4 5 6 
#
# 1 0.008629 -0.002843 -0.002705 -0.000002 -0.000525 0.000001
# 2 -0.002843 0.015696 -0.003007 -0.000012 -0.002207 0.000008
# 3 -0.002705 -0.003007 0.010425 -0.000008 -0.001655 0.000005
# 4 -0.000002 -0.000012 -0.000008 0.031864 0.000024 0.001041
# 5 -0.000525 -0.002207 -0.001655 0.000024 0.022339 -0.000015
# 6 0.000001 0.000008 0.000005 0.001041 -0.000015 0.030570
#
#
# Mechanical properties :
#
#
# Convention : Reuss Voigt Hill
#
# Bulk Modulus (GPa) = 56.68945 65.16358 60.92652
# Shear Modulus (GPa) = 35.08510 37.09829 36.09170
#
# Velocity S-wave (km/s) = 4.02815 4.14210 4.08552
# Velocity P-wave (km/s) = 6.91752 7.28097 7.10157
#
# Compressibility (1/GPa) = 0.01763997
#
# Stress axis : x y z
#
# Youngs Moduli (GPa) = 115.89479 63.71208 95.92528
#
# Poissons Ratio (x) = 0.18116 0.25943
# Poissons Ratio (y) = 0.32953 0.28841
# Poissons Ratio (z) = 0.31344 0.19155
#
# Static dielectric constant tensor:
#      x y z
#    x 4.338620 0.000010 -0.032660 
#    y 0.000010 3.853470 0.000020 
#    z -0.032660 0.000020 4.198920 
# 
# 
# High freq. dielectric constant tensor:
#      x y z
#    x 1.875560 0.000000 -0.003510 
#    y 0.000000 1.826670 0.000000 
#    z -0.003510 0.000000 1.862050 
# 
# From -- ./inp_files/169055.got.cif
#   From: 2010.06.25/outbox.cif.g09.slc.cpg/sg15_85_cif.got.tgz:169055.got - 2010.06.28 07:06:18.
