data_PCOD8152077
_publ_section_title
;
Structure prediction by ZEFSAII (Michael W. Deem and Ramdas Pophale) SiO2 
 PCOD8152077
Probable space group: C 2/C
;
_chemical_formula_sum "Si O2"
_cell_formula_units_Z 64
_cell_length_a 22.233893
_cell_length_b 16.382229
_cell_length_c 10.272583
_cell_angle_alpha 90.000000
_cell_angle_beta 56.360112
_cell_angle_gamma 90.000000
_cell_volume 3115.093383
_symmetry_space_group_name_H-M "C 2/C"
_symmetry_group_IT_number 15
_symmetry_cell_setting 'monoclinic'
loop_
_space_group_symop_operation_xyz
x,y,z
-x,y,1/2-z
-x,-y,-z
x,-y,1/2+z
1/2+x,1/2+y,z
1/2-x,1/2+y,1/2-z
1/2-x,1/2-y,-z
1/2+x,1/2-y,1/2+z
loop_
_atom_site_type_symbol
_atom_site_label
_atom_site_fract_x
_atom_site_fract_y
_atom_site_fract_z
Si Si1 0.826831 0.905970 0.323242
Si Si2 0.293258 0.153022 0.169511
Si Si3 0.074198 0.231134 0.712064
Si Si4 0.205710 0.006737 0.377340
Si Si5 0.056757 0.455760 0.289155
Si Si6 0.296516 0.792675 0.119326
Si Si7 0.800168 0.630018 0.882921
Si Si8 0.555509 0.124932 0.417225
O O1 0.886731 0.834620 0.241065
O O2 0.836541 0.944473 0.457159
O O3 0.745353 0.867951 0.401515
O O4 0.841941 0.971250 0.187670
O O5 0.266236 0.063043 0.239110
O O6 0.258865 0.217013 0.311557
O O7 0.379378 0.158985 0.074002
O O8 0.271659 0.176667 0.046323
O O9 0.131257 0.264107 0.538019
O O10 0.043025 0.311254 0.818615
O O11 0.000000 0.189069 0.750000
O O12 0.238120 0.929973 0.411671
O O13 0.130970 0.420327 0.145205
O O14 0.077977 0.534382 0.346434
O O15 0.000000 0.486078 0.250000
O O16 0.019317 0.382654 0.415102
O O17 0.320613 0.812642 0.237875
#
# Coordination Sequence:
#
# PCOD8152077 Si02
#       8
#     8   8   8   8   8   8   8   8
#     4  11  23  42  67  96 123 165 209 270 318 377
#     4  12  20  38  63  90 125 162 215 263 313 367
#     4  12  24  42  65  91 124 165 211 262 316 382
#     4  11  22  38  64  92 124 158 217 264 320 368
#     4  11  22  36  54  86 131 173 199 243 309 380
#     4  11  24  40  66  92 127 163 215 262 314 375
#     4  11  23  36  58  93 126 166 207 263 314 371
#     4  11  23  36  58  90 125 168 211 245 304 381
#
# _framework density 20.545131000000001
#
# number of rings (size 3 to 8) (size 9 to 14) (size 15 to 20)
#    0.000    0.750    6.250    2.625    0.000    1.000 
#    0.000    0.625    0.000    0.000    0.000    0.000 
#    0.000    0.000    0.000    0.000    0.000    0.000 
#
# Total GULP energy -396604.516462 kJ/mol
# GULP energy per Si atom -12393.891139 kJ/mol
# Density = 2.049837 g / cm^3
# Si number density = 20.545131 Si / 1000 Ang^3
#
#
#
# Elastic Constant Matrix: (Units=GPa)
#
#
# Indices 1 2 3 4 5 6 
#
# 1 87.5853 21.0339 30.2276 0.0000 6.7548 0.0000
# 2 21.0339 61.2784 26.9908 0.0000 3.7607 0.0000
# 3 30.2276 26.9908 78.4046 0.0000 16.7335 0.0000
# 4 0.0000 0.0000 0.0000 36.4252 0.0000 6.7882
# 5 6.7548 3.7607 16.7335 0.0000 33.5270 0.0000
# 6 0.0000 0.0000 0.0000 6.7882 0.0000 18.8487
#
#
#
# Elastic Compliance Matrix: (Units=1/GPa)
#
#
# Indices 1 2 3 4 5 6 
#
# 1 0.013561 -0.002785 -0.004201 0.000000 -0.000323 0.000000
# 2 -0.002785 0.019857 -0.006051 0.000000 0.001354 0.000000
# 3 -0.004201 -0.006051 0.018055 0.000000 -0.007486 0.000000
# 4 0.000000 0.000000 0.000000 0.029429 0.000000 -0.010598
# 5 -0.000323 0.001354 -0.007486 0.000000 0.033476 0.000000
# 6 0.000000 0.000000 0.000000 -0.010598 0.000000 0.056871
#
#
# Mechanical properties :
#
#
# Convention : Reuss Voigt Hill
#
# Bulk Modulus (GPa) = 39.37053 42.64144 41.00599
# Shear Modulus (GPa) = 24.29689 27.69459 25.99574
#
# Velocity S-wave (km/s) = 3.44264 3.67548 3.56096
# Velocity P-wave (km/s) = 5.91666 6.22995 6.07533
#
# Compressibility (1/GPa) = 0.02539971
#
# Stress axis : x y z
#
# Youngs Moduli (GPa) = 73.74177 50.36000 55.38756
#
# Poissons Ratio (x) = 0.14024 0.23266
# Poissons Ratio (y) = 0.20535 0.33516
# Poissons Ratio (z) = 0.30975 0.30473
#
# Static dielectric constant tensor:
#      x y z
#    x 3.763480 0.000000 0.272470 
#    y 0.000000 3.781390 0.000000 
#    z 0.272470 0.000000 3.711780 
# 
# 
# High freq. dielectric constant tensor:
#      x y z
#    x 1.801230 0.000000 0.021490 
#    y 0.000000 1.798760 0.000000 
#    z 0.021490 0.000000 1.792560 
# 
# From -- ./inp_files/113655.got.cif
#   From: 2010.06.25/outbox.cif.g09.slc.cpg/sg15_57_cif.got.tgz:113655.got - 2010.06.28 07:06:18.
