data_PCOD8152491
_publ_section_title
;
Structure prediction by ZEFSAII (Michael W. Deem and Ramdas Pophale) SiO2 
 PCOD8152491
Probable space group: C 2/C
;
_chemical_formula_sum "Si O2"
_cell_formula_units_Z 64
_cell_length_a 28.656062
_cell_length_b 8.608154
_cell_length_c 15.017666
_cell_angle_alpha 90.000000
_cell_angle_beta 129.687017
_cell_angle_gamma 90.000000
_cell_volume 2850.772694
_symmetry_space_group_name_H-M "C 2/C"
_symmetry_group_IT_number 15
_symmetry_cell_setting 'monoclinic'
loop_
_space_group_symop_operation_xyz
x,y,z
-x,y,1/2-z
-x,-y,-z
x,-y,1/2+z
1/2+x,1/2+y,z
1/2-x,1/2+y,1/2-z
1/2-x,1/2-y,-z
1/2+x,1/2-y,1/2+z
loop_
_atom_site_type_symbol
_atom_site_label
_atom_site_fract_x
_atom_site_fract_y
_atom_site_fract_z
Si Si1 0.133608 0.517790 0.553255
Si Si2 0.271929 0.270937 0.826758
Si Si3 0.728978 0.831566 0.590616
Si Si4 0.455749 0.577822 0.113295
Si Si5 0.020254 0.276673 0.874387
Si Si6 0.320326 0.408759 0.181137
Si Si7 0.075208 0.745308 0.092493
Si Si8 0.675025 0.526960 0.496098
O O1 0.178527 0.647938 0.647532
O O2 0.168481 0.439697 0.509759
O O3 0.074007 0.602280 0.447606
O O4 0.115671 0.398480 0.609442
O O5 0.224313 0.291611 0.689953
O O6 0.233154 0.211925 0.863953
O O7 0.302466 0.434859 0.889596
O O8 0.722793 0.667411 0.529133
O O9 0.793910 0.915390 0.658188
O O10 0.500000 0.619780 0.250000
O O11 0.460427 0.401006 0.087213
O O12 0.387533 0.614102 0.060578
O O13 0.465981 0.685961 0.038763
O O14 0.000000 0.300459 0.750000
O O15 0.968396 0.317119 0.882775
O O16 0.380664 0.379584 0.312642
O O17 0.335619 0.400219 0.094732
#
# Coordination Sequence:
#
# PCOD8152491 Si02
#       8
#     8   8   8   8   8   8   8   8
#     4  11  23  42  66  98 131 181 227 278 338 403
#     4  11  22  42  68  94 136 178 224 274 342 412
#     4  11  23  43  67  98 138 175 223 280 343 408
#     4  11  23  44  70  97 133 182 231 287 343 408
#     4  11  25  45  70  98 135 180 232 287 344 405
#     4  11  24  39  68 105 133 175 222 282 348 411
#     4  12  24  46  70 103 137 179 234 282 348 412
#     4  12  22  43  67  98 138 174 229 281 342 413
#
# _framework density 22.450054000000002
#
# number of rings (size 3 to 8) (size 9 to 14) (size 15 to 20)
#    0.000    0.750    3.750    5.250    0.000    0.500 
#    0.000    1.250    0.000    0.000    0.000    0.000 
#    0.000    0.000    0.000    0.000    0.000    0.000 
#
# Total GULP energy -396659.458193 kJ/mol
# GULP energy per Si atom -12395.608069 kJ/mol
# Density = 2.239896 g / cm^3
# Si number density = 22.450054 Si / 1000 Ang^3
#
#
#
# Elastic Constant Matrix: (Units=GPa)
#
#
# Indices 1 2 3 4 5 6 
#
# 1 48.2322 3.3673 26.2825 0.0000 4.0396 0.0000
# 2 3.3673 81.3963 43.4764 0.0000 9.5631 0.0000
# 3 26.2825 43.4764 109.9512 0.0000 4.5553 0.0000
# 4 0.0000 0.0000 0.0000 -50.2970 0.0000 -7.4202
# 5 4.0396 9.5631 4.5553 0.0000 30.3359 0.0000
# 6 0.0000 0.0000 0.0000 -7.4202 0.0000 29.7492
#
#
#
# Elastic Compliance Matrix: (Units=1/GPa)
#
#
# Indices 1 2 3 4 5 6 
#
# 1 0.024578 0.003076 -0.006959 0.000000 -0.003198 0.000000
# 2 0.003076 0.016460 -0.007056 0.000000 -0.004539 0.000000
# 3 -0.006959 -0.007056 0.013502 0.000000 0.001124 0.000000
# 4 0.000000 0.000000 0.000000 -0.019176 0.000000 -0.004783
# 5 -0.003198 -0.004539 0.001124 0.000000 0.034652 0.000000
# 6 0.000000 0.000000 0.000000 -0.004783 0.000000 0.032421
#
#
# Mechanical properties :
#
#
# Convention : Reuss Voigt Hill
#
# Bulk Modulus (GPa) = 30.61609 42.87021 36.74315
# Shear Modulus (GPa) = 36.98145 13.05452 25.01798
#
# Velocity S-wave (km/s) = 4.06307 2.41403 3.34186
# Velocity P-wave (km/s) = 5.97314 5.18723 5.59400
#
# Compressibility (1/GPa) = 0.03266256
#
# Stress axis : x y z
#
# Youngs Moduli (GPa) = 40.68664 60.75188 74.06402
#
# Poissons Ratio (x) = -0.18686 0.51540
# Poissons Ratio (y) = -0.12515 0.52259
# Poissons Ratio (z) = 0.28313 0.42866
#
# Static dielectric constant tensor:
#      x y z
#    x 4.102830 0.000000 0.017150 
#    y 0.000000 4.109300 0.000000 
#    z 0.017150 0.000000 3.977160 
# 
# 
# High freq. dielectric constant tensor:
#      x y z
#    x 1.888860 0.000000 0.003620 
#    y 0.000000 1.886630 0.000000 
#    z 0.003620 0.000000 1.878020 
# 
# From -- ./inp_files/181158.got.cif
#   From: 2010.06.25/outbox.cif.g09.slc.cpg/sg15_91_cif.got.tgz:181158.got - 2010.06.28 07:06:18.
