data_PCOD8152693
_publ_section_title
;
Structure prediction by ZEFSAII (Michael W. Deem and Ramdas Pophale) SiO2 
 PCOD8152693
Probable space group: C 2/C
;
_chemical_formula_sum "Si O2"
_cell_formula_units_Z 48
_cell_length_a 7.914577
_cell_length_b 26.018945
_cell_length_c 12.198344
_cell_angle_alpha 90.000000
_cell_angle_beta 126.727905
_cell_angle_gamma 90.000000
_cell_volume 2013.322691
_symmetry_space_group_name_H-M "C 2/C"
_symmetry_group_IT_number 15
_symmetry_cell_setting 'monoclinic'
loop_
_space_group_symop_operation_xyz
x,y,z
-x,y,1/2-z
-x,-y,-z
x,-y,1/2+z
1/2+x,1/2+y,z
1/2-x,1/2+y,1/2-z
1/2-x,1/2-y,-z
1/2+x,1/2-y,1/2+z
loop_
_atom_site_type_symbol
_atom_site_label
_atom_site_fract_x
_atom_site_fract_y
_atom_site_fract_z
Si Si1 0.441220 0.876903 0.528856
Si Si2 0.109899 0.274883 0.677112
Si Si3 0.322833 0.037868 0.272626
Si Si4 0.189062 0.423301 0.237976
Si Si5 0.055073 0.891490 0.532858
Si Si6 0.958732 0.781845 0.551904
O O1 0.588389 0.827026 0.597616
O O2 0.591132 0.926793 0.595970
O O3 0.336443 0.881218 0.368279
O O4 0.271368 0.872523 0.560583
O O5 0.001647 0.230225 0.562238
O O6 0.356244 0.263175 0.795098
O O7 0.000000 0.279199 0.750000
O O8 0.500000 0.033973 0.250000
O O9 0.284302 0.980483 0.302742
O O10 0.109159 0.063271 0.140410
O O11 0.406935 0.413390 0.382415
O O12 0.000000 0.417913 0.250000
O O13 0.944269 0.843827 0.553389
O O14 0.750000 0.750000 0.500000
#
# Coordination Sequence:
#
# PCOD8152693 Si02
#       6
#     8   8   8   8   8   8
#     4  11  22  44  73  97 139 191 245 287 352 430
#     4  12  25  48  74 104 133 189 242 289 354 434
#     4   9  19  43  70 101 140 185 241 292 355 426
#     4  11  25  39  67 108 146 184 234 299 359 422
#     4  11  23  44  71  98 142 189 235 295 355 429
#     4  12  28  46  73 105 145 180 237 302 367 423
#
# _framework density 23.841186
#
# number of rings (size 3 to 8) (size 9 to 14) (size 15 to 20)
#    0.000    1.000    3.333    3.000    4.667    0.000 
#    0.000    2.500    0.000    0.000    0.000    0.000 
#    0.000    0.000    0.000    0.000    0.000    0.000 
#
# Total GULP energy -297608.360638 kJ/mol
# GULP energy per Si atom -12400.348360 kJ/mol
# Density = 2.378692 g / cm^3
# Si number density = 23.841186 Si / 1000 Ang^3
#
#
#
# Elastic Constant Matrix: (Units=GPa)
#
#
# Indices 1 2 3 4 5 6 
#
# 1 52.1741 24.9687 14.2769 0.0000 4.3677 0.0000
# 2 24.9687 99.0419 36.1656 0.0000 9.1060 0.0000
# 3 14.2769 36.1656 152.4133 0.0000 19.7062 0.0000
# 4 0.0000 0.0000 0.0000 53.4328 0.0000 -1.1400
# 5 4.3677 9.1060 19.7062 0.0000 34.0678 0.0000
# 6 0.0000 0.0000 0.0000 -1.1400 0.0000 27.7674
#
#
#
# Elastic Compliance Matrix: (Units=1/GPa)
#
#
# Indices 1 2 3 4 5 6 
#
# 1 0.021920 -0.005179 -0.000692 0.000000 -0.001026 0.000000
# 2 -0.005179 0.012355 -0.002276 0.000000 -0.001322 0.000000
# 3 -0.000692 -0.002276 0.007648 0.000000 -0.003727 0.000000
# 4 0.000000 0.000000 0.000000 0.018732 0.000000 0.000769
# 5 -0.001026 -0.001322 -0.003727 0.000000 0.031994 0.000000
# 6 0.000000 0.000000 0.000000 0.000769 0.000000 0.036045
#
#
# Mechanical properties :
#
#
# Convention : Reuss Voigt Hill
#
# Bulk Modulus (GPa) = 39.01694 50.49463 44.75578
# Shear Modulus (GPa) = 32.56694 38.26813 35.41753
#
# Velocity S-wave (km/s) = 3.69995 4.01075 3.85848
# Velocity P-wave (km/s) = 5.88674 6.53251 6.21801
#
# Compressibility (1/GPa) = 0.02562989
#
# Stress axis : x y z
#
# Youngs Moduli (GPa) = 45.61962 80.93927 130.75790
#
# Poissons Ratio (x) = 0.41921 0.09045
# Poissons Ratio (y) = 0.23628 0.29755
# Poissons Ratio (z) = 0.03156 0.18418
#
# Static dielectric constant tensor:
#      x y z
#    x 3.989910 0.000000 0.032470 
#    y 0.000000 4.507200 0.000000 
#    z 0.032470 0.000000 4.794560 
# 
# 
# High freq. dielectric constant tensor:
#      x y z
#    x 1.921910 0.000000 0.000910 
#    y 0.000000 1.948790 0.000000 
#    z 0.000910 0.000000 1.966600 
# 
# From -- ./inp_files/139050.got.cif
#   From: 2010.06.25/outbox.cif.g09.slc.cpg/sg15_70_cif.got.tgz:139050.got - 2010.06.28 07:06:18.
