data_PCOD8152124
_publ_section_title
;
Structure prediction by ZEFSAII (Michael W. Deem and Ramdas Pophale) SiO2 
 PCOD8152124
Probable space group: C 2/C
;
_chemical_formula_sum "Si O2"
_cell_formula_units_Z 48
_cell_length_a 21.394034
_cell_length_b 11.978180
_cell_length_c 15.432556
_cell_angle_alpha 90.000000
_cell_angle_beta 39.254516
_cell_angle_gamma 90.000000
_cell_volume 2502.446280
_symmetry_space_group_name_H-M "C 2/C"
_symmetry_group_IT_number 15
_symmetry_cell_setting 'monoclinic'
loop_
_space_group_symop_operation_xyz
x,y,z
-x,y,1/2-z
-x,-y,-z
x,-y,1/2+z
1/2+x,1/2+y,z
1/2-x,1/2+y,1/2-z
1/2-x,1/2-y,-z
1/2+x,1/2-y,1/2+z
loop_
_atom_site_type_symbol
_atom_site_label
_atom_site_fract_x
_atom_site_fract_y
_atom_site_fract_z
Si Si1 0.139826 0.792424 0.931172
Si Si2 0.208510 0.364025 0.862380
Si Si3 0.725450 0.397837 0.153127
Si Si4 0.063834 0.225239 0.928889
Si Si5 0.583351 0.293387 0.596830
Si Si6 0.887862 0.040604 0.892885
O O1 0.189652 0.813513 0.784179
O O2 0.193647 0.699585 0.931191
O O3 0.139721 0.907429 0.984868
O O4 0.029233 0.749913 0.031486
O O5 0.218984 0.493016 0.871578
O O6 0.125730 0.341241 0.875752
O O7 0.173432 0.294951 0.986054
O O8 0.632238 0.370285 0.313546
O O9 0.688447 0.412072 0.095300
O O10 0.032704 0.179563 0.057720
O O11 0.500000 0.242267 0.750000
O O12 0.625977 0.407373 0.590999
O O13 0.000000 0.073982 0.750000
#
# Coordination Sequence:
#
# PCOD8152124 Si02
#       6
#     8   8   8   8   8   8
#     4  11  22  39  65  89 124 164 203 252 296 368
#     4   9  23  39  62  93 121 161 207 246 306 363
#     4  11  22  40  62  92 121 164 202 247 308 364
#     4   9  21  41  61  90 123 155 204 253 303 353
#     4   9  21  41  60  94 121 158 200 257 304 347
#     4  11  22  37  65  91 125 158 205 254 297 356
#
# _framework density 19.181231
#
# number of rings (size 3 to 8) (size 9 to 14) (size 15 to 20)
#    1.000    1.000    1.667    1.500    4.667    2.667 
#    0.000    0.833    0.000    0.000    0.000    0.000 
#    0.000    0.000    0.000    0.000    0.000    0.000 
#
# Total GULP energy -297454.666815 kJ/mol
# GULP energy per Si atom -12393.944451 kJ/mol
# Density = 1.913757 g / cm^3
# Si number density = 19.181231 Si / 1000 Ang^3
#
#
#
# Elastic Constant Matrix: (Units=GPa)
#
#
# Indices 1 2 3 4 5 6 
#
# 1 73.4423 19.4164 36.9377 0.0000 -5.1785 0.0000
# 2 19.4164 85.5923 51.4576 0.0000 -12.4398 0.0000
# 3 36.9377 51.4576 129.3757 0.0000 0.3968 0.0000
# 4 0.0000 0.0000 0.0000 27.3277 0.0000 2.7760
# 5 -5.1785 -12.4398 0.3968 0.0000 26.6654 0.0000
# 6 0.0000 0.0000 0.0000 2.7760 0.0000 23.6729
#
#
#
# Elastic Compliance Matrix: (Units=1/GPa)
#
#
# Indices 1 2 3 4 5 6 
#
# 1 0.016191 -0.000609 -0.004390 0.000000 0.002926 0.000000
# 2 -0.000609 0.016922 -0.006581 0.000000 0.007874 0.000000
# 3 -0.004390 -0.006581 0.011613 0.000000 -0.004095 0.000000
# 4 0.000000 0.000000 0.000000 0.037034 0.000000 -0.004343
# 5 0.002926 0.007874 -0.004095 0.000000 0.041804 0.000000
# 6 0.000000 0.000000 0.000000 -0.004343 0.000000 0.042752
#
#
# Mechanical properties :
#
#
# Convention : Reuss Voigt Hill
#
# Bulk Modulus (GPa) = 46.36587 56.00373 51.18480
# Shear Modulus (GPa) = 25.42412 27.57311 26.49862
#
# Velocity S-wave (km/s) = 3.64465 3.79556 3.72087
# Velocity P-wave (km/s) = 6.47582 6.96196 6.72329
#
# Compressibility (1/GPa) = 0.02156759
#
# Stress axis : x y z
#
# Youngs Moduli (GPa) = 61.76245 59.09388 86.11241
#
# Poissons Ratio (x) = 0.03597 0.37799
# Poissons Ratio (y) = 0.03760 0.56670
# Poissons Ratio (z) = 0.27111 0.38889
#
# Static dielectric constant tensor:
#      x y z
#    x 3.372810 0.000000 0.023620 
#    y 0.000000 3.266530 0.000000 
#    z 0.023620 0.000000 3.552780 
# 
# 
# High freq. dielectric constant tensor:
#      x y z
#    x 1.739860 0.000000 0.002390 
#    y 0.000000 1.730040 0.000000 
#    z 0.002390 0.000000 1.750420 
# 
# From -- ./inp_files/218927.got.cif
#   From: 2010.06.25/outbox.cif.g09.slc.cpg/sg15_110_cif.got.tgz:218927.got - 2010.06.28 07:06:18.
