data_PCOD8152929
_publ_section_title
;
Structure prediction by ZEFSAII (Michael W. Deem and Ramdas Pophale) SiO2 
 PCOD8152929
Probable space group: C 2/C
;
_chemical_formula_sum "Si O2"
_cell_formula_units_Z 40
_cell_length_a 22.615582
_cell_length_b 8.582636
_cell_length_c 8.552890
_cell_angle_alpha 90.000000
_cell_angle_beta 100.497517
_cell_angle_gamma 90.000000
_cell_volume 1632.341265
_symmetry_space_group_name_H-M "C 2/C"
_symmetry_group_IT_number 15
_symmetry_cell_setting 'monoclinic'
loop_
_space_group_symop_operation_xyz
x,y,z
-x,y,1/2-z
-x,-y,-z
x,-y,1/2+z
1/2+x,1/2+y,z
1/2-x,1/2+y,1/2-z
1/2-x,1/2-y,-z
1/2+x,1/2-y,1/2+z
loop_
_atom_site_type_symbol
_atom_site_label
_atom_site_fract_x
_atom_site_fract_y
_atom_site_fract_z
Si Si1 0.344735 0.960142 0.053701
Si Si2 0.834106 0.187322 0.268283
Si Si3 0.375613 0.773262 0.769931
Si Si4 0.783335 0.922677 0.064291
Si Si5 0.046402 0.026572 0.154327
O O1 0.327253 0.862602 0.201819
O O2 0.387639 0.098921 0.138577
O O3 0.377917 0.852260 0.942581
O O4 0.286924 0.041710 0.946256
O O5 0.790923 0.148654 0.393815
O O6 0.901701 0.151066 0.359677
O O7 0.819562 0.082920 0.107547
O O8 0.308966 0.698272 0.707088
O O9 0.425447 0.639319 0.778562
O O10 0.000000 0.104693 0.250000
O O11 0.000000 0.000000 0.000000
#
# Coordination Sequence:
#
# PCOD8152929 Si02
#       5
#     8   8   8   8   8
#     4  12  24  42  65  97 135 167 203 264 317 374
#     4  11  23  41  66  97 126 169 218 256 311 384
#     4  11  25  43  65  98 129 168 216 257 314 384
#     4  11  23  41  63  95 135 172 205 248 313 392
#     4  11  23  45  69  89 120 166 216 269 317 372
#
# _framework density 24.504681000000001
#
# number of rings (size 3 to 8) (size 9 to 14) (size 15 to 20)
#    0.000    0.800    0.000    9.600    0.000    4.800 
#    0.000    5.000    0.000    0.000    0.000    0.000 
#    0.000    0.000    0.000    0.000    0.000    0.000 
#
# Total GULP energy -247812.496154 kJ/mol
# GULP energy per Si atom -12390.624808 kJ/mol
# Density = 2.444891 g / cm^3
# Si number density = 24.504681 Si / 1000 Ang^3
#
#
#
# Elastic Constant Matrix: (Units=GPa)
#
#
# Indices 1 2 3 4 5 6 
#
# 1 52.7594 -11.5134 10.0348 0.0000 9.8028 0.0000
# 2 -11.5134 100.8005 15.6550 0.0000 16.8973 0.0000
# 3 10.0348 15.6550 88.7167 0.0000 16.1860 0.0000
# 4 0.0000 0.0000 0.0000 47.7129 0.0000 1.4835
# 5 9.8028 16.8973 16.1860 0.0000 41.0800 0.0000
# 6 0.0000 0.0000 0.0000 1.4835 0.0000 12.9936
#
#
#
# Elastic Compliance Matrix: (Units=1/GPa)
#
#
# Indices 1 2 3 4 5 6 
#
# 1 0.021220 0.003706 -0.001996 0.000000 -0.005802 0.000000
# 2 0.003706 0.011415 -0.001525 0.000000 -0.004979 0.000000
# 3 -0.001996 -0.001525 0.012461 0.000000 -0.003806 0.000000
# 4 0.000000 0.000000 0.000000 0.021033 0.000000 -0.002401
# 5 -0.005802 -0.004979 -0.003806 0.000000 0.029275 0.000000
# 6 0.000000 0.000000 0.000000 -0.002401 0.000000 0.077235
#
#
# Mechanical properties :
#
#
# Convention : Reuss Voigt Hill
#
# Bulk Modulus (GPa) = 21.99366 30.06994 26.03180
# Shear Modulus (GPa) = 26.67727 35.56398 31.12063
#
# Velocity S-wave (km/s) = 3.30306 3.81374 3.56755
# Velocity P-wave (km/s) = 4.85198 5.62944 5.25511
#
# Compressibility (1/GPa) = 0.04546765
#
# Stress axis : x y z
#
# Youngs Moduli (GPa) = 47.12453 87.60083 80.24943
#
# Poissons Ratio (x) = -0.32468 0.16016
# Poissons Ratio (y) = -0.17466 0.12240
# Poissons Ratio (z) = 0.09405 0.13361
#
# Static dielectric constant tensor:
#      x y z
#    x 4.156410 0.000000 0.884640 
#    y 0.000000 5.111210 0.000000 
#    z 0.884640 0.000000 6.247280 
# 
# 
# High freq. dielectric constant tensor:
#      x y z
#    x 1.935160 0.000000 0.009590 
#    y 0.000000 1.992680 0.000000 
#    z 0.009590 0.000000 1.996230 
# 
# From -- ./inp_files/59955.got.cif
#   From: 2010.06.25/outbox.cif.g09.slc.cpg/sg15_30_cif.got.tgz:59955.got - 2010.06.28 07:06:18.
