data_PCOD8152524
_publ_section_title
;
Structure prediction by ZEFSAII (Michael W. Deem and Ramdas Pophale) SiO2 
 PCOD8152524
Probable space group: C 2/C
;
_chemical_formula_sum "Si O2"
_cell_formula_units_Z 40
_cell_length_a 21.725743
_cell_length_b 9.463316
_cell_length_c 11.157785
_cell_angle_alpha 90.000000
_cell_angle_beta 140.834648
_cell_angle_gamma 90.000000
_cell_volume 1448.808452
_symmetry_space_group_name_H-M "C 2/C"
_symmetry_group_IT_number 15
_symmetry_cell_setting 'monoclinic'
loop_
_space_group_symop_operation_xyz
x,y,z
-x,y,1/2-z
-x,-y,-z
x,-y,1/2+z
1/2+x,1/2+y,z
1/2-x,1/2+y,1/2-z
1/2-x,1/2-y,-z
1/2+x,1/2-y,1/2+z
loop_
_atom_site_type_symbol
_atom_site_label
_atom_site_fract_x
_atom_site_fract_y
_atom_site_fract_z
Si Si1 0.131361 0.262380 0.655550
Si Si2 0.864438 0.949211 0.134672
Si Si3 0.000000 0.168018 0.250000
Si Si4 0.845156 0.733092 0.911511
Si Si5 0.654291 0.942614 0.302675
Si Si6 0.000000 0.477899 0.750000
O O1 0.094261 0.173437 0.714802
O O2 0.073012 0.255743 0.443871
O O3 0.238788 0.197327 0.802153
O O4 0.124004 0.428120 0.670627
O O5 0.867284 0.888735 0.000107
O O6 0.758883 0.010672 0.014497
O O7 0.939589 0.075776 0.253679
O O8 0.839301 0.708611 0.758259
O O9 0.925544 0.621621 0.069786
O O10 0.568042 0.921050 0.269219
#
# Coordination Sequence:
#
# PCOD8152524 Si02
#       6
#     8   8   4   8   8   4
#     4  11  23  45  71 105 150 189 243 307 358 433
#     4  11  22  45  73 103 147 200 239 294 371 434
#     4  12  25  43  78 104 140 191 255 302 358 430
#     4  11  22  42  71 106 143 193 239 299 356 441
#     4  11  23  42  73 109 147 189 247 294 364 435
#     4  12  21  41  72 100 144 197 233 290 364 434
#
# _framework density 27.608893999999999
#
# number of rings (size 3 to 8) (size 9 to 14) (size 15 to 20)
#    0.000    0.800    6.000    3.000    0.000    0.800 
#    0.000    0.000    0.000    6.000    0.000    0.000 
#    0.000    0.000    0.000    0.000    0.000    0.000 
#
# Total GULP energy -247826.255306 kJ/mol
# GULP energy per Si atom -12391.312765 kJ/mol
# Density = 2.754606 g / cm^3
# Si number density = 27.608894 Si / 1000 Ang^3
#
#
#
# Elastic Constant Matrix: (Units=GPa)
#
#
# Indices 1 2 3 4 5 6 
#
# 1 142.0458 29.8983 12.8896 0.0000 19.6690 0.0000
# 2 29.8983 59.7615 24.9662 0.0000 7.2904 0.0000
# 3 12.8896 24.9662 101.4173 0.0000 -1.0832 0.0000
# 4 0.0000 0.0000 0.0000 14.0722 0.0000 -1.4016
# 5 19.6690 7.2904 -1.0832 0.0000 36.7924 0.0000
# 6 0.0000 0.0000 0.0000 -1.4016 0.0000 139.6174
#
#
#
# Elastic Compliance Matrix: (Units=1/GPa)
#
#
# Indices 1 2 3 4 5 6 
#
# 1 0.008341 -0.003630 -0.000207 0.000000 -0.003746 0.000000
# 2 -0.003630 0.020787 -0.004681 0.000000 -0.002316 0.000000
# 3 -0.000207 -0.004681 0.011053 0.000000 0.001363 0.000000
# 4 0.000000 0.000000 0.000000 0.071133 0.000000 0.000714
# 5 -0.003746 -0.002316 0.001363 0.000000 0.029681 0.000000
# 6 0.000000 0.000000 0.000000 0.000714 0.000000 0.007170
#
#
# Mechanical properties :
#
#
# Convention : Reuss Voigt Hill
#
# Bulk Modulus (GPa) = 43.20079 48.74809 45.97444
# Shear Modulus (GPa) = 28.91579 53.79445 41.35512
#
# Velocity S-wave (km/s) = 3.23977 4.41891 3.87446
# Velocity P-wave (km/s) = 5.44758 6.61292 6.05834
#
# Compressibility (1/GPa) = 0.02314773
#
# Stress axis : x y z
#
# Youngs Moduli (GPa) = 119.88275 48.10669 90.47064
#
# Poissons Ratio (x) = 0.17462 0.01869
# Poissons Ratio (y) = 0.43516 0.42346
# Poissons Ratio (z) = 0.02477 0.22517
#
# Static dielectric constant tensor:
#      x y z
#    x 5.225740 0.000000 0.203580 
#    y 0.000000 4.833400 0.000000 
#    z 0.203580 0.000000 5.203620 
# 
# 
# High freq. dielectric constant tensor:
#      x y z
#    x 2.113950 0.000000 0.014280 
#    y 0.000000 2.110610 0.000000 
#    z 0.014280 0.000000 2.127220 
# 
# From -- ./inp_files/111897.got.cif
#   From: 2010.06.25/outbox.cif.g09.slc.cpg/sg15_56_cif.got.tgz:111897.got - 2010.06.28 07:06:18.
