data_PCOD8152713
_publ_section_title
;
Structure prediction by ZEFSAII (Michael W. Deem and Ramdas Pophale) SiO2 
 PCOD8152713
Probable space group: C 2/C
;
_chemical_formula_sum "Si O2"
_cell_formula_units_Z 56
_cell_length_a 17.678322
_cell_length_b 16.734563
_cell_length_c 8.942209
_cell_angle_alpha 90.000000
_cell_angle_beta 115.794206
_cell_angle_gamma 90.000000
_cell_volume 2381.868413
_symmetry_space_group_name_H-M "C 2/C"
_symmetry_group_IT_number 15
_symmetry_cell_setting 'monoclinic'
loop_
_space_group_symop_operation_xyz
x,y,z
-x,y,1/2-z
-x,-y,-z
x,-y,1/2+z
1/2+x,1/2+y,z
1/2-x,1/2+y,1/2-z
1/2-x,1/2-y,-z
1/2+x,1/2-y,1/2+z
loop_
_atom_site_type_symbol
_atom_site_label
_atom_site_fract_x
_atom_site_fract_y
_atom_site_fract_z
Si Si1 0.949603 0.357539 0.934616
Si Si2 0.589360 0.690992 0.483338
Si Si3 0.278848 0.185023 0.733740
Si Si4 0.877095 0.385759 0.566489
Si Si5 0.838786 0.136182 0.244125
Si Si6 0.975567 0.079834 0.559294
Si Si7 0.823093 0.437972 0.023976
O O1 0.941203 0.282684 0.040901
O O2 0.903435 0.337880 0.737773
O O3 0.044029 0.387547 0.981655
O O4 0.899868 0.427134 0.975499
O O5 0.681114 0.675600 0.626825
O O6 0.587069 0.648955 0.316990
O O7 0.527979 0.653331 0.548317
O O8 0.298312 0.276842 0.718902
O O9 0.328281 0.123518 0.667198
O O10 0.302997 0.163786 0.923960
O O11 0.838523 0.470689 0.586072
O O12 0.878766 0.102533 0.433212
O O13 0.767442 0.072851 0.134587
O O14 0.000000 0.067287 0.750000
O O15 0.000000 0.000000 0.500000
#
# Coordination Sequence:
#
# PCOD8152713 Si02
#       7
#     8   8   8   8   8   8   8
#     4  11  23  44  63  98 147 183 232 284 356 429
#     4  11  23  45  72  99 142 186 236 289 348 426
#     4  11  23  44  70 103 136 189 240 291 351 417
#     4  11  26  37  66 102 143 181 234 295 356 418
#     4  11  23  47  75 100 141 187 242 289 352 420
#     4  12  29  49  73 106 140 182 233 296 357 416
#     4  11  22  45  68 100 137 187 237 292 353 418
#
# _framework density 23.510954000000002
#
# number of rings (size 3 to 8) (size 9 to 14) (size 15 to 20)
#    0.000    0.857    2.857    4.286    6.000    3.429 
#    0.000    0.000    0.000    0.000    0.000    0.000 
#    0.000    0.000    0.000    0.000    0.000    0.000 
#
# Total GULP energy -347073.001903 kJ/mol
# GULP energy per Si atom -12395.464354 kJ/mol
# Density = 2.345744 g / cm^3
# Si number density = 23.510954 Si / 1000 Ang^3
#
#
#
# Elastic Constant Matrix: (Units=GPa)
#
#
# Indices 1 2 3 4 5 6 
#
# 1 48.2424 18.5743 4.3962 0.0000 7.0992 0.0000
# 2 18.5743 62.4371 23.5415 0.0000 14.2878 0.0000
# 3 4.3962 23.5415 129.7390 0.0000 19.4625 0.0000
# 4 0.0000 0.0000 0.0000 24.7941 0.0000 5.8256
# 5 7.0992 14.2878 19.4625 0.0000 21.8301 0.0000
# 6 0.0000 0.0000 0.0000 5.8256 0.0000 30.5946
#
#
#
# Elastic Compliance Matrix: (Units=1/GPa)
#
#
# Indices 1 2 3 4 5 6 
#
# 1 0.023768 -0.006445 0.001028 0.000000 -0.004428 0.000000
# 2 -0.006445 0.020961 -0.002126 0.000000 -0.009728 0.000000
# 3 0.001028 -0.002126 0.009120 0.000000 -0.007074 0.000000
# 4 0.000000 0.000000 0.000000 0.042221 0.000000 -0.008039
# 5 -0.004428 -0.009728 -0.007074 0.000000 0.059922 0.000000
# 6 0.000000 0.000000 0.000000 -0.008039 0.000000 0.034216
#
#
# Mechanical properties :
#
#
# Convention : Reuss Voigt Hill
#
# Bulk Modulus (GPa) = 25.79728 37.04915 31.42322
# Shear Modulus (GPa) = 22.91324 28.37087 25.64205
#
# Velocity S-wave (km/s) = 3.12521 3.47754 3.30607
# Velocity P-wave (km/s) = 4.90090 5.64950 5.28846
#
# Compressibility (1/GPa) = 0.03876377
#
# Stress axis : x y z
#
# Youngs Moduli (GPa) = 42.07330 47.70752 109.65128
#
# Poissons Ratio (x) = 0.30748 -0.11276
# Poissons Ratio (y) = 0.27117 0.23309
# Poissons Ratio (z) = -0.04327 0.10141
#
# Static dielectric constant tensor:
#      x y z
#    x 4.308500 0.000000 -0.128790 
#    y 0.000000 4.042810 0.000000 
#    z -0.128790 0.000000 5.485520 
# 
# 
# High freq. dielectric constant tensor:
#      x y z
#    x 1.931750 0.000000 0.010980 
#    y 0.000000 1.929690 0.000000 
#    z 0.010980 0.000000 1.939610 
# 
# From -- ./inp_files/49141.got.cif
#   From: 2010.06.25/outbox.cif.g09.slc.cpg/sg15_25_cif.got.tgz:49141.got - 2010.06.28 07:06:18.
