data_PCOD8152788
_publ_section_title
;
Structure prediction by ZEFSAII (Michael W. Deem and Ramdas Pophale) SiO2 
 PCOD8152788
Probable space group: C 2/C
;
_chemical_formula_sum "Si O2"
_cell_formula_units_Z 64
_cell_length_a 11.785486
_cell_length_b 15.184017
_cell_length_c 16.026327
_cell_angle_alpha 90.000000
_cell_angle_beta 88.190031
_cell_angle_gamma 90.000000
_cell_volume 2866.496694
_symmetry_space_group_name_H-M "C 2/C"
_symmetry_group_IT_number 15
_symmetry_cell_setting 'monoclinic'
loop_
_space_group_symop_operation_xyz
x,y,z
-x,y,1/2-z
-x,-y,-z
x,-y,1/2+z
1/2+x,1/2+y,z
1/2-x,1/2+y,1/2-z
1/2-x,1/2-y,-z
1/2+x,1/2-y,1/2+z
loop_
_atom_site_type_symbol
_atom_site_label
_atom_site_fract_x
_atom_site_fract_y
_atom_site_fract_z
Si Si1 0.669650 0.573711 0.675122
Si Si2 0.093162 0.428691 0.597846
Si Si3 0.690780 0.522472 0.861190
Si Si4 0.053336 0.723659 0.657331
Si Si5 0.088508 0.431944 0.406446
Si Si6 0.476648 0.743655 0.845597
Si Si7 0.712564 0.297640 0.417326
Si Si8 0.018500 0.917356 0.651641
O O1 0.653491 0.570023 0.775448
O O2 0.801662 0.584648 0.652207
O O3 0.596686 0.654997 0.640637
O O4 0.624145 0.483354 0.634021
O O5 0.191205 0.471598 0.652314
O O6 0.126060 0.443075 0.500845
O O7 0.092644 0.325622 0.616560
O O8 0.975446 0.478950 0.622178
O O9 0.696870 0.597582 0.932262
O O10 0.593541 0.454432 0.890751
O O11 0.189395 0.709869 0.656337
O O12 0.000000 0.715035 0.750000
O O13 0.995960 0.651263 0.599127
O O14 0.037489 0.819693 0.614988
O O15 0.500000 0.764009 0.750000
O O16 0.595543 0.743562 0.890509
O O17 0.750000 0.250000 0.500000
O O18 0.000000 0.906493 0.750000
#
# Coordination Sequence:
#
# PCOD8152788 Si02
#       8
#     8   8   8   8   8   8   8   8
#     4  11  23  45  74 102 136 178 236 299 346 410
#     4  11  28  45  65 101 144 185 228 282 357 429
#     4  11  22  47  69  99 139 182 233 296 342 418
#     4  11  24  43  73 103 136 186 236 287 350 422
#     4  11  26  46  65  98 146 182 226 287 353 422
#     4  12  26  44  73 108 137 183 239 291 348 416
#     4  12  25  45  73  99 144 188 231 289 358 421
#     4   9  21  41  68 101 132 166 224 289 346 405
#
# _framework density 22.326905
#
# number of rings (size 3 to 8) (size 9 to 14) (size 15 to 20)
#    0.000    1.000    3.750    1.875    7.000    1.500 
#    2.250    1.250    0.000    0.000    0.000    0.000 
#    0.000    0.000    0.000    0.000    0.000    0.000 
#
# Total GULP energy -396887.764052 kJ/mol
# GULP energy per Si atom -12402.742627 kJ/mol
# Density = 2.227609 g / cm^3
# Si number density = 22.326905 Si / 1000 Ang^3
#
#
#
# Elastic Constant Matrix: (Units=GPa)
#
#
# Indices 1 2 3 4 5 6 
#
# 1 103.7245 35.4896 20.3645 0.0000 19.9370 0.0000
# 2 35.4896 148.8374 18.7761 0.0000 15.3304 0.0000
# 3 20.3645 18.7761 46.0273 0.0000 15.8588 0.0000
# 4 0.0000 0.0000 0.0000 30.3853 0.0000 0.7427
# 5 19.9370 15.3304 15.8588 0.0000 26.9053 0.0000
# 6 0.0000 0.0000 0.0000 0.7427 0.0000 38.4608
#
#
#
# Elastic Compliance Matrix: (Units=1/GPa)
#
#
# Indices 1 2 3 4 5 6 
#
# 1 0.011982 -0.001903 -0.002308 0.000000 -0.006434 0.000000
# 2 -0.001903 0.007574 -0.001564 0.000000 -0.001983 0.000000
# 3 -0.002308 -0.001564 0.028220 0.000000 -0.014032 0.000000
# 4 0.000000 0.000000 0.000000 0.032926 0.000000 -0.000636
# 5 -0.006434 -0.001983 -0.014032 0.000000 0.051336 0.000000
# 6 0.000000 0.000000 0.000000 -0.000636 0.000000 0.026013
#
#
# Mechanical properties :
#
#
# Convention : Reuss Voigt Hill
#
# Bulk Modulus (GPa) = 27.60519 49.76108 38.68314
# Shear Modulus (GPa) = 27.52123 34.08087 30.80105
#
# Velocity S-wave (km/s) = 3.51472 3.91122 3.71826
# Velocity P-wave (km/s) = 5.37233 6.53703 5.98309
#
# Compressibility (1/GPa) = 0.03622507
#
# Stress axis : x y z
#
# Youngs Moduli (GPa) = 83.45916 132.02760 35.43530
#
# Poissons Ratio (x) = 0.25127 0.08179
# Poissons Ratio (y) = 0.15884 0.05543
# Poissons Ratio (z) = 0.19264 0.20654
#
# Static dielectric constant tensor:
#      x y z
#    x 4.072630 0.000000 0.098700 
#    y 0.000000 4.358270 0.000000 
#    z 0.098700 0.000000 3.661070 
# 
# 
# High freq. dielectric constant tensor:
#      x y z
#    x 1.891000 0.000000 0.007400 
#    y 0.000000 1.898290 0.000000 
#    z 0.007400 0.000000 1.854630 
# 
# From -- ./inp_files/198357.got.cif
#   From: 2010.06.25/outbox.cif.g09.slc.cpg/sg15_100_cif.got.tgz:198357.got - 2010.06.28 07:06:18.
