data_PCOD8152495
_publ_section_title
;
Structure prediction by ZEFSAII (Michael W. Deem and Ramdas Pophale) SiO2 
 PCOD8152495
Probable space group: C 2/C
;
_chemical_formula_sum "Si O2"
_cell_formula_units_Z 48
_cell_length_a 11.709251
_cell_length_b 15.521797
_cell_length_c 28.113065
_cell_angle_alpha 90.000000
_cell_angle_beta 154.925072
_cell_angle_gamma 90.000000
_cell_volume 2165.426546
_symmetry_space_group_name_H-M "C 2/C"
_symmetry_group_IT_number 15
_symmetry_cell_setting 'monoclinic'
loop_
_space_group_symop_operation_xyz
x,y,z
-x,y,1/2-z
-x,-y,-z
x,-y,1/2+z
1/2+x,1/2+y,z
1/2-x,1/2+y,1/2-z
1/2-x,1/2-y,-z
1/2+x,1/2-y,1/2+z
loop_
_atom_site_type_symbol
_atom_site_label
_atom_site_fract_x
_atom_site_fract_y
_atom_site_fract_z
Si Si1 0.129134 0.242812 0.616547
Si Si2 0.500000 0.089389 0.750000
Si Si3 0.000000 0.840846 0.250000
Si Si4 0.799277 0.516163 0.093759
Si Si5 0.215107 0.094886 0.367428
Si Si6 0.046179 0.457623 0.451624
Si Si7 0.567857 0.785187 0.862972
O O1 0.227965 0.145510 0.648082
O O2 0.305150 0.302906 0.648236
O O3 0.830044 0.254949 0.485412
O O4 0.162694 0.277131 0.683424
O O5 0.489183 0.032018 0.792816
O O6 0.276611 0.897262 0.352757
O O7 0.987455 0.775191 0.289210
O O8 0.883964 0.615221 0.130728
O O9 0.833987 0.471983 0.055413
O O10 0.500000 0.500000 0.000000
O O11 0.208787 0.079271 0.422267
O O12 0.000000 0.049624 0.250000
O O13 0.492913 0.052646 0.453236
#
# Coordination Sequence:
#
# PCOD8152495 Si02
#       7
#     8   4   4   8   8   8   8
#     4  11  22  42  68  97 131 184 231 277 347 420
#     4  12  25  43  70  98 138 184 234 281 349 424
#     4  12  23  45  72 108 134 180 244 299 343 406
#     4  12  26  47  66 104 142 188 228 287 356 426
#     4  11  22  42  71 103 136 176 231 293 353 403
#     4  11  25  43  71 108 137 176 239 296 342 417
#     4  11  24  44  68  94 139 184 227 281 350 417
#
# _framework density 22.166533000000001
#
# number of rings (size 3 to 8) (size 9 to 14) (size 15 to 20)
#    0.000    0.667    6.667    1.500    0.000    1.333 
#    3.000    1.667    0.000    0.000    0.000    0.000 
#    0.000    0.000    0.000    0.000    0.000    0.000 
#
# Total GULP energy -297326.360388 kJ/mol
# GULP energy per Si atom -12388.598350 kJ/mol
# Density = 2.211608 g / cm^3
# Si number density = 22.166533 Si / 1000 Ang^3
#
#
#
# Elastic Constant Matrix: (Units=GPa)
#
#
# Indices 1 2 3 4 5 6 
#
# 1 132.5490 50.5037 42.4847 -0.0013 -32.0894 -0.0003
# 2 50.5037 135.2918 34.4044 -0.0001 -21.3005 -0.0004
# 3 42.4847 34.4044 107.7561 -0.0016 -32.2065 -0.0015
# 4 -0.0013 -0.0001 -0.0016 30.1368 -0.0022 -10.1729
# 5 -32.0894 -21.3005 -32.2065 -0.0022 42.7730 -0.0009
# 6 -0.0003 -0.0004 -0.0015 -10.1729 -0.0009 34.2038
#
#
#
# Elastic Compliance Matrix: (Units=1/GPa)
#
#
# Indices 1 2 3 4 5 6 
#
# 1 0.010336 -0.002613 -0.001693 0.000001 0.005178 0.000000
# 2 -0.002613 0.008949 -0.001395 0.000000 0.001446 0.000000
# 3 -0.001693 -0.001395 0.012654 0.000002 0.007563 0.000001
# 4 0.000001 0.000000 0.000002 0.036885 0.000004 0.010970
# 5 0.005178 0.001446 0.007563 0.000004 0.033679 0.000002
# 6 0.000000 0.000000 0.000001 0.010970 0.000002 0.032499
#
#
# Mechanical properties :
#
#
# Convention : Reuss Voigt Hill
#
# Bulk Modulus (GPa) = 48.69226 70.04251 59.36738
# Shear Modulus (GPa) = 32.62650 37.96966 35.29808
#
# Velocity S-wave (km/s) = 3.84067 4.14324 3.99482
# Velocity P-wave (km/s) = 6.45616 7.38617 6.93677
#
# Compressibility (1/GPa) = 0.02053715
#
# Stress axis : x y z
#
# Youngs Moduli (GPa) = 96.74696 111.74292 79.02901
#
# Poissons Ratio (x) = 0.29193 0.13382
# Poissons Ratio (y) = 0.25276 0.11024
# Poissons Ratio (z) = 0.16383 0.15588
#
# Static dielectric constant tensor:
#      x y z
#    x 4.218000 0.000000 -0.126370 
#    y 0.000000 4.040940 -0.000010 
#    z -0.126370 -0.000010 4.323160 
# 
# 
# High freq. dielectric constant tensor:
#      x y z
#    x 1.865320 0.000000 -0.014700 
#    y 0.000000 1.887100 0.000000 
#    z -0.014700 0.000000 1.881570 
# 
# From -- ./inp_files/293164.got.cif
#   From: 2010.06.25/outbox.cif.g09.slc.cpg/sg15_147_cif.got.tgz:293164.got - 2010.06.28 07:06:18.
