data_PCOD8152373
_publ_section_title
;
Structure prediction by ZEFSAII (Michael W. Deem and Ramdas Pophale) SiO2 
 PCOD8152373
Probable space group: C 2/C
;
_chemical_formula_sum "Si O2"
_cell_formula_units_Z 60
_cell_length_a 20.324318
_cell_length_b 16.362169
_cell_length_c 10.870292
_cell_angle_alpha 90.000000
_cell_angle_beta 133.899233
_cell_angle_gamma 90.000000
_cell_volume 2604.764432
_symmetry_space_group_name_H-M "C 2/C"
_symmetry_group_IT_number 15
_symmetry_cell_setting 'monoclinic'
loop_
_space_group_symop_operation_xyz
x,y,z
-x,y,1/2-z
-x,-y,-z
x,-y,1/2+z
1/2+x,1/2+y,z
1/2-x,1/2+y,1/2-z
1/2-x,1/2-y,-z
1/2+x,1/2-y,1/2+z
loop_
_atom_site_type_symbol
_atom_site_label
_atom_site_fract_x
_atom_site_fract_y
_atom_site_fract_z
Si Si1 0.856392 0.826789 0.306671
Si Si2 0.544279 0.391598 0.630990
Si Si3 0.500000 0.529980 0.750000
Si Si4 0.836736 0.112138 0.435863
Si Si5 0.315847 0.316279 0.522909
Si Si6 0.604668 0.237488 0.376870
Si Si7 0.322716 0.071079 0.953473
Si Si8 0.794949 0.479821 0.154659
O O1 0.833562 0.785463 0.408096
O O2 0.851678 0.754811 0.200412
O O3 0.783805 0.899697 0.183091
O O4 0.961514 0.856602 0.443183
O O5 0.503193 0.473512 0.634394
O O6 0.630520 0.413354 0.656821
O O7 0.585339 0.326377 0.783031
O O8 0.410197 0.585275 0.634702
O O9 0.833204 0.210507 0.444952
O O10 0.745174 0.065731 0.349638
O O11 0.250000 0.250000 0.500000
O O12 0.275632 0.407857 0.466702
O O13 0.500000 0.264376 0.250000
O O14 0.611294 0.143974 0.422616
O O15 0.353444 0.045530 0.852998
O O16 0.341921 0.000616 0.083111
#
# Coordination Sequence:
#
# PCOD8152373 Si02
#       8
#     8   8   4   8   8   8   8   8
#     4  11  22  41  65  98 134 175 218 271 340 405
#     4  12  22  38  62  95 141 178 213 273 339 415
#     4  12  20  36  54  98 138 170 206 264 336 428
#     4  12  23  35  66  99 135 169 213 263 349 402
#     4  11  25  40  63  97 139 180 224 277 336 403
#     4  12  25  44  69 102 132 177 226 280 330 403
#     4  11  26  45  68  99 137 176 234 277 335 406
#     4  11  24  44  67  98 135 183 224 277 336 403
#
# _framework density 23.034713
#
# number of rings (size 3 to 8) (size 9 to 14) (size 15 to 20)
#    0.000    0.533    6.000    2.400    3.733    1.067 
#    0.000    0.667    0.000    1.600    0.000    0.000 
#    0.000    0.000    0.000    0.000    0.000    0.000 
#
# Total GULP energy -371777.239437 kJ/mol
# GULP energy per Si atom -12392.574648 kJ/mol
# Density = 2.298228 g / cm^3
# Si number density = 23.034713 Si / 1000 Ang^3
#
#
#
# Elastic Constant Matrix: (Units=GPa)
#
#
# Indices 1 2 3 4 5 6 
#
# 1 52.7288 8.9806 15.2258 0.0000 -25.2297 0.0000
# 2 8.9806 77.1206 23.9988 0.0000 -10.2239 0.0000
# 3 15.2258 23.9988 89.3325 0.0000 -33.4519 0.0000
# 4 0.0000 0.0000 0.0000 29.8285 0.0000 -6.8234
# 5 -25.2297 -10.2239 -33.4519 0.0000 40.3574 0.0000
# 6 0.0000 0.0000 0.0000 -6.8234 0.0000 29.8138
#
#
#
# Elastic Compliance Matrix: (Units=1/GPa)
#
#
# Indices 1 2 3 4 5 6 
#
# 1 0.027623 -0.001573 0.002946 0.000000 0.019312 0.000000
# 2 -0.001573 0.014250 -0.003736 0.000000 -0.000470 0.000000
# 3 0.002946 -0.003736 0.017446 0.000000 0.015356 0.000000
# 4 0.000000 0.000000 0.000000 0.035377 0.000000 0.008097
# 5 0.019312 -0.000470 0.015356 0.000000 0.049461 0.000000
# 6 0.000000 0.000000 0.000000 0.008097 0.000000 0.035395
#
#
# Mechanical properties :
#
#
# Convention : Reuss Voigt Hill
#
# Bulk Modulus (GPa) = 18.31750 35.06579 26.69165
# Shear Modulus (GPa) = 24.69432 31.39839 28.04635
#
# Velocity S-wave (km/s) = 3.27777 3.69601 3.49315
# Velocity P-wave (km/s) = 4.72169 5.78533 5.28036
#
# Compressibility (1/GPa) = 0.05459261
#
# Stress axis : x y z
#
# Youngs Moduli (GPa) = 36.20227 70.17433 57.31936
#
# Poissons Ratio (x) = 0.11040 -0.16888
# Poissons Ratio (y) = 0.05696 0.21416
# Poissons Ratio (z) = -0.10667 0.26219
#
# Static dielectric constant tensor:
#      x y z
#    x 4.074680 0.000000 -0.487620 
#    y 0.000000 3.975690 0.000000 
#    z -0.487620 0.000000 4.357590 
# 
# 
# High freq. dielectric constant tensor:
#      x y z
#    x 1.894370 0.000000 -0.037530 
#    y 0.000000 1.894200 0.000000 
#    z -0.037530 0.000000 1.915100 
# 
# From -- ./inp_files/118794.got.cif
#   From: 2010.06.25/outbox.cif.g09.slc.cpg/sg15_60_cif.got.tgz:118794.got - 2010.06.28 07:06:18.
