data_PCOD8152295
_publ_section_title
;
Structure prediction by ZEFSAII (Michael W. Deem and Ramdas Pophale) SiO2 
 PCOD8152295
Probable space group: C 2/C
;
_chemical_formula_sum "Si O2"
_cell_formula_units_Z 36
_cell_length_a 7.761006
_cell_length_b 14.196343
_cell_length_c 15.704228
_cell_angle_alpha 90.000000
_cell_angle_beta 81.257687
_cell_angle_gamma 90.000000
_cell_volume 1710.156610
_symmetry_space_group_name_H-M "C 2/C"
_symmetry_group_IT_number 15
_symmetry_cell_setting 'monoclinic'
loop_
_space_group_symop_operation_xyz
x,y,z
-x,y,1/2-z
-x,-y,-z
x,-y,1/2+z
1/2+x,1/2+y,z
1/2-x,1/2+y,1/2-z
1/2-x,1/2-y,-z
1/2+x,1/2-y,1/2+z
loop_
_atom_site_type_symbol
_atom_site_label
_atom_site_fract_x
_atom_site_fract_y
_atom_site_fract_z
Si Si1 0.429471 0.728793 0.530060
Si Si2 0.476188 0.433767 0.922102
Si Si3 0.500000 0.976698 0.250000
Si Si4 0.633995 0.588661 0.810912
Si Si5 0.568142 0.931189 0.922084
O O1 0.250000 0.750000 0.500000
O O2 0.539548 0.670431 0.449499
O O3 0.390278 0.661189 0.611561
O O4 0.514488 0.827637 0.551893
O O5 0.593171 0.479002 0.838875
O O6 0.276831 0.430708 0.905072
O O7 0.500000 0.500000 0.000000
O O8 0.668518 0.908655 0.238216
O O9 0.503223 0.039723 0.164755
O O10 0.500000 0.623265 0.750000
O O11 0.500000 0.000000 0.000000
#
# Coordination Sequence:
#
# PCOD8152295 Si02
#       5
#     8   8   4   8   8
#     4   9  20  39  67  92 127 169 218 262 319 387
#     4   9  18  39  64  89 125 170 209 260 321 381
#     4  12  24  40  66  96 132 168 220 266 322 386
#     4  11  22  42  66  94 132 169 209 269 324 380
#     4  11  22  40  65  98 132 169 216 268 319 383
#
# _framework density 21.050702999999999
#
# number of rings (size 3 to 8) (size 9 to 14) (size 15 to 20)
#    0.000    1.778    2.222    4.000    1.556    0.000 
#    0.000   16.667    7.333    0.000    0.000    0.000 
#    0.000    0.000    0.000    0.000    0.000    0.000 
#
# Total GULP energy -223011.238112 kJ/mol
# GULP energy per Si atom -12389.513228 kJ/mol
# Density = 2.100279 g / cm^3
# Si number density = 21.050703 Si / 1000 Ang^3
#
#
#
# Elastic Constant Matrix: (Units=GPa)
#
#
# Indices 1 2 3 4 5 6 
#
# 1 104.7001 27.2433 34.2137 0.0000 7.7356 0.0000
# 2 27.2433 146.0993 57.6568 0.0000 -0.8007 0.0000
# 3 34.2137 57.6568 122.6870 0.0000 20.0468 0.0000
# 4 0.0000 0.0000 0.0000 33.0585 0.0000 -4.6969
# 5 7.7356 -0.8007 20.0468 0.0000 41.2674 0.0000
# 6 0.0000 0.0000 0.0000 -4.6969 0.0000 8.1780
#
#
#
# Elastic Compliance Matrix: (Units=1/GPa)
#
#
# Indices 1 2 3 4 5 6 
#
# 1 0.010655 -0.001076 -0.002320 0.000000 -0.000891 0.000000
# 2 -0.001076 0.008711 -0.004186 0.000000 0.002404 0.000000
# 3 -0.002320 -0.004186 0.011631 0.000000 -0.005296 0.000000
# 4 0.000000 0.000000 0.000000 0.032937 0.000000 0.018917
# 5 -0.000891 0.002404 -0.005296 0.000000 0.027019 0.000000
# 6 0.000000 0.000000 0.000000 0.018917 0.000000 0.133144
#
#
# Mechanical properties :
#
#
# Convention : Reuss Voigt Hill
#
# Bulk Modulus (GPa) = 63.16622 67.96821 65.56721
# Shear Modulus (GPa) = 20.44672 33.45895 26.95283
#
# Velocity S-wave (km/s) = 3.11996 3.99111 3.58212
# Velocity P-wave (km/s) = 6.56131 7.32097 6.95152
#
# Compressibility (1/GPa) = 0.01583125
#
# Stress axis : x y z
#
# Youngs Moduli (GPa) = 93.85190 114.80268 85.98042
#
# Poissons Ratio (x) = 0.12355 0.19948
# Poissons Ratio (y) = 0.10100 0.35994
# Poissons Ratio (z) = 0.21774 0.48060
#
# Static dielectric constant tensor:
#      x y z
#    x 3.830920 0.000000 0.094710 
#    y 0.000000 4.583550 0.000000 
#    z 0.094710 0.000000 4.038880 
# 
# 
# High freq. dielectric constant tensor:
#      x y z
#    x 1.819120 0.000000 0.023240 
#    y 0.000000 1.823490 0.000000 
#    z 0.023240 0.000000 1.829300 
# 
# From -- ./inp_files/132651.got.cif
#   From: 2010.06.25/outbox.cif.g09.slc.cpg/sg15_67_cif.got.tgz:132651.got - 2010.06.28 07:06:18.
