data_PCOD8152946
_publ_section_title
;
Structure prediction by ZEFSAII (Michael W. Deem and Ramdas Pophale) SiO2 
 PCOD8152946
Probable space group: C 2/C
;
_chemical_formula_sum "Si O2"
_cell_formula_units_Z 56
_cell_length_a 25.537118
_cell_length_b 5.368351
_cell_length_c 18.163174
_cell_angle_alpha 90.000000
_cell_angle_beta 71.377860
_cell_angle_gamma 90.000000
_cell_volume 2359.664432
_symmetry_space_group_name_H-M "C 2/C"
_symmetry_group_IT_number 15
_symmetry_cell_setting 'monoclinic'
loop_
_space_group_symop_operation_xyz
x,y,z
-x,y,1/2-z
-x,-y,-z
x,-y,1/2+z
1/2+x,1/2+y,z
1/2-x,1/2+y,1/2-z
1/2-x,1/2-y,-z
1/2+x,1/2-y,1/2+z
loop_
_atom_site_type_symbol
_atom_site_label
_atom_site_fract_x
_atom_site_fract_y
_atom_site_fract_z
Si Si1 0.983930 0.079659 0.926615
Si Si2 0.906869 0.357287 0.646127
Si Si3 0.860954 0.821415 0.452600
Si Si4 0.465882 0.762365 0.202679
Si Si5 0.867496 0.965759 0.286994
Si Si6 0.167877 0.670208 0.455027
Si Si7 0.259544 0.300517 0.792231
O O1 0.030082 0.267098 0.876482
O O2 0.924277 0.206617 0.950158
O O3 0.986976 0.838666 0.873068
O O4 0.000000 0.000000 0.000000
O O5 0.914923 0.626243 0.678789
O O6 0.863258 0.209446 0.716284
O O7 0.886299 0.359697 0.571925
O O8 0.854879 0.813403 0.367243
O O9 0.827717 0.581511 0.498241
O O10 0.836831 0.083044 0.493210
O O11 0.500000 0.919179 0.250000
O O12 0.431021 0.556955 0.264634
O O13 0.821820 0.178820 0.294976
O O14 0.221409 0.699045 0.381159
O O15 0.244235 0.541009 0.749630
#
# Coordination Sequence:
#
# PCOD8152946 Si02
#       7
#     8   8   8   8   8   8   8
#     4  11  23  41  65  99 144 193 233 292 359 426
#     4  11  25  42  72 103 141 197 251 295 352 451
#     4  12  28  45  71 108 154 187 236 305 372 421
#     4  11  24  41  69 105 145 188 251 293 361 441
#     4  11  27  46  71 108 146 191 246 309 367 427
#     4  12  27  48  72 109 143 190 249 296 358 443
#     4  12  26  49  82 107 140 192 249 306 364 430
#
# _framework density 23.732187
#
# number of rings (size 3 to 8) (size 9 to 14) (size 15 to 20)
#    0.000    0.571    4.286    2.571    8.000    2.286 
#    0.000    0.000    0.000    0.000    0.000    0.000 
#    0.000    0.000    0.000    0.000    0.000    0.000 
#
# Total GULP energy -347050.704070 kJ/mol
# GULP energy per Si atom -12394.668002 kJ/mol
# Density = 2.367817 g / cm^3
# Si number density = 23.732187 Si / 1000 Ang^3
#
#
#
# Elastic Constant Matrix: (Units=GPa)
#
#
# Indices 1 2 3 4 5 6 
#
# 1 52.5900 -1.6062 21.7992 0.0000 -7.7629 0.0000
# 2 -1.6062 107.9983 42.0284 0.0004 -5.2680 0.0002
# 3 21.7992 42.0284 133.4370 0.0001 -9.6464 0.0000
# 4 0.0000 0.0004 0.0001 31.2699 0.0000 -0.2327
# 5 -7.7629 -5.2680 -9.6464 0.0000 46.1361 0.0000
# 6 0.0000 0.0002 0.0000 -0.2327 0.0000 25.6317
#
#
#
# Elastic Compliance Matrix: (Units=1/GPa)
#
#
# Indices 1 2 3 4 5 6 
#
# 1 0.021109 0.001957 -0.003850 0.000000 0.002970 0.000000
# 2 0.001957 0.010747 -0.003647 0.000000 0.000794 0.000000
# 3 -0.003850 -0.003647 0.009336 0.000000 0.000888 0.000000
# 4 0.000000 0.000000 0.000000 0.031982 0.000000 0.000290
# 5 0.002970 0.000794 0.000888 0.000000 0.022451 0.000000
# 6 0.000000 0.000000 0.000000 0.000290 0.000000 0.039017
#
#
# Mechanical properties :
#
#
# Convention : Reuss Voigt Hill
#
# Bulk Modulus (GPa) = 33.21002 46.49645 39.85324
# Shear Modulus (GPa) = 32.10083 36.06114 34.08099
#
# Velocity S-wave (km/s) = 3.68180 3.90231 3.79366
# Velocity P-wave (km/s) = 5.66553 6.31971 6.00154
#
# Compressibility (1/GPa) = 0.03011139
#
# Stress axis : x y z
#
# Youngs Moduli (GPa) = 47.37260 93.05305 107.11107
#
# Poissons Ratio (x) = -0.18212 0.41241
# Poissons Ratio (y) = -0.09272 0.39065
# Poissons Ratio (z) = 0.18240 0.33938
#
# Static dielectric constant tensor:
#      x y z
#    x 4.259120 0.000000 -0.109820 
#    y 0.000000 4.260490 0.000000 
#    z -0.109820 0.000000 4.439980 
# 
# 
# High freq. dielectric constant tensor:
#      x y z
#    x 1.943090 0.000000 -0.003970 
#    y 0.000000 1.928220 0.000000 
#    z -0.003970 0.000000 1.962060 
# 
# From -- ./inp_files/221217.got.cif
#   From: 2010.06.25/outbox.cif.g09.slc.cpg/sg15_111_cif.got.tgz:221217.got - 2010.06.28 07:06:18.
