data_PCOD8152005
_publ_section_title
;
Structure prediction by ZEFSAII (Michael W. Deem and Ramdas Pophale) SiO2 
 PCOD8152005
Probable space group: C 2/C
;
_chemical_formula_sum "Si O2"
_cell_formula_units_Z 40
_cell_length_a 19.530370
_cell_length_b 10.251877
_cell_length_c 9.562560
_cell_angle_alpha 90.000000
_cell_angle_beta 67.039058
_cell_angle_gamma 90.000000
_cell_volume 1762.948649
_symmetry_space_group_name_H-M "C 2/C"
_symmetry_group_IT_number 15
_symmetry_cell_setting 'monoclinic'
loop_
_space_group_symop_operation_xyz
x,y,z
-x,y,1/2-z
-x,-y,-z
x,-y,1/2+z
1/2+x,1/2+y,z
1/2-x,1/2+y,1/2-z
1/2-x,1/2-y,-z
1/2+x,1/2-y,1/2+z
loop_
_atom_site_type_symbol
_atom_site_label
_atom_site_fract_x
_atom_site_fract_y
_atom_site_fract_z
Si Si1 0.000000 0.272822 0.250000
Si Si2 0.604055 0.977912 0.061049
Si Si3 0.958486 0.862600 0.519855
Si Si4 0.500000 0.808696 0.750000
Si Si5 0.789844 0.194079 0.108018
Si Si6 0.197008 0.552082 0.737013
O O1 0.953475 0.359803 0.395547
O O2 0.949330 0.187841 0.186859
O O3 0.572718 0.103756 0.166851
O O4 0.676152 0.933736 0.091020
O O5 0.624060 0.015764 0.887261
O O6 0.013393 0.779540 0.376871
O O7 0.876116 0.849627 0.516215
O O8 0.000000 0.000000 0.500000
O O9 0.774494 0.308549 0.232220
O O10 0.755982 0.063594 0.201635
O O11 0.750000 0.250000 0.000000
#
# Coordination Sequence:
#
# PCOD8152005 Si02
#       6
#     4   8   8   4   8   8
#     4  11  23  42  70 108 135 171 248 292 370 439
#     4  11  22  42  75 101 135 187 242 304 358 440
#     4  12  26  45  70 106 146 186 236 308 379 439
#     4  11  21  44  74 102 143 187 236 304 372 445
#     4  12  27  49  72 107 152 199 247 305 376 454
#     4  12  24  46  72 103 146 194 248 300 367 446
#
# _framework density 22.689260999999998
#
# number of rings (size 3 to 8) (size 9 to 14) (size 15 to 20)
#    0.000    0.400    6.000    1.800    0.000   10.400 
#    0.000    0.000    0.000    0.000    0.000    0.000 
#    0.000    0.000    0.000    0.000    0.000    0.000 
#
# Total GULP energy -247854.409129 kJ/mol
# GULP energy per Si atom -12392.720456 kJ/mol
# Density = 2.263762 g / cm^3
# Si number density = 22.689261 Si / 1000 Ang^3
#
#
#
# Elastic Constant Matrix: (Units=GPa)
#
#
# Indices 1 2 3 4 5 6 
#
# 1 110.0743 47.8030 19.1005 0.0000 7.1682 0.0000
# 2 47.8030 147.6980 19.1582 0.0000 -4.7373 0.0000
# 3 19.1005 19.1582 70.6337 0.0000 1.3798 0.0000
# 4 0.0000 0.0000 0.0000 36.5705 0.0000 0.8173
# 5 7.1682 -4.7373 1.3798 0.0000 39.5372 0.0000
# 6 0.0000 0.0000 0.0000 0.8173 0.0000 21.0724
#
#
#
# Elastic Compliance Matrix: (Units=1/GPa)
#
#
# Indices 1 2 3 4 5 6 
#
# 1 0.011062 -0.003393 -0.002025 0.000000 -0.002341 0.000000
# 2 -0.003393 0.008091 -0.001309 0.000000 0.001630 0.000000
# 3 -0.002025 -0.001309 0.015066 0.000000 -0.000315 0.000000
# 4 0.000000 0.000000 0.000000 0.027368 0.000000 -0.001061
# 5 -0.002341 0.001630 -0.000315 0.000000 0.025923 0.000000
# 6 0.000000 0.000000 0.000000 -0.001061 0.000000 0.047497
#
#
# Mechanical properties :
#
#
# Convention : Reuss Voigt Hill
#
# Bulk Modulus (GPa) = 48.15733 55.61436 51.88584
# Shear Modulus (GPa) = 32.17851 35.59229 33.88540
#
# Velocity S-wave (km/s) = 3.77002 3.96496 3.86872
# Velocity P-wave (km/s) = 6.34205 6.74728 6.54780
#
# Compressibility (1/GPa) = 0.02076527
#
# Stress axis : x y z
#
# Youngs Moduli (GPa) = 90.39899 123.59894 66.37274
#
# Poissons Ratio (x) = 0.41933 0.13443
# Poissons Ratio (y) = 0.30669 0.08687
# Poissons Ratio (z) = 0.18310 0.16178
#
# Static dielectric constant tensor:
#      x y z
#    x 3.931350 0.000000 -0.065410 
#    y 0.000000 4.350450 0.000000 
#    z -0.065410 0.000000 4.681530 
# 
# 
# High freq. dielectric constant tensor:
#      x y z
#    x 1.885060 0.000000 0.013130 
#    y 0.000000 1.909150 0.000000 
#    z 0.013130 0.000000 1.895910 
# 
# From -- ./inp_files/54093.got.cif
#   From: 2010.06.25/outbox.cif.g09.slc.cpg/sg15_28_cif.got.tgz:54093.got - 2010.06.28 07:06:18.
