data_PCOD8152911
_publ_section_title
;
Structure prediction by ZEFSAII (Michael W. Deem and Ramdas Pophale) SiO2 
 PCOD8152911
Probable space group: C 2/C
;
_chemical_formula_sum "Si O2"
_cell_formula_units_Z 48
_cell_length_a 11.629081
_cell_length_b 18.557023
_cell_length_c 10.204731
_cell_angle_alpha 90.000000
_cell_angle_beta 105.527807
_cell_angle_gamma 90.000000
_cell_volume 2121.813808
_symmetry_space_group_name_H-M "C 2/C"
_symmetry_group_IT_number 15
_symmetry_cell_setting 'monoclinic'
loop_
_space_group_symop_operation_xyz
x,y,z
-x,y,1/2-z
-x,-y,-z
x,-y,1/2+z
1/2+x,1/2+y,z
1/2-x,1/2+y,1/2-z
1/2-x,1/2-y,-z
1/2+x,1/2-y,1/2+z
loop_
_atom_site_type_symbol
_atom_site_label
_atom_site_fract_x
_atom_site_fract_y
_atom_site_fract_z
Si Si1 0.036089 0.109235 0.393426
Si Si2 0.766032 0.996382 0.119349
Si Si3 0.225425 0.193046 0.604823
Si Si4 0.362427 0.050672 0.670296
Si Si5 0.130716 0.728926 0.325410
Si Si6 0.675481 0.362168 0.504060
O O1 0.107501 0.151851 0.524113
O O2 0.000000 0.153814 0.250000
O O3 0.911299 0.091566 0.427346
O O4 0.111390 0.041044 0.362237
O O5 0.714406 0.998294 0.251107
O O6 0.796662 0.912299 0.110860
O O7 0.665938 0.021119 0.983917
O O8 0.250000 0.250000 0.500000
O O9 0.331387 0.135863 0.660983
O O10 0.203363 0.235359 0.730509
O O11 0.500000 0.042128 0.750000
O O12 0.200798 0.656743 0.385840
O O13 0.118119 0.786591 0.439435
O O14 0.000000 0.701518 0.250000
#
# Coordination Sequence:
#
# PCOD8152911 Si02
#       6
#     8   8   8   8   8   8
#     4  11  23  41  67 101 134 178 232 295 346 420
#     4  11  24  44  68 102 137 182 240 296 352 421
#     4  11  24  42  66  96 136 181 233 285 349 423
#     4  11  25  44  69  99 139 186 235 297 359 425
#     4  11  23  42  66  99 140 181 231 288 346 422
#     4  11  23  40  69  98 137 184 230 282 361 411
#
# _framework density 22.622153999999998
#
# number of rings (size 3 to 8) (size 9 to 14) (size 15 to 20)
#    0.000    1.000    3.333    3.000    0.000    7.333 
#    0.000    0.000    0.000    0.000    0.000    0.000 
#    0.000    0.000    0.000    0.000    0.000    0.000 
#
# Total GULP energy -297519.892136 kJ/mol
# GULP energy per Si atom -12396.662172 kJ/mol
# Density = 2.257067 g / cm^3
# Si number density = 22.622154 Si / 1000 Ang^3
#
#
#
# Elastic Constant Matrix: (Units=GPa)
#
#
# Indices 1 2 3 4 5 6 
#
# 1 126.4295 42.0825 28.5904 0.0000 12.9321 0.0000
# 2 42.0825 72.7038 4.9721 0.0000 -4.3285 0.0000
# 3 28.5904 4.9721 86.8727 0.0000 -0.5998 0.0000
# 4 0.0000 0.0000 0.0000 40.2133 0.0000 -4.7834
# 5 12.9321 -4.3285 -0.5998 0.0000 44.9898 0.0000
# 6 0.0000 0.0000 0.0000 -4.7834 0.0000 22.2962
#
#
#
# Elastic Compliance Matrix: (Units=1/GPa)
#
#
# Indices 1 2 3 4 5 6 
#
# 1 0.011231 -0.006504 -0.003351 0.000000 -0.003899 0.000000
# 2 -0.006504 0.017653 0.001155 0.000000 0.003583 0.000000
# 3 -0.003351 0.001155 0.012556 0.000000 0.001242 0.000000
# 4 0.000000 0.000000 0.000000 0.025519 0.000000 0.005475
# 5 -0.003899 0.003583 0.001242 0.000000 0.023709 0.000000
# 6 0.000000 0.000000 0.000000 0.005475 0.000000 0.046025
#
#
# Mechanical properties :
#
#
# Convention : Reuss Voigt Hill
#
# Bulk Modulus (GPa) = 41.59554 48.58846 45.09200
# Shear Modulus (GPa) = 30.84395 35.52394 33.18395
#
# Velocity S-wave (km/s) = 3.69648 3.96702 3.83414
# Velocity P-wave (km/s) = 6.05357 6.51981 6.29101
#
# Compressibility (1/GPa) = 0.02404104
#
# Stress axis : x y z
#
# Youngs Moduli (GPa) = 89.04078 56.64692 79.64096
#
# Poissons Ratio (x) = 0.36841 0.26686
# Poissons Ratio (y) = 0.57908 -0.09196
# Poissons Ratio (z) = 0.29836 -0.06541
#
# Static dielectric constant tensor:
#      x y z
#    x 3.982650 0.000000 0.049890 
#    y 0.000000 4.018430 0.000000 
#    z 0.049890 0.000000 4.037680 
# 
# 
# High freq. dielectric constant tensor:
#      x y z
#    x 1.890580 0.000000 0.002360 
#    y 0.000000 1.880850 0.000000 
#    z 0.002360 0.000000 1.913660 
# 
# From -- ./inp_files/87875.got.cif
#   From: 2010.06.25/outbox.cif.g09.slc.cpg/sg15_44_cif.got.tgz:87875.got - 2010.06.28 07:06:18.
