data_PCOD8152853
_publ_section_title
;
Structure prediction by ZEFSAII (Michael W. Deem and Ramdas Pophale) SiO2 
 PCOD8152853
Probable space group: C 2/C
;
_chemical_formula_sum "Si O2"
_cell_formula_units_Z 40
_cell_length_a 18.231229
_cell_length_b 14.362394
_cell_length_c 16.261813
_cell_angle_alpha 90.000000
_cell_angle_beta 153.948828
_cell_angle_gamma 90.000000
_cell_volume 1870.027841
_symmetry_space_group_name_H-M "C 2/C"
_symmetry_group_IT_number 15
_symmetry_cell_setting 'monoclinic'
loop_
_space_group_symop_operation_xyz
x,y,z
-x,y,1/2-z
-x,-y,-z
x,-y,1/2+z
1/2+x,1/2+y,z
1/2-x,1/2+y,1/2-z
1/2-x,1/2-y,-z
1/2+x,1/2-y,1/2+z
loop_
_atom_site_type_symbol
_atom_site_label
_atom_site_fract_x
_atom_site_fract_y
_atom_site_fract_z
Si Si1 0.834575 0.921766 0.391249
Si Si2 0.029055 0.557472 0.688982
Si Si3 0.941313 0.340714 0.779291
Si Si4 0.724047 0.232038 0.670059
Si Si5 0.300726 0.593010 0.247293
O O1 0.685786 0.890400 0.303352
O O2 0.845033 0.850389 0.324383
O O3 0.020287 0.922063 0.619242
O O4 0.791085 0.024833 0.315791
O O5 0.085108 0.450581 0.753136
O O6 0.000000 0.600533 0.750000
O O7 0.854804 0.570677 0.467196
O O8 0.776696 0.283529 0.638441
O O9 0.000000 0.302347 0.750000
O O10 0.055019 0.319310 0.973580
O O11 0.704956 0.301826 0.726909
#
# Coordination Sequence:
#
# PCOD8152853 Si02
#       5
#     8   8   8   8   8
#     4  11  23  40  65  96 125 167 222 256 310 383
#     4  11  24  44  66  92 131 170 209 269 324 367
#     4  11  23  39  62  97 132 162 202 265 333 378
#     4  12  21  40  65  92 126 168 214 260 313 380
#     4  11  23  40  65  96 125 167 222 256 310 383
#
# _framework density 21.390055
#
# number of rings (size 3 to 8) (size 9 to 14) (size 15 to 20)
#    0.000    0.800    6.000    2.400    0.000    0.800 
#    0.000    1.000    0.000    0.000    0.000    0.000 
#    0.000    0.000    0.000    0.000    0.000    0.000 
#
# Total GULP energy -247900.457961 kJ/mol
# GULP energy per Si atom -12395.022898 kJ/mol
# Density = 2.134137 g / cm^3
# Si number density = 21.390055 Si / 1000 Ang^3
#
#
#
# Elastic Constant Matrix: (Units=GPa)
#
#
# Indices 1 2 3 4 5 6 
#
# 1 119.9498 7.0302 54.5508 -0.0033 10.8117 -0.0028
# 2 7.0302 61.3094 -3.5303 -0.0046 -3.1866 -0.0048
# 3 54.5508 -3.5303 90.8759 -0.0023 29.0774 -0.0025
# 4 -0.0033 -0.0046 -0.0023 25.1109 -0.0021 -2.6061
# 5 10.8117 -3.1866 29.0774 -0.0021 25.0301 -0.0017
# 6 -0.0028 -0.0048 -0.0025 -2.6061 -0.0017 21.4574
#
#
#
# Elastic Compliance Matrix: (Units=1/GPa)
#
#
# Indices 1 2 3 4 5 6 
#
# 1 0.012009 -0.001633 -0.008827 0.000001 0.004859 0.000001
# 2 -0.001633 0.016641 0.001151 0.000004 0.001487 0.000004
# 3 -0.008827 0.001151 0.024002 -0.000001 -0.023924 0.000000
# 4 0.000001 0.000004 -0.000001 0.040332 0.000005 0.004898
# 5 0.004859 0.001487 -0.023924 0.000005 0.065835 0.000004
# 6 0.000001 0.000004 0.000000 0.004898 0.000004 0.047199
#
#
# Mechanical properties :
#
#
# Convention : Reuss Voigt Hill
#
# Bulk Modulus (GPa) = 29.38152 43.13740 36.25946
# Shear Modulus (GPa) = 21.18819 28.59197 24.89008
#
# Velocity S-wave (km/s) = 3.15073 3.66005 3.41490
# Velocity P-wave (km/s) = 5.19635 6.17026 5.70413
#
# Compressibility (1/GPa) = 0.03403500
#
# Stress axis : x y z
#
# Youngs Moduli (GPa) = 83.27236 60.09078 41.66287
#
# Poissons Ratio (x) = 0.09811 0.36775
# Poissons Ratio (y) = 0.13596 -0.04794
# Poissons Ratio (z) = 0.73503 -0.06915
#
# Static dielectric constant tensor:
#      x y z
#    x 3.893370 0.000000 0.225070 
#    y 0.000000 3.822270 0.000000 
#    z 0.225070 0.000000 3.767190 
# 
# 
# High freq. dielectric constant tensor:
#      x y z
#    x 1.828370 0.000000 0.020430 
#    y 0.000000 1.839520 0.000000 
#    z 0.020430 0.000000 1.836290 
# 
# From -- ./inp_files/37795.got.cif
#   From: 2010.06.25/outbox.cif.g09.slc.cpg/sg15_19_cif.got.tgz:37795.got - 2010.06.28 07:06:18.
