data_PCOD8152416
_publ_section_title
;
Structure prediction by ZEFSAII (Michael W. Deem and Ramdas Pophale) SiO2 
 PCOD8152416
Probable space group: C 2/C
;
_chemical_formula_sum "Si O2"
_cell_formula_units_Z 60
_cell_length_a 11.396192
_cell_length_b 15.309921
_cell_length_c 18.313986
_cell_angle_alpha 90.000000
_cell_angle_beta 65.384166
_cell_angle_gamma 90.000000
_cell_volume 2904.940828
_symmetry_space_group_name_H-M "C 2/C"
_symmetry_group_IT_number 15
_symmetry_cell_setting 'monoclinic'
loop_
_space_group_symop_operation_xyz
x,y,z
-x,y,1/2-z
-x,-y,-z
x,-y,1/2+z
1/2+x,1/2+y,z
1/2-x,1/2+y,1/2-z
1/2-x,1/2-y,-z
1/2+x,1/2-y,1/2+z
loop_
_atom_site_type_symbol
_atom_site_label
_atom_site_fract_x
_atom_site_fract_y
_atom_site_fract_z
Si Si1 0.181657 0.362365 0.698197
Si Si2 0.908801 0.664830 0.666834
Si Si3 0.547457 0.417784 0.905849
Si Si4 0.806940 0.251158 0.677773
Si Si5 0.488702 0.609921 0.919272
Si Si6 0.652498 0.713296 0.084636
Si Si7 0.500000 0.982253 0.250000
Si Si8 0.772249 0.789799 0.414176
O O1 0.336829 0.371180 0.667257
O O2 0.124448 0.324138 0.789150
O O3 0.117180 0.454473 0.694298
O O4 0.155004 0.288932 0.645125
O O5 0.795068 0.697427 0.748036
O O6 0.851551 0.669538 0.598053
O O7 0.038350 0.720331 0.632852
O O8 0.954359 0.572225 0.690205
O O9 0.553435 0.518590 0.881336
O O10 0.407567 0.379073 0.923075
O O11 0.572257 0.399252 0.984565
O O12 0.905932 0.186247 0.612673
O O13 0.733282 0.305712 0.635729
O O14 0.372281 0.630017 0.894181
O O15 0.750000 0.750000 0.000000
O O16 0.750000 0.750000 0.500000
#
# Coordination Sequence:
#
# PCOD8152416 Si02
#       8
#     8   8   8   8   8   8   4   8
#     4  11  24  42  69  95 136 182 220 281 339 403
#     4  11  24  42  69  95 133 182 216 282 336 393
#     4  11  23  41  65 100 130 171 223 280 333 382
#     4  11  22  41  68  96 131 175 222 266 344 402
#     4  11  23  40  67  99 131 171 221 274 331 404
#     4  12  22  41  68  97 129 175 226 276 331 408
#     4  12  24  44  66 102 140 172 234 276 350 402
#     4  11  22  45  69  94 139 181 223 271 345 410
#
# _framework density 20.654465999999999
#
# number of rings (size 3 to 8) (size 9 to 14) (size 15 to 20)
#    0.000    0.800    6.667    1.600    0.000    2.667 
#    0.000    3.333    0.000    0.000    0.000    0.000 
#    0.000    0.000    0.000    0.000    0.000    0.000 
#
# Total GULP energy -371789.042898 kJ/mol
# GULP energy per Si atom -12392.968097 kJ/mol
# Density = 2.060746 g / cm^3
# Si number density = 20.654466 Si / 1000 Ang^3
#
#
#
# Elastic Constant Matrix: (Units=GPa)
#
#
# Indices 1 2 3 4 5 6 
#
# 1 89.4946 41.4172 32.5303 0.0000 16.9968 0.0000
# 2 41.4172 112.2247 27.7622 0.0000 17.6102 0.0000
# 3 32.5303 27.7622 69.7376 0.0000 19.0800 0.0000
# 4 0.0000 0.0000 0.0000 31.3748 0.0000 4.1504
# 5 16.9968 17.6102 19.0800 0.0000 45.2850 0.0000
# 6 0.0000 0.0000 0.0000 4.1504 0.0000 42.3199
#
#
#
# Elastic Compliance Matrix: (Units=1/GPa)
#
#
# Indices 1 2 3 4 5 6 
#
# 1 0.015245 -0.004086 -0.004921 0.000000 -0.002060 0.000000
# 2 -0.004086 0.011230 -0.002023 0.000000 -0.001981 0.000000
# 3 -0.004921 -0.002023 0.018898 0.000000 -0.005329 0.000000
# 4 0.000000 0.000000 0.000000 0.032292 0.000000 -0.003167
# 5 -0.002060 -0.001981 -0.005329 0.000000 0.025871 0.000000
# 6 0.000000 0.000000 0.000000 -0.003167 0.000000 0.023940
#
#
# Mechanical properties :
#
#
# Convention : Reuss Voigt Hill
#
# Bulk Modulus (GPa) = 42.89310 52.76404 47.82857
# Shear Modulus (GPa) = 31.78535 35.11243 33.44889
#
# Velocity S-wave (km/s) = 3.92715 4.12757 4.02861
# Velocity P-wave (km/s) = 6.43237 6.95106 6.69674
#
# Compressibility (1/GPa) = 0.02331378
#
# Stress axis : x y z
#
# Youngs Moduli (GPa) = 65.59737 89.04917 52.91514
#
# Poissons Ratio (x) = 0.36381 0.26040
# Poissons Ratio (y) = 0.26800 0.10703
# Poissons Ratio (z) = 0.32282 0.18012
#
# Static dielectric constant tensor:
#      x y z
#    x -3.624080 0.000000 -2.754160 
#    y 0.000000 3.793340 0.000000 
#    z -2.754160 0.000000 2.729420 
# 
# 
# High freq. dielectric constant tensor:
#      x y z
#    x 1.821380 0.000000 0.000850 
#    y 0.000000 1.803970 0.000000 
#    z 0.000850 0.000000 1.806180 
# 
# From -- ./inp_files/198289.got.cif
#   From: 2010.06.25/outbox.cif.g09.slc.cpg/sg15_100_cif.got.tgz:198289.got - 2010.06.28 07:06:18.
