data_PCOD8152039
_publ_section_title
;
Structure prediction by ZEFSAII (Michael W. Deem and Ramdas Pophale) SiO2 
 PCOD8152039
Probable space group: C 2/C
;
_chemical_formula_sum "Si O2"
_cell_formula_units_Z 64
_cell_length_a 23.530607
_cell_length_b 11.836302
_cell_length_c 11.157586
_cell_angle_alpha 90.000000
_cell_angle_beta 82.282417
_cell_angle_gamma 90.000000
_cell_volume 3079.411039
_symmetry_space_group_name_H-M "C 2/C"
_symmetry_group_IT_number 15
_symmetry_cell_setting 'monoclinic'
loop_
_space_group_symop_operation_xyz
x,y,z
-x,y,1/2-z
-x,-y,-z
x,-y,1/2+z
1/2+x,1/2+y,z
1/2-x,1/2+y,1/2-z
1/2-x,1/2-y,-z
1/2+x,1/2-y,1/2+z
loop_
_atom_site_type_symbol
_atom_site_label
_atom_site_fract_x
_atom_site_fract_y
_atom_site_fract_z
Si Si1 0.026260 0.950177 0.870498
Si Si2 0.818641 0.723421 0.788732
Si Si3 0.884555 0.337722 0.501049
Si Si4 0.153700 0.064525 0.362603
Si Si5 0.315125 0.270084 0.443572
Si Si6 0.192043 0.175239 0.828409
Si Si7 0.127522 0.408691 0.436124
Si Si8 0.009257 0.315146 0.382555
O O1 0.091789 0.988277 0.853386
O O2 0.024657 0.815691 0.876309
O O3 0.000000 0.993434 0.750000
O O4 0.000000 0.000000 0.000000
O O5 0.864308 0.684614 0.872659
O O6 0.829760 0.852963 0.750704
O O7 0.753648 0.720578 0.854165
O O8 0.828238 0.639197 0.675008
O O9 0.859146 0.238822 0.589679
O O10 0.862501 0.458289 0.553890
O O11 0.953528 0.335071 0.480875
O O12 0.156326 0.130231 0.487211
O O13 0.195263 0.957342 0.357413
O O14 0.250000 0.250000 0.500000
O O15 0.318537 0.306881 0.307312
O O16 0.353115 0.155851 0.447864
O O17 0.061356 0.384023 0.425924
O O18 0.000000 0.360318 0.250000
#
# Coordination Sequence:
#
# PCOD8152039 Si02
#       8
#     8   8   8   8   8   8   8   8
#     4  11  23  41  69  96 135 180 226 280 339 408
#     4  11  24  46  67  97 134 186 217 274 356 403
#     4  12  27  42  70 106 134 169 238 284 331 405
#     4  11  25  45  69  96 136 179 224 272 345 409
#     4  11  24  46  68  96 136 184 221 271 350 406
#     4  12  28  40  71 105 135 172 233 287 329 404
#     4  11  24  44  72  95 134 184 220 277 340 409
#     4  11  21  46  69  96 134 181 224 271 349 409
#
# _framework density 20.783194999999999
#
# number of rings (size 3 to 8) (size 9 to 14) (size 15 to 20)
#    0.000    0.750    6.250    2.250    8.750    0.000 
#    0.000    0.625    0.000    0.000    0.000    0.000 
#    0.000    0.000    0.000    0.000    0.000    0.000 
#
# Total GULP energy -396868.698229 kJ/mol
# GULP energy per Si atom -12402.146820 kJ/mol
# Density = 2.073589 g / cm^3
# Si number density = 20.783195 Si / 1000 Ang^3
#
#
#
# Elastic Constant Matrix: (Units=GPa)
#
#
# Indices 1 2 3 4 5 6 
#
# 1 118.5498 18.6308 17.4350 0.0000 -7.5640 0.0000
# 2 18.6308 114.7716 25.9764 0.0000 -5.3082 0.0000
# 3 17.4350 25.9764 71.2748 0.0000 -2.9971 0.0000
# 4 0.0000 0.0000 0.0000 17.7085 0.0000 -6.7757
# 5 -7.5640 -5.3082 -2.9971 0.0000 38.8078 0.0000
# 6 0.0000 0.0000 0.0000 -6.7757 0.0000 30.0689
#
#
#
# Elastic Compliance Matrix: (Units=1/GPa)
#
#
# Indices 1 2 3 4 5 6 
#
# 1 0.008944 -0.000984 -0.001767 0.000000 0.001472 0.000000
# 2 -0.000984 0.009646 -0.003238 0.000000 0.000878 0.000000
# 3 -0.001767 -0.003238 0.015660 0.000000 0.000422 0.000000
# 4 0.000000 0.000000 0.000000 0.061799 0.000000 0.013926
# 5 0.001472 0.000878 0.000422 0.000000 0.026208 0.000000
# 6 0.000000 0.000000 0.000000 0.013926 0.000000 0.036395
#
#
# Mechanical properties :
#
#
# Convention : Reuss Voigt Hill
#
# Bulk Modulus (GPa) = 44.89943 47.63118 46.26531
# Shear Modulus (GPa) = 28.08144 33.48729 30.78437
#
# Velocity S-wave (km/s) = 3.67980 4.01841 3.85283
# Velocity P-wave (km/s) = 6.30121 6.67069 6.48858
#
# Compressibility (1/GPa) = 0.02227200
#
# Stress axis : x y z
#
# Youngs Moduli (GPa) = 111.81025 103.66881 63.85538
#
# Poissons Ratio (x) = 0.10198 0.11286
# Poissons Ratio (y) = 0.10999 0.20677
# Poissons Ratio (z) = 0.19761 0.33568
#
# Static dielectric constant tensor:
#      x y z
#    x 3.865300 0.000000 0.838470 
#    y 0.000000 3.773940 0.000000 
#    z 0.838470 0.000000 0.272130 
# 
# 
# High freq. dielectric constant tensor:
#      x y z
#    x 1.830200 0.000000 0.004350 
#    y 0.000000 1.812490 0.000000 
#    z 0.004350 0.000000 1.811200 
# 
# From -- ./inp_files/117543.got.cif
#   From: 2010.06.25/outbox.cif.g09.slc.cpg/sg15_59_cif.got.tgz:117543.got - 2010.06.28 07:06:18.
