data_PCOD8152978
_publ_section_title
;
Structure prediction by ZEFSAII (Michael W. Deem and Ramdas Pophale) SiO2 
 PCOD8152978
Probable space group: C 2/C
;
_chemical_formula_sum "Si O2"
_cell_formula_units_Z 56
_cell_length_a 8.574426
_cell_length_b 11.111837
_cell_length_c 27.811188
_cell_angle_alpha 90.000000
_cell_angle_beta 100.442752
_cell_angle_gamma 90.000000
_cell_volume 2605.894220
_symmetry_space_group_name_H-M "C 2/C"
_symmetry_group_IT_number 15
_symmetry_cell_setting 'monoclinic'
loop_
_space_group_symop_operation_xyz
x,y,z
-x,y,1/2-z
-x,-y,-z
x,-y,1/2+z
1/2+x,1/2+y,z
1/2-x,1/2+y,1/2-z
1/2-x,1/2-y,-z
1/2+x,1/2-y,1/2+z
loop_
_atom_site_type_symbol
_atom_site_label
_atom_site_fract_x
_atom_site_fract_y
_atom_site_fract_z
Si Si1 0.549060 0.550546 0.148099
Si Si2 0.581152 0.190688 0.482244
Si Si3 0.360235 0.389846 0.212111
Si Si4 0.847411 0.506648 0.719199
Si Si5 0.031740 0.317678 0.164304
Si Si6 0.065119 0.437797 0.435936
Si Si7 0.926857 0.929427 0.451384
O O1 0.441904 0.462139 0.173606
O O2 0.738209 0.553094 0.171802
O O3 0.473982 0.683769 0.148175
O O4 0.531639 0.508053 0.092627
O O5 0.750000 0.250000 0.500000
O O6 0.524106 0.144595 0.530598
O O7 0.485878 0.294332 0.450578
O O8 0.563779 0.080465 0.444585
O O9 0.500000 0.321057 0.250000
O O10 0.274985 0.480625 0.243948
O O11 0.220451 0.302807 0.186115
O O12 0.000000 0.432593 0.750000
O O13 0.926639 0.630639 0.702599
O O14 0.014155 0.411046 0.119657
O O15 0.245088 0.400658 0.447907
O O16 0.000000 0.000000 0.500000
#
# Coordination Sequence:
#
# PCOD8152978 Si02
#       7
#     8   8   8   8   8   8   8
#     4  11  24  41  66 100 135 175 222 276 338 402
#     4  11  25  44  68  95 139 174 231 281 326 401
#     4   9  22  41  65  96 132 169 223 270 340 399
#     4   9  20  43  64  95 129 170 222 272 332 408
#     4  11  23  41  69  94 138 170 221 277 335 403
#     4  11  25  43  66 101 129 184 226 272 346 397
#     4  12  24  43  69  96 139 180 226 278 338 403
#
# _framework density 21.489744999999999
#
# number of rings (size 3 to 8) (size 9 to 14) (size 15 to 20)
#    0.000    1.429    2.857    1.286    2.000    6.857 
#    0.000    2.857    0.000    0.000    0.000    0.000 
#    0.000    0.000    0.000    0.000    0.000    0.000 
#
# Total GULP energy -346886.527484 kJ/mol
# GULP energy per Si atom -12388.804553 kJ/mol
# Density = 2.144083 g / cm^3
# Si number density = 21.489745 Si / 1000 Ang^3
#
#
#
# Elastic Constant Matrix: (Units=GPa)
#
#
# Indices 1 2 3 4 5 6 
#
# 1 119.1082 26.8456 40.3528 0.0000 1.9917 0.0000
# 2 26.8456 102.3461 42.8317 0.0000 -8.0113 0.0000
# 3 40.3528 42.8317 137.0619 0.0000 0.5761 0.0000
# 4 0.0000 0.0000 0.0000 4.6822 0.0000 -1.4760
# 5 1.9917 -8.0113 0.5761 0.0000 34.8804 0.0000
# 6 0.0000 0.0000 0.0000 -1.4760 0.0000 27.5667
#
#
#
# Elastic Compliance Matrix: (Units=1/GPa)
#
#
# Indices 1 2 3 4 5 6 
#
# 1 0.009555 -0.001610 -0.002306 0.000000 -0.000877 0.000000
# 2 -0.001610 0.011760 -0.003213 0.000000 0.002846 0.000000
# 3 -0.002306 -0.003213 0.008982 0.000000 -0.000755 0.000000
# 4 0.000000 0.000000 0.000000 0.217240 0.000000 0.011632
# 5 -0.000877 0.002846 -0.000755 0.000000 0.029386 0.000000
# 6 0.000000 0.000000 0.000000 0.011632 0.000000 0.036898
#
#
# Mechanical properties :
#
#
# Convention : Reuss Voigt Hill
#
# Bulk Modulus (GPa) = 62.34796 64.28627 63.31712
# Shear Modulus (GPa) = 14.99584 29.99161 22.49373
#
# Velocity S-wave (km/s) = 2.64448 3.73986 3.23881
# Velocity P-wave (km/s) = 6.19679 6.97342 6.59654
#
# Compressibility (1/GPa) = 0.01603902
#
# Stress axis : x y z
#
# Youngs Moduli (GPa) = 104.66232 85.03052 111.33060
#
# Poissons Ratio (x) = 0.13687 0.25676
# Poissons Ratio (y) = 0.16847 0.35773
# Poissons Ratio (z) = 0.24138 0.27322
#
# Static dielectric constant tensor:
#      x y z
#    x 4.234940 0.000000 0.254040 
#    y 0.000000 4.086320 0.000000 
#    z 0.254040 0.000000 4.205010 
# 
# 
# High freq. dielectric constant tensor:
#      x y z
#    x 1.860070 0.000000 0.005390 
#    y 0.000000 1.826910 0.000000 
#    z 0.005390 0.000000 1.858610 
# 
# From -- ./inp_files/307259.got.cif
#   From: 2010.06.25/outbox.cif.g09.slc.cpg/sg15_154_cif.got.tgz:307259.got - 2010.06.28 07:06:18.
