data_PCOD8152582
_publ_section_title
;
Structure prediction by ZEFSAII (Michael W. Deem and Ramdas Pophale) SiO2 
 PCOD8152582
Probable space group: C 2/C
;
_chemical_formula_sum "Si O2"
_cell_formula_units_Z 56
_cell_length_a 11.134552
_cell_length_b 8.775830
_cell_length_c 28.750417
_cell_angle_alpha 90.000000
_cell_angle_beta 108.950694
_cell_angle_gamma 90.000000
_cell_volume 2657.074123
_symmetry_space_group_name_H-M "C 2/C"
_symmetry_group_IT_number 15
_symmetry_cell_setting 'monoclinic'
loop_
_space_group_symop_operation_xyz
x,y,z
-x,y,1/2-z
-x,-y,-z
x,-y,1/2+z
1/2+x,1/2+y,z
1/2-x,1/2+y,1/2-z
1/2-x,1/2-y,-z
1/2+x,1/2-y,1/2+z
loop_
_atom_site_type_symbol
_atom_site_label
_atom_site_fract_x
_atom_site_fract_y
_atom_site_fract_z
Si Si1 0.325555 0.263598 0.853750
Si Si2 0.987476 0.727700 0.696574
Si Si3 0.465376 0.232636 0.407630
Si Si4 0.277826 0.569928 0.139983
Si Si5 0.949254 0.936870 0.578833
Si Si6 0.343671 0.986148 0.616125
Si Si7 0.339602 0.339226 0.476231
O O1 0.372918 0.271908 0.805912
O O2 0.263530 0.101932 0.857035
O O3 0.449937 0.299778 0.900978
O O4 0.218245 0.388043 0.850320
O O5 0.933393 0.604759 0.653462
O O6 0.000000 0.660946 0.750000
O O7 0.896267 0.877190 0.687115
O O8 0.496966 0.403464 0.395093
O O9 0.436238 0.229698 0.459688
O O10 0.340188 0.180253 0.363856
O O11 0.579265 0.118439 0.410328
O O12 0.320698 0.597215 0.091696
O O13 0.920271 0.950265 0.520344
O O14 0.234609 0.064513 0.571910
O O15 0.250000 0.250000 0.500000
#
# Coordination Sequence:
#
# PCOD8152582 Si02
#       7
#     8   8   8   8   8   8   8
#     4  11  23  43  70  96 131 169 215 267 330 389
#     4  11  25  46  71  96 127 165 215 276 337 395
#     4  12  23  40  66  90 132 176 217 263 318 377
#     4  11  22  43  68  95 129 170 216 269 323 383
#     4  11  23  41  64  95 133 180 217 263 314 381
#     4  12  25  43  67  96 132 178 215 270 329 383
#     4  12  24  41  62  96 139 176 225 264 312 378
#
# _framework density 21.075813
#
# number of rings (size 3 to 8) (size 9 to 14) (size 15 to 20)
#    0.000    0.571    7.143    1.286    0.000    3.429 
#    0.000    0.714    0.000    0.000    0.000    0.000 
#    0.000    0.000    0.000    0.000    0.000    0.000 
#
# Total GULP energy -347077.857027 kJ/mol
# GULP energy per Si atom -12395.637751 kJ/mol
# Density = 2.102784 g / cm^3
# Si number density = 21.075813 Si / 1000 Ang^3
#
#
#
# Elastic Constant Matrix: (Units=GPa)
#
#
# Indices 1 2 3 4 5 6 
#
# 1 124.0720 49.1811 28.9565 0.0000 -23.8560 0.0000
# 2 49.1811 125.1551 35.0052 0.0000 -3.2203 0.0000
# 3 28.9565 35.0052 97.3571 0.0000 -20.9528 0.0000
# 4 0.0000 0.0000 0.0000 14.8739 0.0000 -4.6480
# 5 -23.8560 -3.2203 -20.9528 0.0000 28.1677 0.0000
# 6 0.0000 0.0000 0.0000 -4.6480 0.0000 42.7553
#
#
#
# Elastic Compliance Matrix: (Units=1/GPa)
#
#
# Indices 1 2 3 4 5 6 
#
# 1 0.011552 -0.004339 0.000146 0.000000 0.009397 0.000000
# 2 -0.004339 0.010575 -0.003623 0.000000 -0.005160 0.000000
# 3 0.000146 -0.003623 0.013654 0.000000 0.009866 0.000000
# 4 0.000000 0.000000 0.000000 0.069596 0.000000 0.007566
# 5 0.009397 -0.005160 0.009866 0.000000 0.050209 0.000000
# 6 0.000000 0.000000 0.000000 0.007566 0.000000 0.024211
#
#
# Mechanical properties :
#
#
# Convention : Reuss Voigt Hill
#
# Bulk Modulus (GPa) = 49.62342 63.65221 56.63781
# Shear Modulus (GPa) = 24.73461 32.72212 28.72837
#
# Velocity S-wave (km/s) = 3.42950 3.94457 3.69602
# Velocity P-wave (km/s) = 6.26724 7.14236 6.71906
#
# Compressibility (1/GPa) = 0.02015178
#
# Stress axis : x y z
#
# Youngs Moduli (GPa) = 86.56291 94.55821 73.23943
#
# Poissons Ratio (x) = 0.41027 -0.01072
# Poissons Ratio (y) = 0.37558 0.26532
# Poissons Ratio (z) = -0.01267 0.34254
#
# Static dielectric constant tensor:
#      x y z
#    x 4.287430 0.000000 -0.172400 
#    y 0.000000 3.875960 0.000000 
#    z -0.172400 0.000000 3.630170 
# 
# 
# High freq. dielectric constant tensor:
#      x y z
#    x 1.857560 0.000000 -0.014770 
#    y 0.000000 1.831330 0.000000 
#    z -0.014770 0.000000 1.786090 
# 
# From -- ./inp_files/310059.got.cif
#   From: 2010.06.25/outbox.cif.g09.slc.cpg/sg15_156_cif.got.tgz:310059.got - 2010.06.28 07:06:18.
