data_PCOD8152986
_publ_section_title
;
Structure prediction by ZEFSAII (Michael W. Deem and Ramdas Pophale) SiO2 
 PCOD8152986
Probable space group: C 2/C
;
_chemical_formula_sum "Si O2"
_cell_formula_units_Z 44
_cell_length_a 18.201978
_cell_length_b 6.308359
_cell_length_c 17.605403
_cell_angle_alpha 90.000000
_cell_angle_beta 108.684850
_cell_angle_gamma 90.000000
_cell_volume 1914.988678
_symmetry_space_group_name_H-M "C 2/C"
_symmetry_group_IT_number 15
_symmetry_cell_setting 'monoclinic'
loop_
_space_group_symop_operation_xyz
x,y,z
-x,y,1/2-z
-x,-y,-z
x,-y,1/2+z
1/2+x,1/2+y,z
1/2-x,1/2+y,1/2-z
1/2-x,1/2-y,-z
1/2+x,1/2-y,1/2+z
loop_
_atom_site_type_symbol
_atom_site_label
_atom_site_fract_x
_atom_site_fract_y
_atom_site_fract_z
Si Si1 0.313665 0.708398 0.823197
Si Si2 0.382523 0.321336 0.934436
Si Si3 0.448062 0.021711 0.839901
Si Si4 0.425465 0.331160 0.117193
Si Si5 0.233974 0.080051 0.854206
Si Si6 0.500000 0.659133 0.250000
O O1 0.365117 0.530412 0.880430
O O2 0.376134 0.867886 0.809176
O O3 0.255215 0.827243 0.863604
O O4 0.264814 0.623212 0.735942
O O5 0.444166 0.162043 0.915535
O O6 0.301453 0.202646 0.920270
O O7 0.417433 0.390258 0.026503
O O8 0.529960 0.894075 0.860226
O O9 0.436296 0.184299 0.765615
O O10 0.343255 0.336728 0.132045
O O11 0.472625 0.519310 0.170948
#
# Coordination Sequence:
#
# PCOD8152986 Si02
#       6
#     8   8   8   8   8   4
#     4  11  23  43  70 101 133 188 234 279 353 418
#     4  11  25  44  69 101 139 185 230 288 346 419
#     4  11  25  45  70  98 140 187 229 285 353 419
#     4  12  26  44  68 104 139 180 237 288 351 411
#     4  11  23  41  70  99 139 179 234 289 344 420
#     4  12  26  42  70 100 134 178 226 292 338 416
#
# _framework density 22.976638000000001
#
# number of rings (size 3 to 8) (size 9 to 14) (size 15 to 20)
#    0.000    0.727    1.818    6.000    2.545    8.000 
#    0.000    0.000    0.000    0.000    0.000    0.000 
#    0.000    0.000    0.000    0.000    0.000    0.000 
#
# Total GULP energy -272657.119677 kJ/mol
# GULP energy per Si atom -12393.505440 kJ/mol
# Density = 2.292434 g / cm^3
# Si number density = 22.976638 Si / 1000 Ang^3
#
#
#
# Elastic Constant Matrix: (Units=GPa)
#
#
# Indices 1 2 3 4 5 6 
#
# 1 122.3203 56.7445 0.5959 0.0000 -9.2383 0.0000
# 2 56.7445 128.6263 29.5435 0.0000 -3.9905 0.0000
# 3 0.5959 29.5435 92.8380 0.0000 4.9398 0.0000
# 4 0.0000 0.0000 0.0000 27.6446 0.0000 1.2180
# 5 -9.2383 -3.9905 4.9398 0.0000 26.8266 0.0000
# 6 0.0000 0.0000 0.0000 1.2180 0.0000 60.7564
#
#
#
# Elastic Compliance Matrix: (Units=1/GPa)
#
#
# Indices 1 2 3 4 5 6 
#
# 1 0.010659 -0.004931 0.001358 0.000000 0.002687 0.000000
# 2 -0.004931 0.010751 -0.003418 0.000000 0.000531 0.000000
# 3 0.001358 -0.003418 0.011970 0.000000 -0.002245 0.000000
# 4 0.000000 0.000000 0.000000 0.036205 0.000000 -0.000726
# 5 0.002687 0.000531 -0.002245 0.000000 0.038694 0.000000
# 6 0.000000 0.000000 0.000000 -0.000726 0.000000 0.016474
#
#
# Mechanical properties :
#
#
# Convention : Reuss Voigt Hill
#
# Bulk Modulus (GPa) = 51.55142 57.50582 54.52862
# Shear Modulus (GPa) = 34.43495 40.17223 37.30359
#
# Velocity S-wave (km/s) = 3.87550 4.18592 4.03369
# Velocity P-wave (km/s) = 6.52006 6.96023 6.74374
#
# Compressibility (1/GPa) = 0.01939811
#
# Stress axis : x y z
#
# Youngs Moduli (GPa) = 93.81758 93.01279 83.54316
#
# Poissons Ratio (x) = 0.45862 -0.11343
# Poissons Ratio (y) = 0.46259 0.28554
# Poissons Ratio (z) = -0.12738 0.31791
#
# Static dielectric constant tensor:
#      x y z
#    x 4.269240 0.000000 -0.023300 
#    y 0.000000 4.631730 0.000000 
#    z -0.023300 0.000000 4.017640 
# 
# 
# High freq. dielectric constant tensor:
#      x y z
#    x 1.913010 0.000000 -0.002000 
#    y 0.000000 1.926200 0.000000 
#    z -0.002000 0.000000 1.896760 
# 
# From -- ./inp_files/212844.got.cif
#   From: 2010.06.25/outbox.cif.g09.slc.cpg/sg15_107_cif.got.tgz:212844.got - 2010.06.28 07:06:18.
