data_PCOD8152193
_publ_section_title
;
Structure prediction by ZEFSAII (Michael W. Deem and Ramdas Pophale) SiO2 
 PCOD8152193
Probable space group: C 2/C
;
_chemical_formula_sum "Si O2"
_cell_formula_units_Z 64
_cell_length_a 18.809808
_cell_length_b 11.254951
_cell_length_c 14.787214
_cell_angle_alpha 90.000000
_cell_angle_beta 81.004324
_cell_angle_gamma 90.000000
_cell_volume 3091.999721
_symmetry_space_group_name_H-M "C 2/C"
_symmetry_group_IT_number 15
_symmetry_cell_setting 'monoclinic'
loop_
_space_group_symop_operation_xyz
x,y,z
-x,y,1/2-z
-x,-y,-z
x,-y,1/2+z
1/2+x,1/2+y,z
1/2-x,1/2+y,1/2-z
1/2-x,1/2-y,-z
1/2+x,1/2-y,1/2+z
loop_
_atom_site_type_symbol
_atom_site_label
_atom_site_fract_x
_atom_site_fract_y
_atom_site_fract_z
Si Si1 0.180490 0.089487 0.869002
Si Si2 0.668368 0.554789 0.196405
Si Si3 0.411586 0.488945 0.450731
Si Si4 0.657749 0.978970 0.163444
Si Si5 0.516049 0.688080 0.448254
Si Si6 0.918962 0.728051 0.734572
Si Si7 0.172068 0.364421 0.823766
Si Si8 0.430727 0.921861 0.497431
O O1 0.262339 0.060758 0.880411
O O2 0.171259 0.223824 0.837437
O O3 0.153947 0.006119 0.794151
O O4 0.129663 0.060317 0.962556
O O5 0.641851 0.467479 0.122141
O O6 0.620453 0.672901 0.197984
O O7 0.750965 0.584151 0.163805
O O8 0.479028 0.572494 0.409891
O O9 0.441707 0.358424 0.471163
O O10 0.626439 0.890648 0.245122
O O11 0.610309 0.976635 0.081771
O O12 0.656401 0.103650 0.220400
O O13 0.578919 0.738571 0.371346
O O14 0.454984 0.786198 0.478054
O O15 0.000000 0.707556 0.750000
O O16 0.117097 0.427568 0.903248
O O17 0.500000 0.000000 0.500000
#
# Coordination Sequence:
#
# PCOD8152193 Si02
#       8
#     8   8   8   8   8   8   8   8
#     4  11  23  42  67  91 128 166 211 268 317 377
#     4  11  23  40  65  95 125 169 210 261 324 373
#     4  11  22  39  62  94 129 157 208 267 317 370
#     4  11  25  42  65  93 124 167 215 261 311 381
#     4  11  23  37  61  94 125 162 206 259 313 378
#     4  12  20  38  65  89 122 167 211 257 309 377
#     4  11  25  43  64  96 128 167 217 260 319 385
#     4  12  25  43  66  94 129 172 212 258 322 384
#
# _framework density 20.698578000000001
#
# number of rings (size 3 to 8) (size 9 to 14) (size 15 to 20)
#    0.000    0.750    6.250    1.500    0.000    2.000 
#    0.000    0.000    0.000    6.000    0.000    0.000 
#    0.000    0.000    0.000    0.000    0.000    0.000 
#
# Total GULP energy -396752.696885 kJ/mol
# GULP energy per Si atom -12398.521778 kJ/mol
# Density = 2.065147 g / cm^3
# Si number density = 20.698578 Si / 1000 Ang^3
#
#
#
# Elastic Constant Matrix: (Units=GPa)
#
#
# Indices 1 2 3 4 5 6 
#
# 1 91.1957 16.4072 30.4796 0.0000 4.6784 0.0000
# 2 16.4072 42.8937 15.3221 0.0000 9.6953 0.0000
# 3 30.4796 15.3221 62.2186 0.0000 3.3735 0.0000
# 4 0.0000 0.0000 0.0000 22.6760 0.0000 -3.9053
# 5 4.6784 9.6953 3.3735 0.0000 43.7312 0.0000
# 6 0.0000 0.0000 0.0000 -3.9053 0.0000 32.0030
#
#
#
# Elastic Compliance Matrix: (Units=1/GPa)
#
#
# Indices 1 2 3 4 5 6 
#
# 1 0.013474 -0.002992 -0.005846 0.000000 -0.000327 0.000000
# 2 -0.002992 0.027462 -0.005006 0.000000 -0.005382 0.000000
# 3 -0.005846 -0.005006 0.020159 0.000000 0.000180 0.000000
# 4 0.000000 0.000000 0.000000 0.045046 0.000000 0.005497
# 5 -0.000327 -0.005382 0.000180 0.000000 0.024081 0.000000
# 6 0.000000 0.000000 0.000000 0.005497 0.000000 0.031918
#
#
# Mechanical properties :
#
#
# Convention : Reuss Voigt Hill
#
# Bulk Modulus (GPa) = 29.93219 35.63622 32.78420
# Shear Modulus (GPa) = 24.87994 28.62197 26.75095
#
# Velocity S-wave (km/s) = 3.47077 3.72263 3.59890
# Velocity P-wave (km/s) = 5.52757 5.97758 5.75697
#
# Compressibility (1/GPa) = 0.03340885
#
# Stress axis : x y z
#
# Youngs Moduli (GPa) = 74.21459 36.41340 49.60496
#
# Poissons Ratio (x) = 0.10894 0.29001
# Poissons Ratio (y) = 0.22203 0.24830
# Poissons Ratio (z) = 0.43388 0.18227
#
# Static dielectric constant tensor:
#      x y z
#    x 3.919170 0.000000 -0.125490 
#    y 0.000000 3.825740 0.000000 
#    z -0.125490 0.000000 3.902400 
# 
# 
# High freq. dielectric constant tensor:
#      x y z
#    x 1.823530 0.000000 -0.009930 
#    y 0.000000 1.802050 0.000000 
#    z -0.009930 0.000000 1.810860 
# 
# From -- ./inp_files/161342.got.cif
#   From: 2010.06.25/outbox.cif.g09.slc.cpg/sg15_81_cif.got.tgz:161342.got - 2010.06.28 07:06:18.
