data_PCOD8152267
_publ_section_title
;
Structure prediction by ZEFSAII (Michael W. Deem and Ramdas Pophale) SiO2 
 PCOD8152267
Probable space group: C 2/C
;
_chemical_formula_sum "Si O2"
_cell_formula_units_Z 56
_cell_length_a 29.809032
_cell_length_b 18.884807
_cell_length_c 9.273542
_cell_angle_alpha 90.000000
_cell_angle_beta 30.186520
_cell_angle_gamma 90.000000
_cell_volume 2624.917568
_symmetry_space_group_name_H-M "C 2/C"
_symmetry_group_IT_number 15
_symmetry_cell_setting 'monoclinic'
loop_
_space_group_symop_operation_xyz
x,y,z
-x,y,1/2-z
-x,-y,-z
x,-y,1/2+z
1/2+x,1/2+y,z
1/2-x,1/2+y,1/2-z
1/2-x,1/2-y,-z
1/2+x,1/2-y,1/2+z
loop_
_atom_site_type_symbol
_atom_site_label
_atom_site_fract_x
_atom_site_fract_y
_atom_site_fract_z
Si Si1 0.246951 0.336903 0.290337
Si Si2 0.053197 0.453981 0.238683
Si Si3 0.610944 0.731209 0.310293
Si Si4 0.907741 0.222817 0.821184
Si Si5 0.304888 0.622121 0.942705
Si Si6 0.684897 0.869825 0.035951
Si Si7 0.271782 0.028246 0.842783
O O1 0.156492 0.290450 0.532428
O O2 0.271511 0.343780 0.388889
O O3 0.237251 0.417308 0.262930
O O4 0.332678 0.308523 0.966699
O O5 0.090627 0.390363 0.228613
O O6 0.000000 0.423129 0.250000
O O7 0.000000 0.500000 0.500000
O O8 0.130900 0.496924 0.944673
O O9 0.511173 0.746093 0.529298
O O10 0.612354 0.691846 0.461103
O O11 0.661939 0.805169 0.205126
O O12 0.899000 0.158091 0.728670
O O13 0.245226 0.655902 0.236341
O O14 0.301484 0.535946 0.956208
O O15 0.733277 0.932876 0.988613
#
# Coordination Sequence:
#
# PCOD8152267 Si02
#       7
#     8   8   8   8   8   8   8
#     4  12  24  44  68 100 133 175 226 285 338 398
#     4  11  23  36  56  93 134 171 214 272 338 412
#     4  11  25  42  68  97 128 184 223 273 341 404
#     4  11  24  43  69  95 138 174 228 274 334 414
#     4  11  24  42  64 101 133 176 221 280 338 398
#     4  11  22  40  62  93 132 173 222 271 333 408
#     4  11  24  41  68  89 133 183 222 273 345 407
#
# _framework density 21.334004
#
# number of rings (size 3 to 8) (size 9 to 14) (size 15 to 20)
#    0.000    0.857    4.286    3.429    4.000    0.571 
#    0.000    0.714    0.000    1.714    0.000    0.000 
#    0.000    0.000    0.000    0.000    0.000    0.000 
#
# Total GULP energy -346948.463673 kJ/mol
# GULP energy per Si atom -12391.016560 kJ/mol
# Density = 2.128545 g / cm^3
# Si number density = 21.334004 Si / 1000 Ang^3
#
#
#
# Elastic Constant Matrix: (Units=GPa)
#
#
# Indices 1 2 3 4 5 6 
#
# 1 133.8891 47.3664 12.9776 0.0000 9.9415 0.0000
# 2 47.3664 107.9588 17.1387 0.0000 -7.2508 0.0000
# 3 12.9776 17.1387 58.0372 0.0000 2.3543 0.0000
# 4 0.0000 0.0000 0.0000 22.1032 0.0000 4.4240
# 5 9.9415 -7.2508 2.3543 0.0000 28.0742 0.0000
# 6 0.0000 0.0000 0.0000 4.4240 0.0000 40.1843
#
#
#
# Elastic Compliance Matrix: (Units=1/GPa)
#
#
# Indices 1 2 3 4 5 6 
#
# 1 0.009381 -0.004307 -0.000648 0.000000 -0.004380 0.000000
# 2 -0.004307 0.011914 -0.002751 0.000000 0.004833 0.000000
# 3 -0.000648 -0.002751 0.018269 0.000000 -0.002013 0.000000
# 4 0.000000 0.000000 0.000000 0.046262 0.000000 -0.005093
# 5 -0.004380 0.004833 -0.002013 0.000000 0.038588 0.000000
# 6 0.000000 0.000000 0.000000 -0.005093 0.000000 0.025446
#
#
# Mechanical properties :
#
#
# Convention : Reuss Voigt Hill
#
# Bulk Modulus (GPa) = 41.40556 50.53894 45.97225
# Shear Modulus (GPa) = 28.84801 32.89917 30.87359
#
# Velocity S-wave (km/s) = 3.68123 3.93122 3.80827
# Velocity P-wave (km/s) = 6.12527 6.65934 6.39788
#
# Compressibility (1/GPa) = 0.02415135
#
# Stress axis : x y z
#
# Youngs Moduli (GPa) = 106.60311 83.93616 54.73652
#
# Poissons Ratio (x) = 0.36151 0.03547
# Poissons Ratio (y) = 0.45914 0.15059
# Poissons Ratio (z) = 0.06908 0.23092
#
# Static dielectric constant tensor:
#      x y z
#    x 4.231650 0.000000 -0.017900 
#    y 0.000000 4.130010 0.000000 
#    z -0.017900 0.000000 3.823620 
# 
# 
# High freq. dielectric constant tensor:
#      x y z
#    x 1.855850 0.000000 0.013870 
#    y 0.000000 1.832200 0.000000 
#    z 0.013870 0.000000 1.824880 
# 
# From -- ./inp_files/70832.got.cif
#   From: 2010.06.25/outbox.cif.g09.slc.cpg/sg15_36_cif.got.tgz:70832.got - 2010.06.28 07:06:18.
