data_PCOD8152275
_publ_section_title
;
Structure prediction by ZEFSAII (Michael W. Deem and Ramdas Pophale) SiO2 
 PCOD8152275
Probable space group: C 2/C
;
_chemical_formula_sum "Si O2"
_cell_formula_units_Z 64
_cell_length_a 29.569820
_cell_length_b 17.410741
_cell_length_c 8.991398
_cell_angle_alpha 90.000000
_cell_angle_beta 138.288830
_cell_angle_gamma 90.000000
_cell_volume 3080.067438
_symmetry_space_group_name_H-M "C 2/C"
_symmetry_group_IT_number 15
_symmetry_cell_setting 'monoclinic'
loop_
_space_group_symop_operation_xyz
x,y,z
-x,y,1/2-z
-x,-y,-z
x,-y,1/2+z
1/2+x,1/2+y,z
1/2-x,1/2+y,1/2-z
1/2-x,1/2-y,-z
1/2+x,1/2-y,1/2+z
loop_
_atom_site_type_symbol
_atom_site_label
_atom_site_fract_x
_atom_site_fract_y
_atom_site_fract_z
Si Si1 0.262759 0.104240 0.973066
Si Si2 0.889303 0.079774 0.902330
Si Si3 0.797484 0.312638 0.283328
Si Si4 0.197944 0.685672 0.145886
Si Si5 0.564338 0.727330 0.332843
Si Si6 0.232333 0.568487 0.024556
Si Si7 0.380778 0.574413 0.526048
Si Si8 0.931067 0.770380 0.008363
O O1 0.258463 0.154344 0.110742
O O2 0.291826 0.018062 0.070234
O O3 0.186527 0.097726 0.724243
O O4 0.310364 0.152713 0.978645
O O5 0.890090 0.073483 0.726117
O O6 0.915715 0.000323 0.038931
O O7 0.936343 0.145990 0.083371
O O8 0.744910 0.241587 0.160371
O O9 0.761168 0.383760 0.111126
O O10 0.868624 0.287455 0.385407
O O11 0.131049 0.726033 0.042118
O O12 0.177017 0.613084 0.990893
O O13 0.500000 0.771079 0.250000
O O14 0.558612 0.718569 0.141955
O O15 0.302050 0.573085 0.287714
O O16 0.417776 0.648261 0.551572
O O17 0.000000 0.735909 0.250000
#
# Coordination Sequence:
#
# PCOD8152275 Si02
#       8
#     8   8   8   8   8   8   8   8
#     4  11  24  36  67 100 137 167 215 269 333 386
#     4  11  23  40  63  99 136 174 214 261 326 397
#     4  12  23  40  69  98 131 171 221 274 326 385
#     4  12  22  41  67  99 132 170 220 271 326 380
#     4  12  27  43  66  93 131 174 219 269 329 391
#     4  11  22  40  64 101 133 171 211 271 330 387
#     4  11  23  39  65  96 138 172 215 262 325 398
#     4  12  26  44  66  93 130 173 219 272 329 389
#
# _framework density 20.778766000000001
#
# number of rings (size 3 to 8) (size 9 to 14) (size 15 to 20)
#    0.000    0.500    5.000    3.750    8.750    0.500 
#    0.000    2.500    0.000    4.500    0.000    0.000 
#    0.000    0.000    0.000    0.000    0.000    0.000 
#
# Total GULP energy -396759.182310 kJ/mol
# GULP energy per Si atom -12398.724447 kJ/mol
# Density = 2.073147 g / cm^3
# Si number density = 20.778766 Si / 1000 Ang^3
#
#
#
# Elastic Constant Matrix: (Units=GPa)
#
#
# Indices 1 2 3 4 5 6 
#
# 1 122.6518 32.2414 36.4874 0.0000 -8.4663 0.0000
# 2 32.2414 84.1653 23.6114 0.0000 3.1483 0.0000
# 3 36.4874 23.6114 82.2247 0.0000 -7.7474 0.0000
# 4 0.0000 0.0000 0.0000 32.8156 0.0000 -12.6314
# 5 -8.4663 3.1483 -7.7474 0.0000 41.9932 0.0000
# 6 0.0000 0.0000 0.0000 -12.6314 0.0000 31.8148
#
#
#
# Elastic Compliance Matrix: (Units=1/GPa)
#
#
# Indices 1 2 3 4 5 6 
#
# 1 0.010071 -0.002944 -0.003472 0.000000 0.001611 0.000000
# 2 -0.002944 0.013901 -0.002890 0.000000 -0.002169 0.000000
# 3 -0.003472 -0.002890 0.014743 0.000000 0.002237 0.000000
# 4 0.000000 0.000000 0.000000 0.035970 0.000000 0.014281
# 5 0.001611 -0.002169 0.002237 0.000000 0.024713 0.000000
# 6 0.000000 0.000000 0.000000 0.014281 0.000000 0.037102
#
#
# Mechanical properties :
#
#
# Convention : Reuss Voigt Hill
#
# Bulk Modulus (GPa) = 49.74220 52.63579 51.18899
# Shear Modulus (GPa) = 30.89977 34.43817 32.66897
#
# Velocity S-wave (km/s) = 3.86046 4.07550 3.96944
# Velocity P-wave (km/s) = 6.62282 6.89440 6.75998
#
# Compressibility (1/GPa) = 0.02010365
#
# Stress axis : x y z
#
# Youngs Moduli (GPa) = 99.29375 71.93723 67.82899
#
# Poissons Ratio (x) = 0.21180 0.23549
# Poissons Ratio (y) = 0.29234 0.19600
# Poissons Ratio (z) = 0.34473 0.20787
#
# Static dielectric constant tensor:
#      x y z
#    x 3.826160 0.000000 -0.158730 
#    y 0.000000 4.075570 0.000000 
#    z -0.158730 0.000000 3.665140 
# 
# 
# High freq. dielectric constant tensor:
#      x y z
#    x 1.817440 0.000000 -0.026640 
#    y 0.000000 1.817180 0.000000 
#    z -0.026640 0.000000 1.803090 
# 
# From -- ./inp_files/70601.got.cif
#   From: 2010.06.25/outbox.cif.g09.slc.cpg/sg15_36_cif.got.tgz:70601.got - 2010.06.28 07:06:18.
