data_PCOD8152734
_publ_section_title
;
Structure prediction by ZEFSAII (Michael W. Deem and Ramdas Pophale) SiO2 
 PCOD8152734
Probable space group: C 2/C
;
_chemical_formula_sum "Si O2"
_cell_formula_units_Z 40
_cell_length_a 12.637891
_cell_length_b 8.290472
_cell_length_c 17.692745
_cell_angle_alpha 90.000000
_cell_angle_beta 80.888374
_cell_angle_gamma 90.000000
_cell_volume 1830.350034
_symmetry_space_group_name_H-M "C 2/C"
_symmetry_group_IT_number 15
_symmetry_cell_setting 'monoclinic'
loop_
_space_group_symop_operation_xyz
x,y,z
-x,y,1/2-z
-x,-y,-z
x,-y,1/2+z
1/2+x,1/2+y,z
1/2-x,1/2+y,1/2-z
1/2-x,1/2-y,-z
1/2+x,1/2-y,1/2+z
loop_
_atom_site_type_symbol
_atom_site_label
_atom_site_fract_x
_atom_site_fract_y
_atom_site_fract_z
Si Si1 0.679764 0.683180 0.574723
Si Si2 0.521717 0.135024 0.435483
Si Si3 0.138154 0.820288 0.539128
Si Si4 0.203030 0.481060 0.312680
Si Si5 0.115959 0.760187 0.708216
O O1 0.750000 0.750000 0.500000
O O2 0.582303 0.808159 0.599936
O O3 0.638091 0.507849 0.556720
O O4 0.751596 0.667122 0.641877
O O5 0.555716 0.290736 0.480713
O O6 0.500000 0.000000 0.500000
O O7 0.613174 0.081173 0.367516
O O8 0.250000 0.750000 0.500000
O O9 0.106534 0.725720 0.619740
O O10 0.151904 0.406801 0.243163
O O11 0.299791 0.599874 0.280770
O O12 0.000000 0.817183 0.750000
#
# Coordination Sequence:
#
# PCOD8152734 Si02
#       5
#     8   8   8   8   8
#     4  11  23  41  69 104 135 179 233 287 348 410
#     4  12  22  43  71 103 139 179 234 284 350 415
#     4  11  22  45  71 101 137 180 234 288 340 417
#     4  11  26  47  66 102 142 183 233 289 347 424
#     4  11  26  45  69 101 141 182 231 289 352 411
#
# _framework density 21.853743000000001
#
# number of rings (size 3 to 8) (size 9 to 14) (size 15 to 20)
#    0.000    0.800    6.000    1.800    0.000    8.000 
#    0.000    0.000    0.000    0.000    0.000    0.000 
#    0.000    0.000    0.000    0.000    0.000    0.000 
#
# Total GULP energy -248020.255935 kJ/mol
# GULP energy per Si atom -12401.012797 kJ/mol
# Density = 2.180400 g / cm^3
# Si number density = 21.853743 Si / 1000 Ang^3
#
#
#
# Elastic Constant Matrix: (Units=GPa)
#
#
# Indices 1 2 3 4 5 6 
#
# 1 141.4636 39.4985 55.0181 0.0000 -24.8475 0.0000
# 2 39.4985 76.5191 36.8811 0.0000 -4.7070 0.0000
# 3 55.0181 36.8811 132.0008 0.0000 -13.9310 0.0000
# 4 0.0000 0.0000 0.0000 40.8800 0.0000 11.3662
# 5 -24.8475 -4.7070 -13.9310 0.0000 41.6417 0.0000
# 6 0.0000 0.0000 0.0000 11.3662 0.0000 44.1412
#
#
#
# Elastic Compliance Matrix: (Units=1/GPa)
#
#
# Indices 1 2 3 4 5 6 
#
# 1 0.009902 -0.003551 -0.002647 0.000000 0.004621 0.000000
# 2 -0.003551 0.016380 -0.003239 0.000000 -0.001351 0.000000
# 3 -0.002647 -0.003239 0.009722 0.000000 0.001307 0.000000
# 4 0.000000 0.000000 0.000000 0.026348 0.000000 -0.006785
# 5 0.004621 -0.001351 0.001307 0.000000 0.027056 0.000000
# 6 0.000000 0.000000 0.000000 -0.006785 0.000000 0.024402
#
#
# Mechanical properties :
#
#
# Convention : Reuss Voigt Hill
#
# Bulk Modulus (GPa) = 58.38061 68.08653 63.23357
# Shear Modulus (GPa) = 36.12888 39.90497 38.01692
#
# Velocity S-wave (km/s) = 4.07038 4.27781 4.17538
# Velocity P-wave (km/s) = 6.99020 7.45806 7.22792
#
# Compressibility (1/GPa) = 0.01712898
#
# Stress axis : x y z
#
# Youngs Moduli (GPa) = 100.99281 61.05131 102.86005
#
# Poissons Ratio (x) = 0.21679 0.27229
# Poissons Ratio (y) = 0.35862 0.33316
# Poissons Ratio (z) = 0.26735 0.19775
#
# Static dielectric constant tensor:
#      x y z
#    x 3.952330 0.000000 -0.697980 
#    y 0.000000 4.378930 0.000000 
#    z -0.697980 0.000000 2.252260 
# 
# 
# High freq. dielectric constant tensor:
#      x y z
#    x 1.875060 0.000000 -0.000840 
#    y 0.000000 1.858280 0.000000 
#    z -0.000840 0.000000 1.860220 
# 
# From -- ./inp_files/150688.got.cif
#   From: 2010.06.25/outbox.cif.g09.slc.cpg/sg15_76_cif.got.tgz:150688.got - 2010.06.28 07:06:18.
