data_PCOD8152195
_publ_section_title
;
Structure prediction by ZEFSAII (Michael W. Deem and Ramdas Pophale) SiO2 
 PCOD8152195
Probable space group: C 2/C
;
_chemical_formula_sum "Si O2"
_cell_formula_units_Z 56
_cell_length_a 8.964521
_cell_length_b 11.681852
_cell_length_c 29.259291
_cell_angle_alpha 90.000000
_cell_angle_beta 122.075285
_cell_angle_gamma 90.000000
_cell_volume 2596.366320
_symmetry_space_group_name_H-M "C 2/C"
_symmetry_group_IT_number 15
_symmetry_cell_setting 'monoclinic'
loop_
_space_group_symop_operation_xyz
x,y,z
-x,y,1/2-z
-x,-y,-z
x,-y,1/2+z
1/2+x,1/2+y,z
1/2-x,1/2+y,1/2-z
1/2-x,1/2-y,-z
1/2+x,1/2-y,1/2+z
loop_
_atom_site_type_symbol
_atom_site_label
_atom_site_fract_x
_atom_site_fract_y
_atom_site_fract_z
Si Si1 0.097426 0.274120 0.811904
Si Si2 0.014358 0.163889 0.128252
Si Si3 0.622372 0.071539 0.399564
Si Si4 0.536025 0.300214 0.534231
Si Si5 0.588737 0.955189 0.059163
Si Si6 0.516919 0.419144 0.362574
Si Si7 0.294883 0.668051 0.907224
O O1 0.307328 0.261674 0.839026
O O2 0.047909 0.368520 0.842028
O O3 0.031056 0.149711 0.817609
O O4 0.000000 0.309657 0.750000
O O5 0.850960 0.232643 0.123613
O O6 0.972739 0.127335 0.068281
O O7 0.065275 0.043941 0.161626
O O8 0.766833 0.156440 0.446932
O O9 0.465706 0.042193 0.409003
O O10 0.709006 0.954003 0.398868
O O11 0.526599 0.174754 0.555911
O O12 0.410313 0.307130 0.470762
O O13 0.795890 0.954504 0.085853
O O14 0.500000 0.000000 0.000000
O O15 0.414762 0.336866 0.381584
#
# Coordination Sequence:
#
# PCOD8152195 Si02
#       7
#     8   8   8   8   8   8   8
#     4  11  26  54  71  93 136 175 233 309 351 390
#     4  11  24  46  65 102 138 177 229 279 341 412
#     4  11  23  44  66  97 141 184 229 288 338 408
#     4  11  22  39  62  99 149 186 217 274 332 410
#     4  12  25  38  64 105 147 190 224 272 345 420
#     4  12  25  44  67 102 136 178 236 282 336 421
#     4  12  23  39  70 103 141 183 224 266 343 423
#
# _framework density 21.568604000000001
#
# number of rings (size 3 to 8) (size 9 to 14) (size 15 to 20)
#    0.000    0.571    7.143    2.571    6.000    1.143 
#    5.143    0.714    0.000    0.000    0.000    0.000 
#    0.000    0.000    0.000    0.000    0.000    0.000 
#
# Total GULP energy -347092.452398 kJ/mol
# GULP energy per Si atom -12396.159014 kJ/mol
# Density = 2.151951 g / cm^3
# Si number density = 21.568604 Si / 1000 Ang^3
#
#
#
# Elastic Constant Matrix: (Units=GPa)
#
#
# Indices 1 2 3 4 5 6 
#
# 1 144.1822 49.4039 48.2663 0.0000 -5.9261 0.0000
# 2 49.4039 116.8749 39.7204 0.0000 -5.3505 0.0000
# 3 48.2663 39.7204 108.6561 0.0000 -4.8311 0.0000
# 4 0.0000 0.0000 0.0000 23.8047 0.0000 -0.9101
# 5 -5.9261 -5.3505 -4.8311 0.0000 12.1569 0.0000
# 6 0.0000 0.0000 0.0000 -0.9101 0.0000 41.4685
#
#
#
# Elastic Compliance Matrix: (Units=1/GPa)
#
#
# Indices 1 2 3 4 5 6 
#
# 1 0.008906 -0.002693 -0.002882 0.000000 0.002011 0.000000
# 2 -0.002693 0.010688 -0.002606 0.000000 0.002356 0.000000
# 3 -0.002882 -0.002606 0.011527 0.000000 0.002029 0.000000
# 4 0.000000 0.000000 0.000000 0.042044 0.000000 0.000923
# 5 0.002011 0.002356 0.002029 0.000000 0.085081 0.000000
# 6 0.000000 0.000000 0.000000 0.000923 0.000000 0.024135
#
#
# Mechanical properties :
#
#
# Convention : Reuss Voigt Hill
#
# Bulk Modulus (GPa) = 67.76092 71.61049 69.68570
# Shear Modulus (GPa) = 24.55044 30.97419 27.76232
#
# Velocity S-wave (km/s) = 3.37745 3.79367 3.59160
# Velocity P-wave (km/s) = 6.83332 7.24311 7.04120
#
# Compressibility (1/GPa) = 0.01475777
#
# Stress axis : x y z
#
# Youngs Moduli (GPa) = 112.28470 93.56242 86.75596
#
# Poissons Ratio (x) = 0.25196 0.25005
# Poissons Ratio (y) = 0.30238 0.22610
# Poissons Ratio (z) = 0.32363 0.24384
#
# Static dielectric constant tensor:
#      x y z
#    x 5.857110 0.000000 -0.629990 
#    y 0.000000 5.482330 0.000000 
#    z -0.629990 0.000000 4.372650 
# 
# 
# High freq. dielectric constant tensor:
#      x y z
#    x 1.857790 0.000000 -0.001290 
#    y 0.000000 1.871660 0.000000 
#    z -0.001290 0.000000 1.800870 
# 
# From -- ./inp_files/307389.got.cif
#   From: 2010.06.25/outbox.cif.g09.slc.cpg/sg15_154_cif.got.tgz:307389.got - 2010.06.28 07:06:18.
