data_PCOD8152136
_publ_section_title
;
Structure prediction by ZEFSAII (Michael W. Deem and Ramdas Pophale) SiO2 
 PCOD8152136
Probable space group: C 2/C
;
_chemical_formula_sum "Si O2"
_cell_formula_units_Z 56
_cell_length_a 10.613841
_cell_length_b 26.438416
_cell_length_c 14.447316
_cell_angle_alpha 90.000000
_cell_angle_beta 136.588763
_cell_angle_gamma 90.000000
_cell_volume 2786.103770
_symmetry_space_group_name_H-M "C 2/C"
_symmetry_group_IT_number 15
_symmetry_cell_setting 'monoclinic'
loop_
_space_group_symop_operation_xyz
x,y,z
-x,y,1/2-z
-x,-y,-z
x,-y,1/2+z
1/2+x,1/2+y,z
1/2-x,1/2+y,1/2-z
1/2-x,1/2-y,-z
1/2+x,1/2-y,1/2+z
loop_
_atom_site_type_symbol
_atom_site_label
_atom_site_fract_x
_atom_site_fract_y
_atom_site_fract_z
Si Si1 0.690474 0.407462 0.519005
Si Si2 0.795808 0.200574 0.411096
Si Si3 0.200771 0.041069 0.370297
Si Si4 0.213793 0.486569 0.377475
Si Si5 0.474721 0.889461 0.517711
Si Si6 0.824538 0.937248 0.252284
Si Si7 0.979389 0.283965 0.890004
O O1 0.654452 0.359083 0.566118
O O2 0.698880 0.457522 0.586485
O O3 0.882363 0.402607 0.566930
O O4 0.528534 0.412913 0.355115
O O5 0.708646 0.220357 0.268488
O O6 0.651667 0.207066 0.416052
O O7 0.980379 0.232826 0.530334
O O8 0.243819 0.037817 0.501168
O O9 0.349910 0.074794 0.398294
O O10 0.000000 0.065625 0.250000
O O11 0.203134 0.985074 0.328971
O O12 0.303813 0.451484 0.348460
O O13 0.000000 0.490041 0.250000
O O14 0.329965 0.896551 0.357149
O O15 0.537954 0.831165 0.549229
#
# Coordination Sequence:
#
# PCOD8152136 Si02
#       7
#     8   8   8   8   8   8   8
#     4  11  23  36  58  89 124 162 201 250 309 370
#     4   9  20  35  56  85 117 154 196 244 308 371
#     4  12  24  41  58  88 125 169 214 253 299 366
#     4  12  24  39  59  84 129 168 211 254 294 363
#     4  11  22  38  60  85 125 165 202 247 314 363
#     4  12  23  38  59  89 126 167 204 256 305 368
#     4   9  20  36  56  84 119 152 194 250 304 369
#
# _framework density 20.099753
#
# number of rings (size 3 to 8) (size 9 to 14) (size 15 to 20)
#    0.000    1.143    4.286    2.143    8.000    0.000 
#    0.000    0.000    0.000    0.000    0.000    5.000 
#    0.000    0.000    0.000    0.000    0.000    0.000 
#
# Total GULP energy -347247.963381 kJ/mol
# GULP energy per Si atom -12401.712978 kJ/mol
# Density = 2.005401 g / cm^3
# Si number density = 20.099753 Si / 1000 Ang^3
#
#
#
# Elastic Constant Matrix: (Units=GPa)
#
#
# Indices 1 2 3 4 5 6 
#
# 1 40.5682 22.4685 34.6273 0.0000 3.1188 0.0000
# 2 22.4685 110.8256 47.4929 0.0000 -0.4098 0.0000
# 3 34.6273 47.4929 136.4061 0.0000 5.2826 0.0000
# 4 0.0000 0.0000 0.0000 37.6508 0.0000 -0.2562
# 5 3.1188 -0.4098 5.2826 0.0000 36.1739 0.0000
# 6 0.0000 0.0000 0.0000 -0.2562 0.0000 16.5935
#
#
#
# Elastic Compliance Matrix: (Units=1/GPa)
#
#
# Indices 1 2 3 4 5 6 
#
# 1 0.032772 -0.003663 -0.006972 0.000000 -0.001849 0.000000
# 2 -0.003663 0.011031 -0.002944 0.000000 0.000871 0.000000
# 3 -0.006972 -0.002944 0.010162 0.000000 -0.000916 0.000000
# 4 0.000000 0.000000 0.000000 0.026563 0.000000 0.000410
# 5 -0.001849 0.000871 -0.000916 0.000000 0.027947 0.000000
# 6 0.000000 0.000000 0.000000 0.000410 0.000000 0.060271
#
#
# Mechanical properties :
#
#
# Convention : Reuss Voigt Hill
#
# Bulk Modulus (GPa) = 37.30674 55.21970 46.26322
# Shear Modulus (GPa) = 24.40930 30.29774 27.35352
#
# Velocity S-wave (km/s) = 3.48862 3.88670 3.69302
# Velocity P-wave (km/s) = 5.90156 6.90466 6.42272
#
# Compressibility (1/GPa) = 0.02680480
#
# Stress axis : x y z
#
# Youngs Moduli (GPa) = 30.51384 90.65476 98.40895
#
# Poissons Ratio (x) = 0.33207 0.68614
# Poissons Ratio (y) = 0.11177 0.28976
# Poissons Ratio (z) = 0.21275 0.26693
#
# Static dielectric constant tensor:
#      x y z
#    x 3.357130 0.000000 0.160000 
#    y 0.000000 3.756650 0.000000 
#    z 0.160000 0.000000 3.912230 
# 
# 
# High freq. dielectric constant tensor:
#      x y z
#    x 1.741380 0.000000 0.005710 
#    y 0.000000 1.768420 0.000000 
#    z 0.005710 0.000000 1.809740 
# 
# From -- ./inp_files/148563.got.cif
#   From: 2010.06.25/outbox.cif.g09.slc.cpg/sg15_75_cif.got.tgz:148563.got - 2010.06.28 07:06:18.
