data_PCOD8152337
_publ_section_title
;
Structure prediction by ZEFSAII (Michael W. Deem and Ramdas Pophale) SiO2 
 PCOD8152337
Probable space group: C 2/C
;
_chemical_formula_sum "Si O2"
_cell_formula_units_Z 44
_cell_length_a 19.877498
_cell_length_b 10.414224
_cell_length_c 11.793520
_cell_angle_alpha 90.000000
_cell_angle_beta 127.446633
_cell_angle_gamma 90.000000
_cell_volume 1938.245711
_symmetry_space_group_name_H-M "C 2/C"
_symmetry_group_IT_number 15
_symmetry_cell_setting 'monoclinic'
loop_
_space_group_symop_operation_xyz
x,y,z
-x,y,1/2-z
-x,-y,-z
x,-y,1/2+z
1/2+x,1/2+y,z
1/2-x,1/2+y,1/2-z
1/2-x,1/2-y,-z
1/2+x,1/2-y,1/2+z
loop_
_atom_site_type_symbol
_atom_site_label
_atom_site_fract_x
_atom_site_fract_y
_atom_site_fract_z
Si Si1 0.500000 0.059057 0.750000
Si Si2 0.359310 0.796046 0.981393
Si Si3 0.778122 0.127481 0.461071
Si Si4 0.879872 0.513442 0.300491
Si Si5 0.329730 0.272794 0.773404
Si Si6 0.593952 0.431139 0.839450
O O1 0.412563 0.137876 0.638504
O O2 0.527918 0.978597 0.667625
O O3 0.385852 0.869032 0.894767
O O4 0.257571 0.792098 0.887511
O O5 0.387034 0.647329 0.023540
O O6 0.750000 0.250000 0.500000
O O7 0.695260 0.040357 0.364227
O O8 0.821032 0.159238 0.385193
O O9 0.844251 0.052215 0.607332
O O10 0.858870 0.373270 0.330911
O O11 0.398947 0.342975 0.766213
O O12 0.500000 0.486560 0.750000
#
# Coordination Sequence:
#
# PCOD8152337 Si02
#       6
#     4   8   8   8   8   8
#     4  12  22  40  66 106 138 180 226 286 346 412
#     4  11  22  40  69 101 138 181 235 276 345 415
#     4  11  28  46  70 100 137 182 242 290 345 417
#     4  11  24  42  70 103 140 181 233 285 341 419
#     4  11  24  43  74  99 135 189 233 286 348 413
#     4  12  24  46  72 103 139 186 231 290 358 414
#
# _framework density 22.700939999999999
#
# number of rings (size 3 to 8) (size 9 to 14) (size 15 to 20)
#    0.000    0.727    4.545    2.182    7.636    0.727 
#    1.636    1.818    0.000    0.000    0.000    0.000 
#    0.000    0.000    0.000    0.000    0.000    0.000 
#
# Total GULP energy -272650.569741 kJ/mol
# GULP energy per Si atom -12393.207716 kJ/mol
# Density = 2.264927 g / cm^3
# Si number density = 22.700940 Si / 1000 Ang^3
#
#
#
# Elastic Constant Matrix: (Units=GPa)
#
#
# Indices 1 2 3 4 5 6 
#
# 1 106.4021 41.7075 17.3322 0.0000 -2.6762 0.0000
# 2 41.7075 117.1475 19.6333 0.0000 -5.1194 0.0000
# 3 17.3322 19.6333 59.3079 0.0000 0.0948 0.0000
# 4 0.0000 0.0000 0.0000 10.6645 0.0000 -2.7725
# 5 -2.6762 -5.1194 0.0948 0.0000 32.7304 0.0000
# 6 0.0000 0.0000 0.0000 -2.7725 0.0000 21.6437
#
#
#
# Elastic Compliance Matrix: (Units=1/GPa)
#
#
# Indices 1 2 3 4 5 6 
#
# 1 0.011159 -0.003611 -0.002066 0.000000 0.000354 0.000000
# 2 -0.003611 0.010273 -0.002348 0.000000 0.001318 0.000000
# 3 -0.002066 -0.002348 0.018243 0.000000 -0.000589 0.000000
# 4 0.000000 0.000000 0.000000 0.097000 0.000000 0.012425
# 5 0.000354 0.001318 -0.000589 0.000000 0.030789 0.000000
# 6 0.000000 0.000000 0.000000 0.012425 0.000000 0.047794
#
#
# Mechanical properties :
#
#
# Convention : Reuss Voigt Hill
#
# Bulk Modulus (GPa) = 42.32762 48.91150 45.61956
# Shear Modulus (GPa) = 20.90441 26.62003 23.76222
#
# Velocity S-wave (km/s) = 3.03786 3.42810 3.23886
# Velocity P-wave (km/s) = 5.56696 6.10426 5.84179
#
# Compressibility (1/GPa) = 0.02362523
#
# Stress axis : x y z
#
# Youngs Moduli (GPa) = 89.61113 97.34267 54.81530
#
# Poissons Ratio (x) = 0.35153 0.11327
# Poissons Ratio (y) = 0.32361 0.12868
# Poissons Ratio (z) = 0.18517 0.22851
#
# Static dielectric constant tensor:
#      x y z
#    x 4.061540 0.000000 0.139730 
#    y 0.000000 4.157600 0.000000 
#    z 0.139730 0.000000 4.129660 
# 
# 
# High freq. dielectric constant tensor:
#      x y z
#    x 1.902100 0.000000 0.008450 
#    y 0.000000 1.890650 0.000000 
#    z 0.008450 0.000000 1.892080 
# 
# From -- ./inp_files/104356.got.cif
#   From: 2010.06.25/outbox.cif.g09.slc.cpg/sg15_53_cif.got.tgz:104356.got - 2010.06.28 07:06:18.
