data_PCOD8152419
_publ_section_title
;
Structure prediction by ZEFSAII (Michael W. Deem and Ramdas Pophale) SiO2 
 PCOD8152419
Probable space group: C 2/C
;
_chemical_formula_sum "Si O2"
_cell_formula_units_Z 40
_cell_length_a 21.340621
_cell_length_b 8.823780
_cell_length_c 9.423360
_cell_angle_alpha 90.000000
_cell_angle_beta 94.325006
_cell_angle_gamma 90.000000
_cell_volume 1769.412166
_symmetry_space_group_name_H-M "C 2/C"
_symmetry_group_IT_number 15
_symmetry_cell_setting 'monoclinic'
loop_
_space_group_symop_operation_xyz
x,y,z
-x,y,1/2-z
-x,-y,-z
x,-y,1/2+z
1/2+x,1/2+y,z
1/2-x,1/2+y,1/2-z
1/2-x,1/2-y,-z
1/2+x,1/2-y,1/2+z
loop_
_atom_site_type_symbol
_atom_site_label
_atom_site_fract_x
_atom_site_fract_y
_atom_site_fract_z
Si Si1 0.190013 0.457994 0.195266
Si Si2 0.492120 0.848462 0.086105
Si Si3 0.883721 0.820700 0.934725
Si Si4 0.850386 0.681494 0.532769
Si Si5 0.670060 0.515362 0.335076
O O1 0.160423 0.324133 0.096974
O O2 0.165460 0.447749 0.352492
O O3 0.264940 0.443506 0.206793
O O4 0.168830 0.619152 0.124911
O O5 0.500000 0.894661 0.250000
O O6 0.543335 0.724264 0.049801
O O7 0.423978 0.776783 0.047685
O O8 0.500000 0.000000 0.000000
O O9 0.872114 0.941509 0.807427
O O10 0.867655 0.890435 0.083768
O O11 0.685831 0.663117 0.435128
#
# Coordination Sequence:
#
# PCOD8152419 Si02
#       5
#     8   8   8   8   8
#     4  11  22  41  68  96 135 177 219 268 327 403
#     4  12  22  48  71  98 133 172 230 274 323 400
#     4  11  25  44  68  96 139 174 222 274 327 396
#     4  11  23  42  67  97 133 173 223 278 325 393
#     4  11  24  42  64 101 137 173 216 277 334 390
#
# _framework density 22.606377999999999
#
# number of rings (size 3 to 8) (size 9 to 14) (size 15 to 20)
#    0.000    0.800    6.000    2.400    0.000    5.600 
#    3.600    0.000    0.000    0.000    0.000    0.000 
#    0.000    0.000    0.000    0.000    0.000    0.000 
#
# Total GULP energy -248118.368833 kJ/mol
# GULP energy per Si atom -12405.918442 kJ/mol
# Density = 2.255492 g / cm^3
# Si number density = 22.606378 Si / 1000 Ang^3
#
#
#
# Elastic Constant Matrix: (Units=GPa)
#
#
# Indices 1 2 3 4 5 6 
#
# 1 163.7585 42.2303 46.7361 0.0000 -20.7639 0.0000
# 2 42.2303 38.4282 12.7653 0.0000 -4.3420 0.0000
# 3 46.7361 12.7653 50.1393 0.0000 0.2037 0.0000
# 4 0.0000 0.0000 0.0000 48.7763 0.0000 -3.5190
# 5 -20.7639 -4.3420 0.2037 0.0000 15.8846 0.0000
# 6 0.0000 0.0000 0.0000 -3.5190 0.0000 34.6102
#
#
#
# Elastic Compliance Matrix: (Units=1/GPa)
#
#
# Indices 1 2 3 4 5 6 
#
# 1 0.013364 -0.009654 -0.010060 0.000000 0.014959 0.000000
# 2 -0.009654 0.036418 -0.000262 0.000000 -0.002662 0.000000
# 3 -0.010060 -0.000262 0.029443 0.000000 -0.013599 0.000000
# 4 0.000000 0.000000 0.000000 0.020653 0.000000 0.002100
# 5 0.014959 -0.002662 -0.013599 0.000000 0.081955 0.000000
# 6 0.000000 0.000000 0.000000 0.002100 0.000000 0.029107
#
#
# Mechanical properties :
#
#
# Convention : Reuss Voigt Hill
#
# Bulk Modulus (GPa) = 25.46261 50.64328 38.05295
# Shear Modulus (GPa) = 18.94054 29.89385 24.41720
#
# Velocity S-wave (km/s) = 2.89769 3.64038 3.29006
# Velocity P-wave (km/s) = 4.74166 6.33408 5.59482
#
# Compressibility (1/GPa) = 0.03927327
#
# Stress axis : x y z
#
# Youngs Moduli (GPa) = 74.82820 27.45867 33.96358
#
# Poissons Ratio (x) = 0.26509 0.34166
# Poissons Ratio (y) = 0.72241 0.00891
# Poissons Ratio (z) = 0.75275 0.00720
#
# Static dielectric constant tensor:
#      x y z
#    x 4.332110 0.000000 -0.075550 
#    y 0.000000 4.004960 0.000000 
#    z -0.075550 0.000000 4.088430 
# 
# 
# High freq. dielectric constant tensor:
#      x y z
#    x 1.901890 0.000000 -0.006990 
#    y 0.000000 1.883890 0.000000 
#    z -0.006990 0.000000 1.893670 
# 
# From -- ./inp_files/54202.got.cif
#   From: 2010.06.25/outbox.cif.g09.slc.cpg/sg15_28_cif.got.tgz:54202.got - 2010.06.28 07:06:18.
