data_PCOD8152503
_publ_section_title
;
Structure prediction by ZEFSAII (Michael W. Deem and Ramdas Pophale) SiO2 
 PCOD8152503
Probable space group: C 2/C
;
_chemical_formula_sum "Si O2"
_cell_formula_units_Z 44
_cell_length_a 9.255430
_cell_length_b 27.885576
_cell_length_c 7.593786
_cell_angle_alpha 90.000000
_cell_angle_beta 106.827479
_cell_angle_gamma 90.000000
_cell_volume 1875.981444
_symmetry_space_group_name_H-M "C 2/C"
_symmetry_group_IT_number 15
_symmetry_cell_setting 'monoclinic'
loop_
_space_group_symop_operation_xyz
x,y,z
-x,y,1/2-z
-x,-y,-z
x,-y,1/2+z
1/2+x,1/2+y,z
1/2-x,1/2+y,1/2-z
1/2-x,1/2-y,-z
1/2+x,1/2-y,1/2+z
loop_
_atom_site_type_symbol
_atom_site_label
_atom_site_fract_x
_atom_site_fract_y
_atom_site_fract_z
Si Si1 0.331927 0.072023 0.745515
Si Si2 0.714728 0.617507 0.195023
Si Si3 0.575409 0.746663 0.468312
Si Si4 0.906665 0.141128 0.972182
Si Si5 0.000000 0.681644 0.250000
Si Si6 0.834817 0.474640 0.626198
O O1 0.500000 0.089929 0.750000
O O2 0.216094 0.116664 0.699482
O O3 0.262831 0.028273 0.600645
O O4 0.334703 0.052222 0.942866
O O5 0.666042 0.640737 0.360262
O O6 0.762110 0.562080 0.240857
O O7 0.853681 0.648301 0.166990
O O8 0.568951 0.615181 0.015080
O O9 0.500000 0.750724 0.250000
O O10 0.750000 0.750000 0.500000
O O11 0.551318 0.695911 0.557790
O O12 0.512553 0.787233 0.576951
O O13 0.000000 0.487843 0.750000
#
# Coordination Sequence:
#
# PCOD8152503 Si02
#       6
#     8   8   8   8   4   8
#     4  11  24  41  71 103 140 193 235 297 359 439
#     4  11  23  45  70 102 146 187 233 306 362 434
#     4  12  26  49  73 108 150 193 251 312 367 442
#     4  11  24  46  66 102 149 183 238 304 363 425
#     4  12  26  46  82 108 144 204 250 302 382 438
#     4  11  22  42  69 103 141 182 247 289 359 439
#
# _framework density 23.454388999999999
#
# number of rings (size 3 to 8) (size 9 to 14) (size 15 to 20)
#    0.000    0.727    4.545    4.364    0.000    8.000 
#    0.000    0.000    0.000    0.000    0.000    0.000 
#    0.000    0.000    0.000    0.000    0.000    0.000 
#
# Total GULP energy -272660.099653 kJ/mol
# GULP energy per Si atom -12393.640893 kJ/mol
# Density = 2.340101 g / cm^3
# Si number density = 23.454389 Si / 1000 Ang^3
#
#
#
# Elastic Constant Matrix: (Units=GPa)
#
#
# Indices 1 2 3 4 5 6 
#
# 1 125.4330 41.3002 39.0718 0.0000 14.6025 0.0000
# 2 41.3002 91.5282 30.4055 0.0000 13.0140 0.0000
# 3 39.0718 30.4055 115.7520 0.0000 14.6325 0.0000
# 4 0.0000 0.0000 0.0000 173.8006 0.0000 -141.7564
# 5 14.6025 13.0140 14.6325 0.0000 35.5297 0.0000
# 6 0.0000 0.0000 0.0000 -141.7564 0.0000 167.4335
#
#
#
# Elastic Compliance Matrix: (Units=1/GPa)
#
#
# Indices 1 2 3 4 5 6 
#
# 1 0.010049 -0.003522 -0.002224 0.000000 -0.001924 0.000000
# 2 -0.003522 0.013573 -0.002037 0.000000 -0.002685 0.000000
# 3 -0.002224 -0.002037 0.010249 0.000000 -0.002561 0.000000
# 4 0.000000 0.000000 0.000000 0.018593 0.000000 0.015742
# 5 -0.001924 -0.002685 -0.002561 0.000000 0.030974 0.000000
# 6 0.000000 0.000000 0.000000 0.015742 0.000000 0.019300
#
#
# Mechanical properties :
#
#
# Convention : Reuss Voigt Hill
#
# Bulk Modulus (GPa) = 54.62919 61.58535 58.10727
# Shear Modulus (GPa) = 40.19121 90.14845 65.16983
#
# Velocity S-wave (km/s) = 4.14404 6.20637 5.27694
# Velocity P-wave (km/s) = 6.79998 8.81324 7.87124
#
# Compressibility (1/GPa) = 0.01830523
#
# Stress axis : x y z
#
# Youngs Moduli (GPa) = 99.51575 73.67364 97.57508
#
# Poissons Ratio (x) = 0.25948 0.21696
# Poissons Ratio (y) = 0.35050 0.19877
# Poissons Ratio (z) = 0.22127 0.15008
#
# Static dielectric constant tensor:
#      x y z
#    x 4.501590 0.000000 -0.016310 
#    y 0.000000 4.154180 0.000000 
#    z -0.016310 0.000000 3.718640 
# 
# 
# High freq. dielectric constant tensor:
#      x y z
#    x 1.932480 0.000000 -0.001800 
#    y 0.000000 1.946130 0.000000 
#    z -0.001800 0.000000 1.921370 
# 
# From -- ./inp_files/25716.got.cif
#   From: 2010.06.25/outbox.cif.g09.slc.cpg/sg15_13_cif.got.tgz:25716.got - 2010.06.28 07:06:18.
