data_PCOD8152032
_publ_section_title
;
Structure prediction by ZEFSAII (Michael W. Deem and Ramdas Pophale) SiO2 
 PCOD8152032
Probable space group: C 2/C
;
_chemical_formula_sum "Si O2"
_cell_formula_units_Z 56
_cell_length_a 26.034325
_cell_length_b 9.992833
_cell_length_c 10.658952
_cell_angle_alpha 90.000000
_cell_angle_beta 117.881959
_cell_angle_gamma 90.000000
_cell_volume 2451.088220
_symmetry_space_group_name_H-M "C 2/C"
_symmetry_group_IT_number 15
_symmetry_cell_setting 'monoclinic'
loop_
_space_group_symop_operation_xyz
x,y,z
-x,y,1/2-z
-x,-y,-z
x,-y,1/2+z
1/2+x,1/2+y,z
1/2-x,1/2+y,1/2-z
1/2-x,1/2-y,-z
1/2+x,1/2-y,1/2+z
loop_
_atom_site_type_symbol
_atom_site_label
_atom_site_fract_x
_atom_site_fract_y
_atom_site_fract_z
Si Si1 0.064871 0.701041 0.819804
Si Si2 0.153748 0.229837 0.046407
Si Si3 0.889408 0.212824 0.863336
Si Si4 0.107184 0.926492 0.708743
Si Si5 0.258812 0.619961 0.749537
Si Si6 0.289078 0.518234 0.535177
Si Si7 0.430818 0.094764 0.198094
O O1 0.064472 0.810976 0.707522
O O2 0.094514 0.557517 0.823213
O O3 0.000000 0.651644 0.750000
O O4 0.085905 0.768450 0.970591
O O5 0.126569 0.104680 0.089259
O O6 0.203046 0.285940 0.196449
O O7 0.183374 0.166882 0.956206
O O8 0.103974 0.335743 0.955815
O O9 0.819563 0.198011 0.798375
O O10 0.911133 0.337622 0.806029
O O11 0.916854 0.078427 0.829360
O O12 0.159956 0.916438 0.868673
O O13 0.247403 0.530964 0.609855
O O14 0.256772 0.532287 0.873891
O O15 0.500000 0.110343 0.250000
#
# Coordination Sequence:
#
# PCOD8152032 Si02
#       7
#     8   8   8   8   8   8   8
#     4  11  27  46  69 106 145 186 239 294 353 428
#     4  12  24  43  71 102 140 190 231 290 356 426
#     4  11  24  48  72 100 144 184 240 294 347 428
#     4  11  23  45  72 102 143 182 241 295 352 409
#     4  11  24  42  72 102 142 180 229 293 362 415
#     4  11  21  46  65 103 144 176 238 299 337 428
#     4  11  28  47  70 100 144 189 237 292 358 427
#
# _framework density 22.846997000000002
#
# number of rings (size 3 to 8) (size 9 to 14) (size 15 to 20)
#    0.000    0.857    7.143    0.429    4.000    5.143 
#    0.000    0.000    0.000    0.000    0.000    0.000 
#    0.000    0.000    0.000    0.000    0.000    0.000 
#
# Total GULP energy -346959.576376 kJ/mol
# GULP energy per Si atom -12391.413442 kJ/mol
# Density = 2.279500 g / cm^3
# Si number density = 22.846997 Si / 1000 Ang^3
#
#
#
# Elastic Constant Matrix: (Units=GPa)
#
#
# Indices 1 2 3 4 5 6 
#
# 1 47.3249 21.9927 32.4960 0.0000 5.2213 0.0000
# 2 21.9927 136.4930 46.6230 0.0000 -3.8921 0.0000
# 3 32.4960 46.6230 122.5186 0.0000 -17.2113 0.0000
# 4 0.0000 0.0000 0.0000 35.4973 0.0000 -2.1021
# 5 5.2213 -3.8921 -17.2113 0.0000 37.9079 0.0000
# 6 0.0000 0.0000 0.0000 -2.1021 0.0000 27.2830
#
#
#
# Elastic Compliance Matrix: (Units=1/GPa)
#
#
# Indices 1 2 3 4 5 6 
#
# 1 0.028296 -0.002123 -0.007771 0.000000 -0.007644 0.000000
# 2 -0.002123 0.008594 -0.002716 0.000000 -0.000058 0.000000
# 3 -0.007771 -0.002716 0.012142 0.000000 0.006304 0.000000
# 4 0.000000 0.000000 0.000000 0.028300 0.000000 0.002181
# 5 -0.007644 -0.000058 0.006304 0.000000 0.030289 0.000000
# 6 0.000000 0.000000 0.000000 0.002181 0.000000 0.036821
#
#
# Mechanical properties :
#
#
# Convention : Reuss Voigt Hill
#
# Bulk Modulus (GPa) = 41.99227 56.50666 49.24947
# Shear Modulus (GPa) = 28.15312 33.81930 30.98621
#
# Velocity S-wave (km/s) = 3.51414 3.85158 3.68672
# Velocity P-wave (km/s) = 5.90638 6.67577 6.30282
#
# Compressibility (1/GPa) = 0.02381390
#
# Stress axis : x y z
#
# Youngs Moduli (GPa) = 35.34014 116.35539 82.35727
#
# Poissons Ratio (x) = 0.24700 0.64001
# Poissons Ratio (y) = 0.07502 0.22365
# Poissons Ratio (z) = 0.27463 0.31598
#
# Static dielectric constant tensor:
#      x y z
#    x 3.879000 0.000000 -0.049120 
#    y 0.000000 4.118530 0.000000 
#    z -0.049120 0.000000 4.183660 
# 
# 
# High freq. dielectric constant tensor:
#      x y z
#    x 1.877670 0.000000 -0.011200 
#    y 0.000000 1.908230 0.000000 
#    z -0.011200 0.000000 1.916830 
# 
# From -- ./inp_files/121997.got.cif
#   From: 2010.06.25/outbox.cif.g09.slc.cpg/sg15_61_cif.got.tgz:121997.got - 2010.06.28 07:06:18.
