data_PCOD8152567
_publ_section_title
;
Structure prediction by ZEFSAII (Michael W. Deem and Ramdas Pophale) SiO2 
 PCOD8152567
Probable space group: C 2/C
;
_chemical_formula_sum "Si O2"
_cell_formula_units_Z 52
_cell_length_a 9.204415
_cell_length_b 18.540932
_cell_length_c 17.065037
_cell_angle_alpha 90.000000
_cell_angle_beta 122.331440
_cell_angle_gamma 90.000000
_cell_volume 2460.795368
_symmetry_space_group_name_H-M "C 2/C"
_symmetry_group_IT_number 15
_symmetry_cell_setting 'monoclinic'
loop_
_space_group_symop_operation_xyz
x,y,z
-x,y,1/2-z
-x,-y,-z
x,-y,1/2+z
1/2+x,1/2+y,z
1/2-x,1/2+y,1/2-z
1/2-x,1/2-y,-z
1/2+x,1/2-y,1/2+z
loop_
_atom_site_type_symbol
_atom_site_label
_atom_site_fract_x
_atom_site_fract_y
_atom_site_fract_z
Si Si1 0.583229 0.647049 0.051047
Si Si2 0.417660 0.927689 0.642249
Si Si3 0.500000 0.165205 0.750000
Si Si4 0.795666 0.062067 0.870143
Si Si5 0.064313 0.714645 0.938981
Si Si6 0.495650 0.551433 0.158571
Si Si7 0.891586 0.430307 0.954879
O O1 0.772046 0.629537 0.072230
O O2 0.561709 0.733189 0.047918
O O3 0.584425 0.618057 0.140452
O O4 0.428464 0.605340 0.962793
O O5 0.500000 0.911465 0.750000
O O6 0.575783 0.915485 0.627973
O O7 0.323996 0.006629 0.614285
O O8 0.671057 0.117284 0.790321
O O9 0.512478 0.212863 0.832354
O O10 0.905022 0.021823 0.834933
O O11 0.250000 0.750000 0.000000
O O12 0.053119 0.635855 0.973610
O O13 0.500000 0.568382 0.250000
O O14 0.298572 0.546779 0.077074
O O15 0.000000 0.500000 0.000000
#
# Coordination Sequence:
#
# PCOD8152567 Si02
#       7
#     8   8   4   8   8   8   8
#     4  11  23  45  64  97 137 186 218 282 354 406
#     4  11  23  40  70 100 140 178 227 284 347 408
#     4  12  24  42  70  96 136 182 236 284 352 420
#     4  11  22  43  65  98 136 183 224 283 346 412
#     4  12  26  44  70 100 137 183 233 285 350 420
#     4  11  23  37  67 101 134 168 228 279 332 408
#     4  12  24  42  68 100 132 174 229 286 336 411
#
# _framework density 21.131378000000002
#
# number of rings (size 3 to 8) (size 9 to 14) (size 15 to 20)
#    0.000    0.615    3.846    6.462    3.231    1.846 
#    0.000    0.000    0.000    0.000    0.000    0.000 
#    0.000    0.000    0.000    0.000    0.000    0.000 
#
# Total GULP energy -322291.101481 kJ/mol
# GULP energy per Si atom -12395.811595 kJ/mol
# Density = 2.108328 g / cm^3
# Si number density = 21.131378 Si / 1000 Ang^3
#
#
#
# Elastic Constant Matrix: (Units=GPa)
#
#
# Indices 1 2 3 4 5 6 
#
# 1 79.9320 11.3456 7.7316 0.0000 5.7310 0.0000
# 2 11.3456 99.5598 23.2329 0.0000 15.3181 0.0000
# 3 7.7316 23.2329 103.7577 0.0000 -0.5696 0.0000
# 4 0.0000 0.0000 0.0000 33.0750 0.0000 2.7907
# 5 5.7310 15.3181 -0.5696 0.0000 39.4461 0.0000
# 6 0.0000 0.0000 0.0000 2.7907 0.0000 31.7860
#
#
#
# Elastic Compliance Matrix: (Units=1/GPa)
#
#
# Indices 1 2 3 4 5 6 
#
# 1 0.012837 -0.001069 -0.000725 0.000000 -0.001460 0.000000
# 2 -0.001069 0.011413 -0.002500 0.000000 -0.004313 0.000000
# 3 -0.000725 -0.002500 0.010258 0.000000 0.001224 0.000000
# 4 0.000000 0.000000 0.000000 0.030460 0.000000 -0.002674
# 5 -0.001460 -0.004313 0.001224 0.000000 0.027256 0.000000
# 6 0.000000 0.000000 0.000000 -0.002674 0.000000 0.031695
#
#
# Mechanical properties :
#
#
# Convention : Reuss Voigt Hill
#
# Bulk Modulus (GPa) = 38.57888 40.87441 39.72664
# Shear Modulus (GPa) = 35.42406 36.92404 36.17405
#
# Velocity S-wave (km/s) = 4.09879 4.18467 4.14196
# Velocity P-wave (km/s) = 6.37938 6.53710 6.45872
#
# Compressibility (1/GPa) = 0.02592092
#
# Stress axis : x y z
#
# Youngs Moduli (GPa) = 77.89847 87.62045 97.48221
#
# Poissons Ratio (x) = 0.09366 0.07070
# Poissons Ratio (y) = 0.08327 0.24366
# Poissons Ratio (z) = 0.05650 0.21901
#
# Static dielectric constant tensor:
#      x y z
#    x -2.211820 0.000000 1.431720 
#    y 0.000000 3.758250 0.000000 
#    z 1.431720 0.000000 3.647160 
# 
# 
# High freq. dielectric constant tensor:
#      x y z
#    x 1.834980 0.000000 0.006440 
#    y 0.000000 1.816420 0.000000 
#    z 0.006440 0.000000 1.838060 
# 
# From -- ./inp_files/191113.got.cif
#   From: 2010.06.25/outbox.cif.g09.slc.cpg/sg15_96_cif.got.tgz:191113.got - 2010.06.28 07:06:18.
