data_PCOD8152921
_publ_section_title
;
Structure prediction by ZEFSAII (Michael W. Deem and Ramdas Pophale) SiO2 
 PCOD8152921
Probable space group: C 2/C
;
_chemical_formula_sum "Si O2"
_cell_formula_units_Z 56
_cell_length_a 8.690325
_cell_length_b 32.022109
_cell_length_c 19.593676
_cell_angle_alpha 90.000000
_cell_angle_beta 148.188220
_cell_angle_gamma 90.000000
_cell_volume 2874.220191
_symmetry_space_group_name_H-M "C 2/C"
_symmetry_group_IT_number 15
_symmetry_cell_setting 'monoclinic'
loop_
_space_group_symop_operation_xyz
x,y,z
-x,y,1/2-z
-x,-y,-z
x,-y,1/2+z
1/2+x,1/2+y,z
1/2-x,1/2+y,1/2-z
1/2-x,1/2-y,-z
1/2+x,1/2-y,1/2+z
loop_
_atom_site_type_symbol
_atom_site_label
_atom_site_fract_x
_atom_site_fract_y
_atom_site_fract_z
Si Si1 0.418314 0.971039 0.365512
Si Si2 0.559366 0.878225 0.127965
Si Si3 0.298416 0.371623 0.075042
Si Si4 0.731986 0.302930 0.043414
Si Si5 0.053943 0.775180 0.694524
Si Si6 0.334927 0.534552 0.578625
Si Si7 0.801158 0.707112 0.058707
O O1 0.544833 0.925292 0.397018
O O2 0.287350 0.970286 0.391572
O O3 0.174187 0.979689 0.214907
O O4 0.676059 0.005407 0.462406
O O5 0.565779 0.869119 0.049232
O O6 0.876224 0.866731 0.275190
O O7 0.327394 0.850918 0.082685
O O8 0.285394 0.417685 0.035144
O O9 0.222444 0.334607 0.994874
O O10 0.689812 0.293505 0.947434
O O11 0.430403 0.295157 0.968201
O O12 0.998890 0.275000 0.173576
O O13 0.372934 0.788759 0.788383
O O14 0.000000 0.792959 0.750000
O O15 0.750000 0.750000 0.000000
#
# Coordination Sequence:
#
# PCOD8152921 Si02
#       7
#     8   8   8   8   8   8   8
#     4   8  14  27  50  75 110 139 186 231 287 333
#     4   9  18  34  54  82 110 148 190 236 280 337
#     4   9  19  33  55  81 113 148 191 234 281 335
#     4  11  24  39  58  82 112 147 190 239 284 338
#     4  11  23  41  58  81 110 146 190 237 281 339
#     4   8  14  28  48  78 107 144 181 236 283 333
#     4  12  23  38  57  81 112 151 188 234 283 333
#
# _framework density 19.483544999999999
#
# number of rings (size 3 to 8) (size 9 to 14) (size 15 to 20)
#    0.000    2.286    1.429    3.857    2.000    0.000 
#    2.571    0.000    0.000    0.857    0.000    0.000 
#    0.000    0.000    0.000    0.000    0.000    0.000 
#
# Total GULP energy -346971.283219 kJ/mol
# GULP energy per Si atom -12391.831544 kJ/mol
# Density = 1.943920 g / cm^3
# Si number density = 19.483545 Si / 1000 Ang^3
#
#
#
# Elastic Constant Matrix: (Units=GPa)
#
#
# Indices 1 2 3 4 5 6 
#
# 1 68.7787 37.9746 30.7751 -0.0001 10.2709 0.0000
# 2 37.9746 148.6688 72.8060 0.0001 8.8486 0.0000
# 3 30.7751 72.8060 89.9562 -0.0002 4.2000 0.0001
# 4 -0.0001 0.0001 -0.0002 29.6565 -0.0002 1.5379
# 5 10.2709 8.8486 4.2000 -0.0002 23.1964 0.0000
# 6 0.0000 0.0000 0.0001 1.5379 0.0000 25.5258
#
#
#
# Elastic Compliance Matrix: (Units=1/GPa)
#
#
# Indices 1 2 3 4 5 6 
#
# 1 0.018693 -0.002319 -0.004209 0.000000 -0.006630 0.000000
# 2 -0.002319 0.011593 -0.008503 0.000000 -0.001856 0.000000
# 3 -0.004209 -0.008503 0.019363 0.000000 0.001601 0.000000
# 4 0.000000 0.000000 0.000000 0.033825 0.000000 -0.002038
# 5 -0.006630 -0.001856 0.001601 0.000000 0.046464 0.000000
# 6 0.000000 0.000000 0.000000 -0.002038 0.000000 0.039299
#
#
# Mechanical properties :
#
#
# Convention : Reuss Voigt Hill
#
# Bulk Modulus (GPa) = 51.05049 65.61281 58.33165
# Shear Modulus (GPa) = 24.29208 26.73228 25.51218
#
# Velocity S-wave (km/s) = 3.53484 3.70813 3.62252
# Velocity P-wave (km/s) = 6.55125 7.21684 6.89208
#
# Compressibility (1/GPa) = 0.01958845
#
# Stress axis : x y z
#
# Youngs Moduli (GPa) = 53.49567 86.25692 51.64369
#
# Poissons Ratio (x) = 0.20004 0.21735
# Poissons Ratio (y) = 0.12406 0.43912
# Poissons Ratio (z) = 0.22514 0.73344
#
# Static dielectric constant tensor:
#      x y z
#    x 3.325720 0.000000 0.083750 
#    y 0.000000 3.746410 0.000000 
#    z 0.083750 0.000000 3.745980 
# 
# 
# High freq. dielectric constant tensor:
#      x y z
#    x 1.726170 0.000000 0.001950 
#    y 0.000000 1.760360 0.000000 
#    z 0.001950 0.000000 1.754870 
# 
# From -- ./inp_files/82488.got.cif
#   From: 2010.06.25/outbox.cif.g09.slc.cpg/sg15_42_cif.got.tgz:82488.got - 2010.06.28 07:06:18.
