data_PCOD8152784
_publ_section_title
;
Structure prediction by ZEFSAII (Michael W. Deem and Ramdas Pophale) SiO2 
 PCOD8152784
Probable space group: C 2/C
;
_chemical_formula_sum "Si O2"
_cell_formula_units_Z 48
_cell_length_a 29.404392
_cell_length_b 9.213880
_cell_length_c 14.090580
_cell_angle_alpha 90.000000
_cell_angle_beta 36.258401
_cell_angle_gamma 90.000000
_cell_volume 2257.799769
_symmetry_space_group_name_H-M "C 2/C"
_symmetry_group_IT_number 15
_symmetry_cell_setting 'monoclinic'
loop_
_space_group_symop_operation_xyz
x,y,z
-x,y,1/2-z
-x,-y,-z
x,-y,1/2+z
1/2+x,1/2+y,z
1/2-x,1/2+y,1/2-z
1/2-x,1/2-y,-z
1/2+x,1/2-y,1/2+z
loop_
_atom_site_type_symbol
_atom_site_label
_atom_site_fract_x
_atom_site_fract_y
_atom_site_fract_z
Si Si1 0.573696 0.247047 0.869554
Si Si2 0.447115 0.957711 0.252435
Si Si3 0.170084 0.986510 0.604438
Si Si4 0.222322 0.469168 0.905361
Si Si5 0.781099 0.339861 0.269199
Si Si6 0.037979 0.798859 0.284788
O O1 0.525846 0.133344 0.885291
O O2 0.613612 0.360232 0.732507
O O3 0.634907 0.150297 0.825120
O O4 0.518296 0.337851 0.033053
O O5 0.500000 0.906904 0.250000
O O6 0.359311 0.915486 0.419643
O O7 0.452448 0.127509 0.225987
O O8 0.226702 0.031443 0.594342
O O9 0.219193 0.929261 0.433434
O O10 0.120592 0.125560 0.656397
O O11 0.213227 0.597302 0.845477
O O12 0.261322 0.329365 0.792421
O O13 0.000000 0.850082 0.250000
#
# Coordination Sequence:
#
# PCOD8152784 Si02
#       6
#     8   8   8   8   8   8
#     4  11  22  47  65  92 134 176 217 272 336 390
#     4  11  23  42  65  96 134 172 219 268 331 396
#     4  11  24  44  67  96 132 173 219 276 329 398
#     4  11  24  43  66  99 128 171 221 268 335 391
#     4  11  23  42  71  93 135 170 218 279 326 392
#     4  11  26  41  67  98 134 171 221 275 330 391
#
# _framework density 21.259634999999999
#
# number of rings (size 3 to 8) (size 9 to 14) (size 15 to 20)
#    0.000    1.000    3.333    4.000    7.000    4.000 
#    0.000    0.000    0.000    0.000    0.000    0.000 
#    0.000    0.000    0.000    0.000    0.000    0.000 
#
# Total GULP energy -297712.912435 kJ/mol
# GULP energy per Si atom -12404.704685 kJ/mol
# Density = 2.121125 g / cm^3
# Si number density = 21.259635 Si / 1000 Ang^3
#
#
#
# Elastic Constant Matrix: (Units=GPa)
#
#
# Indices 1 2 3 4 5 6 
#
# 1 133.8477 40.4013 20.2268 0.0000 -8.0510 0.0000
# 2 40.4013 34.7405 -0.2397 0.0000 -3.2042 0.0000
# 3 20.2268 -0.2397 76.6836 0.0000 -1.7089 0.0000
# 4 0.0000 0.0000 0.0000 37.3545 0.0000 -1.6925
# 5 -8.0510 -3.2042 -1.7089 0.0000 34.8052 0.0000
# 6 0.0000 0.0000 0.0000 -1.6925 0.0000 28.3748
#
#
#
# Elastic Compliance Matrix: (Units=1/GPa)
#
#
# Indices 1 2 3 4 5 6 
#
# 1 0.012354 -0.014262 -0.003272 0.000000 0.001384 0.000000
# 2 -0.014262 0.045497 0.003928 0.000000 0.001082 0.000000
# 3 -0.003272 0.003928 0.013922 0.000000 0.000288 0.000000
# 4 0.000000 0.000000 0.000000 0.026843 0.000000 0.001601
# 5 0.001384 0.001082 0.000288 0.000000 0.029165 0.000000
# 6 0.000000 0.000000 0.000000 0.001601 0.000000 0.035338
#
#
# Mechanical properties :
#
#
# Convention : Reuss Voigt Hill
#
# Bulk Modulus (GPa) = 22.44073 40.67207 31.55640
# Shear Modulus (GPa) = 24.36823 32.43246 28.40034
#
# Velocity S-wave (km/s) = 3.38926 3.91006 3.65894
# Velocity P-wave (km/s) = 5.08867 6.28946 5.72066
#
# Compressibility (1/GPa) = 0.04456184
#
# Stress axis : x y z
#
# Youngs Moduli (GPa) = 80.94728 21.97937 71.82654
#
# Poissons Ratio (x) = 0.31346 0.23504
# Poissons Ratio (y) = 1.15444 -0.28214
# Poissons Ratio (z) = 0.26488 -0.08634
#
# Static dielectric constant tensor:
#      x y z
#    x 3.958310 0.000000 -0.023440 
#    y 0.000000 3.622420 0.000000 
#    z -0.023440 0.000000 4.180690 
# 
# 
# High freq. dielectric constant tensor:
#      x y z
#    x 1.842660 0.000000 0.003950 
#    y 0.000000 1.827470 0.000000 
#    z 0.003950 0.000000 1.844270 
# 
# From -- ./inp_files/176872.got.cif
#   From: 2010.06.25/outbox.cif.g09.slc.cpg/sg15_89_cif.got.tgz:176872.got - 2010.06.28 07:06:18.
