data_PCOD8152797
_publ_section_title
;
Structure prediction by ZEFSAII (Michael W. Deem and Ramdas Pophale) SiO2 
 PCOD8152797
Probable space group: C 2/C
;
_chemical_formula_sum "Si O2"
_cell_formula_units_Z 40
_cell_length_a 15.848357
_cell_length_b 7.490044
_cell_length_c 22.942761
_cell_angle_alpha 90.000000
_cell_angle_beta 38.116617
_cell_angle_gamma 90.000000
_cell_volume 1681.068067
_symmetry_space_group_name_H-M "C 2/C"
_symmetry_group_IT_number 15
_symmetry_cell_setting 'monoclinic'
loop_
_space_group_symop_operation_xyz
x,y,z
-x,y,1/2-z
-x,-y,-z
x,-y,1/2+z
1/2+x,1/2+y,z
1/2-x,1/2+y,1/2-z
1/2-x,1/2-y,-z
1/2+x,1/2-y,1/2+z
loop_
_atom_site_type_symbol
_atom_site_label
_atom_site_fract_x
_atom_site_fract_y
_atom_site_fract_z
Si Si1 0.349451 0.198411 0.819847
Si Si2 0.365505 0.413876 0.358731
Si Si3 0.781281 0.865301 0.737173
Si Si4 0.032521 0.175776 0.873650
Si Si5 0.338829 0.366521 0.576076
O O1 0.500000 0.120406 0.750000
O O2 0.329650 0.376934 0.869744
O O3 0.332155 0.232575 0.760270
O O4 0.241759 0.047427 0.896155
O O5 0.500000 0.358183 0.250000
O O6 0.399363 0.359371 0.407111
O O7 0.233854 0.303374 0.413219
O O8 0.612693 0.866836 0.826622
O O9 0.852461 0.822233 0.636643
O O10 0.838883 0.060222 0.721797
O O11 0.989900 0.128155 0.963606
#
# Coordination Sequence:
#
# PCOD8152797 Si02
#       5
#     8   8   8   8   8
#     4  11  24  44  72 101 140 188 227 286 351 406
#     4  11  22  48  70 102 145 180 230 289 344 416
#     4  12  23  45  69  97 144 180 223 296 339 404
#     4  12  26  47  70 103 141 182 235 288 348 414
#     4  12  26  45  74 105 136 187 236 280 350 420
#
# _framework density 23.794395999999999
#
# number of rings (size 3 to 8) (size 9 to 14) (size 15 to 20)
#    0.000    0.400    8.000    1.800    0.000    0.800 
#    3.600    2.000    0.000    0.000    0.000    0.000 
#    0.000    0.000    0.000    0.000    0.000    0.000 
#
# Total GULP energy -247880.865828 kJ/mol
# GULP energy per Si atom -12394.043291 kJ/mol
# Density = 2.374024 g / cm^3
# Si number density = 23.794396 Si / 1000 Ang^3
#
#
#
# Elastic Constant Matrix: (Units=GPa)
#
#
# Indices 1 2 3 4 5 6 
#
# 1 96.1510 10.0922 4.6547 -0.0002 -2.3099 0.0006
# 2 10.0922 79.4760 32.9226 -0.0002 -19.0347 0.0010
# 3 4.6547 32.9226 107.9266 0.0001 -3.8296 0.0000
# 4 -0.0002 -0.0002 0.0001 33.1850 0.0001 -7.6863
# 5 -2.3099 -19.0347 -3.8296 0.0001 33.3591 0.0000
# 6 0.0006 0.0010 0.0000 -7.6863 0.0000 31.7487
#
#
#
# Elastic Compliance Matrix: (Units=1/GPa)
#
#
# Indices 1 2 3 4 5 6 
#
# 1 0.010541 -0.001325 -0.000052 0.000000 -0.000032 0.000000
# 2 -0.001325 0.016882 -0.004774 0.000000 0.008993 0.000000
# 3 -0.000052 -0.004774 0.010671 0.000000 -0.001502 0.000000
# 4 0.000000 0.000000 0.000000 0.031924 0.000000 0.007729
# 5 -0.000032 0.008993 -0.001502 0.000000 0.034934 0.000000
# 6 0.000000 0.000000 0.000000 0.007729 0.000000 0.033368
#
#
# Mechanical properties :
#
#
# Convention : Reuss Voigt Hill
#
# Bulk Modulus (GPa) = 38.76916 42.09917 40.43416
# Shear Modulus (GPa) = 31.40355 35.38419 33.39387
#
# Velocity S-wave (km/s) = 3.63683 3.86045 3.75031
# Velocity P-wave (km/s) = 5.82788 6.13205 5.98190
#
# Compressibility (1/GPa) = 0.02579370
#
# Stress axis : x y z
#
# Youngs Moduli (GPa) = 94.86679 59.23493 93.71532
#
# Poissons Ratio (x) = 0.07848 0.00484
# Poissons Ratio (y) = 0.12568 0.44735
# Poissons Ratio (z) = 0.00490 0.28276
#
# Static dielectric constant tensor:
#      x y z
#    x 4.650830 0.000000 -0.058890 
#    y 0.000000 4.441830 0.000000 
#    z -0.058890 0.000000 4.147480 
# 
# 
# High freq. dielectric constant tensor:
#      x y z
#    x 1.963860 0.000000 0.001840 
#    y 0.000000 1.939120 0.000000 
#    z 0.001840 0.000000 1.927510 
# 
# From -- ./inp_files/272512.got.cif
#   From: 2010.06.25/outbox.cif.g09.slc.cpg/sg15_137_cif.got.tgz:272512.got - 2010.06.28 07:06:18.
