data_PCOD8152064
_publ_section_title
;
Structure prediction by ZEFSAII (Michael W. Deem and Ramdas Pophale) SiO2 
 PCOD8152064
Probable space group: C 2/C
;
_chemical_formula_sum "Si O2"
_cell_formula_units_Z 64
_cell_length_a 25.935596
_cell_length_b 13.971603
_cell_length_c 10.072239
_cell_angle_alpha 90.000000
_cell_angle_beta 102.697855
_cell_angle_gamma 90.000000
_cell_volume 3560.531300
_symmetry_space_group_name_H-M "C 2/C"
_symmetry_group_IT_number 15
_symmetry_cell_setting 'monoclinic'
loop_
_space_group_symop_operation_xyz
x,y,z
-x,y,1/2-z
-x,-y,-z
x,-y,1/2+z
1/2+x,1/2+y,z
1/2-x,1/2+y,1/2-z
1/2-x,1/2-y,-z
1/2+x,1/2-y,1/2+z
loop_
_atom_site_type_symbol
_atom_site_label
_atom_site_fract_x
_atom_site_fract_y
_atom_site_fract_z
Si Si1 0.112336 0.838246 0.290090
Si Si2 0.565371 0.603257 0.025410
Si Si3 0.720678 0.197558 0.863642
Si Si4 0.874695 0.179633 0.192430
Si Si5 0.717186 0.777883 0.851909
Si Si6 0.246773 0.514146 0.343557
Si Si7 0.688196 0.501611 0.375699
Si Si8 0.943881 0.119095 0.001304
O O1 0.073745 0.837351 0.395119
O O2 0.157000 0.757704 0.326237
O O3 0.076261 0.825190 0.140040
O O4 0.139029 0.941894 0.293622
O O5 0.606403 0.645786 0.153376
O O6 0.576237 0.490707 0.006363
O O7 0.506790 0.620892 0.045596
O O8 0.657720 0.221214 0.817774
O O9 0.752038 0.227507 0.750104
O O10 0.719637 0.082550 0.882318
O O11 0.750000 0.250000 0.000000
O O12 0.828948 0.110034 0.112661
O O13 0.922832 0.178980 0.115604
O O14 0.710090 0.891894 0.826736
O O15 0.750000 0.750000 0.000000
O O16 0.264729 0.496106 0.203633
O O17 0.294714 0.539776 0.471496
#
# Coordination Sequence:
#
# PCOD8152064 Si02
#       8
#     8   8   8   8   8   8   8   8
#     4  12  21  34  53  79 106 147 178 211 269 325
#     4  11  22  35  53  78 107 138 178 225 270 322
#     4  12  23  35  55  81 110 148 185 216 263 323
#     4  12  21  34  53  79 106 147 178 211 269 325
#     4  12  23  35  55  81 110 148 185 216 263 323
#     4  12  22  38  50  80 116 146 184 224 250 314
#     4  12  20  32  57  76 112 150 181 212 264 318
#     4  11  22  35  53  78 107 138 178 225 270 322
#
# _framework density 17.974844999999998
#
# number of rings (size 3 to 8) (size 9 to 14) (size 15 to 20)
#    0.000    0.250    7.500    3.750    0.000    2.000 
#    0.000    0.000    0.000    0.000    0.000    5.250 
#    0.000    0.000    0.000    0.000    0.000    0.000 
#
# Total GULP energy -396796.432774 kJ/mol
# GULP energy per Si atom -12399.888524 kJ/mol
# Density = 1.793393 g / cm^3
# Si number density = 17.974845 Si / 1000 Ang^3
#
#
#
# Elastic Constant Matrix: (Units=GPa)
#
#
# Indices 1 2 3 4 5 6 
#
# 1 71.5327 27.3888 14.0422 0.0000 -10.7414 0.0000
# 2 27.3888 92.8300 12.3554 0.0000 -4.0289 0.0000
# 3 14.0422 12.3554 86.6933 0.0000 -12.5810 0.0000
# 4 0.0000 0.0000 0.0000 14.1464 0.0000 5.2256
# 5 -10.7414 -4.0289 -12.5810 0.0000 33.1270 0.0000
# 6 0.0000 0.0000 0.0000 5.2256 0.0000 29.6258
#
#
#
# Elastic Compliance Matrix: (Units=1/GPa)
#
#
# Indices 1 2 3 4 5 6 
#
# 1 0.016641 -0.004533 -0.001425 0.000000 0.004303 0.000000
# 2 -0.004533 0.012235 -0.001065 0.000000 -0.000387 0.000000
# 3 -0.001425 -0.001065 0.012522 0.000000 0.004164 0.000000
# 4 0.000000 0.000000 0.000000 0.075616 0.000000 -0.013338
# 5 0.004303 -0.000387 0.004164 0.000000 0.033117 0.000000
# 6 0.000000 0.000000 0.000000 -0.013338 0.000000 0.036107
#
#
# Mechanical properties :
#
#
# Convention : Reuss Voigt Hill
#
# Bulk Modulus (GPa) = 36.56247 39.84764 38.20506
# Shear Modulus (GPa) = 23.87745 28.53115 26.20430
#
# Velocity S-wave (km/s) = 3.64865 3.98839 3.82230
# Velocity P-wave (km/s) = 6.17538 6.58987 6.38599
#
# Compressibility (1/GPa) = 0.02735045
#
# Stress axis : x y z
#
# Youngs Moduli (GPa) = 60.09131 81.73285 79.86049
#
# Poissons Ratio (x) = 0.37053 0.11379
# Poissons Ratio (y) = 0.27242 0.08509
# Poissons Ratio (z) = 0.08562 0.08709
#
# Static dielectric constant tensor:
#      x y z
#    x 3.218370 0.000000 -0.055480 
#    y 0.000000 3.268470 0.000000 
#    z -0.055480 0.000000 3.329840 
# 
# 
# High freq. dielectric constant tensor:
#      x y z
#    x 1.681360 0.000000 -0.008890 
#    y 0.000000 1.666180 0.000000 
#    z -0.008890 0.000000 1.719910 
# 
# From -- ./inp_files/66194.got.cif
#   From: 2010.06.25/outbox.cif.g09.slc.cpg/sg15_34_cif.got.tgz:66194.got - 2010.06.28 07:06:18.
