data_PCOD8152489
_publ_section_title
;
Structure prediction by ZEFSAII (Michael W. Deem and Ramdas Pophale) SiO2 
 PCOD8152489
Probable space group: C 2/C
;
_chemical_formula_sum "Si O2"
_cell_formula_units_Z 48
_cell_length_a 25.645853
_cell_length_b 9.552502
_cell_length_c 15.040742
_cell_angle_alpha 90.000000
_cell_angle_beta 39.809771
_cell_angle_gamma 90.000000
_cell_volume 2359.102622
_symmetry_space_group_name_H-M "C 2/C"
_symmetry_group_IT_number 15
_symmetry_cell_setting 'monoclinic'
loop_
_space_group_symop_operation_xyz
x,y,z
-x,y,1/2-z
-x,-y,-z
x,-y,1/2+z
1/2+x,1/2+y,z
1/2-x,1/2+y,1/2-z
1/2-x,1/2-y,-z
1/2+x,1/2-y,1/2+z
loop_
_atom_site_type_symbol
_atom_site_label
_atom_site_fract_x
_atom_site_fract_y
_atom_site_fract_z
Si Si1 0.790138 0.978332 0.796687
Si Si2 0.917848 0.949203 0.410196
Si Si3 0.590465 0.737558 0.413536
Si Si4 0.918917 0.176758 0.554583
Si Si5 0.841799 0.532760 0.178488
Si Si6 0.744967 0.590295 0.478631
O O1 0.831354 0.824881 0.741416
O O2 0.860784 0.096286 0.700190
O O3 0.735021 0.002627 0.782233
O O4 0.738761 0.996993 0.954339
O O5 0.904879 0.817415 0.491960
O O6 0.843835 0.951823 0.438906
O O7 0.000000 0.925050 0.250000
O O8 0.920817 0.096036 0.458603
O O9 0.508715 0.680465 0.476903
O O10 0.594571 0.904897 0.406629
O O11 0.886959 0.332833 0.579524
O O12 0.814038 0.557226 0.316034
O O13 0.750000 0.750000 0.500000
#
# Coordination Sequence:
#
# PCOD8152489 Si02
#       6
#     8   8   8   8   8   8
#     4  11  22  42  68  91 127 171 224 261 318 394
#     4  11  23  42  68  94 127 172 225 261 317 399
#     4  11  23  41  66  95 131 174 212 273 328 377
#     4  11  22  43  64  91 134 169 214 270 325 385
#     4  12  24  43  65  99 136 164 215 278 330 378
#     4  12  23  40  70  98 126 172 220 268 327 389
#
# _framework density 20.346719
#
# number of rings (size 3 to 8) (size 9 to 14) (size 15 to 20)
#    0.000    0.667    5.000    6.500    0.000    0.667 
#    3.000    0.833    0.000    0.000    0.000    0.000 
#    0.000    0.000    0.000    0.000    0.000    0.000 
#
# Total GULP energy -297721.768171 kJ/mol
# GULP energy per Si atom -12405.073674 kJ/mol
# Density = 2.030041 g / cm^3
# Si number density = 20.346719 Si / 1000 Ang^3
#
#
#
# Elastic Constant Matrix: (Units=GPa)
#
#
# Indices 1 2 3 4 5 6 
#
# 1 80.5825 15.3043 13.1903 -0.0003 10.2461 0.0001
# 2 15.3043 124.1203 28.6731 0.0001 15.4663 -0.0002
# 3 13.1903 28.6731 88.2318 -0.0002 28.5542 0.0000
# 4 -0.0003 0.0001 -0.0002 31.1145 0.0000 -4.0577
# 5 10.2461 15.4663 28.5542 0.0000 33.1957 0.0000
# 6 0.0001 -0.0002 0.0000 -4.0577 0.0000 25.3384
#
#
#
# Elastic Compliance Matrix: (Units=1/GPa)
#
#
# Indices 1 2 3 4 5 6 
#
# 1 0.013102 -0.001096 -0.000636 0.000000 -0.002986 0.000000
# 2 -0.001096 0.008925 -0.002079 0.000000 -0.002032 0.000000
# 3 -0.000636 -0.002079 0.016252 0.000000 -0.012814 0.000000
# 4 0.000000 0.000000 0.000000 0.032825 0.000000 0.005257
# 5 -0.002986 -0.002032 -0.012814 0.000000 0.043015 0.000000
# 6 0.000000 0.000000 0.000000 0.005257 0.000000 0.040308
#
#
# Mechanical properties :
#
#
# Convention : Reuss Voigt Hill
#
# Bulk Modulus (GPa) = 32.62060 45.25224 38.93642
# Shear Modulus (GPa) = 29.02458 33.64750 31.33604
#
# Velocity S-wave (km/s) = 3.78100 4.07099 3.92867
# Velocity P-wave (km/s) = 5.92693 6.66229 6.30534
#
# Compressibility (1/GPa) = 0.03065547
#
# Stress axis : x y z
#
# Youngs Moduli (GPa) = 76.32621 112.04046 61.53262
#
# Poissons Ratio (x) = 0.12285 0.03913
# Poissons Ratio (y) = 0.08369 0.12793
# Poissons Ratio (z) = 0.04854 0.23294
#
# Static dielectric constant tensor:
#      x y z
#    x 3.798170 0.000000 0.091020 
#    y 0.000000 3.730800 0.000000 
#    z 0.091020 0.000000 3.774360 
# 
# 
# High freq. dielectric constant tensor:
#      x y z
#    x 1.801360 0.000000 -0.000770 
#    y 0.000000 1.798130 0.000000 
#    z -0.000770 0.000000 1.793180 
# 
# From -- ./inp_files/176909.got.cif
#   From: 2010.06.25/outbox.cif.g09.slc.cpg/sg15_89_cif.got.tgz:176909.got - 2010.06.28 07:06:18.
