data_PCOD8152726
_publ_section_title
;
Structure prediction by ZEFSAII (Michael W. Deem and Ramdas Pophale) SiO2 
 PCOD8152726
Probable space group: C 2/C
;
_chemical_formula_sum "Si O2"
_cell_formula_units_Z 60
_cell_length_a 11.146326
_cell_length_b 14.860935
_cell_length_c 17.937928
_cell_angle_alpha 90.000000
_cell_angle_beta 105.237899
_cell_angle_gamma 90.000000
_cell_volume 2866.861663
_symmetry_space_group_name_H-M "C 2/C"
_symmetry_group_IT_number 15
_symmetry_cell_setting 'monoclinic'
loop_
_space_group_symop_operation_xyz
x,y,z
-x,y,1/2-z
-x,-y,-z
x,-y,1/2+z
1/2+x,1/2+y,z
1/2-x,1/2+y,1/2-z
1/2-x,1/2-y,-z
1/2+x,1/2-y,1/2+z
loop_
_atom_site_type_symbol
_atom_site_label
_atom_site_fract_x
_atom_site_fract_y
_atom_site_fract_z
Si Si1 0.604549 0.369353 0.329247
Si Si2 0.383175 0.365085 0.825504
Si Si3 0.777234 0.473283 0.798110
Si Si4 0.796848 0.300317 0.580959
Si Si5 0.018845 0.460704 0.922085
Si Si6 0.171950 0.426800 0.337843
Si Si7 0.000000 0.721718 0.750000
Si Si8 0.049176 0.034084 0.586071
O O1 0.500000 0.366466 0.250000
O O2 0.709700 0.440649 0.323433
O O3 0.658479 0.269721 0.348607
O O4 0.546722 0.391462 0.400535
O O5 0.308258 0.387801 0.736861
O O6 0.309618 0.353790 0.891714
O O7 0.465772 0.279485 0.817942
O O8 0.464470 0.453778 0.855729
O O9 0.836687 0.500428 0.728881
O O10 0.882875 0.436478 0.869452
O O11 0.750000 0.250000 0.500000
O O12 0.899987 0.370368 0.569191
O O13 0.079581 0.542707 0.887275
O O14 0.000000 0.500000 0.000000
O O15 0.121525 0.333733 0.295295
O O16 0.312716 0.421690 0.393108
O O17 0.000000 0.000000 0.500000
#
# Coordination Sequence:
#
# PCOD8152726 Si02
#       8
#     8   8   8   8   8   8   4   8
#     4  12  24  41  71 104 134 176 234 282 333 412
#     4  11  24  43  70  98 139 180 227 284 345 406
#     4  11  22  45  70 100 132 179 231 274 345 417
#     4  12  27  43  67 104 138 176 230 290 340 399
#     4  12  26  44  71  99 137 181 226 283 349 412
#     4  11  23  43  69  97 132 185 222 279 346 402
#     4  12  24  42  70 102 138 170 236 290 340 408
#     4  11  24  46  69  96 143 186 224 273 353 417
#
# _framework density 20.928809000000001
#
# number of rings (size 3 to 8) (size 9 to 14) (size 15 to 20)
#    0.000    0.533    6.667    3.200    5.600    0.000 
#    0.000    0.667    0.000    0.000    0.000    0.000 
#    0.000    0.000    0.000    0.000    0.000    0.000 
#
# Total GULP energy -371970.369504 kJ/mol
# GULP energy per Si atom -12399.012317 kJ/mol
# Density = 2.088117 g / cm^3
# Si number density = 20.928809 Si / 1000 Ang^3
#
#
#
# Elastic Constant Matrix: (Units=GPa)
#
#
# Indices 1 2 3 4 5 6 
#
# 1 71.4531 26.6729 38.5939 0.0000 4.1892 0.0000
# 2 26.6729 82.6033 14.0498 0.0000 2.4047 0.0000
# 3 38.5939 14.0498 107.0250 0.0000 1.0091 0.0000
# 4 0.0000 0.0000 0.0000 38.5961 0.0000 -5.6421
# 5 4.1892 2.4047 1.0091 0.0000 34.7658 0.0000
# 6 0.0000 0.0000 0.0000 -5.6421 0.0000 36.4379
#
#
#
# Elastic Compliance Matrix: (Units=1/GPa)
#
#
# Indices 1 2 3 4 5 6 
#
# 1 0.019434 -0.005149 -0.006315 0.000000 -0.001802 0.000000
# 2 -0.005149 0.013769 0.000052 0.000000 -0.000334 0.000000
# 3 -0.006315 0.000052 0.011610 0.000000 0.000420 0.000000
# 4 0.000000 0.000000 0.000000 0.026509 0.000000 0.004105
# 5 -0.001802 -0.000334 0.000420 0.000000 0.028992 0.000000
# 6 0.000000 0.000000 0.000000 0.004105 0.000000 0.028080
#
#
# Mechanical properties :
#
#
# Convention : Reuss Voigt Hill
#
# Bulk Modulus (GPa) = 45.47482 46.63494 46.05488
# Shear Modulus (GPa) = 31.53638 34.07763 32.80700
#
# Velocity S-wave (km/s) = 3.88602 4.03955 3.96353
# Velocity P-wave (km/s) = 6.47382 6.63991 6.55739
#
# Compressibility (1/GPa) = 0.02199019
#
# Stress axis : x y z
#
# Youngs Moduli (GPa) = 51.45690 72.62480 86.13232
#
# Poissons Ratio (x) = 0.37392 0.54393
# Poissons Ratio (y) = 0.26493 -0.00449
# Poissons Ratio (z) = 0.32495 -0.00379
#
# Static dielectric constant tensor:
#      x y z
#    x 3.729710 0.000000 0.075060 
#    y 0.000000 4.071900 0.000000 
#    z 0.075060 0.000000 3.817190 
# 
# 
# High freq. dielectric constant tensor:
#      x y z
#    x 1.827030 0.000000 -0.004160 
#    y 0.000000 1.821800 0.000000 
#    z -0.004160 0.000000 1.823700 
# 
# From -- ./inp_files/197832.got.cif
#   From: 2010.06.25/outbox.cif.g09.slc.cpg/sg15_99_cif.got.tgz:197832.got - 2010.06.28 07:06:18.
