data_PCOD8152447
_publ_section_title
;
Structure prediction by ZEFSAII (Michael W. Deem and Ramdas Pophale) SiO2 
 PCOD8152447
Probable space group: C 2/C
;
_chemical_formula_sum "Si O2"
_cell_formula_units_Z 40
_cell_length_a 33.379576
_cell_length_b 7.744798
_cell_length_c 23.352458
_cell_angle_alpha 90.000000
_cell_angle_beta 161.714415
_cell_angle_gamma 90.000000
_cell_volume 1894.140549
_symmetry_space_group_name_H-M "C 2/C"
_symmetry_group_IT_number 15
_symmetry_cell_setting 'monoclinic'
loop_
_space_group_symop_operation_xyz
x,y,z
-x,y,1/2-z
-x,-y,-z
x,-y,1/2+z
1/2+x,1/2+y,z
1/2-x,1/2+y,1/2-z
1/2-x,1/2-y,-z
1/2+x,1/2-y,1/2+z
loop_
_atom_site_type_symbol
_atom_site_label
_atom_site_fract_x
_atom_site_fract_y
_atom_site_fract_z
Si Si1 0.046929 0.174761 0.135445
Si Si2 0.342205 0.976909 0.692257
Si Si3 0.466471 0.153497 0.140504
Si Si4 0.176504 0.145576 0.753291
Si Si5 0.558102 0.535269 0.270774
O O1 0.118503 0.354050 0.217865
O O2 0.133521 0.017031 0.232268
O O3 0.028567 0.165093 0.178987
O O4 0.909161 0.168705 0.919106
O O5 0.447856 0.950634 0.787281
O O6 0.333048 0.815309 0.721371
O O7 0.208544 0.004305 0.479448
O O8 0.500000 0.092359 0.250000
O O9 0.487182 0.356852 0.161452
O O10 0.319828 0.113292 0.926808
O O11 0.500000 0.617691 0.250000
#
# Coordination Sequence:
#
# PCOD8152447 Si02
#       5
#     8   8   8   8   8
#     4  11  26  42  68 102 135 175 223 281 332 401
#     4  12  23  44  70  95 133 180 226 272 339 398
#     4  11  22  41  72  94 131 182 219 272 337 396
#     4  11  24  47  65  98 142 175 219 279 342 396
#     4  11  22  43  70  97 133 173 227 277 327 398
#
# _framework density 21.117756
#
# number of rings (size 3 to 8) (size 9 to 14) (size 15 to 20)
#    0.000    0.800    6.000    3.000    0.000    4.000 
#    3.600    0.000    0.000    0.000    0.000    0.000 
#    0.000    0.000    0.000    0.000    0.000    0.000 
#
# Total GULP energy -248125.622933 kJ/mol
# GULP energy per Si atom -12406.281147 kJ/mol
# Density = 2.106969 g / cm^3
# Si number density = 21.117756 Si / 1000 Ang^3
#
#
#
# Elastic Constant Matrix: (Units=GPa)
#
#
# Indices 1 2 3 4 5 6 
#
# 1 119.9851 35.0613 68.3697 0.0000 4.9483 0.0000
# 2 35.0613 71.7831 29.6189 0.0000 -11.8287 0.0000
# 3 68.3697 29.6189 174.2542 0.0000 11.7960 0.0000
# 4 0.0000 0.0000 0.0000 -31.4335 0.0000 38.2508
# 5 4.9483 -11.8287 11.7960 0.0000 26.9437 0.0000
# 6 0.0000 0.0000 0.0000 38.2508 0.0000 -38.2537
#
#
#
# Elastic Compliance Matrix: (Units=1/GPa)
#
#
# Indices 1 2 3 4 5 6 
#
# 1 0.011937 -0.004742 -0.003698 0.000000 -0.002655 0.000000
# 2 -0.004742 0.018711 -0.001994 0.000000 0.009958 0.000000
# 3 -0.003698 -0.001994 0.007772 0.000000 -0.003599 0.000000
# 4 0.000000 0.000000 0.000000 0.146750 0.000000 0.146738
# 5 -0.002655 0.009958 -0.003599 0.000000 0.043549 0.000000
# 6 0.000000 0.000000 0.000000 0.146738 0.000000 0.120586
#
#
# Mechanical properties :
#
#
# Convention : Reuss Voigt Hill
#
# Bulk Modulus (GPa) = 56.97295 70.23581 63.60438
# Shear Modulus (GPa) = 13.29711 6.98279 10.13995
#
# Velocity S-wave (km/s) = 2.51203 1.82038 2.19364
# Velocity P-wave (km/s) = 5.95408 6.14408 6.04982
#
# Compressibility (1/GPa) = 0.01755219
#
# Stress axis : x y z
#
# Youngs Moduli (GPa) = 83.77649 53.44544 128.66611
#
# Poissons Ratio (x) = 0.25344 0.47576
# Poissons Ratio (y) = 0.39727 0.25655
# Poissons Ratio (z) = 0.30977 0.10656
#
# Static dielectric constant tensor:
#      x y z
#    x 3.930790 0.000000 -0.000390 
#    y 0.000000 3.898090 0.000000 
#    z -0.000390 0.000000 4.090120 
# 
# 
# High freq. dielectric constant tensor:
#      x y z
#    x 1.825990 0.000000 0.002500 
#    y 0.000000 1.834240 0.000000 
#    z 0.002500 0.000000 1.839520 
# 
# From -- ./inp_files/102695.got.cif
#   From: 2010.06.25/outbox.cif.g09.slc.cpg/sg15_52_cif.got.tgz:102695.got - 2010.06.28 07:06:18.
