data_PCOD8152020
_publ_section_title
;
Structure prediction by ZEFSAII (Michael W. Deem and Ramdas Pophale) SiO2 
 PCOD8152020
Probable space group: C 2/C
;
_chemical_formula_sum "Si O2"
_cell_formula_units_Z 40
_cell_length_a 15.188233
_cell_length_b 9.932595
_cell_length_c 10.529571
_cell_angle_alpha 90.000000
_cell_angle_beta 70.010362
_cell_angle_gamma 90.000000
_cell_volume 1492.777400
_symmetry_space_group_name_H-M "C 2/C"
_symmetry_group_IT_number 15
_symmetry_cell_setting 'monoclinic'
loop_
_space_group_symop_operation_xyz
x,y,z
-x,y,1/2-z
-x,-y,-z
x,-y,1/2+z
1/2+x,1/2+y,z
1/2-x,1/2+y,1/2-z
1/2-x,1/2-y,-z
1/2+x,1/2-y,1/2+z
loop_
_atom_site_type_symbol
_atom_site_label
_atom_site_fract_x
_atom_site_fract_y
_atom_site_fract_z
Si Si1 0.299301 0.520181 0.857000
Si Si2 0.949789 0.261513 0.503232
Si Si3 0.000000 0.332973 0.750000
Si Si4 0.253884 0.742246 0.701321
Si Si5 0.000000 0.914371 0.750000
Si Si6 0.640740 0.042019 0.614660
O O1 0.275489 0.670990 0.823844
O O2 0.263796 0.402660 0.776350
O O3 0.410990 0.511297 0.814022
O O4 0.242251 0.503933 0.014748
O O5 0.001303 0.251850 0.615477
O O6 0.842150 0.209127 0.565468
O O7 0.936478 0.413967 0.454157
O O8 0.009621 0.173396 0.374210
O O9 0.905076 0.420621 0.784217
O O10 0.159273 0.674611 0.691535
#
# Coordination Sequence:
#
# PCOD8152020 Si02
#       6
#     8   8   4   8   4   8
#     4  11  25  43  77 103 152 199 253 302 376 451
#     4  11  24  45  72 112 151 193 252 311 378 447
#     4  12  27  41  78 118 150 186 266 326 358 432
#     4  11  23  47  69 110 146 197 253 305 367 453
#     4  12  23  47  78 104 150 214 238 298 396 466
#     4  11  21  45  71 107 142 206 247 305 371 454
#
# _framework density 26.795688999999999
#
# number of rings (size 3 to 8) (size 9 to 14) (size 15 to 20)
#    0.000    0.800    4.000    4.800    2.800    1.600 
#    3.600    2.000    0.000    0.000    0.000    0.000 
#    0.000    0.000    0.000    0.000    0.000    0.000 
#
# Total GULP energy -247905.678804 kJ/mol
# GULP energy per Si atom -12395.283940 kJ/mol
# Density = 2.673470 g / cm^3
# Si number density = 26.795689 Si / 1000 Ang^3
#
#
#
# Elastic Constant Matrix: (Units=GPa)
#
#
# Indices 1 2 3 4 5 6 
#
# 1 101.5116 0.4687 26.8187 0.0000 -12.3049 0.0000
# 2 0.4687 58.0772 5.4753 0.0000 -1.7229 0.0000
# 3 26.8187 5.4753 86.5792 0.0000 10.6096 0.0000
# 4 0.0000 0.0000 0.0000 21.5198 0.0000 2.0555
# 5 -12.3049 -1.7229 10.6096 0.0000 47.8906 0.0000
# 6 0.0000 0.0000 0.0000 2.0555 0.0000 24.6672
#
#
#
# Elastic Compliance Matrix: (Units=1/GPa)
#
#
# Indices 1 2 3 4 5 6 
#
# 1 0.011375 0.000401 -0.004018 0.000000 0.003827 0.000000
# 2 0.000401 0.017373 -0.001349 0.000000 0.001027 0.000000
# 3 -0.004018 -0.001349 0.013375 0.000000 -0.004044 0.000000
# 4 0.000000 0.000000 0.000000 0.046842 0.000000 -0.003903
# 5 0.003827 0.001027 -0.004044 0.000000 0.022797 0.000000
# 6 0.000000 0.000000 0.000000 -0.003903 0.000000 0.040865
#
#
# Mechanical properties :
#
#
# Convention : Reuss Voigt Hill
#
# Bulk Modulus (GPa) = 31.06414 34.63260 32.84837
# Shear Modulus (GPa) = 28.85363 33.04255 30.94809
#
# Velocity S-wave (km/s) = 3.28503 3.51540 3.40216
# Velocity P-wave (km/s) = 5.09967 5.42496 5.26483
#
# Compressibility (1/GPa) = 0.03219146
#
# Stress axis : x y z
#
# Youngs Moduli (GPa) = 87.91525 57.56121 74.76370
#
# Poissons Ratio (x) = -0.02305 0.30038
# Poissons Ratio (y) = -0.03521 0.10082
# Poissons Ratio (z) = 0.35322 0.07762
#
# Static dielectric constant tensor:
#      x y z
#    x 4.685450 0.000000 -0.177760 
#    y 0.000000 4.682520 0.000000 
#    z -0.177760 0.000000 4.691510 
# 
# 
# High freq. dielectric constant tensor:
#      x y z
#    x 2.076090 0.000000 -0.013800 
#    y 0.000000 2.061420 0.000000 
#    z -0.013800 0.000000 2.068530 
# 
# From -- ./inp_files/94925.got.cif
#   From: 2010.06.25/outbox.cif.g09.slc.cpg/sg15_48_cif.got.tgz:94925.got - 2010.06.28 07:06:18.
