data_PCOD8152807
_publ_section_title
;
Structure prediction by ZEFSAII (Michael W. Deem and Ramdas Pophale) SiO2 
 PCOD8152807
Probable space group: C 2/C
;
_chemical_formula_sum "Si O2"
_cell_formula_units_Z 48
_cell_length_a 13.462788
_cell_length_b 11.601610
_cell_length_c 18.895842
_cell_angle_alpha 90.000000
_cell_angle_beta 133.597353
_cell_angle_gamma 90.000000
_cell_volume 2137.372757
_symmetry_space_group_name_H-M "C 2/C"
_symmetry_group_IT_number 15
_symmetry_cell_setting 'monoclinic'
loop_
_space_group_symop_operation_xyz
x,y,z
-x,y,1/2-z
-x,-y,-z
x,-y,1/2+z
1/2+x,1/2+y,z
1/2-x,1/2+y,1/2-z
1/2-x,1/2-y,-z
1/2+x,1/2-y,1/2+z
loop_
_atom_site_type_symbol
_atom_site_label
_atom_site_fract_x
_atom_site_fract_y
_atom_site_fract_z
Si Si1 0.338482 0.079116 0.174849
Si Si2 0.765543 0.031101 0.124656
Si Si3 0.200591 0.718061 0.553008
Si Si4 0.139388 0.939276 0.979839
Si Si5 0.390583 0.742399 0.921568
Si Si6 0.648531 0.464160 0.185860
O O1 0.500000 0.053698 0.250000
O O2 0.280996 0.030923 0.220488
O O3 0.308001 0.216613 0.157823
O O4 0.259401 0.021502 0.069129
O O5 0.847579 0.082091 0.098090
O O6 0.662436 0.126912 0.104498
O O7 0.688127 0.917655 0.060066
O O8 0.864012 0.988268 0.236700
O O9 0.250000 0.750000 0.500000
O O10 0.051785 0.767017 0.493276
O O11 0.151595 0.816883 0.025012
O O12 0.990145 0.994441 0.920974
O O13 0.329006 0.670539 0.824349
#
# Coordination Sequence:
#
# PCOD8152807 Si02
#       6
#     8   8   8   8   8   8
#     4  11  24  43  74 101 136 188 243 292 353 423
#     4  12  27  40  72 115 137 184 245 294 355 435
#     4  12  24  44  71 101 145 189 236 297 357 423
#     4  11  22  51  72 100 143 196 235 291 367 430
#     4  11  24  46  72 100 148 191 234 298 364 424
#     4  11  24  46  74 101 145 189 239 290 369 427
#
# _framework density 22.457477000000001
#
# number of rings (size 3 to 8) (size 9 to 14) (size 15 to 20)
#    0.000    0.667    5.000    2.500    4.667    2.667 
#    0.000    8.333    0.000    0.000    0.000    0.000 
#    0.000    0.000    0.000    0.000    0.000    0.000 
#
# Total GULP energy -297498.647034 kJ/mol
# GULP energy per Si atom -12395.776960 kJ/mol
# Density = 2.240636 g / cm^3
# Si number density = 22.457477 Si / 1000 Ang^3
#
#
#
# Elastic Constant Matrix: (Units=GPa)
#
#
# Indices 1 2 3 4 5 6 
#
# 1 121.2509 44.1556 69.6263 0.0000 0.3562 0.0000
# 2 44.1556 150.6969 52.6570 0.0000 -0.2215 0.0000
# 3 69.6263 52.6570 107.0606 0.0000 -9.4581 0.0000
# 4 0.0000 0.0000 0.0000 25.6877 0.0000 0.0875
# 5 0.3562 -0.2215 -9.4581 0.0000 54.0841 0.0000
# 6 0.0000 0.0000 0.0000 0.0875 0.0000 31.1643
#
#
#
# Elastic Compliance Matrix: (Units=1/GPa)
#
#
# Indices 1 2 3 4 5 6 
#
# 1 0.013428 -0.001011 -0.008373 0.000000 -0.001557 0.000000
# 2 -0.001011 0.008113 -0.003381 0.000000 -0.000551 0.000000
# 3 -0.008373 -0.003381 0.016711 0.000000 0.002964 0.000000
# 4 0.000000 0.000000 0.000000 0.038930 0.000000 -0.000109
# 5 -0.001557 -0.000551 0.002964 0.000000 0.019016 0.000000
# 6 0.000000 0.000000 0.000000 -0.000109 0.000000 0.032088
#
#
# Mechanical properties :
#
#
# Convention : Reuss Voigt Hill
#
# Bulk Modulus (GPa) = 78.61276 79.09844 78.85560
# Shear Modulus (GPa) = 31.63400 36.35852 33.99626
#
# Velocity S-wave (km/s) = 3.75723 4.02804 3.89499
# Velocity P-wave (km/s) = 7.34190 7.54529 7.44429
#
# Compressibility (1/GPa) = 0.01272058
#
# Stress axis : x y z
#
# Youngs Moduli (GPa) = 74.46920 123.26163 59.84094
#
# Poissons Ratio (x) = 0.12463 0.50107
# Poissons Ratio (y) = 0.07530 0.20235
# Poissons Ratio (z) = 0.62355 0.41680
#
# Static dielectric constant tensor:
#      x y z
#    x 4.007420 0.000000 -0.186490 
#    y 0.000000 4.246440 0.000000 
#    z -0.186490 0.000000 3.822510 
# 
# 
# High freq. dielectric constant tensor:
#      x y z
#    x 1.893810 0.000000 -0.012010 
#    y 0.000000 1.892150 0.000000 
#    z -0.012010 0.000000 1.871700 
# 
# From -- ./inp_files/243998.got.cif
#   From: 2010.06.25/outbox.cif.g09.slc.cpg/sg15_122_cif.got.tgz:243998.got - 2010.06.28 07:06:18.
