data_PCOD8152718
_publ_section_title
;
Structure prediction by ZEFSAII (Michael W. Deem and Ramdas Pophale) SiO2 
 PCOD8152718
Probable space group: C 2/C
;
_chemical_formula_sum "Si O2"
_cell_formula_units_Z 44
_cell_length_a 15.484450
_cell_length_b 10.394331
_cell_length_c 11.088807
_cell_angle_alpha 90.000000
_cell_angle_beta 100.007296
_cell_angle_gamma 90.000000
_cell_volume 1757.595189
_symmetry_space_group_name_H-M "C 2/C"
_symmetry_group_IT_number 15
_symmetry_cell_setting 'monoclinic'
loop_
_space_group_symop_operation_xyz
x,y,z
-x,y,1/2-z
-x,-y,-z
x,-y,1/2+z
1/2+x,1/2+y,z
1/2-x,1/2+y,1/2-z
1/2-x,1/2-y,-z
1/2+x,1/2-y,1/2+z
loop_
_atom_site_type_symbol
_atom_site_label
_atom_site_fract_x
_atom_site_fract_y
_atom_site_fract_z
Si Si1 0.954666 0.037155 0.615727
Si Si2 0.044898 0.283141 0.603934
Si Si3 0.242541 0.013350 0.874104
Si Si4 0.645965 0.862423 0.414323
Si Si5 0.000000 0.506762 0.750000
Si Si6 0.731019 0.761127 0.733107
O O1 0.000000 0.980226 0.750000
O O2 0.964155 0.191601 0.616638
O O3 0.852994 0.000044 0.589652
O O4 0.000000 0.000000 0.500000
O O5 0.074970 0.278147 0.471936
O O6 0.127607 0.236041 0.703898
O O7 0.014115 0.425195 0.632174
O O8 0.248991 0.916457 0.756462
O O9 0.265078 0.162363 0.843955
O O10 0.315531 0.973476 0.989207
O O11 0.724714 0.775074 0.384323
O O12 0.589902 0.914401 0.288019
#
# Coordination Sequence:
#
# PCOD8152718 Si02
#       6
#     8   8   8   8   4   8
#     4  12  24  46  74 108 147 194 247 309 378 445
#     4  11  22  46  68  97 148 193 232 312 380 439
#     4  11  24  44  74 106 145 192 245 308 377 446
#     4  11  24  43  70  99 140 194 246 307 365 448
#     4  12  24  46  66 100 142 192 252 302 374 442
#     4  11  22  45  69 100 141 189 238 299 371 443
#
# _framework density 25.034206000000001
#
# number of rings (size 3 to 8) (size 9 to 14) (size 15 to 20)
#    0.000    0.727    2.727    7.091    0.000    0.000 
#    9.818    4.545    0.000    0.000    0.000    0.000 
#    0.000    0.000    0.000    0.000    0.000    0.000 
#
# Total GULP energy -272597.424536 kJ/mol
# GULP energy per Si atom -12390.792024 kJ/mol
# Density = 2.497723 g / cm^3
# Si number density = 25.034206 Si / 1000 Ang^3
#
#
#
# Elastic Constant Matrix: (Units=GPa)
#
#
# Indices 1 2 3 4 5 6 
#
# 1 107.8285 26.3474 20.4779 0.0000 -5.2677 0.0000
# 2 26.3474 73.4732 5.4793 0.0000 9.2601 0.0000
# 3 20.4779 5.4793 89.3287 0.0000 -4.9553 0.0000
# 4 0.0000 0.0000 0.0000 21.4852 0.0000 -8.9953
# 5 -5.2677 9.2601 -4.9553 0.0000 43.0488 0.0000
# 6 0.0000 0.0000 0.0000 -8.9953 0.0000 31.4523
#
#
#
# Elastic Compliance Matrix: (Units=1/GPa)
#
#
# Indices 1 2 3 4 5 6 
#
# 1 0.010729 -0.003931 -0.002112 0.000000 0.001915 0.000000
# 2 -0.003931 0.015525 -0.000265 0.000000 -0.003851 0.000000
# 3 -0.002112 -0.000265 0.011759 0.000000 0.001152 0.000000
# 4 0.000000 0.000000 0.000000 0.052875 0.000000 0.015122
# 5 0.001915 -0.003851 0.001152 0.000000 0.024425 0.000000
# 6 0.000000 0.000000 0.000000 0.015122 0.000000 0.036119
#
#
# Mechanical properties :
#
#
# Convention : Reuss Voigt Hill
#
# Bulk Modulus (GPa) = 39.37477 41.69329 40.53403
# Shear Modulus (GPa) = 28.98305 33.75233 31.36769
#
# Velocity S-wave (km/s) = 3.40625 3.67583 3.54360
# Velocity P-wave (km/s) = 5.58861 5.89121 5.74190
#
# Compressibility (1/GPa) = 0.02539697
#
# Stress axis : x y z
#
# Youngs Moduli (GPa) = 93.20263 64.41096 85.04147
#
# Poissons Ratio (x) = 0.25323 0.17963
# Poissons Ratio (y) = 0.36642 0.02251
# Poissons Ratio (z) = 0.19686 0.01705
#
# Static dielectric constant tensor:
#      x y z
#    x 4.637160 0.000000 -0.203460 
#    y 0.000000 4.554980 0.000000 
#    z -0.203460 0.000000 4.283410 
# 
# 
# High freq. dielectric constant tensor:
#      x y z
#    x 2.017220 0.000000 -0.027550 
#    y 0.000000 1.992090 0.000000 
#    z -0.027550 0.000000 1.975910 
# 
# From -- ./inp_files/94989.got.cif
#   From: 2010.06.25/outbox.cif.g09.slc.cpg/sg15_48_cif.got.tgz:94989.got - 2010.06.28 07:06:18.
