data_PCOD8152313
_publ_section_title
;
Structure prediction by ZEFSAII (Michael W. Deem and Ramdas Pophale) SiO2 
 PCOD8152313
Probable space group: C 2/C
;
_chemical_formula_sum "Si O2"
_cell_formula_units_Z 48
_cell_length_a 10.698540
_cell_length_b 22.865606
_cell_length_c 8.617809
_cell_angle_alpha 90.000000
_cell_angle_beta 81.779534
_cell_angle_gamma 90.000000
_cell_volume 2086.501650
_symmetry_space_group_name_H-M "C 2/C"
_symmetry_group_IT_number 15
_symmetry_cell_setting 'monoclinic'
loop_
_space_group_symop_operation_xyz
x,y,z
-x,y,1/2-z
-x,-y,-z
x,-y,1/2+z
1/2+x,1/2+y,z
1/2-x,1/2+y,1/2-z
1/2-x,1/2-y,-z
1/2+x,1/2-y,1/2+z
loop_
_atom_site_type_symbol
_atom_site_label
_atom_site_fract_x
_atom_site_fract_y
_atom_site_fract_z
Si Si1 0.238881 0.856765 0.604661
Si Si2 0.000245 0.333445 0.418842
Si Si3 0.805420 0.426168 0.084739
Si Si4 0.855727 0.538714 0.254896
Si Si5 0.365919 0.656366 0.699143
Si Si6 0.306074 0.255529 0.659464
O O1 0.365612 0.825895 0.520388
O O2 0.277251 0.921867 0.647743
O O3 0.133943 0.860894 0.484861
O O4 0.191465 0.819728 0.762910
O O5 0.096646 0.375839 0.492127
O O6 0.050742 0.267121 0.387130
O O7 0.000000 0.364282 0.250000
O O8 0.863279 0.472429 0.194254
O O9 0.683671 0.396929 0.185553
O O10 0.776208 0.459796 0.929618
O O11 0.000000 0.560686 0.250000
O O12 0.500000 0.673766 0.750000
O O13 0.272751 0.711652 0.718314
O O14 0.250000 0.250000 0.500000
#
# Coordination Sequence:
#
# PCOD8152313 Si02
#       6
#     8   8   8   8   8   8
#     4  12  24  44  67 103 135 178 225 280 339 393
#     4  11  22  40  67  94 137 168 223 278 332 397
#     4  11  23  43  63 107 131 171 219 274 344 397
#     4  12  24  38  73 102 137 166 219 284 341 403
#     4  11  26  46  68  93 135 183 227 273 329 403
#     4  11  26  40  65 100 137 177 221 275 337 403
#
# _framework density 23.005013000000002
#
# number of rings (size 3 to 8) (size 9 to 14) (size 15 to 20)
#    0.000    0.667    5.000    4.500    2.333    0.000 
#    0.000    5.833    0.000    0.000    0.000    0.000 
#    0.000    0.000    0.000    0.000    0.000    0.000 
#
# Total GULP energy -297444.954199 kJ/mol
# GULP energy per Si atom -12393.539758 kJ/mol
# Density = 2.295265 g / cm^3
# Si number density = 23.005013 Si / 1000 Ang^3
#
#
#
# Elastic Constant Matrix: (Units=GPa)
#
#
# Indices 1 2 3 4 5 6 
#
# 1 56.5229 9.5413 8.4302 0.0000 6.2175 0.0000
# 2 9.5413 82.2344 11.0954 0.0000 -6.4496 0.0000
# 3 8.4302 11.0954 108.5612 0.0000 7.8911 0.0000
# 4 0.0000 0.0000 0.0000 37.2502 0.0000 9.7468
# 5 6.2175 -6.4496 7.8911 0.0000 33.8990 0.0000
# 6 0.0000 0.0000 0.0000 9.7468 0.0000 7.6195
#
#
#
# Elastic Compliance Matrix: (Units=1/GPa)
#
#
# Indices 1 2 3 4 5 6 
#
# 1 0.018624 -0.002319 -0.000945 0.000000 -0.003637 0.000000
# 2 -0.002319 0.012864 -0.001367 0.000000 0.003191 0.000000
# 3 -0.000945 -0.001367 0.009593 0.000000 -0.002320 0.000000
# 4 0.000000 0.000000 0.000000 0.040351 0.000000 -0.051617
# 5 -0.003637 0.003191 -0.002320 0.000000 0.031314 0.000000
# 6 0.000000 0.000000 0.000000 -0.051617 0.000000 0.197271
#
#
# Mechanical properties :
#
#
# Convention : Reuss Voigt Hill
#
# Bulk Modulus (GPa) = 31.42575 33.93914 32.68244
# Shear Modulus (GPa) = 15.15681 30.30384 22.73033
#
# Velocity S-wave (km/s) = 2.56959 3.63336 3.14675
# Velocity P-wave (km/s) = 4.74276 5.69093 5.23834
#
# Compressibility (1/GPa) = 0.03182104
#
# Stress axis : x y z
#
# Youngs Moduli (GPa) = 53.69310 77.73611 104.24192
#
# Poissons Ratio (x) = 0.18024 0.09850
# Poissons Ratio (y) = 0.12450 0.14246
# Poissons Ratio (z) = 0.05073 0.10624
#
# Static dielectric constant tensor:
#      x y z
#    x 3.868250 0.000000 0.063170 
#    y 0.000000 4.066550 0.000000 
#    z 0.063170 0.000000 4.356260 
# 
# 
# High freq. dielectric constant tensor:
#      x y z
#    x 1.877270 0.000000 0.014230 
#    y 0.000000 1.902780 0.000000 
#    z 0.014230 0.000000 1.927580 
# 
# From -- ./inp_files/31893.got.cif
#   From: 2010.06.25/outbox.cif.g09.slc.cpg/sg15_16_cif.got.tgz:31893.got - 2010.06.28 07:06:18.
