data_PCOD8152116
_publ_section_title
;
Structure prediction by ZEFSAII (Michael W. Deem and Ramdas Pophale) SiO2 
 PCOD8152116
Probable space group: C 2/C
;
_chemical_formula_sum "Si O2"
_cell_formula_units_Z 40
_cell_length_a 24.776345
_cell_length_b 9.468417
_cell_length_c 9.644547
_cell_angle_alpha 90.000000
_cell_angle_beta 113.781971
_cell_angle_gamma 90.000000
_cell_volume 2070.420924
_symmetry_space_group_name_H-M "C 2/C"
_symmetry_group_IT_number 15
_symmetry_cell_setting 'monoclinic'
loop_
_space_group_symop_operation_xyz
x,y,z
-x,y,1/2-z
-x,-y,-z
x,-y,1/2+z
1/2+x,1/2+y,z
1/2-x,1/2+y,1/2-z
1/2-x,1/2-y,-z
1/2+x,1/2-y,1/2+z
loop_
_atom_site_type_symbol
_atom_site_label
_atom_site_fract_x
_atom_site_fract_y
_atom_site_fract_z
Si Si1 0.542572 0.016217 0.670593
Si Si2 0.859934 0.722038 0.821300
Si Si3 0.681372 0.512041 0.775097
Si Si4 0.262927 0.031667 0.606445
Si Si5 0.357378 0.805568 0.648484
O O1 0.500000 0.056114 0.750000
O O2 0.580960 0.875175 0.739581
O O3 0.500000 0.000000 0.500000
O O4 0.583478 0.149440 0.684803
O O5 0.866225 0.886928 0.791365
O O6 0.802365 0.667246 0.680299
O O7 0.853483 0.691652 0.978129
O O8 0.707229 0.533836 0.649553
O O9 0.646574 0.647071 0.797674
O O10 0.736685 0.463988 0.925451
O O11 0.302720 0.890241 0.659125
#
# Coordination Sequence:
#
# PCOD8152116 Si02
#       5
#     8   8   8   8   8
#     4  11  24  45  71  87 113 159 212 264 313 361
#     4  11  23  40  63  94 123 164 210 249 303 370
#     4  12  22  38  61  93 135 162 198 247 307 361
#     4  11  22  37  63  90 130 174 200 238 295 371
#     4  11  23  41  62  93 127 162 206 255 303 361
#
# _framework density 19.319741
#
# number of rings (size 3 to 8) (size 9 to 14) (size 15 to 20)
#    0.000    0.800    6.000    2.400    0.000    1.600 
#    0.000    2.000    0.000    0.000    0.000    0.000 
#    0.000    0.000    0.000    0.000    0.000    0.000 
#
# Total GULP energy -248010.172876 kJ/mol
# GULP energy per Si atom -12400.508644 kJ/mol
# Density = 1.927577 g / cm^3
# Si number density = 19.319741 Si / 1000 Ang^3
#
#
#
# Elastic Constant Matrix: (Units=GPa)
#
#
# Indices 1 2 3 4 5 6 
#
# 1 112.0117 59.0419 19.6854 0.0000 -12.4738 0.0000
# 2 59.0419 113.5375 13.7103 0.0000 -11.0032 0.0000
# 3 19.6854 13.7103 54.3345 0.0000 -3.9354 0.0000
# 4 0.0000 0.0000 0.0000 30.7067 0.0000 -3.9284
# 5 -12.4738 -11.0032 -3.9354 0.0000 37.3908 0.0000
# 6 0.0000 0.0000 0.0000 -3.9284 0.0000 13.7661
#
#
#
# Elastic Compliance Matrix: (Units=1/GPa)
#
#
# Indices 1 2 3 4 5 6 
#
# 1 0.012940 -0.006157 -0.002976 0.000000 0.002192 0.000000
# 2 -0.006157 0.012243 -0.000752 0.000000 0.001469 0.000000
# 3 -0.002976 -0.000752 0.019735 0.000000 0.000863 0.000000
# 4 0.000000 0.000000 0.000000 0.033800 0.000000 0.009645
# 5 0.002192 0.001469 0.000863 0.000000 0.027999 0.000000
# 6 0.000000 0.000000 0.000000 0.009645 0.000000 0.075395
#
#
# Mechanical properties :
#
#
# Convention : Reuss Voigt Hill
#
# Bulk Modulus (GPa) = 39.76524 51.63988 45.70256
# Shear Modulus (GPa) = 23.77949 28.86913 26.32431
#
# Velocity S-wave (km/s) = 3.51214 3.86979 3.69529
# Velocity P-wave (km/s) = 6.08886 6.83770 6.47411
#
# Compressibility (1/GPa) = 0.02514759
#
# Stress axis : x y z
#
# Youngs Moduli (GPa) = 77.27778 81.68004 50.67158
#
# Poissons Ratio (x) = 0.50294 0.15079
# Poissons Ratio (y) = 0.47584 0.03810
# Poissons Ratio (z) = 0.22996 0.06142
#
# Static dielectric constant tensor:
#      x y z
#    x 3.413290 0.000000 -0.015390 
#    y 0.000000 3.613030 0.000000 
#    z -0.015390 0.000000 3.630890 
# 
# 
# High freq. dielectric constant tensor:
#      x y z
#    x 1.740570 0.000000 -0.008380 
#    y 0.000000 1.754530 0.000000 
#    z -0.008380 0.000000 1.768410 
# 
# From -- ./inp_files/59906.got.cif
#   From: 2010.06.25/outbox.cif.g09.slc.cpg/sg15_30_cif.got.tgz:59906.got - 2010.06.28 07:06:18.
