data_PCOD8152052
_publ_section_title
;
Structure prediction by ZEFSAII (Michael W. Deem and Ramdas Pophale) SiO2 
 PCOD8152052
Probable space group: C 2/C
;
_chemical_formula_sum "Si O2"
_cell_formula_units_Z 44
_cell_length_a 15.538174
_cell_length_b 10.920639
_cell_length_c 27.022666
_cell_angle_alpha 90.000000
_cell_angle_beta 155.330683
_cell_angle_gamma 90.000000
_cell_volume 1913.852085
_symmetry_space_group_name_H-M "C 2/C"
_symmetry_group_IT_number 15
_symmetry_cell_setting 'monoclinic'
loop_
_space_group_symop_operation_xyz
x,y,z
-x,y,1/2-z
-x,-y,-z
x,-y,1/2+z
1/2+x,1/2+y,z
1/2-x,1/2+y,1/2-z
1/2-x,1/2-y,-z
1/2+x,1/2-y,1/2+z
loop_
_atom_site_type_symbol
_atom_site_label
_atom_site_fract_x
_atom_site_fract_y
_atom_site_fract_z
Si Si1 0.679290 0.085170 0.413141
Si Si2 0.884359 0.301707 0.467215
Si Si3 0.907236 0.035913 0.628833
Si Si4 0.208203 0.249304 0.773514
Si Si5 0.500000 0.898749 0.250000
Si Si6 0.167333 0.195283 0.268612
O O1 0.841631 0.190386 0.482905
O O2 0.745975 0.024626 0.499525
O O3 0.452659 0.142516 0.300020
O O4 0.670578 0.981317 0.366741
O O5 0.712106 0.407055 0.386249
O O6 0.869189 0.256719 0.402960
O O7 0.109979 0.354102 0.597135
O O8 0.095668 0.119484 0.709055
O O9 0.991238 0.903724 0.688712
O O10 0.338252 0.278387 0.792719
O O11 0.621127 0.819599 0.273157
#
# Coordination Sequence:
#
# PCOD8152052 Si02
#       6
#     8   8   8   8   4   8
#     4  11  21  47  78 103 143 190 249 306 356 436
#     4  11  23  48  79 105 143 200 243 295 369 445
#     4  11  24  45  74 108 151 184 241 306 362 441
#     4  11  23  45  79 107 134 202 245 286 366 447
#     4  12  30  46  66 110 150 184 250 316 362 420
#     4  12  29  46  68 114 148 186 248 302 371 431
#
# _framework density 22.990282000000001
#
# number of rings (size 3 to 8) (size 9 to 14) (size 15 to 20)
#    0.000    0.727    5.455    2.727    7.636    2.182 
#    0.000    0.000    0.000    0.000    0.000    0.000 
#    0.000    0.000    0.000    0.000    0.000    0.000 
#
# Total GULP energy -272988.901191 kJ/mol
# GULP energy per Si atom -12408.586418 kJ/mol
# Density = 2.293796 g / cm^3
# Si number density = 22.990282 Si / 1000 Ang^3
#
#
#
# Elastic Constant Matrix: (Units=GPa)
#
#
# Indices 1 2 3 4 5 6 
#
# 1 119.4299 33.3729 39.8280 -0.0011 -13.9680 -0.0002
# 2 33.3729 113.0662 34.6274 -0.0002 1.4829 -0.0002
# 3 39.8280 34.6274 109.5514 0.0017 -18.9098 -0.0013
# 4 -0.0011 -0.0002 0.0017 29.3263 -0.0009 -6.7327
# 5 -13.9680 1.4829 -18.9098 -0.0009 32.2761 -0.0003
# 6 -0.0002 -0.0002 -0.0013 -6.7327 -0.0003 32.7630
#
#
#
# Elastic Compliance Matrix: (Units=1/GPa)
#
#
# Indices 1 2 3 4 5 6 
#
# 1 0.010192 -0.002300 -0.002446 0.000001 0.003083 0.000000
# 2 -0.002300 0.010499 -0.003045 0.000000 -0.003262 0.000000
# 3 -0.002446 -0.003045 0.012039 -0.000001 0.006135 0.000000
# 4 0.000001 0.000000 -0.000001 0.035787 0.000001 0.007354
# 5 0.003083 -0.003262 0.006135 0.000001 0.036061 0.000001
# 6 0.000000 0.000000 0.000000 0.007354 0.000001 0.032034
#
#
# Mechanical properties :
#
#
# Convention : Reuss Voigt Hill
#
# Bulk Modulus (GPa) = 58.31905 61.96711 60.14308
# Shear Modulus (GPa) = 31.66362 34.48770 33.07566
#
# Velocity S-wave (km/s) = 3.71517 3.87731 3.79711
# Velocity P-wave (km/s) = 6.62006 6.85980 6.74100
#
# Compressibility (1/GPa) = 0.01714706
#
# Stress axis : x y z
#
# Youngs Moduli (GPa) = 98.11522 95.25095 83.06321
#
# Poissons Ratio (x) = 0.21903 0.20320
# Poissons Ratio (y) = 0.22562 0.25296
# Poissons Ratio (z) = 0.24002 0.29008
#
# Static dielectric constant tensor:
#      x y z
#    x 4.076660 0.000000 -0.244630 
#    y 0.000000 4.023860 0.000000 
#    z -0.244630 0.000000 4.013990 
# 
# 
# High freq. dielectric constant tensor:
#      x y z
#    x 1.910220 0.000000 -0.023360 
#    y 0.000000 1.898940 0.000000 
#    z -0.023360 0.000000 1.908750 
# 
# From -- ./inp_files/151772.got.cif
#   From: 2010.06.25/outbox.cif.g09.slc.cpg/sg15_76_cif.got.tgz:151772.got - 2010.06.28 07:06:18.
