data_PCOD8152333
_publ_section_title
;
Structure prediction by ZEFSAII (Michael W. Deem and Ramdas Pophale) SiO2 
 PCOD8152333
Probable space group: C 2/C
;
_chemical_formula_sum "Si O2"
_cell_formula_units_Z 52
_cell_length_a 12.316852
_cell_length_b 26.369438
_cell_length_c 8.900788
_cell_angle_alpha 90.000000
_cell_angle_beta 126.263572
_cell_angle_gamma 90.000000
_cell_volume 2330.924171
_symmetry_space_group_name_H-M "C 2/C"
_symmetry_group_IT_number 15
_symmetry_cell_setting 'monoclinic'
loop_
_space_group_symop_operation_xyz
x,y,z
-x,y,1/2-z
-x,-y,-z
x,-y,1/2+z
1/2+x,1/2+y,z
1/2-x,1/2+y,1/2-z
1/2-x,1/2-y,-z
1/2+x,1/2-y,1/2+z
loop_
_atom_site_type_symbol
_atom_site_label
_atom_site_fract_x
_atom_site_fract_y
_atom_site_fract_z
Si Si1 0.392626 0.534092 0.833008
Si Si2 0.500000 0.374239 0.250000
Si Si3 0.500000 0.924974 0.250000
Si Si4 0.701902 0.292493 0.343815
Si Si5 0.606883 0.752453 0.460488
Si Si6 0.213261 0.500610 0.938091
Si Si7 0.000000 0.585582 0.250000
Si Si8 0.539019 0.846601 0.055848
O O1 0.457065 0.590141 0.857489
O O2 0.255497 0.529705 0.818644
O O3 0.351499 0.509834 0.639535
O O4 0.500000 0.500000 0.000000
O O5 0.627417 0.336701 0.379039
O O6 0.584680 0.890432 0.206701
O O7 0.393193 0.960644 0.072222
O O8 0.750000 0.250000 0.500000
O O9 0.834679 0.312285 0.375066
O O10 0.605962 0.274058 0.126152
O O11 0.500000 0.729365 0.250000
O O12 0.750000 0.750000 0.500000
O O13 0.575376 0.811502 0.463753
O O14 0.136957 0.447075 0.859635
O O15 0.979004 0.624310 0.366954
#
# Coordination Sequence:
#
# PCOD8152333 Si02
#       8
#     8   4   4   8   8   8   4   8
#     4  12  24  45  67  99 147 189 237 297 362 449
#     4  12  26  45  74 107 145 204 247 306 386 454
#     4  11  22  40  68  99 129 178 234 296 365 428
#     4  12  26  48  76 106 148 195 258 317 383 460
#     4  12  25  49  74 106 149 191 242 329 387 451
#     4  11  23  43  68  98 142 183 237 303 356 431
#     4  11  24  41  72 104 138 188 243 306 365 434
#     4  12  23  44  69 103 138 184 242 301 370 458
#
# _framework density 22.308748000000001
#
# number of rings (size 3 to 8) (size 9 to 14) (size 15 to 20)
#    0.000    0.308    3.846    5.538    0.000    2.462 
#    2.769    3.077    0.000    0.000    0.000    0.000 
#    0.000    0.000    0.000    0.000    0.000    0.000 
#
# Total GULP energy -322123.391103 kJ/mol
# GULP energy per Si atom -12389.361196 kJ/mol
# Density = 2.225797 g / cm^3
# Si number density = 22.308748 Si / 1000 Ang^3
#
#
#
# Elastic Constant Matrix: (Units=GPa)
#
#
# Indices 1 2 3 4 5 6 
#
# 1 105.4616 56.0178 36.3224 0.0000 9.8749 0.0000
# 2 56.0178 151.5622 68.0026 0.0000 7.5862 0.0000
# 3 36.3224 68.0026 149.9569 0.0000 3.9070 0.0000
# 4 0.0000 0.0000 0.0000 35.2797 0.0000 -1.2217
# 5 9.8749 7.5862 3.9070 0.0000 32.8623 0.0000
# 6 0.0000 0.0000 0.0000 -1.2217 0.0000 69.7411
#
#
#
# Elastic Compliance Matrix: (Units=1/GPa)
#
#
# Indices 1 2 3 4 5 6 
#
# 1 0.012167 -0.003859 -0.001129 0.000000 -0.002631 0.000000
# 2 -0.003859 0.009579 -0.003392 0.000000 -0.000648 0.000000
# 3 -0.001129 -0.003392 0.008477 0.000000 0.000114 0.000000
# 4 0.000000 0.000000 0.000000 0.028362 0.000000 0.000497
# 5 -0.002631 -0.000648 0.000114 0.000000 0.031357 0.000000
# 6 0.000000 0.000000 0.000000 0.000497 0.000000 0.014347
#
#
# Mechanical properties :
#
#
# Convention : Reuss Voigt Hill
#
# Bulk Modulus (GPa) = 74.27441 80.85182 77.56312
# Shear Modulus (GPa) = 39.82920 44.01914 41.92417
#
# Velocity S-wave (km/s) = 4.22994 4.44687 4.33976
# Velocity P-wave (km/s) = 7.56456 7.91751 7.74305
#
# Compressibility (1/GPa) = 0.01346359
#
# Stress axis : x y z
#
# Youngs Moduli (GPa) = 82.19038 104.39918 117.96288
#
# Poissons Ratio (x) = 0.40286 0.13313
# Poissons Ratio (y) = 0.31716 0.40015
# Poissons Ratio (z) = 0.09276 0.35414
#
# Static dielectric constant tensor:
#      x y z
#    x 7.983940 0.000000 -8.672520 
#    y 0.000000 4.222260 0.000000 
#    z -8.672520 0.000000 24.317310 
# 
# 
# High freq. dielectric constant tensor:
#      x y z
#    x 1.901420 0.000000 -0.001690 
#    y 0.000000 1.886790 0.000000 
#    z -0.001690 0.000000 1.869020 
# 
# From -- ./inp_files/34465.got.cif
#   From: 2010.06.25/outbox.cif.g09.slc.cpg/sg15_18_cif.got.tgz:34465.got - 2010.06.28 07:06:18.
