data_PCOD8152409
_publ_section_title
;
Structure prediction by ZEFSAII (Michael W. Deem and Ramdas Pophale) SiO2 
 PCOD8152409
Probable space group: C 2/C
;
_chemical_formula_sum "Si O2"
_cell_formula_units_Z 56
_cell_length_a 16.638600
_cell_length_b 8.870235
_cell_length_c 27.756544
_cell_angle_alpha 90.000000
_cell_angle_beta 136.419249
_cell_angle_gamma 90.000000
_cell_volume 2824.057868
_symmetry_space_group_name_H-M "C 2/C"
_symmetry_group_IT_number 15
_symmetry_cell_setting 'monoclinic'
loop_
_space_group_symop_operation_xyz
x,y,z
-x,y,1/2-z
-x,-y,-z
x,-y,1/2+z
1/2+x,1/2+y,z
1/2-x,1/2+y,1/2-z
1/2-x,1/2-y,-z
1/2+x,1/2-y,1/2+z
loop_
_atom_site_type_symbol
_atom_site_label
_atom_site_fract_x
_atom_site_fract_y
_atom_site_fract_z
Si Si1 0.200901 0.360319 0.042503
Si Si2 0.467037 0.665115 0.468706
Si Si3 0.296969 0.441976 0.818763
Si Si4 0.893413 0.638048 0.101041
Si Si5 0.129663 0.417093 0.322984
Si Si6 0.642678 0.224949 0.179267
Si Si7 0.685526 0.835915 0.590525
O O1 0.112800 0.236187 0.024642
O O2 0.327321 0.286995 0.090676
O O3 0.214154 0.498008 0.084830
O O4 0.152983 0.417456 0.970658
O O5 0.500000 0.500000 0.500000
O O6 0.398683 0.654803 0.388594
O O7 0.584704 0.762293 0.513389
O O8 0.194262 0.478374 0.811934
O O9 0.349847 0.595101 0.820482
O O10 0.253246 0.338928 0.756152
O O11 0.872361 0.500030 0.127226
O O12 0.028561 0.679563 0.158902
O O13 0.197099 0.261019 0.359929
O O14 0.000000 0.377597 0.250000
O O15 0.638498 0.151725 0.124546
#
# Coordination Sequence:
#
# PCOD8152409 Si02
#       7
#     8   8   8   8   8   8   8
#     4  11  24  40  66 100 129 167 217 274 321 383
#     4  12  20  42  69  92 127 172 214 261 327 384
#     4  11  24  40  66  97 128 172 214 269 325 386
#     4  11  22  41  68  92 129 170 219 263 323 387
#     4  11  22  44  66  89 132 175 208 263 329 383
#     4  11  24  42  65  97 128 170 222 264 320 392
#     4  11  25  44  66  97 131 170 217 269 321 388
#
# _framework density 19.829622000000001
#
# number of rings (size 3 to 8) (size 9 to 14) (size 15 to 20)
#    0.000    0.857    7.143    0.429    2.000    1.714 
#    5.143    0.000    0.000    0.000    0.000    0.000 
#    0.000    0.000    0.000    0.000    0.000    0.000 
#
# Total GULP energy -347355.082307 kJ/mol
# GULP energy per Si atom -12405.538654 kJ/mol
# Density = 1.978449 g / cm^3
# Si number density = 19.829622 Si / 1000 Ang^3
#
#
#
# Elastic Constant Matrix: (Units=GPa)
#
#
# Indices 1 2 3 4 5 6 
#
# 1 69.4289 45.7724 33.1790 0.0000 -2.2296 0.0000
# 2 45.7724 92.0089 48.3131 0.0000 -13.8874 0.0000
# 3 33.1790 48.3131 125.0185 0.0000 6.0194 0.0000
# 4 0.0000 0.0000 0.0000 31.4738 0.0000 -0.3433
# 5 -2.2296 -13.8874 6.0194 0.0000 26.1130 0.0000
# 6 0.0000 0.0000 0.0000 -0.3433 0.0000 28.2330
#
#
#
# Elastic Compliance Matrix: (Units=1/GPa)
#
#
# Indices 1 2 3 4 5 6 
#
# 1 0.022084 -0.010681 -0.001568 0.000000 -0.003434 0.000000
# 2 -0.010681 0.020999 -0.005839 0.000000 0.011602 0.000000
# 3 -0.001568 -0.005839 0.010949 0.000000 -0.005763 0.000000
# 4 0.000000 0.000000 0.000000 0.031777 0.000000 0.000386
# 5 -0.003434 0.011602 -0.005763 0.000000 0.045501 0.000000
# 6 0.000000 0.000000 0.000000 0.000386 0.000000 0.035424
#
#
# Mechanical properties :
#
#
# Convention : Reuss Voigt Hill
#
# Bulk Modulus (GPa) = 56.00380 60.10949 58.05665
# Shear Modulus (GPa) = 23.93919 27.77671 25.85795
#
# Velocity S-wave (km/s) = 3.47831 3.74674 3.61502
# Velocity P-wave (km/s) = 6.66598 7.00687 6.83855
#
# Compressibility (1/GPa) = 0.01785593
#
# Stress axis : x y z
#
# Youngs Moduli (GPa) = 45.28141 47.62036 91.33343
#
# Poissons Ratio (x) = 0.50865 0.14320
# Poissons Ratio (y) = 0.48367 0.53330
# Poissons Ratio (z) = 0.07100 0.27806
#
# Static dielectric constant tensor:
#      x y z
#    x 3.679800 0.000000 0.078990 
#    y 0.000000 3.482060 0.000000 
#    z 0.078990 0.000000 3.894820 
# 
# 
# High freq. dielectric constant tensor:
#      x y z
#    x 1.773580 0.000000 0.003740 
#    y 0.000000 1.769530 0.000000 
#    z 0.003740 0.000000 1.788170 
# 
# From -- ./inp_files/242790.got.cif
#   From: 2010.06.25/outbox.cif.g09.slc.cpg/sg15_122_cif.got.tgz:242790.got - 2010.06.28 07:06:18.
