data_PCOD8152385
_publ_section_title
;
Structure prediction by ZEFSAII (Michael W. Deem and Ramdas Pophale) SiO2 
 PCOD8152385
Probable space group: C 2/C
;
_chemical_formula_sum "Si O2"
_cell_formula_units_Z 56
_cell_length_a 17.592614
_cell_length_b 9.487552
_cell_length_c 24.739966
_cell_angle_alpha 90.000000
_cell_angle_beta 142.104579
_cell_angle_gamma 90.000000
_cell_volume 2536.349545
_symmetry_space_group_name_H-M "C 2/C"
_symmetry_group_IT_number 15
_symmetry_cell_setting 'monoclinic'
loop_
_space_group_symop_operation_xyz
x,y,z
-x,y,1/2-z
-x,-y,-z
x,-y,1/2+z
1/2+x,1/2+y,z
1/2-x,1/2+y,1/2-z
1/2-x,1/2-y,-z
1/2+x,1/2-y,1/2+z
loop_
_atom_site_type_symbol
_atom_site_label
_atom_site_fract_x
_atom_site_fract_y
_atom_site_fract_z
Si Si1 0.725686 0.097196 0.964362
Si Si2 0.212582 0.604663 0.272758
Si Si3 0.906593 0.894379 0.118899
Si Si4 0.552473 0.879226 0.917986
Si Si5 0.630610 0.141946 0.798614
Si Si6 0.775301 0.352874 0.388303
Si Si7 0.652661 0.438310 0.755434
O O1 0.725679 0.118354 0.900290
O O2 0.600718 0.029383 0.921061
O O3 0.750000 0.250000 0.000000
O O4 0.843050 0.002267 0.042462
O O5 0.178495 0.451633 0.276242
O O6 0.250299 0.706370 0.343251
O O7 0.328455 0.599912 0.296923
O O8 0.093883 0.648198 0.169852
O O9 0.884974 0.738859 0.083925
O O10 0.842121 0.891965 0.140622
O O11 0.047415 0.943183 0.202826
O O12 0.597733 0.854351 0.005507
O O13 0.500000 0.092153 0.750000
O O14 0.620392 0.302122 0.772757
O O15 0.777781 0.482759 0.346891
#
# Coordination Sequence:
#
# PCOD8152385 Si02
#       7
#     8   8   8   8   8   8   8
#     4  11  22  41  67 108 133 168 230 291 334 400
#     4  12  26  44  68 102 140 178 227 285 341 407
#     4  11  23  43  72  96 133 178 234 277 328 414
#     4  11  23  43  71 101 133 178 236 282 329 410
#     4  12  23  41  68  97 133 179 225 278 344 395
#     4  11  23  45  72  96 129 185 232 274 339 407
#     4  12  26  44  64 101 143 177 218 282 351 403
#
# _framework density 22.078975
#
# number of rings (size 3 to 8) (size 9 to 14) (size 15 to 20)
#    0.000    0.571    2.857    8.143    0.000    0.571 
#    2.571    1.429    0.000    0.000    0.000    0.000 
#    0.000    0.000    0.000    0.000    0.000    0.000 
#
# Total GULP energy -347133.561553 kJ/mol
# GULP energy per Si atom -12397.627198 kJ/mol
# Density = 2.202872 g / cm^3
# Si number density = 22.078975 Si / 1000 Ang^3
#
#
#
# Elastic Constant Matrix: (Units=GPa)
#
#
# Indices 1 2 3 4 5 6 
#
# 1 69.1563 20.0293 24.4095 0.0000 -19.6468 0.0000
# 2 20.0293 110.4844 17.0705 0.0000 -17.7864 0.0000
# 3 24.4095 17.0705 109.6653 0.0000 -27.1737 0.0000
# 4 0.0000 0.0000 0.0000 38.4243 0.0000 -12.0627
# 5 -19.6468 -17.7864 -27.1737 0.0000 24.6245 0.0000
# 6 0.0000 0.0000 0.0000 -12.0627 0.0000 32.7542
#
#
#
# Elastic Compliance Matrix: (Units=1/GPa)
#
#
# Indices 1 2 3 4 5 6 
#
# 1 0.018858 -0.001146 -0.000683 0.000000 0.013465 0.000000
# 2 -0.001146 0.010320 0.000370 0.000000 0.006949 0.000000
# 3 -0.000683 0.000370 0.012586 0.000000 0.013612 0.000000
# 4 0.000000 0.000000 0.000000 0.029427 0.000000 0.010838
# 5 0.013465 0.006949 0.013612 0.000000 0.071394 0.000000
# 6 0.000000 0.000000 0.000000 0.010838 0.000000 0.034522
#
#
# Mechanical properties :
#
#
# Convention : Reuss Voigt Hill
#
# Bulk Modulus (GPa) = 25.74092 45.81383 35.77737
# Shear Modulus (GPa) = 25.91054 34.34704 30.12879
#
# Velocity S-wave (km/s) = 3.42941 3.94845 3.69805
# Velocity P-wave (km/s) = 5.23116 6.44841 5.87141
#
# Compressibility (1/GPa) = 0.03884865
#
# Stress axis : x y z
#
# Youngs Moduli (GPa) = 53.02762 96.89736 79.45520
#
# Poissons Ratio (x) = 0.11100 0.05424
# Poissons Ratio (y) = 0.06074 -0.02943
# Poissons Ratio (z) = 0.03620 -0.03590
#
# Static dielectric constant tensor:
#      x y z
#    x 3.685240 0.000000 -0.227600 
#    y 0.000000 4.055150 0.000000 
#    z -0.227600 0.000000 4.195340 
# 
# 
# High freq. dielectric constant tensor:
#      x y z
#    x 1.849350 0.000000 -0.020110 
#    y 0.000000 1.882920 0.000000 
#    z -0.020110 0.000000 1.882560 
# 
# From -- ./inp_files/298556.got.cif
#   From: 2010.06.25/outbox.cif.g09.slc.cpg/sg15_150_cif.got.tgz:298556.got - 2010.06.28 07:06:18.
