data_PCOD8152932
_publ_section_title
;
Structure prediction by ZEFSAII (Michael W. Deem and Ramdas Pophale) SiO2 
 PCOD8152932
Probable space group: C 2/C
;
_chemical_formula_sum "Si O2"
_cell_formula_units_Z 52
_cell_length_a 30.728253
_cell_length_b 12.344463
_cell_length_c 9.647679
_cell_angle_alpha 90.000000
_cell_angle_beta 43.690791
_cell_angle_gamma 90.000000
_cell_volume 2527.923907
_symmetry_space_group_name_H-M "C 2/C"
_symmetry_group_IT_number 15
_symmetry_cell_setting 'monoclinic'
loop_
_space_group_symop_operation_xyz
x,y,z
-x,y,1/2-z
-x,-y,-z
x,-y,1/2+z
1/2+x,1/2+y,z
1/2-x,1/2+y,1/2-z
1/2-x,1/2-y,-z
1/2+x,1/2-y,1/2+z
loop_
_atom_site_type_symbol
_atom_site_label
_atom_site_fract_x
_atom_site_fract_y
_atom_site_fract_z
Si Si1 0.507728 0.375462 0.453600
Si Si2 0.136905 0.293817 0.981053
Si Si3 0.317458 0.198203 0.822870
Si Si4 0.270034 0.019783 0.328522
Si Si5 0.100345 0.858035 0.009756
Si Si6 0.500000 0.757337 0.250000
Si Si7 0.184936 0.938102 0.278422
O O1 0.500000 0.500000 0.500000
O O2 0.454388 0.333444 0.473218
O O3 0.503474 0.316053 0.607512
O O4 0.575316 0.354629 0.224934
O O5 0.140647 0.285515 0.137670
O O6 0.064695 0.327125 0.108390
O O7 0.184676 0.382138 0.813861
O O8 0.154117 0.177810 0.877163
O O9 0.348415 0.262659 0.623331
O O10 0.312842 0.071683 0.800786
O O11 0.250000 0.250000 0.000000
O O12 0.216116 0.063106 0.554939
O O13 0.238274 0.968379 0.266519
O O14 0.129294 0.974907 0.909052
#
# Coordination Sequence:
#
# PCOD8152932 Si02
#       7
#     8   8   8   8   8   4   8
#     4  11  23  41  64 101 141 183 228 280 344 414
#     4  12  25  46  68 103 140 180 245 285 346 413
#     4  12  22  47  70  97 144 179 228 292 353 419
#     4  12  26  43  70 103 138 188 226 292 355 413
#     4  11  24  41  69 102 141 182 221 279 361 417
#     4  12  26  44  70  98 142 190 232 294 324 410
#     4  12  24  41  71 106 141 177 226 294 358 414
#
# _framework density 20.570239999999998
#
# number of rings (size 3 to 8) (size 9 to 14) (size 15 to 20)
#    0.000    0.308    6.154    3.231    4.308    1.231 
#    0.000    2.308    0.000    0.000    0.000    0.000 
#    0.000    0.000    0.000    0.000    0.000    0.000 
#
# Total GULP energy -322501.515830 kJ/mol
# GULP energy per Si atom -12403.904455 kJ/mol
# Density = 2.052342 g / cm^3
# Si number density = 20.570240 Si / 1000 Ang^3
#
#
#
# Elastic Constant Matrix: (Units=GPa)
#
#
# Indices 1 2 3 4 5 6 
#
# 1 64.0177 5.3295 27.9048 0.0000 -5.7702 0.0000
# 2 5.3295 94.7607 47.3317 0.0000 -1.4829 0.0000
# 3 27.9048 47.3317 151.4380 0.0000 4.4844 0.0000
# 4 0.0000 0.0000 0.0000 40.6531 0.0000 0.2840
# 5 -5.7702 -1.4829 4.4844 0.0000 43.0998 0.0000
# 6 0.0000 0.0000 0.0000 0.2840 0.0000 26.1701
#
#
#
# Elastic Compliance Matrix: (Units=1/GPa)
#
#
# Indices 1 2 3 4 5 6 
#
# 1 0.017337 0.000833 -0.003536 0.000000 0.002718 0.000000
# 2 0.000833 0.012576 -0.004113 0.000000 0.000972 0.000000
# 3 -0.003536 -0.004113 0.008585 0.000000 -0.001508 0.000000
# 4 0.000000 0.000000 0.000000 0.024600 0.000000 -0.000267
# 5 0.002718 0.000972 -0.001508 0.000000 0.023756 0.000000
# 6 0.000000 0.000000 0.000000 -0.000267 0.000000 0.038214
#
#
# Mechanical properties :
#
#
# Convention : Reuss Voigt Hill
#
# Bulk Modulus (GPa) = 40.21255 52.37206 46.29231
# Shear Modulus (GPa) = 34.01634 37.29462 35.65548
#
# Velocity S-wave (km/s) = 4.07094 4.26260 4.16787
# Velocity P-wave (km/s) = 6.45663 7.05278 6.76128
#
# Compressibility (1/GPa) = 0.02486786
#
# Stress axis : x y z
#
# Youngs Moduli (GPa) = 57.67869 79.51947 116.48251
#
# Poissons Ratio (x) = -0.06628 0.41184
# Poissons Ratio (y) = -0.04807 0.47907
# Poissons Ratio (z) = 0.20393 0.32705
#
# Static dielectric constant tensor:
#      x y z
#    x 4.004250 0.000000 0.103960 
#    y 0.000000 3.722490 0.000000 
#    z 0.103960 0.000000 4.086030 
# 
# 
# High freq. dielectric constant tensor:
#      x y z
#    x 1.818050 0.000000 0.003100 
#    y 0.000000 1.788080 0.000000 
#    z 0.003100 0.000000 1.823190 
# 
# From -- ./inp_files/177187.got.cif
#   From: 2010.06.25/outbox.cif.g09.slc.cpg/sg15_89_cif.got.tgz:177187.got - 2010.06.28 07:06:18.
