data_PCOD8152559
_publ_section_title
;
Structure prediction by ZEFSAII (Michael W. Deem and Ramdas Pophale) SiO2 
 PCOD8152559
Probable space group: C 2/C
;
_chemical_formula_sum "Si O2"
_cell_formula_units_Z 56
_cell_length_a 20.158806
_cell_length_b 14.843159
_cell_length_c 17.609224
_cell_angle_alpha 90.000000
_cell_angle_beta 29.121902
_cell_angle_gamma 90.000000
_cell_volume 2564.279515
_symmetry_space_group_name_H-M "C 2/C"
_symmetry_group_IT_number 15
_symmetry_cell_setting 'monoclinic'
loop_
_space_group_symop_operation_xyz
x,y,z
-x,y,1/2-z
-x,-y,-z
x,-y,1/2+z
1/2+x,1/2+y,z
1/2-x,1/2+y,1/2-z
1/2-x,1/2-y,-z
1/2+x,1/2-y,1/2+z
loop_
_atom_site_type_symbol
_atom_site_label
_atom_site_fract_x
_atom_site_fract_y
_atom_site_fract_z
Si Si1 0.622052 0.904808 0.952158
Si Si2 0.316830 0.066393 0.709881
Si Si3 0.000000 0.915201 0.250000
Si Si4 0.650042 0.831689 0.088438
Si Si5 0.545233 0.733002 0.586929
Si Si6 0.500000 0.877818 0.750000
Si Si7 0.794825 0.252927 0.735825
Si Si8 0.235447 0.500526 0.081916
O O1 0.708662 0.825036 0.827570
O O2 0.671959 0.003600 0.876011
O O3 0.462164 0.897977 0.094005
O O4 0.656604 0.891574 0.005671
O O5 0.230275 0.153528 0.772448
O O6 0.243549 0.003012 0.847475
O O7 0.018599 0.852465 0.305376
O O8 0.869333 0.976830 0.398589
O O9 0.500000 0.791308 0.250000
O O10 0.689589 0.898918 0.115160
O O11 0.750000 0.750000 0.000000
O O12 0.574628 0.815923 0.613633
O O13 0.691574 0.712809 0.404125
O O14 0.444870 0.759296 0.620298
O O15 0.387615 0.934661 0.818130
#
# Coordination Sequence:
#
# PCOD8152559 Si02
#       8
#     8   8   4   8   8   4   8   8
#     4  11  24  44  70 102 134 184 236 282 339 416
#     4  11  24  44  73 102 137 187 232 279 348 422
#     4  11  26  42  67 106 142 172 225 296 360 407
#     4  12  27  46  69  96 133 183 234 285 342 405
#     4  11  24  42  68 106 141 180 223 285 358 414
#     4  11  22  42  77  98 134 186 231 280 342 429
#     4  12  24  43  69 101 145 178 233 289 346 418
#     4  12  24  47  69 100 138 179 237 284 346 418
#
# _framework density 21.838493
#
# number of rings (size 3 to 8) (size 9 to 14) (size 15 to 20)
#    0.000    0.571    3.571    4.286    7.000    2.286 
#    2.571    1.429    0.000    0.000    0.000    0.000 
#    0.000    0.000    0.000    0.000    0.000    0.000 
#
# Total GULP energy -347199.308891 kJ/mol
# GULP energy per Si atom -12399.975318 kJ/mol
# Density = 2.178879 g / cm^3
# Si number density = 21.838493 Si / 1000 Ang^3
#
#
#
# Elastic Constant Matrix: (Units=GPa)
#
#
# Indices 1 2 3 4 5 6 
#
# 1 73.0638 26.3055 14.1478 0.0010 11.4058 -0.0008
# 2 26.3055 110.2135 41.1154 0.0019 -0.1046 -0.0006
# 3 14.1478 41.1154 112.1893 -0.0010 8.7447 -0.0016
# 4 0.0010 0.0019 -0.0010 49.4156 -0.0011 -1.3019
# 5 11.4058 -0.1046 8.7447 -0.0011 30.8478 0.0013
# 6 -0.0008 -0.0006 -0.0016 -1.3019 0.0013 40.2525
#
#
#
# Elastic Compliance Matrix: (Units=1/GPa)
#
#
# Indices 1 2 3 4 5 6 
#
# 1 0.015990 -0.003754 -0.000183 0.000000 -0.005873 0.000000
# 2 -0.003754 0.011432 -0.003914 0.000000 0.002536 0.000000
# 3 -0.000183 -0.003914 0.010601 0.000000 -0.002951 0.000000
# 4 0.000000 0.000000 0.000000 0.020254 0.000001 0.000655
# 5 -0.005873 0.002536 -0.002951 0.000001 0.035434 -0.000001
# 6 0.000000 0.000000 0.000000 0.000655 -0.000001 0.024864
#
#
# Mechanical properties :
#
#
# Convention : Reuss Voigt Hill
#
# Bulk Modulus (GPa) = 44.79932 50.95599 47.87766
# Shear Modulus (GPa) = 35.28156 38.36306 36.82231
#
# Velocity S-wave (km/s) = 4.02377 4.19581 4.11069
# Velocity P-wave (km/s) = 6.49200 6.84521 6.67095
#
# Compressibility (1/GPa) = 0.02232177
#
# Stress axis : x y z
#
# Youngs Moduli (GPa) = 62.53722 87.47572 94.33135
#
# Poissons Ratio (x) = 0.32837 0.01726
# Poissons Ratio (y) = 0.23476 0.36920
# Poissons Ratio (z) = 0.01144 0.34237
#
# Static dielectric constant tensor:
#      x y z
#    x 3.784960 0.000000 0.189840 
#    y 0.000000 4.121140 0.000000 
#    z 0.189840 0.000000 4.078170 
# 
# 
# High freq. dielectric constant tensor:
#      x y z
#    x 1.856980 0.000000 0.017680 
#    y 0.000000 1.869520 0.000000 
#    z 0.017680 0.000000 1.863480 
# 
# From -- ./inp_files/215751.got.cif
#   From: 2010.06.25/outbox.cif.g09.slc.cpg/sg15_108_cif.got.tgz:215751.got - 2010.06.28 07:06:18.
