data_PCOD8152003
_publ_section_title
;
Structure prediction by ZEFSAII (Michael W. Deem and Ramdas Pophale) SiO2 
 PCOD8152003
Probable space group: C 2/C
;
_chemical_formula_sum "Si O2"
_cell_formula_units_Z 60
_cell_length_a 9.666000
_cell_length_b 25.905246
_cell_length_c 11.338350
_cell_angle_alpha 90.000000
_cell_angle_beta 98.543804
_cell_angle_gamma 90.000000
_cell_volume 2807.617084
_symmetry_space_group_name_H-M "C 2/C"
_symmetry_group_IT_number 15
_symmetry_cell_setting 'monoclinic'
loop_
_space_group_symop_operation_xyz
x,y,z
-x,y,1/2-z
-x,-y,-z
x,-y,1/2+z
1/2+x,1/2+y,z
1/2-x,1/2+y,1/2-z
1/2-x,1/2-y,-z
1/2+x,1/2-y,1/2+z
loop_
_atom_site_type_symbol
_atom_site_label
_atom_site_fract_x
_atom_site_fract_y
_atom_site_fract_z
Si Si1 0.583626 0.506869 0.387094
Si Si2 0.711595 0.720078 0.109075
Si Si3 0.500000 0.887825 0.250000
Si Si4 0.641129 0.614434 0.323956
Si Si5 0.196796 0.705304 0.826984
Si Si6 0.594530 0.294713 0.962701
Si Si7 0.387327 0.956084 0.448565
Si Si8 0.140827 0.617326 0.335196
O O1 0.500000 0.496633 0.250000
O O2 0.500000 0.500000 0.500000
O O3 0.616943 0.566958 0.407026
O O4 0.731813 0.477132 0.400268
O O5 0.695688 0.761872 0.208962
O O6 0.567213 0.689448 0.067217
O O7 0.831444 0.678171 0.145920
O O8 0.750000 0.750000 0.000000
O O9 0.370981 0.850982 0.197048
O O10 0.451515 0.925795 0.346802
O O11 0.500000 0.635384 0.250000
O O12 0.693618 0.664916 0.402195
O O13 0.741775 0.593732 0.234553
O O14 0.111441 0.736468 0.916957
O O15 0.355772 0.700318 0.894953
O O16 0.364680 0.913638 0.545421
O O17 0.500000 0.000000 0.500000
O O18 0.000000 0.608768 0.250000
#
# Coordination Sequence:
#
# PCOD8152003 Si02
#       8
#     8   8   4   8   8   8   8   8
#     4  11  27  48  77 108 148 187 252 316 380 440
#     4  12  25  43  69 103 150 182 242 298 361 442
#     4  12  28  48  72 104 154 192 246 306 372 444
#     4  11  21  44  73 102 138 188 236 295 358 441
#     4  11  24  44  68 102 142 185 237 288 367 434
#     4  11  23  41  73 101 137 194 230 288 359 444
#     4  12  30  50  76 106 148 198 252 312 378 445
#     4  12  27  44  73 109 141 188 252 301 365 436
#
# _framework density 21.370435000000001
#
# number of rings (size 3 to 8) (size 9 to 14) (size 15 to 20)
#    0.000    0.533    4.000    3.200   10.267    0.000 
#    0.000    0.000    0.000    0.000    0.000    0.000 
#    0.000    0.000    0.000    0.000    0.000    0.000 
#
# Total GULP energy -371731.909815 kJ/mol
# GULP energy per Si atom -12391.063660 kJ/mol
# Density = 2.132179 g / cm^3
# Si number density = 21.370435 Si / 1000 Ang^3
#
#
#
# Elastic Constant Matrix: (Units=GPa)
#
#
# Indices 1 2 3 4 5 6 
#
# 1 115.3359 49.9493 82.4170 0.0000 -1.6752 0.0000
# 2 49.9493 131.8470 58.3514 0.0000 -0.2554 0.0000
# 3 82.4170 58.3514 143.3374 0.0000 10.1266 0.0000
# 4 0.0000 0.0000 0.0000 46.5892 0.0000 -1.7218
# 5 -1.6752 -0.2554 10.1266 0.0000 26.7851 0.0000
# 6 0.0000 0.0000 0.0000 -1.7218 0.0000 42.4073
#
#
#
# Elastic Compliance Matrix: (Units=1/GPa)
#
#
# Indices 1 2 3 4 5 6 
#
# 1 0.015709 -0.002215 -0.008424 0.000000 0.004146 0.000000
# 2 -0.002215 0.009627 -0.002715 0.000000 0.000980 0.000000
# 3 -0.008424 -0.002715 0.013320 0.000000 -0.005589 0.000000
# 4 0.000000 0.000000 0.000000 0.021496 0.000000 0.000873
# 5 0.004146 0.000980 -0.005589 0.000000 0.039716 0.000000
# 6 0.000000 0.000000 0.000000 0.000873 0.000000 0.023616
#
#
# Mechanical properties :
#
#
# Convention : Reuss Voigt Hill
#
# Bulk Modulus (GPa) = 83.68717 85.77287 84.73002
# Shear Modulus (GPa) = 32.43060 36.47649 34.45355
#
# Velocity S-wave (km/s) = 3.89979 4.13591 4.01958
# Velocity P-wave (km/s) = 7.71512 7.93921 7.82797
#
# Compressibility (1/GPa) = 0.01194926
#
# Stress axis : x y z
#
# Youngs Moduli (GPa) = 63.65605 103.87383 75.07498
#
# Poissons Ratio (x) = 0.23011 0.63242
# Poissons Ratio (y) = 0.14101 0.20380
# Poissons Ratio (z) = 0.53623 0.28197
#
# Static dielectric constant tensor:
#      x y z
#    x 4.091240 0.000000 0.175970 
#    y 0.000000 3.928240 0.000000 
#    z 0.175970 0.000000 4.130160 
# 
# 
# High freq. dielectric constant tensor:
#      x y z
#    x 1.843720 0.000000 0.005800 
#    y 0.000000 1.848690 0.000000 
#    z 0.005800 0.000000 1.851780 
# 
# From -- ./inp_files/81352.got.cif
#   From: 2010.06.25/outbox.cif.g09.slc.cpg/sg15_41_cif.got.tgz:81352.got - 2010.06.28 07:06:18.
