data_PCOD8152858
_publ_section_title
;
Structure prediction by ZEFSAII (Michael W. Deem and Ramdas Pophale) SiO2 
 PCOD8152858
Probable space group: C 2/C
;
_chemical_formula_sum "Si O2"
_cell_formula_units_Z 40
_cell_length_a 26.102804
_cell_length_b 7.612431
_cell_length_c 9.608516
_cell_angle_alpha 90.000000
_cell_angle_beta 100.986570
_cell_angle_gamma 90.000000
_cell_volume 1874.274518
_symmetry_space_group_name_H-M "C 2/C"
_symmetry_group_IT_number 15
_symmetry_cell_setting 'monoclinic'
loop_
_space_group_symop_operation_xyz
x,y,z
-x,y,1/2-z
-x,-y,-z
x,-y,1/2+z
1/2+x,1/2+y,z
1/2-x,1/2+y,1/2-z
1/2-x,1/2-y,-z
1/2+x,1/2-y,1/2+z
loop_
_atom_site_type_symbol
_atom_site_label
_atom_site_fract_x
_atom_site_fract_y
_atom_site_fract_z
Si Si1 0.602883 0.638997 0.029780
Si Si2 0.686203 0.008531 0.248592
Si Si3 0.560215 0.352545 0.810447
Si Si4 0.784850 0.175802 0.394380
Si Si5 0.881525 0.469987 0.026982
O O1 0.566192 0.516403 0.917427
O O2 0.589874 0.843872 0.987630
O O3 0.591109 0.605772 0.185612
O O4 0.663075 0.575823 0.024637
O O5 0.685842 0.814305 0.187935
O O6 0.746524 0.067999 0.273821
O O7 0.666301 0.014751 0.394917
O O8 0.646065 0.113198 0.126064
O O9 0.500000 0.323331 0.750000
O O10 0.579163 0.170893 0.890375
O O11 0.750000 0.250000 0.500000
#
# Coordination Sequence:
#
# PCOD8152858 Si02
#       5
#     8   8   8   8   8
#     4  11  27  46  68 106 140 176 233 288 340 414
#     4  11  23  41  65 101 139 181 222 276 342 416
#     4  12  28  48  73 100 132 187 238 291 350 392
#     4  11  23  39  64 100 136 176 219 266 345 410
#     4  11  24  47  68 100 143 177 231 284 343 409
#
# _framework density 21.341591000000001
#
# number of rings (size 3 to 8) (size 9 to 14) (size 15 to 20)
#    0.000    0.800    8.000    0.600    8.400    2.400 
#    0.000    0.000    0.000    0.000    0.000    0.000 
#    0.000    0.000    0.000    0.000    0.000    0.000 
#
# Total GULP energy -247914.127861 kJ/mol
# GULP energy per Si atom -12395.706393 kJ/mol
# Density = 2.129302 g / cm^3
# Si number density = 21.341591 Si / 1000 Ang^3
#
#
#
# Elastic Constant Matrix: (Units=GPa)
#
#
# Indices 1 2 3 4 5 6 
#
# 1 117.9315 28.4136 28.5382 0.0000 30.8247 0.0000
# 2 28.4136 89.0751 42.4325 0.0000 19.6403 0.0000
# 3 28.5382 42.4325 94.8482 0.0000 6.9763 0.0000
# 4 0.0000 0.0000 0.0000 36.4609 0.0000 12.7774
# 5 30.8247 19.6403 6.9763 0.0000 47.6070 0.0000
# 6 0.0000 0.0000 0.0000 12.7774 0.0000 33.3496
#
#
#
# Elastic Compliance Matrix: (Units=1/GPa)
#
#
# Indices 1 2 3 4 5 6 
#
# 1 0.010948 -0.000948 -0.002403 0.000000 -0.006345 0.000000
# 2 -0.000948 0.015635 -0.006348 0.000000 -0.004906 0.000000
# 3 -0.002403 -0.006348 0.013950 0.000000 0.002131 0.000000
# 4 0.000000 0.000000 0.000000 0.031680 0.000000 -0.012138
# 5 -0.006345 -0.004906 0.002131 0.000000 0.026825 0.000000
# 6 0.000000 0.000000 0.000000 -0.012138 0.000000 0.034636
#
#
# Mechanical properties :
#
#
# Convention : Reuss Voigt Hill
#
# Bulk Modulus (GPa) = 47.32010 55.62480 51.47245
# Shear Modulus (GPa) = 31.22696 36.98153 34.10424
#
# Velocity S-wave (km/s) = 3.82933 4.16725 4.00186
# Velocity P-wave (km/s) = 6.46316 7.01964 6.74714
#
# Compressibility (1/GPa) = 0.02113267
#
# Stress axis : x y z
#
# Youngs Moduli (GPa) = 91.34059 63.95954 71.68674
#
# Poissons Ratio (x) = 0.06066 0.17227
# Poissons Ratio (y) = 0.08663 0.45510
# Poissons Ratio (z) = 0.21950 0.40604
#
# Static dielectric constant tensor:
#      x y z
#    x 4.069730 0.000000 0.491510 
#    y 0.000000 3.774660 0.000000 
#    z 0.491510 0.000000 4.599300 
# 
# 
# High freq. dielectric constant tensor:
#      x y z
#    x 1.838100 0.000000 0.007590 
#    y 0.000000 1.822800 0.000000 
#    z 0.007590 0.000000 1.855440 
# 
# From -- ./inp_files/59910.got.cif
#   From: 2010.06.25/outbox.cif.g09.slc.cpg/sg15_30_cif.got.tgz:59910.got - 2010.06.28 07:06:18.
