data_PCOD8152080
_publ_section_title
;
Structure prediction by ZEFSAII (Michael W. Deem and Ramdas Pophale) SiO2 
 PCOD8152080
Probable space group: C 2/C
;
_chemical_formula_sum "Si O2"
_cell_formula_units_Z 48
_cell_length_a 25.009632
_cell_length_b 13.651111
_cell_length_c 7.964312
_cell_angle_alpha 90.000000
_cell_angle_beta 121.982710
_cell_angle_gamma 90.000000
_cell_volume 2306.353712
_symmetry_space_group_name_H-M "C 2/C"
_symmetry_group_IT_number 15
_symmetry_cell_setting 'monoclinic'
loop_
_space_group_symop_operation_xyz
x,y,z
-x,y,1/2-z
-x,-y,-z
x,-y,1/2+z
1/2+x,1/2+y,z
1/2-x,1/2+y,1/2-z
1/2-x,1/2-y,-z
1/2+x,1/2-y,1/2+z
loop_
_atom_site_type_symbol
_atom_site_label
_atom_site_fract_x
_atom_site_fract_y
_atom_site_fract_z
Si Si1 0.158555 0.910591 0.896422
Si Si2 0.201055 0.592321 0.793054
Si Si3 0.454608 0.563680 0.819158
Si Si4 0.194957 0.197748 0.130474
Si Si5 0.874174 0.789228 0.334013
Si Si6 0.329498 0.107056 0.396541
O O1 0.152632 0.855587 0.705497
O O2 0.108778 0.000274 0.831792
O O3 0.230464 0.949340 0.033703
O O4 0.153316 0.836060 0.042117
O O5 0.204368 0.687415 0.682683
O O6 0.163923 0.506983 0.635139
O O7 0.160479 0.620475 0.888823
O O8 0.500000 0.602211 0.750000
O O9 0.440716 0.660156 0.906547
O O10 0.500000 0.500000 0.000000
O O11 0.262773 0.150123 0.229588
O O12 0.165151 0.185295 0.898597
O O13 0.880788 0.672790 0.379978
#
# Coordination Sequence:
#
# PCOD8152080 Si02
#       6
#     8   8   8   8   8   8
#     4  11  23  40  58  93 128 167 208 258 307 378
#     4  11  22  37  59  95 135 169 207 243 304 393
#     4  12  25  42  63  91 122 164 220 267 318 368
#     4  11  22  37  58  92 128 168 209 245 307 388
#     4  12  23  39  61  84 126 168 206 259 319 359
#     4  11  22  36  57  89 129 169 207 249 303 381
#
# _framework density 20.812069999999999
#
# number of rings (size 3 to 8) (size 9 to 14) (size 15 to 20)
#    0.000    0.667    5.000    4.500    7.000    0.000 
#    0.000    0.000    0.000    0.000    0.000   11.667 
#    0.000    0.167    0.000    0.000    0.000    0.000 
#
# Total GULP energy -297376.736313 kJ/mol
# GULP energy per Si atom -12390.697346 kJ/mol
# Density = 2.076470 g / cm^3
# Si number density = 20.812070 Si / 1000 Ang^3
#
#
#
# Elastic Constant Matrix: (Units=GPa)
#
#
# Indices 1 2 3 4 5 6 
#
# 1 92.9458 45.6359 18.9187 0.0000 -17.7323 0.0000
# 2 45.6359 115.0112 6.1583 0.0000 -3.9684 0.0000
# 3 18.9187 6.1583 69.2106 0.0000 -21.6425 0.0000
# 4 0.0000 0.0000 0.0000 28.7921 0.0000 -7.0842
# 5 -17.7323 -3.9684 -21.6425 0.0000 32.7412 0.0000
# 6 0.0000 0.0000 0.0000 -7.0842 0.0000 41.5698
#
#
#
# Elastic Compliance Matrix: (Units=1/GPa)
#
#
# Indices 1 2 3 4 5 6 
#
# 1 0.015105 -0.005685 -0.001614 0.000000 0.006425 0.000000
# 2 -0.005685 0.010889 0.000044 0.000000 -0.001730 0.000000
# 3 -0.001614 0.000044 0.018422 0.000000 0.011309 0.000000
# 4 0.000000 0.000000 0.000000 0.036252 0.000000 0.006178
# 5 0.006425 -0.001730 0.011309 0.000000 0.041287 0.000000
# 6 0.000000 0.000000 0.000000 0.006178 0.000000 0.025109
#
#
# Mechanical properties :
#
#
# Convention : Reuss Voigt Hill
#
# Bulk Modulus (GPa) = 33.43905 46.51040 39.97473
# Shear Modulus (GPa) = 29.14737 34.38428 31.76583
#
# Velocity S-wave (km/s) = 3.74639 4.06905 3.91105
# Velocity P-wave (km/s) = 5.90050 6.66877 6.29637
#
# Compressibility (1/GPa) = 0.02990515
#
# Stress axis : x y z
#
# Youngs Moduli (GPa) = 66.20487 91.83864 54.28253
#
# Poissons Ratio (x) = 0.52214 0.08761
# Poissons Ratio (y) = 0.37640 -0.00240
# Poissons Ratio (z) = 0.10685 -0.00406
#
# Static dielectric constant tensor:
#      x y z
#    x 3.734600 0.000000 -0.291720 
#    y 0.000000 4.130610 0.000000 
#    z -0.291720 0.000000 3.696570 
# 
# 
# High freq. dielectric constant tensor:
#      x y z
#    x 1.783650 0.000000 -0.041380 
#    y 0.000000 1.821710 0.000000 
#    z -0.041380 0.000000 1.814270 
# 
# From -- ./inp_files/60895.got.cif
#   From: 2010.06.25/outbox.cif.g09.slc.cpg/sg15_31_cif.got.tgz:60895.got - 2010.06.28 07:06:18.
