data_PCOD8152256
_publ_section_title
;
Structure prediction by ZEFSAII (Michael W. Deem and Ramdas Pophale) SiO2 
 PCOD8152256
Probable space group: C 2/C
;
_chemical_formula_sum "Si O2"
_cell_formula_units_Z 44
_cell_length_a 18.272701
_cell_length_b 8.140743
_cell_length_c 14.102860
_cell_angle_alpha 90.000000
_cell_angle_beta 110.662121
_cell_angle_gamma 90.000000
_cell_volume 1962.909059
_symmetry_space_group_name_H-M "C 2/C"
_symmetry_group_IT_number 15
_symmetry_cell_setting 'monoclinic'
loop_
_space_group_symop_operation_xyz
x,y,z
-x,y,1/2-z
-x,-y,-z
x,-y,1/2+z
1/2+x,1/2+y,z
1/2-x,1/2+y,1/2-z
1/2-x,1/2-y,-z
1/2+x,1/2-y,1/2+z
loop_
_atom_site_type_symbol
_atom_site_label
_atom_site_fract_x
_atom_site_fract_y
_atom_site_fract_z
Si Si1 0.356145 0.557602 0.741305
Si Si2 0.855395 0.757059 0.623276
Si Si3 0.056408 0.519556 0.438642
Si Si4 0.710197 0.800467 0.076936
Si Si5 0.801599 0.933083 0.412884
Si Si6 0.500000 0.237579 0.250000
O O1 0.377340 0.365907 0.726173
O O2 0.267851 0.587242 0.664589
O O3 0.355704 0.625943 0.849774
O O4 0.421085 0.658607 0.715847
O O5 0.925095 0.645825 0.613124
O O6 0.835966 0.888033 0.530931
O O7 0.786113 0.637403 0.626448
O O8 0.134954 0.592457 0.518809
O O9 0.000000 0.500000 0.500000
O O10 0.007188 0.633967 0.347693
O O11 0.693831 0.624646 0.116136
O O12 0.750000 0.750000 0.000000
#
# Coordination Sequence:
#
# PCOD8152256 Si02
#       6
#     8   8   8   8   8   4
#     4  12  25  42  70 100 135 180 231 279 347 416
#     4  11  22  42  66  99 137 171 228 289 332 408
#     4  12  27  45  70 100 137 181 227 287 350 409
#     4  12  21  47  69  93 141 183 217 281 349 406
#     4  11  22  39  71 102 129 179 231 276 337 411
#     4  12  26  46  64  96 142 178 224 292 346 412
#
# _framework density 22.415710000000001
#
# number of rings (size 3 to 8) (size 9 to 14) (size 15 to 20)
#    0.000    0.364    5.455    3.273    0.000    6.545 
#    0.000    3.636    0.000    0.000    0.000    0.000 
#    0.000    0.000    0.000    0.000    0.000    0.000 
#
# Total GULP energy -272573.151880 kJ/mol
# GULP energy per Si atom -12389.688722 kJ/mol
# Density = 2.236469 g / cm^3
# Si number density = 22.415710 Si / 1000 Ang^3
#
#
#
# Elastic Constant Matrix: (Units=GPa)
#
#
# Indices 1 2 3 4 5 6 
#
# 1 130.5446 43.1481 49.8123 0.0000 -18.8968 0.0000
# 2 43.1481 113.4465 26.3222 0.0000 -1.9686 0.0000
# 3 49.8123 26.3222 84.5555 0.0000 -13.6460 0.0000
# 4 0.0000 0.0000 0.0000 32.7041 0.0000 -0.7343
# 5 -18.8968 -1.9686 -13.6460 0.0000 50.3525 0.0000
# 6 0.0000 0.0000 0.0000 -0.7343 0.0000 11.9981
#
#
#
# Elastic Compliance Matrix: (Units=1/GPa)
#
#
# Indices 1 2 3 4 5 6 
#
# 1 0.010963 -0.002936 -0.005123 0.000000 0.002611 0.000000
# 2 -0.002936 0.010297 -0.001661 0.000000 -0.001149 0.000000
# 3 -0.005123 -0.001661 0.015729 0.000000 0.002275 0.000000
# 4 0.000000 0.000000 0.000000 0.030619 0.000000 0.001874
# 5 0.002611 -0.001149 0.002275 0.000000 0.021412 0.000000
# 6 0.000000 0.000000 0.000000 0.001874 0.000000 0.083461
#
#
# Mechanical properties :
#
#
# Convention : Reuss Voigt Hill
#
# Bulk Modulus (GPa) = 56.98549 63.01241 59.99895
# Shear Modulus (GPa) = 25.28160 32.96186 29.12173
#
# Velocity S-wave (km/s) = 3.36199 3.83884 3.60830
# Velocity P-wave (km/s) = 6.36773 6.91526 6.64713
#
# Compressibility (1/GPa) = 0.01754833
#
# Stress axis : x y z
#
# Youngs Moduli (GPa) = 91.21192 97.11692 63.57642
#
# Poissons Ratio (x) = 0.28511 0.32572
# Poissons Ratio (y) = 0.26778 0.10563
# Poissons Ratio (z) = 0.46731 0.16135
#
# Static dielectric constant tensor:
#      x y z
#    x 4.004450 0.000000 -0.296170 
#    y 0.000000 3.850220 0.000000 
#    z -0.296170 0.000000 4.075280 
# 
# 
# High freq. dielectric constant tensor:
#      x y z
#    x 1.885540 0.000000 -0.022910 
#    y 0.000000 1.894420 0.000000 
#    z -0.022910 0.000000 1.882990 
# 
# From -- ./inp_files/159433.got.cif
#   From: 2010.06.25/outbox.cif.g09.slc.cpg/sg15_80_cif.got.tgz:159433.got - 2010.06.28 07:06:18.
