data_PCOD8152459
_publ_section_title
;
Structure prediction by ZEFSAII (Michael W. Deem and Ramdas Pophale) SiO2 
 PCOD8152459
Probable space group: C 2/C
;
_chemical_formula_sum "Si O2"
_cell_formula_units_Z 48
_cell_length_a 19.045722
_cell_length_b 17.610652
_cell_length_c 14.754205
_cell_angle_alpha 90.000000
_cell_angle_beta 152.036210
_cell_angle_gamma 90.000000
_cell_volume 2320.499019
_symmetry_space_group_name_H-M "C 2/C"
_symmetry_group_IT_number 15
_symmetry_cell_setting 'monoclinic'
loop_
_space_group_symop_operation_xyz
x,y,z
-x,y,1/2-z
-x,-y,-z
x,-y,1/2+z
1/2+x,1/2+y,z
1/2-x,1/2+y,1/2-z
1/2-x,1/2-y,-z
1/2+x,1/2-y,1/2+z
loop_
_atom_site_type_symbol
_atom_site_label
_atom_site_fract_x
_atom_site_fract_y
_atom_site_fract_z
Si Si1 0.829650 0.505116 0.330785
Si Si2 0.317356 0.417316 0.188681
Si Si3 0.307880 0.175219 0.296096
Si Si4 0.154898 0.676623 0.371878
Si Si5 0.956633 0.046688 0.096225
Si Si6 0.007807 0.812315 0.990156
O O1 0.813204 0.452607 0.399609
O O2 0.802314 0.591377 0.331708
O O3 0.000000 0.500000 0.500000
O O4 0.717290 0.474406 0.122939
O O5 0.453728 0.475832 0.341741
O O6 0.375758 0.339625 0.300458
O O7 0.248206 0.397130 0.012560
O O8 0.360123 0.165810 0.251847
O O9 0.144356 0.208769 0.130670
O O10 0.427016 0.233452 0.477480
O O11 0.250000 0.750000 0.500000
O O12 0.000000 0.682264 0.250000
O O13 0.000000 0.057040 0.250000
O O14 0.006947 0.124511 0.104963
#
# Coordination Sequence:
#
# PCOD8152459 Si02
#       6
#     8   8   8   8   8   8
#     4  11  23  41  69  97 128 178 221 273 338 395
#     4  11  22  42  63  93 135 170 223 262 327 414
#     4  12  23  41  64  92 133 170 217 270 334 393
#     4  12  25  37  60 102 136 170 214 274 336 396
#     4  11  23  45  69  93 130 178 226 272 328 403
#     4  11  24  40  65  95 123 178 220 267 333 400
#
# _framework density 20.685205
#
# number of rings (size 3 to 8) (size 9 to 14) (size 15 to 20)
#    0.000    0.667    5.000    4.000    4.667    0.000 
#    0.000    0.833    0.000    0.000    0.000    0.000 
#    0.000    0.000    0.000    0.000    0.000    0.000 
#
# Total GULP energy -297501.625884 kJ/mol
# GULP energy per Si atom -12395.901078 kJ/mol
# Density = 2.063812 g / cm^3
# Si number density = 20.685205 Si / 1000 Ang^3
#
#
#
# Elastic Constant Matrix: (Units=GPa)
#
#
# Indices 1 2 3 4 5 6 
#
# 1 87.5670 31.0396 50.1824 0.0000 20.3142 0.0000
# 2 31.0396 98.9995 45.0566 0.0000 2.3694 0.0000
# 3 50.1824 45.0566 101.6874 0.0000 22.4354 0.0000
# 4 0.0000 0.0000 0.0000 40.5126 0.0000 4.6636
# 5 20.3142 2.3694 22.4354 0.0000 44.2717 0.0000
# 6 0.0000 0.0000 0.0000 4.6636 0.0000 30.9784
#
#
#
# Elastic Compliance Matrix: (Units=1/GPa)
#
#
# Indices 1 2 3 4 5 6 
#
# 1 0.016896 -0.002305 -0.006343 0.000000 -0.004415 0.000000
# 2 -0.002305 0.013205 -0.005394 0.000000 0.003084 0.000000
# 3 -0.006343 -0.005394 0.016492 0.000000 -0.005159 0.000000
# 4 0.000000 0.000000 0.000000 0.025119 0.000000 -0.003782
# 5 -0.004415 0.003084 -0.005159 0.000000 0.027063 0.000000
# 6 0.000000 0.000000 0.000000 -0.003782 0.000000 0.032850
#
#
# Mechanical properties :
#
#
# Convention : Reuss Voigt Hill
#
# Bulk Modulus (GPa) = 54.02528 60.09012 57.05770
# Shear Modulus (GPa) = 30.14267 33.95091 32.04679
#
# Velocity S-wave (km/s) = 3.82148 4.05571 3.94034
# Velocity P-wave (km/s) = 6.75619 7.14455 6.95308
#
# Compressibility (1/GPa) = 0.01850985
#
# Stress axis : x y z
#
# Youngs Moduli (GPa) = 59.18575 75.72996 60.63453
#
# Poissons Ratio (x) = 0.17457 0.38458
# Poissons Ratio (y) = 0.13643 0.32705
# Poissons Ratio (z) = 0.37539 0.40848
#
# Static dielectric constant tensor:
#      x y z
#    x 3.872620 0.000000 0.027030 
#    y 0.000000 3.896400 0.000000 
#    z 0.027030 0.000000 4.277260 
# 
# 
# High freq. dielectric constant tensor:
#      x y z
#    x 1.801960 0.000000 0.023110 
#    y 0.000000 1.826570 0.000000 
#    z 0.023110 0.000000 1.801630 
# 
# From -- ./inp_files/48339.got.cif
#   From: 2010.06.25/outbox.cif.g09.slc.cpg/sg15_25_cif.got.tgz:48339.got - 2010.06.28 07:06:18.
