data_PCOD8152711
_publ_section_title
;
Structure prediction by ZEFSAII (Michael W. Deem and Ramdas Pophale) SiO2 
 PCOD8152711
Probable space group: C 2/C
;
_chemical_formula_sum "Si O2"
_cell_formula_units_Z 48
_cell_length_a 26.593285
_cell_length_b 13.769674
_cell_length_c 9.553561
_cell_angle_alpha 90.000000
_cell_angle_beta 41.242714
_cell_angle_gamma 90.000000
_cell_volume 2306.275572
_symmetry_space_group_name_H-M "C 2/C"
_symmetry_group_IT_number 15
_symmetry_cell_setting 'monoclinic'
loop_
_space_group_symop_operation_xyz
x,y,z
-x,y,1/2-z
-x,-y,-z
x,-y,1/2+z
1/2+x,1/2+y,z
1/2-x,1/2+y,1/2-z
1/2-x,1/2-y,-z
1/2+x,1/2-y,1/2+z
loop_
_atom_site_type_symbol
_atom_site_label
_atom_site_fract_x
_atom_site_fract_y
_atom_site_fract_z
Si Si1 0.356481 0.510711 0.331125
Si Si2 0.829118 0.341879 0.440715
Si Si3 0.546448 0.697150 0.288605
Si Si4 0.556993 0.672131 0.751658
Si Si5 0.751922 0.019461 0.797879
Si Si6 0.691458 0.211934 0.826722
O O1 0.395912 0.614377 0.275799
O O2 0.416349 0.426667 0.232308
O O3 0.280004 0.497842 0.582185
O O4 0.326633 0.503006 0.235185
O O5 0.902640 0.291318 0.356760
O O6 0.821041 0.453318 0.508005
O O7 0.752265 0.292382 0.657277
O O8 0.838265 0.337963 0.253614
O O9 0.500000 0.662047 0.250000
O O10 0.488556 0.729230 0.532032
O O11 0.500000 0.640084 0.750000
O O12 0.623592 0.738786 0.553666
O O13 0.726677 0.131839 0.858080
#
# Coordination Sequence:
#
# PCOD8152711 Si02
#       6
#     8   8   8   8   8   8
#     4  12  23  40  66 104 137 169 217 289 337 398
#     4  11  22  45  67  94 140 175 219 280 329 396
#     4  12  25  44  66  99 143 176 215 279 346 397
#     4  12  24  41  67  98 135 178 223 271 341 404
#     4  12  23  41  71 100 131 174 230 275 329 386
#     4  11  23  43  69  96 133 179 228 270 329 404
#
# _framework density 20.812778000000002
#
# number of rings (size 3 to 8) (size 9 to 14) (size 15 to 20)
#    0.000    0.333    6.667    4.000    0.000    2.000 
#    0.000    1.667    0.000    0.000    0.000    0.000 
#    0.000    0.000    0.000    0.000    0.000    0.000 
#
# Total GULP energy -297680.150931 kJ/mol
# GULP energy per Si atom -12403.339622 kJ/mol
# Density = 2.076541 g / cm^3
# Si number density = 20.812778 Si / 1000 Ang^3
#
#
#
# Elastic Constant Matrix: (Units=GPa)
#
#
# Indices 1 2 3 4 5 6 
#
# 1 85.4615 40.6739 15.0848 0.0000 -6.3497 0.0000
# 2 40.6739 77.5932 25.9491 0.0000 -2.2513 0.0000
# 3 15.0848 25.9491 127.1321 0.0000 -1.0563 0.0000
# 4 0.0000 0.0000 0.0000 24.6514 0.0000 5.7208
# 5 -6.3497 -2.2513 -1.0563 0.0000 27.4227 0.0000
# 6 0.0000 0.0000 0.0000 5.7208 0.0000 21.3795
#
#
#
# Elastic Compliance Matrix: (Units=1/GPa)
#
#
# Indices 1 2 3 4 5 6 
#
# 1 0.015836 -0.008151 -0.000191 0.000000 0.002990 0.000000
# 2 -0.008151 0.018056 -0.002723 0.000000 -0.000510 0.000000
# 3 -0.000191 -0.002723 0.008445 0.000000 0.000058 0.000000
# 4 0.000000 0.000000 0.000000 0.043251 0.000000 -0.011573
# 5 0.002990 -0.000510 0.000058 0.000000 0.037119 0.000000
# 6 0.000000 0.000000 0.000000 -0.011573 0.000000 0.049871
#
#
# Mechanical properties :
#
#
# Convention : Reuss Voigt Hill
#
# Bulk Modulus (GPa) = 49.48254 50.40028 49.94141
# Shear Modulus (GPa) = 24.82106 28.58932 26.70519
#
# Velocity S-wave (km/s) = 3.45713 3.71029 3.58595
# Velocity P-wave (km/s) = 6.30574 6.52867 6.41818
#
# Compressibility (1/GPa) = 0.02020915
#
# Stress axis : x y z
#
# Youngs Moduli (GPa) = 63.14648 55.38331 118.41851
#
# Poissons Ratio (x) = 0.45142 0.02256
# Poissons Ratio (y) = 0.51469 0.32240
# Poissons Ratio (z) = 0.01203 0.15078
#
# Static dielectric constant tensor:
#      x y z
#    x 3.779700 0.000000 0.047350 
#    y 0.000000 3.733260 0.000000 
#    z 0.047350 0.000000 3.963080 
# 
# 
# High freq. dielectric constant tensor:
#      x y z
#    x 1.808780 0.000000 0.006200 
#    y 0.000000 1.803410 0.000000 
#    z 0.006200 0.000000 1.826720 
# 
# From -- ./inp_files/66409.got.cif
#   From: 2010.06.25/outbox.cif.g09.slc.cpg/sg15_34_cif.got.tgz:66409.got - 2010.06.28 07:06:18.
