data_PCOD8152517
_publ_section_title
;
Structure prediction by ZEFSAII (Michael W. Deem and Ramdas Pophale) SiO2 
 PCOD8152517
Probable space group: C 2/C
;
_chemical_formula_sum "Si O2"
_cell_formula_units_Z 52
_cell_length_a 8.717290
_cell_length_b 29.736325
_cell_length_c 11.037117
_cell_angle_alpha 90.000000
_cell_angle_beta 57.470190
_cell_angle_gamma 90.000000
_cell_volume 2412.179345
_symmetry_space_group_name_H-M "C 2/C"
_symmetry_group_IT_number 15
_symmetry_cell_setting 'monoclinic'
loop_
_space_group_symop_operation_xyz
x,y,z
-x,y,1/2-z
-x,-y,-z
x,-y,1/2+z
1/2+x,1/2+y,z
1/2-x,1/2+y,1/2-z
1/2-x,1/2-y,-z
1/2+x,1/2-y,1/2+z
loop_
_atom_site_type_symbol
_atom_site_label
_atom_site_fract_x
_atom_site_fract_y
_atom_site_fract_z
Si Si1 0.797491 0.566183 0.980404
Si Si2 0.180418 0.842976 0.613651
Si Si3 0.795585 0.441686 0.204071
Si Si4 0.944436 0.189996 0.589801
Si Si5 0.748876 0.848520 0.395477
Si Si6 0.000000 0.011035 0.250000
Si Si7 0.045788 0.708508 0.369748
O O1 0.771759 0.576559 0.849676
O O2 0.995560 0.541874 0.912632
O O3 0.812348 0.614153 0.040933
O O4 0.620586 0.539252 0.103064
O O5 0.145022 0.820287 0.499710
O O6 0.248619 0.804736 0.680202
O O7 0.000000 0.863013 0.750000
O O8 0.745934 0.401478 0.133764
O O9 0.652209 0.481904 0.253680
O O10 0.802473 0.181736 0.757632
O O11 0.007379 0.241909 0.564520
O O12 0.119649 0.159186 0.544515
O O13 0.553433 0.830111 0.511847
O O14 0.000000 0.702185 0.250000
#
# Coordination Sequence:
#
# PCOD8152517 Si02
#       7
#     8   8   8   8   8   4   8
#     4  11  24  45  68 103 140 171 224 287 341 418
#     4  12  25  43  66  97 139 181 225 282 344 397
#     4  11  24  45  71 101 138 179 227 274 352 420
#     4  11  24  41  66  99 134 182 235 279 328 394
#     4  11  22  42  70  94 132 184 224 274 336 402
#     4  12  24  46  76 102 130 176 226 286 350 416
#     4  12  25  43  64  98 137 180 230 288 327 393
#
# _framework density 21.557269000000002
#
# number of rings (size 3 to 8) (size 9 to 14) (size 15 to 20)
#    0.000    0.615    5.385    3.692    2.154    0.615 
#    0.000    0.000    0.000    0.000    0.000    0.000 
#    0.000    0.000    0.000    0.000    0.000    0.000 
#
# Total GULP energy -322280.147128 kJ/mol
# GULP energy per Si atom -12395.390274 kJ/mol
# Density = 2.150820 g / cm^3
# Si number density = 21.557269 Si / 1000 Ang^3
#
#
#
# Elastic Constant Matrix: (Units=GPa)
#
#
# Indices 1 2 3 4 5 6 
#
# 1 128.9126 50.3696 42.2572 0.0000 6.6143 0.0000
# 2 50.3696 113.6114 39.9292 0.0000 1.6528 0.0000
# 3 42.2572 39.9292 78.9586 0.0000 -13.5187 0.0000
# 4 0.0000 0.0000 0.0000 30.5423 0.0000 -1.1709
# 5 6.6143 1.6528 -13.5187 0.0000 39.5226 0.0000
# 6 0.0000 0.0000 0.0000 -1.1709 0.0000 38.7830
#
#
#
# Elastic Compliance Matrix: (Units=1/GPa)
#
#
# Indices 1 2 3 4 5 6 
#
# 1 0.010656 -0.003010 -0.004742 0.000000 -0.003280 0.000000
# 2 -0.003010 0.011781 -0.004615 0.000000 -0.001568 0.000000
# 3 -0.004742 -0.004615 0.018807 0.000000 0.007420 0.000000
# 4 0.000000 0.000000 0.000000 0.032779 0.000000 0.000990
# 5 -0.003280 -0.001568 0.007420 0.000000 0.028454 0.000000
# 6 0.000000 0.000000 0.000000 0.000990 0.000000 0.025814
#
#
# Mechanical properties :
#
#
# Convention : Reuss Voigt Hill
#
# Bulk Modulus (GPa) = 60.57164 65.17718 62.87441
# Shear Modulus (GPa) = 31.53962 34.36467 32.95214
#
# Velocity S-wave (km/s) = 3.82915 3.99696 3.91396
# Velocity P-wave (km/s) = 6.90716 7.18339 7.04663
#
# Compressibility (1/GPa) = 0.01650938
#
# Stress axis : x y z
#
# Youngs Moduli (GPa) = 93.84344 84.88058 53.17125
#
# Poissons Ratio (x) = 0.25549 0.25215
# Poissons Ratio (y) = 0.28246 0.24540
# Poissons Ratio (z) = 0.44504 0.39175
#
# Static dielectric constant tensor:
#      x y z
#    x 3.989540 0.000000 -0.165220 
#    y 0.000000 3.718050 0.000000 
#    z -0.165220 0.000000 3.958550 
# 
# 
# High freq. dielectric constant tensor:
#      x y z
#    x 1.856500 0.000000 -0.008270 
#    y 0.000000 1.841230 0.000000 
#    z -0.008270 0.000000 1.851620 
# 
# From -- ./inp_files/81175.got.cif
#   From: 2010.06.25/outbox.cif.g09.slc.cpg/sg15_41_cif.got.tgz:81175.got - 2010.06.28 07:06:18.
