data_PCOD8152311
_publ_section_title
;
Structure prediction by ZEFSAII (Michael W. Deem and Ramdas Pophale) SiO2 
 PCOD8152311
Probable space group: C 2/C
;
_chemical_formula_sum "Si O2"
_cell_formula_units_Z 56
_cell_length_a 27.347626
_cell_length_b 16.640583
_cell_length_c 8.898899
_cell_angle_alpha 90.000000
_cell_angle_beta 138.589342
_cell_angle_gamma 90.000000
_cell_volume 2678.689523
_symmetry_space_group_name_H-M "C 2/C"
_symmetry_group_IT_number 15
_symmetry_cell_setting 'monoclinic'
loop_
_space_group_symop_operation_xyz
x,y,z
-x,y,1/2-z
-x,-y,-z
x,-y,1/2+z
1/2+x,1/2+y,z
1/2-x,1/2+y,1/2-z
1/2-x,1/2-y,-z
1/2+x,1/2-y,1/2+z
loop_
_atom_site_type_symbol
_atom_site_label
_atom_site_fract_x
_atom_site_fract_y
_atom_site_fract_z
Si Si1 0.552812 0.024471 0.752849
Si Si2 0.657642 0.836733 0.411502
Si Si3 0.665193 0.892671 0.102206
Si Si4 0.204116 0.899661 0.589096
Si Si5 0.913573 0.201946 0.074934
Si Si6 0.167617 0.745566 0.378663
Si Si7 0.692350 0.447077 0.223576
O O1 0.500000 0.068502 0.750000
O O2 0.608606 0.085858 0.813404
O O3 0.500000 0.000000 0.500000
O O4 0.594744 0.951523 0.936614
O O5 0.679704 0.840701 0.286572
O O6 0.725456 0.852028 0.680615
O O7 0.613396 0.752536 0.339905
O O8 0.738734 0.941765 0.231689
O O9 0.652972 0.831690 0.940133
O O10 0.148009 0.826390 0.427703
O O11 0.218646 0.940948 0.457572
O O12 0.166655 0.961747 0.621503
O O13 0.000000 0.184372 0.250000
O O14 0.890683 0.261511 0.889231
O O15 0.870511 0.116997 0.965720
O O16 0.250000 0.750000 0.500000
#
# Coordination Sequence:
#
# PCOD8152311 Si02
#       7
#     8   8   8   8   8   8   8
#     4  12  27  41  57  96 143 176 206 260 332 402
#     4  12  24  39  66 100 128 172 220 267 328 393
#     4  12  24  39  65  95 136 170 220 269 318 401
#     4  11  22  40  67  94 126 167 216 277 320 378
#     4  11  25  45  68  93 132 180 219 271 336 392
#     4  11  22  44  64  94 133 169 216 268 332 388
#     4  11  23  42  65  97 128 169 223 270 327 387
#
# _framework density 20.905746000000001
#
# number of rings (size 3 to 8) (size 9 to 14) (size 15 to 20)
#    0.000    0.571    7.143    1.286    6.000    3.429 
#    0.000    2.857    0.000    0.857    0.000    0.000 
#    0.000    0.000    0.000    0.000    0.000    0.000 
#
# Total GULP energy -346896.469870 kJ/mol
# GULP energy per Si atom -12389.159638 kJ/mol
# Density = 2.085816 g / cm^3
# Si number density = 20.905746 Si / 1000 Ang^3
#
#
#
# Elastic Constant Matrix: (Units=GPa)
#
#
# Indices 1 2 3 4 5 6 
#
# 1 57.4151 1.5009 25.7182 0.0000 4.3289 0.0000
# 2 1.5009 75.9609 3.6018 0.0000 7.9959 0.0000
# 3 25.7182 3.6018 93.0317 0.0000 3.8656 0.0000
# 4 0.0000 0.0000 0.0000 27.1107 0.0000 -17.0241
# 5 4.3289 7.9959 3.8656 0.0000 18.1764 0.0000
# 6 0.0000 0.0000 0.0000 -17.0241 0.0000 28.9643
#
#
#
# Elastic Compliance Matrix: (Units=1/GPa)
#
#
# Indices 1 2 3 4 5 6 
#
# 1 0.020119 0.000254 -0.005416 0.000000 -0.003752 0.000000
# 2 0.000254 0.013815 -0.000353 0.000000 -0.006063 0.000000
# 3 -0.005416 -0.000353 0.012309 0.000000 -0.001172 0.000000
# 4 0.000000 0.000000 0.000000 0.058464 0.000000 0.034363
# 5 -0.003752 -0.006063 -0.001172 0.000000 0.058826 0.000000
# 6 0.000000 0.000000 0.000000 0.034363 0.000000 0.054723
#
#
# Mechanical properties :
#
#
# Convention : Reuss Voigt Hill
#
# Bulk Modulus (GPa) = 28.39886 32.00548 30.20217
# Shear Modulus (GPa) = 20.74498 27.88938 24.31718
#
# Velocity S-wave (km/s) = 3.15351 3.65643 3.41424
# Velocity P-wave (km/s) = 5.18394 5.75922 5.47914
#
# Compressibility (1/GPa) = 0.03521268
#
# Stress axis : x y z
#
# Youngs Moduli (GPa) = 49.70384 72.38736 81.24406
#
# Poissons Ratio (x) = -0.01840 0.44000
# Poissons Ratio (y) = -0.01263 0.02870
# Poissons Ratio (z) = 0.26919 0.02557
#
# Static dielectric constant tensor:
#      x y z
#    x 3.437870 0.000000 -0.190830 
#    y 0.000000 4.045010 0.000000 
#    z -0.190830 0.000000 3.729940 
# 
# 
# High freq. dielectric constant tensor:
#      x y z
#    x 1.801950 0.000000 -0.024270 
#    y 0.000000 1.829630 0.000000 
#    z -0.024270 0.000000 1.820340 
# 
# From -- ./inp_files/67168.got.cif
#   From: 2010.06.25/outbox.cif.g09.slc.cpg/sg15_34_cif.got.tgz:67168.got - 2010.06.28 07:06:18.
