data_PCOD8152623
_publ_section_title
;
Structure prediction by ZEFSAII (Michael W. Deem and Ramdas Pophale) SiO2 
 PCOD8152623
Probable space group: C 2/C
;
_chemical_formula_sum "Si O2"
_cell_formula_units_Z 52
_cell_length_a 18.030419
_cell_length_b 16.648917
_cell_length_c 9.035427
_cell_angle_alpha 90.000000
_cell_angle_beta 61.647461
_cell_angle_gamma 90.000000
_cell_volume 2386.953804
_symmetry_space_group_name_H-M "C 2/C"
_symmetry_group_IT_number 15
_symmetry_cell_setting 'monoclinic'
loop_
_space_group_symop_operation_xyz
x,y,z
-x,y,1/2-z
-x,-y,-z
x,-y,1/2+z
1/2+x,1/2+y,z
1/2-x,1/2+y,1/2-z
1/2-x,1/2-y,-z
1/2+x,1/2-y,1/2+z
loop_
_atom_site_type_symbol
_atom_site_label
_atom_site_fract_x
_atom_site_fract_y
_atom_site_fract_z
Si Si1 0.642016 0.449363 0.633464
Si Si2 0.693216 0.969095 0.501673
Si Si3 0.079958 0.536230 0.838859
Si Si4 0.577472 0.408049 0.006373
Si Si5 0.688998 0.319011 0.098199
Si Si6 0.000000 0.681651 0.750000
Si Si7 0.578507 0.319772 0.481091
O O1 0.743904 0.456221 0.526108
O O2 0.626238 0.444902 0.822429
O O3 0.583528 0.521666 0.624627
O O4 0.616149 0.365642 0.585675
O O5 0.660805 0.958896 0.366522
O O6 0.755022 0.896864 0.471466
O O7 0.609626 0.974393 0.682769
O O8 0.063403 0.623015 0.779380
O O9 0.000000 0.500000 0.000000
O O10 0.616978 0.327477 0.041102
O O11 0.485209 0.379791 0.043558
O O12 0.651664 0.300523 0.295301
O O13 0.750000 0.250000 0.000000
O O14 0.042130 0.736872 0.582744
#
# Coordination Sequence:
#
# PCOD8152623 Si02
#       7
#     8   8   8   8   8   4   8
#     4  11  22  43  74 105 147 186 237 301 368 445
#     4  11  24  45  71 104 138 187 243 301 369 430
#     4  12  25  49  74 101 135 192 255 303 353 440
#     4  11  23  44  70 108 143 197 240 292 361 448
#     4  11  27  44  67 104 148 191 237 309 373 432
#     4  12  28  46  76 106 146 192 250 304 370 428
#     4  12  25  47  68 109 147 190 241 297 374 443
#
# _framework density 21.785088999999999
#
# number of rings (size 3 to 8) (size 9 to 14) (size 15 to 20)
#    0.000    0.615    3.077    5.538    4.308    3.692 
#    0.000    2.308    0.000    0.000    0.000    0.000 
#    0.000    0.000    0.000    0.000    0.000    0.000 
#
# Total GULP energy -322237.753401 kJ/mol
# GULP energy per Si atom -12393.759746 kJ/mol
# Density = 2.173551 g / cm^3
# Si number density = 21.785089 Si / 1000 Ang^3
#
#
#
# Elastic Constant Matrix: (Units=GPa)
#
#
# Indices 1 2 3 4 5 6 
#
# 1 105.8244 43.6119 19.7561 0.0000 12.0671 0.0000
# 2 43.6119 60.6464 70.0910 0.0000 -2.2189 0.0000
# 3 19.7561 70.0910 144.2428 0.0000 -7.7884 0.0000
# 4 0.0000 0.0000 0.0000 40.1948 0.0000 -2.0126
# 5 12.0671 -2.2189 -7.7884 0.0000 41.7758 0.0000
# 6 0.0000 0.0000 0.0000 -2.0126 0.0000 31.4674
#
#
#
# Elastic Compliance Matrix: (Units=1/GPa)
#
#
# Indices 1 2 3 4 5 6 
#
# 1 0.017666 -0.022318 0.008168 0.000000 -0.004765 0.000000
# 2 -0.022318 0.065891 -0.028713 0.000000 0.004593 0.000000
# 3 0.008168 -0.028713 0.019756 0.000000 -0.000201 0.000000
# 4 0.000000 0.000000 0.000000 0.024959 0.000000 0.001596
# 5 -0.004765 0.004593 -0.000201 0.000000 0.025520 0.000000
# 6 0.000000 0.000000 0.000000 0.001596 0.000000 0.031881
#
#
# Mechanical properties :
#
#
# Convention : Reuss Voigt Hill
#
# Bulk Modulus (GPa) = 56.86401 64.18128 60.52264
# Shear Modulus (GPa) = 18.03351 34.50460 26.26905
#
# Velocity S-wave (km/s) = 2.88026 3.98410 3.47627
# Velocity P-wave (km/s) = 6.10083 7.11963 6.62983
#
# Compressibility (1/GPa) = 0.01758582
#
# Stress axis : x y z
#
# Youngs Moduli (GPa) = 56.60647 15.17651 50.61848
#
# Poissons Ratio (x) = 0.33871 -0.41345
# Poissons Ratio (y) = 1.26335 1.45342
# Poissons Ratio (z) = -0.46236 0.43577
#
# Static dielectric constant tensor:
#      x y z
#    x 3.984430 0.000000 0.858610 
#    y 0.000000 3.701160 0.000000 
#    z 0.858610 0.000000 3.343120 
# 
# 
# High freq. dielectric constant tensor:
#      x y z
#    x 1.874080 0.000000 0.007760 
#    y 0.000000 1.840280 0.000000 
#    z 0.007760 0.000000 1.875420 
# 
# From -- ./inp_files/48930.got.cif
#   From: 2010.06.25/outbox.cif.g09.slc.cpg/sg15_25_cif.got.tgz:48930.got - 2010.06.28 07:06:18.
