data_PCOD8152633
_publ_section_title
;
Structure prediction by ZEFSAII (Michael W. Deem and Ramdas Pophale) SiO2 
 PCOD8152633
Probable space group: C 2/C
;
_chemical_formula_sum "Si O2"
_cell_formula_units_Z 56
_cell_length_a 26.610769
_cell_length_b 8.934850
_cell_length_c 19.631167
_cell_angle_alpha 90.000000
_cell_angle_beta 30.106478
_cell_angle_gamma 90.000000
_cell_volume 2341.292851
_symmetry_space_group_name_H-M "C 2/C"
_symmetry_group_IT_number 15
_symmetry_cell_setting 'monoclinic'
loop_
_space_group_symop_operation_xyz
x,y,z
-x,y,1/2-z
-x,-y,-z
x,-y,1/2+z
1/2+x,1/2+y,z
1/2-x,1/2+y,1/2-z
1/2-x,1/2-y,-z
1/2+x,1/2-y,1/2+z
loop_
_atom_site_type_symbol
_atom_site_label
_atom_site_fract_x
_atom_site_fract_y
_atom_site_fract_z
Si Si1 0.000000 0.744267 0.750000
Si Si2 0.865181 0.594573 0.793988
Si Si3 0.000000 0.231628 0.750000
Si Si4 0.420461 0.736921 0.101440
Si Si5 0.633165 0.805355 0.907036
Si Si6 0.854999 0.002462 0.448193
Si Si7 0.690793 0.519279 0.352539
Si Si8 0.543337 0.922069 0.570275
O O1 0.067212 0.646361 0.721930
O O2 0.078507 0.849556 0.618309
O O3 0.856819 0.715902 0.742998
O O4 0.925517 0.452350 0.691878
O O5 0.755544 0.546714 0.949282
O O6 0.952551 0.333388 0.864184
O O7 0.908759 0.118548 0.834464
O O8 0.379834 0.572725 0.127371
O O9 0.537645 0.736785 0.980346
O O10 0.403120 0.839872 0.055245
O O11 0.700481 0.661628 0.847548
O O12 0.698656 0.911629 0.781667
O O13 0.597418 0.912433 0.012175
O O14 0.852295 0.923043 0.525084
#
# Coordination Sequence:
#
# PCOD8152633 Si02
#       8
#     4   8   4   8   8   8   8   8
#     4  11  25  44  68 104 148 194 244 306 370 436
#     4  11  23  43  74 103 145 198 244 305 367 438
#     4  11  25  42  72  98 150 200 242 306 366 444
#     4  11  23  44  72 102 145 186 242 307 372 428
#     4  11  24  40  69 104 141 186 236 304 362 436
#     4  11  23  43  69 102 144 191 249 301 366 436
#     4  12  23  43  72 108 141 188 238 306 363 440
#     4  11  22  44  64 100 141 192 238 298 368 426
#
# _framework density 23.918407999999999
#
# number of rings (size 3 to 8) (size 9 to 14) (size 15 to 20)
#    0.000    0.857    1.429    8.143    0.000    0.571 
#    0.000    1.429    0.000    0.000    0.000    0.000 
#    0.000    0.000    0.000    0.000    0.000    0.000 
#
# Total GULP energy -346892.521449 kJ/mol
# GULP energy per Si atom -12389.018623 kJ/mol
# Density = 2.386397 g / cm^3
# Si number density = 23.918408 Si / 1000 Ang^3
#
#
#
# Elastic Constant Matrix: (Units=GPa)
#
#
# Indices 1 2 3 4 5 6 
#
# 1 120.1775 46.1404 43.9247 -0.0008 -0.3703 0.0000
# 2 46.1404 134.9645 57.1806 -0.0039 -3.1111 0.0001
# 3 43.9247 57.1806 138.2692 -0.0057 -17.3197 0.0024
# 4 -0.0008 -0.0039 -0.0057 34.4717 0.0004 -1.8604
# 5 -0.3703 -3.1111 -17.3197 0.0004 40.5151 0.0004
# 6 0.0000 0.0001 0.0024 -1.8604 0.0004 33.3197
#
#
#
# Elastic Compliance Matrix: (Units=1/GPa)
#
#
# Indices 1 2 3 4 5 6 
#
# 1 0.010127 -0.002505 -0.002318 0.000000 -0.001091 0.000000
# 2 -0.002505 0.009638 -0.003275 0.000001 -0.000683 0.000000
# 3 -0.002318 -0.003275 0.009814 0.000001 0.003923 -0.000001
# 4 0.000000 0.000001 0.000001 0.029097 0.000000 0.001625
# 5 -0.001091 -0.000683 0.003923 0.000000 0.026297 -0.000001
# 6 0.000000 0.000000 -0.000001 0.001625 -0.000001 0.030103
#
#
# Mechanical properties :
#
#
# Convention : Reuss Voigt Hill
#
# Bulk Modulus (GPa) = 74.72474 76.43364 75.57919
# Shear Modulus (GPa) = 36.83715 38.07230 37.45473
#
# Velocity S-wave (km/s) = 3.92869 3.99401 3.96149
# Velocity P-wave (km/s) = 7.20339 7.30033 7.25202
#
# Compressibility (1/GPa) = 0.01338245
#
# Stress axis : x y z
#
# Youngs Moduli (GPa) = 98.75006 103.75862 101.89138
#
# Poissons Ratio (x) = 0.25994 0.23614
# Poissons Ratio (y) = 0.24739 0.33373
# Poissons Ratio (z) = 0.22886 0.33985
#
# Static dielectric constant tensor:
#      x y z
#    x 3.873050 0.000000 -0.034370 
#    y 0.000000 4.432060 0.000010 
#    z -0.034370 0.000010 4.645310 
# 
# 
# High freq. dielectric constant tensor:
#      x y z
#    x 1.915190 0.000000 -0.007780 
#    y 0.000000 1.953890 0.000000 
#    z -0.007780 0.000000 1.974150 
# 
# From -- ./inp_files/258990.got.cif
#   From: 2010.06.25/outbox.cif.g09.slc.cpg/sg15_130_cif.got.tgz:258990.got - 2010.06.28 07:06:18.
