data_PCOD8152211
_publ_section_title
;
Structure prediction by ZEFSAII (Michael W. Deem and Ramdas Pophale) SiO2 
 PCOD8152211
Probable space group: C 2/C
;
_chemical_formula_sum "Si O2"
_cell_formula_units_Z 64
_cell_length_a 27.847611
_cell_length_b 20.323698
_cell_length_c 18.503128
_cell_angle_alpha 90.000000
_cell_angle_beta 160.845265
_cell_angle_gamma 90.000000
_cell_volume 3436.126532
_symmetry_space_group_name_H-M "C 2/C"
_symmetry_group_IT_number 15
_symmetry_cell_setting 'monoclinic'
loop_
_space_group_symop_operation_xyz
x,y,z
-x,y,1/2-z
-x,-y,-z
x,-y,1/2+z
1/2+x,1/2+y,z
1/2-x,1/2+y,1/2-z
1/2-x,1/2-y,-z
1/2+x,1/2-y,1/2+z
loop_
_atom_site_type_symbol
_atom_site_label
_atom_site_fract_x
_atom_site_fract_y
_atom_site_fract_z
Si Si1 0.088766 0.324083 0.660456
Si Si2 0.051370 0.060552 0.121112
Si Si3 0.631718 0.872215 0.881717
Si Si4 0.111863 0.129042 0.973725
Si Si5 0.945387 0.824082 0.373695
Si Si6 0.888604 0.018033 0.027208
Si Si7 0.131474 0.525330 0.881476
Si Si8 0.411886 0.060551 0.842142
O O1 0.088861 0.339202 0.745596
O O2 0.036354 0.250001 0.572711
O O3 0.977928 0.370659 0.460619
O O4 0.248607 0.331235 0.854265
O O5 0.224648 0.058491 0.380842
O O6 0.963393 0.058858 0.070364
O O7 0.012531 0.129341 0.029833
O O8 0.000000 0.000000 0.000000
O O9 0.500000 0.861452 0.750000
O O10 0.664720 0.948755 0.914726
O O11 0.775389 0.839194 0.118645
O O12 0.000000 0.123424 0.750000
O O13 0.037298 0.168764 0.931644
O O14 0.156882 0.055429 0.063761
O O15 0.000000 0.010052 0.250000
O O16 0.750548 0.058859 0.857518
O O17 0.087744 0.558487 0.743941
O O18 0.000000 0.536130 0.750000
O O19 0.500000 0.000000 0.000000
#
# Coordination Sequence:
#
# PCOD8152211 Si02
#       8
#     8   8   8   8   8   8   8   8
#     4  12  27  41  63  95 134 173 210 257 320 389
#     4  12  24  41  66  96 126 168 215 263 314 372
#     4  11  23  40  62  97 135 165 203 264 330 380
#     4  11  22  39  64  94 130 168 210 258 322 386
#     4  12  27  41  63  95 134 173 210 257 320 389
#     4  11  22  41  68  94 128 164 216 268 310 372
#     4  11  24  42  65  97 131 161 211 274 320 365
#     4  12  24  41  66  96 126 168 215 263 314 372
#
# _framework density 18.625623000000001
#
# number of rings (size 3 to 8) (size 9 to 14) (size 15 to 20)
#    0.000    0.500    7.500    0.375    7.000    0.000 
#    0.000    0.625    0.000    0.000    0.000    0.000 
#    0.000    0.000    0.000    0.000    0.000    0.000 
#
# Total GULP energy -396988.862053 kJ/mol
# GULP energy per Si atom -12405.901939 kJ/mol
# Density = 1.858323 g / cm^3
# Si number density = 18.625623 Si / 1000 Ang^3
#
#
#
# Elastic Constant Matrix: (Units=GPa)
#
#
# Indices 1 2 3 4 5 6 
#
# 1 116.4829 58.6516 64.2370 0.0000 14.1532 0.0000
# 2 58.6516 157.6943 65.5294 0.0000 -6.1060 0.0000
# 3 64.2370 65.5294 107.3539 0.0000 -6.1577 0.0000
# 4 0.0000 0.0000 0.0000 19.2710 0.0000 4.8775
# 5 14.1532 -6.1060 -6.1577 0.0000 35.9584 0.0000
# 6 0.0000 0.0000 0.0000 4.8775 0.0000 24.7800
#
#
#
# Elastic Compliance Matrix: (Units=1/GPa)
#
#
# Indices 1 2 3 4 5 6 
#
# 1 0.015269 -0.002678 -0.007950 0.000000 -0.007826 0.000000
# 2 -0.002678 0.008978 -0.003766 0.000000 0.001934 0.000000
# 3 -0.007950 -0.003766 0.016678 0.000000 0.005346 0.000000
# 4 0.000000 0.000000 0.000000 0.054612 0.000000 -0.010749
# 5 -0.007826 0.001934 0.005346 0.000000 0.032134 0.000000
# 6 0.000000 0.000000 0.000000 -0.010749 0.000000 0.042471
#
#
# Mechanical properties :
#
#
# Convention : Reuss Voigt Hill
#
# Bulk Modulus (GPa) = 82.41270 84.26300 83.33785
# Shear Modulus (GPa) = 24.63341 28.87610 26.75475
#
# Velocity S-wave (km/s) = 3.64064 3.94171 3.79416
# Velocity P-wave (km/s) = 7.87498 8.12740 8.00219
#
# Compressibility (1/GPa) = 0.01213405
#
# Stress axis : x y z
#
# Youngs Moduli (GPa) = 65.49272 111.38954 59.95925
#
# Poissons Ratio (x) = 0.29832 0.47671
# Poissons Ratio (y) = 0.17540 0.22583
# Poissons Ratio (z) = 0.52070 0.41954
#
# Static dielectric constant tensor:
#      x y z
#    x 3.567480 0.000000 0.041660 
#    y 0.000000 3.622420 0.000000 
#    z 0.041660 0.000000 3.520130 
# 
# 
# High freq. dielectric constant tensor:
#      x y z
#    x 1.741060 0.000000 0.010340 
#    y 0.000000 1.709140 0.000000 
#    z 0.010340 0.000000 1.729310 
# 
# From -- ./inp_files/223157.got.cif
#   From: 2010.06.25/outbox.cif.g09.slc.cpg/sg15_112_cif.got.tgz:223157.got - 2010.06.28 07:06:18.
