data_PCOD8152760
_publ_section_title
;
Structure prediction by ZEFSAII (Michael W. Deem and Ramdas Pophale) SiO2 
 PCOD8152760
Probable space group: C 2/C
;
_chemical_formula_sum "Si O2"
_cell_formula_units_Z 52
_cell_length_a 16.170293
_cell_length_b 9.776835
_cell_length_c 16.556208
_cell_angle_alpha 90.000000
_cell_angle_beta 65.194489
_cell_angle_gamma 90.000000
_cell_volume 2375.949189
_symmetry_space_group_name_H-M "C 2/C"
_symmetry_group_IT_number 15
_symmetry_cell_setting 'monoclinic'
loop_
_space_group_symop_operation_xyz
x,y,z
-x,y,1/2-z
-x,-y,-z
x,-y,1/2+z
1/2+x,1/2+y,z
1/2-x,1/2+y,1/2-z
1/2-x,1/2-y,-z
1/2+x,1/2-y,1/2+z
loop_
_atom_site_type_symbol
_atom_site_label
_atom_site_fract_x
_atom_site_fract_y
_atom_site_fract_z
Si Si1 0.684296 0.881425 0.737256
Si Si2 0.000000 0.266156 0.750000
Si Si3 0.753081 0.898754 0.537012
Si Si4 0.449679 0.595078 0.922679
Si Si5 0.662672 0.170466 0.567644
Si Si6 0.518056 0.306322 0.919992
Si Si7 0.820113 0.685481 0.750503
O O1 0.578716 0.857791 0.757641
O O2 0.750141 0.876230 0.633440
O O3 0.723994 0.766396 0.781316
O O4 0.694016 0.030074 0.773786
O O5 0.045733 0.173827 0.663163
O O6 0.750000 0.750000 0.500000
O O7 0.848764 0.967304 0.474100
O O8 0.674839 0.007397 0.543235
O O9 0.515827 0.465171 0.894266
O O10 0.469949 0.699790 0.987918
O O11 0.750000 0.250000 0.500000
O O12 0.572041 0.220252 0.561433
O O13 0.650440 0.191175 0.668419
O O14 0.602266 0.246421 0.837434
#
# Coordination Sequence:
#
# PCOD8152760 Si02
#       7
#     8   4   8   8   8   8   8
#     4  11  27  46  72 104 144 186 242 298 358 429
#     4  12  28  44  70 110 148 186 242 300 364 428
#     4  11  22  46  67  97 139 188 230 295 361 422
#     4  11  25  43  73 103 146 190 241 296 361 433
#     4  11  25  42  70 102 141 180 240 296 351 422
#     4  11  25  46  70 106 143 191 242 297 358 429
#     4  11  27  45  73  99 146 188 238 298 361 429
#
# _framework density 21.885988999999999
#
# number of rings (size 3 to 8) (size 9 to 14) (size 15 to 20)
#    0.000    0.923    4.615    0.462   10.769    1.231 
#    0.000    1.538    0.000    0.000    0.000    0.000 
#    0.000    0.000    0.000    0.000    0.000    0.000 
#
# Total GULP energy -322423.136029 kJ/mol
# GULP energy per Si atom -12400.889847 kJ/mol
# Density = 2.183618 g / cm^3
# Si number density = 21.885989 Si / 1000 Ang^3
#
#
#
# Elastic Constant Matrix: (Units=GPa)
#
#
# Indices 1 2 3 4 5 6 
#
# 1 129.8268 59.1331 39.1903 0.0000 -9.6925 0.0000
# 2 59.1331 151.8133 51.2314 0.0000 -0.7348 0.0000
# 3 39.1903 51.2314 98.3601 0.0000 -5.8886 0.0000
# 4 0.0000 0.0000 0.0000 32.1951 0.0000 -2.5442
# 5 -9.6925 -0.7348 -5.8886 0.0000 31.1845 0.0000
# 6 0.0000 0.0000 0.0000 -2.5442 0.0000 44.2565
#
#
#
# Elastic Compliance Matrix: (Units=1/GPa)
#
#
# Indices 1 2 3 4 5 6 
#
# 1 0.009988 -0.003140 -0.002188 0.000000 0.002617 0.000000
# 2 -0.003140 0.008990 -0.003517 0.000000 -0.001428 0.000000
# 3 -0.002188 -0.003517 0.012971 0.000000 0.001687 0.000000
# 4 0.000000 0.000000 0.000000 0.031202 0.000000 0.001794
# 5 0.002617 -0.001428 0.001687 0.000000 0.033166 0.000000
# 6 0.000000 0.000000 0.000000 0.001794 0.000000 0.022699
#
#
# Mechanical properties :
#
#
# Convention : Reuss Voigt Hill
#
# Bulk Modulus (GPa) = 70.12245 75.45662 72.78953
# Shear Modulus (GPa) = 35.34604 36.89024 36.11814
#
# Velocity S-wave (km/s) = 4.02308 4.11002 4.06678
# Velocity P-wave (km/s) = 7.32732 7.55480 7.44193
#
# Compressibility (1/GPa) = 0.01426077
#
# Stress axis : x y z
#
# Youngs Moduli (GPa) = 100.11590 111.23582 77.09376
#
# Poissons Ratio (x) = 0.34924 0.16866
# Poissons Ratio (y) = 0.31433 0.27114
# Poissons Ratio (z) = 0.21903 0.39121
#
# Static dielectric constant tensor:
#      x y z
#    x 4.026410 0.000000 -0.040100 
#    y 0.000000 4.239830 0.000000 
#    z -0.040100 0.000000 3.976920 
# 
# 
# High freq. dielectric constant tensor:
#      x y z
#    x 1.861210 0.000000 -0.009940 
#    y 0.000000 1.869860 0.000000 
#    z -0.009940 0.000000 1.868500 
# 
# From -- ./inp_files/209478.got.cif
#   From: 2010.06.25/outbox.cif.g09.slc.cpg/sg15_105_cif.got.tgz:209478.got - 2010.06.28 07:06:18.
