data_PCOD8152071
_publ_section_title
;
Structure prediction by ZEFSAII (Michael W. Deem and Ramdas Pophale) SiO2 
 PCOD8152071
Probable space group: C 2/C
;
_chemical_formula_sum "Si O2"
_cell_formula_units_Z 64
_cell_length_a 19.938055
_cell_length_b 18.136482
_cell_length_c 19.679160
_cell_angle_alpha 90.000000
_cell_angle_beta 28.540238
_cell_angle_gamma 90.000000
_cell_volume 3399.903300
_symmetry_space_group_name_H-M "C 2/C"
_symmetry_group_IT_number 15
_symmetry_cell_setting 'monoclinic'
loop_
_space_group_symop_operation_xyz
x,y,z
-x,y,1/2-z
-x,-y,-z
x,-y,1/2+z
1/2+x,1/2+y,z
1/2-x,1/2+y,1/2-z
1/2-x,1/2-y,-z
1/2+x,1/2-y,1/2+z
loop_
_atom_site_type_symbol
_atom_site_label
_atom_site_fract_x
_atom_site_fract_y
_atom_site_fract_z
Si Si1 0.064933 0.916722 0.764548
Si Si2 0.616767 0.485619 0.340237
Si Si3 0.653650 0.168279 0.484731
Si Si4 0.819901 0.168910 0.539230
Si Si5 0.021503 0.311208 0.956335
Si Si6 0.703451 0.323136 0.280336
Si Si7 0.572350 0.929340 0.250533
Si Si8 0.401367 0.965592 0.644535
O O1 0.222333 0.889133 0.614434
O O2 0.000000 0.939096 0.750000
O O3 0.064253 0.987837 0.813489
O O4 0.978749 0.852172 0.879025
O O5 0.500000 0.500000 0.500000
O O6 0.656016 0.400847 0.291849
O O7 0.746581 0.533687 0.251481
O O8 0.703125 0.248329 0.467910
O O9 0.608900 0.174371 0.446597
O O10 0.520191 0.140195 0.644606
O O11 0.789378 0.165050 0.645973
O O12 0.718276 0.107850 0.595879
O O13 0.856239 0.299372 0.116539
O O14 0.087955 0.238402 0.862268
O O15 0.048474 0.382186 0.884390
O O16 0.500000 0.968778 0.250000
O O17 0.591808 0.989052 0.291945
O O18 0.500000 0.000000 0.500000
#
# Coordination Sequence:
#
# PCOD8152071 Si02
#       8
#     8   8   8   8   8   8   8   8
#     4  12  25  38  55  87 120 163 203 240 297 352
#     4  12  22  38  63  86 119 161 199 252 293 344
#     4  11  22  35  59  80 120 164 195 236 287 349
#     4  11  22  37  53  86 121 157 203 233 282 355
#     4  11  23  38  64  91 118 151 204 250 300 353
#     4  11  23  39  62  93 118 151 204 251 298 352
#     4  12  23  38  57  85 118 159 200 241 293 355
#     4  12  20  40  61  86 114 160 199 247 297 347
#
# _framework density 18.824064
#
# number of rings (size 3 to 8) (size 9 to 14) (size 15 to 20)
#    0.000    0.500    7.500    1.500    7.000    3.000 
#    0.000    0.000    0.000    0.750    0.000    1.750 
#    0.000    0.000    0.000    0.000    0.000    0.000 
#
# Total GULP energy -396828.907555 kJ/mol
# GULP energy per Si atom -12400.903361 kJ/mol
# Density = 1.878122 g / cm^3
# Si number density = 18.824064 Si / 1000 Ang^3
#
#
#
# Elastic Constant Matrix: (Units=GPa)
#
#
# Indices 1 2 3 4 5 6 
#
# 1 84.4927 39.6074 21.5029 -0.0001 -1.2449 0.0005
# 2 39.6074 113.2726 38.3407 0.0010 0.1789 0.0004
# 3 21.5029 38.3407 111.3321 0.0097 -8.8702 -0.0010
# 4 -0.0001 0.0010 0.0097 33.7739 -0.0004 -4.4331
# 5 -1.2449 0.1789 -8.8702 -0.0004 16.5428 -0.0006
# 6 0.0005 0.0004 -0.0010 -4.4331 -0.0006 12.8039
#
#
#
# Elastic Compliance Matrix: (Units=1/GPa)
#
#
# Indices 1 2 3 4 5 6 
#
# 1 0.014295 -0.004617 -0.001130 0.000000 0.000520 0.000000
# 2 -0.004617 0.011551 -0.003263 0.000001 -0.002222 0.000000
# 3 -0.001130 -0.003263 0.010781 -0.000003 0.005731 0.000000
# 4 0.000000 0.000001 -0.000003 0.031018 0.000000 0.010740
# 5 0.000520 -0.002222 0.005731 0.000000 0.063585 0.000003
# 6 0.000000 0.000000 0.000000 0.010740 0.000003 0.081820
#
#
# Mechanical properties :
#
#
# Convention : Reuss Voigt Hill
#
# Bulk Modulus (GPa) = 53.74342 56.44440 55.09391
# Shear Modulus (GPa) = 21.07298 26.60054 23.83676
#
# Velocity S-wave (km/s) = 3.34948 3.76322 3.56236
# Velocity P-wave (km/s) = 6.60084 6.99519 6.80087
#
# Compressibility (1/GPa) = 0.01860693
#
# Stress axis : x y z
#
# Youngs Moduli (GPa) = 69.95610 86.57528 92.75876
#
# Poissons Ratio (x) = 0.39970 0.10477
# Poissons Ratio (y) = 0.32298 0.30269
# Poissons Ratio (z) = 0.07902 0.28251
#
# Static dielectric constant tensor:
#      x y z
#    x 3.398320 0.000020 -0.058380 
#    y 0.000020 3.744200 0.000030 
#    z -0.058380 0.000030 3.651550 
# 
# 
# High freq. dielectric constant tensor:
#      x y z
#    x 1.698500 0.000000 -0.007980 
#    y 0.000000 1.726280 0.000000 
#    z -0.007980 0.000000 1.755330 
# 
# From -- ./inp_files/211945.got.cif
#   From: 2010.06.25/outbox.cif.g09.slc.cpg/sg15_106_cif.got.tgz:211945.got - 2010.06.28 07:06:18.
