data_PCOD8152637
_publ_section_title
;
Structure prediction by ZEFSAII (Michael W. Deem and Ramdas Pophale) SiO2 
 PCOD8152637
Probable space group: C 2/C
;
_chemical_formula_sum "Si O2"
_cell_formula_units_Z 56
_cell_length_a 16.676212
_cell_length_b 18.186421
_cell_length_c 14.532772
_cell_angle_alpha 90.000000
_cell_angle_beta 33.855032
_cell_angle_gamma 90.000000
_cell_volume 2455.394098
_symmetry_space_group_name_H-M "C 2/C"
_symmetry_group_IT_number 15
_symmetry_cell_setting 'monoclinic'
loop_
_space_group_symop_operation_xyz
x,y,z
-x,y,1/2-z
-x,-y,-z
x,-y,1/2+z
1/2+x,1/2+y,z
1/2-x,1/2+y,1/2-z
1/2-x,1/2-y,-z
1/2+x,1/2-y,1/2+z
loop_
_atom_site_type_symbol
_atom_site_label
_atom_site_fract_x
_atom_site_fract_y
_atom_site_fract_z
Si Si1 0.979440 0.485197 0.372818
Si Si2 0.856013 0.808000 0.444565
Si Si3 0.306539 0.471438 0.758968
Si Si4 0.043658 0.734656 0.968887
Si Si5 0.522846 0.644641 0.121383
Si Si6 0.848228 0.617687 0.243177
Si Si7 0.275786 0.104978 0.767605
O O1 0.011793 0.571021 0.360443
O O2 0.078916 0.438534 0.346856
O O3 0.000000 0.459386 0.250000
O O4 0.814972 0.468501 0.548201
O O5 0.750000 0.750000 0.500000
O O6 0.911667 0.786006 0.491108
O O7 0.742779 0.872716 0.574950
O O8 0.000000 0.829241 0.250000
O O9 0.443527 0.432431 0.673560
O O10 0.262538 0.425696 0.712870
O O11 0.325559 0.556339 0.705563
O O12 0.900374 0.690589 0.138653
O O13 0.019579 0.785037 0.901251
O O14 0.177239 0.680118 0.825387
O O15 0.500000 0.666151 0.250000
O O16 0.689096 0.625790 0.942628
#
# Coordination Sequence:
#
# PCOD8152637 Si02
#       7
#     8   8   8   8   8   8   8
#     4  11  23  41  71 101 130 182 243 295 343 433
#     4  12  26  41  68 103 142 184 231 292 355 434
#     4  11  22  48  71  95 142 187 240 295 359 424
#     4  12  24  46  72 103 145 187 238 295 362 429
#     4  12  28  45  70 109 149 190 237 298 364 434
#     4  11  22  44  66 101 135 183 238 291 359 419
#     4  11  24  45  74 100 139 192 235 295 365 418
#
# _framework density 22.806927999999999
#
# number of rings (size 3 to 8) (size 9 to 14) (size 15 to 20)
#    0.000    0.571    5.714    3.000    2.000    1.143 
#    0.000    2.857    0.000    0.000    0.000    0.000 
#    0.000    0.000    0.000    0.000    0.000    0.000 
#
# Total GULP energy -346996.947739 kJ/mol
# GULP energy per Si atom -12392.748134 kJ/mol
# Density = 2.275502 g / cm^3
# Si number density = 22.806928 Si / 1000 Ang^3
#
#
#
# Elastic Constant Matrix: (Units=GPa)
#
#
# Indices 1 2 3 4 5 6 
#
# 1 68.5795 17.5625 17.0750 -0.0060 16.6057 0.0029
# 2 17.5625 91.7526 40.0561 -0.0053 3.6725 0.0049
# 3 17.0750 40.0561 172.7659 -0.0148 17.1233 0.0109
# 4 -0.0060 -0.0053 -0.0148 36.1278 0.0131 -2.7049
# 5 16.6057 3.6725 17.1233 0.0131 36.4630 -0.0075
# 6 0.0029 0.0049 0.0109 -2.7049 -0.0075 14.4223
#
#
#
# Elastic Compliance Matrix: (Units=1/GPa)
#
#
# Indices 1 2 3 4 5 6 
#
# 1 0.017180 -0.002861 -0.000302 0.000005 -0.007394 -0.000005
# 2 -0.002861 0.012603 -0.002772 0.000000 0.001335 -0.000001
# 3 -0.000302 -0.002772 0.006733 0.000003 -0.002745 -0.000005
# 4 0.000005 0.000000 0.000003 0.028074 -0.000012 0.005265
# 5 -0.007394 0.001335 -0.002745 -0.000012 0.031947 0.000017
# 6 -0.000005 -0.000001 -0.000005 0.005265 0.000017 0.070325
#
#
# Mechanical properties :
#
#
# Convention : Reuss Voigt Hill
#
# Bulk Modulus (GPa) = 40.57257 53.60947 47.09102
# Shear Modulus (GPa) = 26.74586 34.62957 30.68772
#
# Velocity S-wave (km/s) = 3.42820 3.90087 3.67214
# Velocity P-wave (km/s) = 5.78777 6.62162 6.21868
#
# Compressibility (1/GPa) = 0.02464719
#
# Stress axis : x y z
#
# Youngs Moduli (GPa) = 58.20811 79.34623 148.52895
#
# Poissons Ratio (x) = 0.22698 0.04483
# Poissons Ratio (y) = 0.16651 0.41167
# Poissons Ratio (z) = 0.01757 0.21992
#
# Static dielectric constant tensor:
#      x y z
#    x 4.023100 -0.000010 0.258880 
#    y -0.000010 4.514950 -0.000010 
#    z 0.258880 -0.000010 5.084450 
# 
# 
# High freq. dielectric constant tensor:
#      x y z
#    x 1.882700 0.000000 0.005980 
#    y 0.000000 1.899460 0.000000 
#    z 0.005980 0.000000 1.925630 
# 
# From -- ./inp_files/163766.got.cif
#   From: 2010.06.25/outbox.cif.g09.slc.cpg/sg15_82_cif.got.tgz:163766.got - 2010.06.28 07:06:18.
