data_PCOD8152891
_publ_section_title
;
Structure prediction by ZEFSAII (Michael W. Deem and Ramdas Pophale) SiO2 
 PCOD8152891
Probable space group: C 2/C
;
_chemical_formula_sum "Si O2"
_cell_formula_units_Z 52
_cell_length_a 10.568247
_cell_length_b 12.342091
_cell_length_c 20.477681
_cell_angle_alpha 90.000000
_cell_angle_beta 121.958183
_cell_angle_gamma 90.000000
_cell_volume 2266.161507
_symmetry_space_group_name_H-M "C 2/C"
_symmetry_group_IT_number 15
_symmetry_cell_setting 'monoclinic'
loop_
_space_group_symop_operation_xyz
x,y,z
-x,y,1/2-z
-x,-y,-z
x,-y,1/2+z
1/2+x,1/2+y,z
1/2-x,1/2+y,1/2-z
1/2-x,1/2-y,-z
1/2+x,1/2-y,1/2+z
loop_
_atom_site_type_symbol
_atom_site_label
_atom_site_fract_x
_atom_site_fract_y
_atom_site_fract_z
Si Si1 0.270952 0.835187 0.263618
Si Si2 0.864446 0.711181 0.382651
Si Si3 0.352314 0.349955 0.011802
Si Si4 0.165817 0.058374 0.404759
Si Si5 0.366027 0.356379 0.868121
Si Si6 0.500000 0.556698 0.750000
Si Si7 0.892512 0.446334 0.778534
O O1 0.270113 0.769191 0.194763
O O2 0.320317 0.766345 0.340007
O O3 0.098763 0.870399 0.228214
O O4 0.398030 0.927065 0.296674
O O5 0.803756 0.641375 0.428440
O O6 0.940606 0.625560 0.353582
O O7 0.977672 0.806157 0.435438
O O8 0.302712 0.451514 0.043093
O O9 0.250000 0.250000 0.000000
O O10 0.324424 0.388454 0.930343
O O11 0.041285 0.128463 0.406620
O O12 0.116223 0.018453 0.320035
O O13 0.278078 0.432003 0.792850
O O14 0.000000 0.410854 0.750000
#
# Coordination Sequence:
#
# PCOD8152891 Si02
#       7
#     8   8   8   8   8   4   8
#     4  11  23  40  70 100 131 175 229 281 345 408
#     4  11  25  43  69 100 131 184 234 278 351 414
#     4  12  26  46  68  98 136 182 230 283 348 422
#     4  12  24  45  68  97 139 178 230 288 345 413
#     4  11  25  43  65  98 134 180 224 285 351 405
#     4  12  18  42  70  94 132 180 220 290 336 404
#     4  11  23  40  66 100 134 172 226 289 341 411
#
# _framework density 22.946290999999999
#
# number of rings (size 3 to 8) (size 9 to 14) (size 15 to 20)
#    0.000    0.615    4.615    3.231    6.462    1.231 
#    2.769    0.000    0.000    0.000    0.000    0.000 
#    0.000    0.000    0.000    0.000    0.000    0.000 
#
# Total GULP energy -322349.182496 kJ/mol
# GULP energy per Si atom -12398.045481 kJ/mol
# Density = 2.289406 g / cm^3
# Si number density = 22.946291 Si / 1000 Ang^3
#
#
#
# Elastic Constant Matrix: (Units=GPa)
#
#
# Indices 1 2 3 4 5 6 
#
# 1 81.0694 6.7574 -8.3378 0.0000 -15.5783 0.0000
# 2 6.7574 90.1637 7.8227 0.0000 -8.1115 0.0000
# 3 -8.3378 7.8227 73.0852 0.0000 -18.4081 0.0000
# 4 0.0000 0.0000 0.0000 30.9698 0.0000 -6.5692
# 5 -15.5783 -8.1115 -18.4081 0.0000 30.2516 0.0000
# 6 0.0000 0.0000 0.0000 -6.5692 0.0000 47.8270
#
#
#
# Elastic Compliance Matrix: (Units=1/GPa)
#
#
# Indices 1 2 3 4 5 6 
#
# 1 0.014753 -0.000573 0.004274 0.000000 0.010044 0.000000
# 2 -0.000573 0.011405 -0.000697 0.000000 0.002339 0.000000
# 3 0.004274 -0.000697 0.017422 0.000000 0.012616 0.000000
# 4 0.000000 0.000000 0.000000 0.033259 0.000000 0.004568
# 5 0.010044 0.002339 0.012616 0.000000 0.046532 0.000000
# 6 0.000000 0.000000 0.000000 0.004568 0.000000 0.021536
#
#
# Mechanical properties :
#
#
# Convention : Reuss Voigt Hill
#
# Bulk Modulus (GPa) = 20.16605 28.53367 24.34986
# Shear Modulus (GPa) = 32.16939 37.68140 34.92540
#
# Velocity S-wave (km/s) = 3.74831 4.05675 3.90558
# Velocity P-wave (km/s) = 5.24791 5.86557 5.56532
#
# Compressibility (1/GPa) = 0.04958830
#
# Stress axis : x y z
#
# Youngs Moduli (GPa) = 67.78499 87.68272 57.39744
#
# Poissons Ratio (x) = 0.05023 -0.24533
# Poissons Ratio (y) = 0.03883 0.04000
# Poissons Ratio (z) = -0.28972 0.06111
#
# Static dielectric constant tensor:
#      x y z
#    x 4.015710 0.000000 -0.144920 
#    y 0.000000 4.287090 0.000000 
#    z -0.144920 0.000000 4.074690 
# 
# 
# High freq. dielectric constant tensor:
#      x y z
#    x 1.899470 0.000000 -0.016240 
#    y 0.000000 1.919080 0.000000 
#    z -0.016240 0.000000 1.890630 
# 
# From -- ./inp_files/237483.got.cif
#   From: 2010.06.25/outbox.cif.g09.slc.cpg/sg15_119_cif.got.tgz:237483.got - 2010.06.28 07:06:18.
