data_PCOD8152620
_publ_section_title
;
Structure prediction by ZEFSAII (Michael W. Deem and Ramdas Pophale) SiO2 
 PCOD8152620
Probable space group: C 2/C
;
_chemical_formula_sum "Si O2"
_cell_formula_units_Z 40
_cell_length_a 6.339923
_cell_length_b 16.273548
_cell_length_c 18.415121
_cell_angle_alpha 90.000000
_cell_angle_beta 75.191247
_cell_angle_gamma 90.000000
_cell_volume 1836.836169
_symmetry_space_group_name_H-M "C 2/C"
_symmetry_group_IT_number 15
_symmetry_cell_setting 'monoclinic'
loop_
_space_group_symop_operation_xyz
x,y,z
-x,y,1/2-z
-x,-y,-z
x,-y,1/2+z
1/2+x,1/2+y,z
1/2-x,1/2+y,1/2-z
1/2-x,1/2-y,-z
1/2+x,1/2-y,1/2+z
loop_
_atom_site_type_symbol
_atom_site_label
_atom_site_fract_x
_atom_site_fract_y
_atom_site_fract_z
Si Si1 0.545693 0.474374 0.077499
Si Si2 0.323314 0.067266 0.322837
Si Si3 0.684138 0.817303 0.446789
Si Si4 0.136770 0.383399 0.918759
Si Si5 0.526100 0.282807 0.827223
O O1 0.325202 0.489245 0.142761
O O2 0.613214 0.379793 0.078403
O O3 0.740156 0.530263 0.090952
O O4 0.500000 0.500000 0.000000
O O5 0.500000 0.034894 0.250000
O O6 0.433205 0.108685 0.382896
O O7 0.174828 0.137256 0.299799
O O8 0.750000 0.750000 0.500000
O O9 0.464576 0.863030 0.493338
O O10 0.641918 0.780400 0.371224
O O11 0.294632 0.309214 0.881565
O O12 0.500000 0.241118 0.750000
#
# Coordination Sequence:
#
# PCOD8152620 Si02
#       5
#     8   8   8   8   8
#     4  11  24  42  70 102 132 177 238 285 335 412
#     4  11  22  43  74  96 132 183 235 282 339 415
#     4  12  23  43  71 104 136 178 228 288 345 413
#     4  11  22  43  73  95 132 184 234 279 335 411
#     4  11  23  40  70 101 137 180 226 285 360 419
#
# _framework density 21.776575999999999
#
# number of rings (size 3 to 8) (size 9 to 14) (size 15 to 20)
#    0.000    0.800    6.000    2.400    0.000    0.000 
#    0.000    1.000   13.200    0.000    0.000    0.000 
#    0.000    0.000    0.000    0.000    0.000    0.000 
#
# Total GULP energy -248099.581489 kJ/mol
# GULP energy per Si atom -12404.979074 kJ/mol
# Density = 2.172701 g / cm^3
# Si number density = 21.776576 Si / 1000 Ang^3
#
#
#
# Elastic Constant Matrix: (Units=GPa)
#
#
# Indices 1 2 3 4 5 6 
#
# 1 116.0677 54.9591 61.0880 0.0000 -11.7861 0.0000
# 2 54.9591 119.7256 63.5098 0.0000 -4.3419 0.0000
# 3 61.0880 63.5098 156.8022 0.0000 -5.5336 0.0000
# 4 0.0000 0.0000 0.0000 31.2641 0.0000 0.9997
# 5 -11.7861 -4.3419 -5.5336 0.0000 57.8999 0.0000
# 6 0.0000 0.0000 0.0000 0.9997 0.0000 36.4353
#
#
#
# Elastic Compliance Matrix: (Units=1/GPa)
#
#
# Indices 1 2 3 4 5 6 
#
# 1 0.012321 -0.003918 -0.003146 0.000000 0.001914 0.000000
# 2 -0.003918 0.011892 -0.003298 0.000000 -0.000221 0.000000
# 3 -0.003146 -0.003298 0.008938 0.000000 -0.000033 0.000000
# 4 0.000000 0.000000 0.000000 0.032014 0.000000 -0.000878
# 5 0.001914 -0.000221 -0.000033 0.000000 0.017641 0.000000
# 6 0.000000 0.000000 0.000000 -0.000878 0.000000 0.027470
#
#
# Mechanical properties :
#
#
# Convention : Reuss Voigt Hill
#
# Bulk Modulus (GPa) = 80.46672 83.52325 81.99498
# Shear Modulus (GPa) = 36.99837 39.32244 38.16040
#
# Velocity S-wave (km/s) = 4.12636 4.25399 4.19066
# Velocity P-wave (km/s) = 7.72876 7.90990 7.81985
#
# Compressibility (1/GPa) = 0.01242750
#
# Stress axis : x y z
#
# Youngs Moduli (GPa) = 81.16486 84.08717 111.88552
#
# Poissons Ratio (x) = 0.32942 0.35195
# Poissons Ratio (y) = 0.31797 0.36904
# Poissons Ratio (z) = 0.25532 0.27735
#
# Static dielectric constant tensor:
#      x y z
#    x 4.164090 0.000000 -0.072150 
#    y 0.000000 3.874870 0.000000 
#    z -0.072150 0.000000 4.034170 
# 
# 
# High freq. dielectric constant tensor:
#      x y z
#    x 1.873490 0.000000 -0.001170 
#    y 0.000000 1.834910 0.000000 
#    z -0.001170 0.000000 1.858960 
# 
# From -- ./inp_files/184208.got.cif
#   From: 2010.06.25/outbox.cif.g09.slc.cpg/sg15_93_cif.got.tgz:184208.got - 2010.06.28 07:06:18.
