data_PCOD8152289
_publ_section_title
;
Structure prediction by ZEFSAII (Michael W. Deem and Ramdas Pophale) SiO2 
 PCOD8152289
Probable space group: C 2/C
;
_chemical_formula_sum "Si O2"
_cell_formula_units_Z 60
_cell_length_a 21.683004
_cell_length_b 9.123504
_cell_length_c 15.109564
_cell_angle_alpha 90.000000
_cell_angle_beta 101.326816
_cell_angle_gamma 90.000000
_cell_volume 2930.830923
_symmetry_space_group_name_H-M "C 2/C"
_symmetry_group_IT_number 15
_symmetry_cell_setting 'monoclinic'
loop_
_space_group_symop_operation_xyz
x,y,z
-x,y,1/2-z
-x,-y,-z
x,-y,1/2+z
1/2+x,1/2+y,z
1/2-x,1/2+y,1/2-z
1/2-x,1/2-y,-z
1/2+x,1/2-y,1/2+z
loop_
_atom_site_type_symbol
_atom_site_label
_atom_site_fract_x
_atom_site_fract_y
_atom_site_fract_z
Si Si1 0.181094 0.855667 0.170198
Si Si2 0.627510 0.822161 0.804685
Si Si3 0.850603 0.153038 0.031888
Si Si4 0.378687 0.338754 0.843346
Si Si5 0.989207 0.943605 0.594972
Si Si6 0.182318 0.824682 0.486293
Si Si7 0.000000 0.177744 0.750000
Si Si8 0.323031 0.137686 0.677684
O O1 0.177021 0.731666 0.244292
O O2 0.252776 0.908696 0.183334
O O3 0.139988 0.995515 0.187913
O O4 0.154422 0.790582 0.070494
O O5 0.637371 0.740530 0.899684
O O6 0.558424 0.785482 0.749645
O O7 0.635239 0.993946 0.823769
O O8 0.817993 0.271091 0.085621
O O9 0.922970 0.139428 0.082285
O O10 0.812885 0.999245 0.027451
O O11 0.454598 0.331022 0.865894
O O12 0.354734 0.230831 0.762747
O O13 0.349293 0.291426 0.928445
O O14 0.988407 0.079721 0.660849
O O15 0.000000 0.000000 0.500000
O O16 0.250000 0.750000 0.500000
#
# Coordination Sequence:
#
# PCOD8152289 Si02
#       8
#     8   8   8   8   8   8   4   8
#     4  11  22  43  65  91 126 169 215 260 315 381
#     4  12  24  40  62  93 130 171 203 265 331 375
#     4  11  23  41  68  96 122 172 218 268 316 376
#     4  11  23  41  67  93 121 172 220 263 313 376
#     4  12  20  43  70  93 121 162 230 272 305 381
#     4  11  22  40  65  95 126 165 215 261 316 380
#     4  12  22  40  66  90 130 164 214 274 322 382
#     4  12  26  40  61  96 136 166 209 261 325 392
#
# _framework density 20.472009
#
# number of rings (size 3 to 8) (size 9 to 14) (size 15 to 20)
#    0.000    0.533    5.333    5.200    0.000    3.200 
#    0.000    0.000    0.000    4.800    0.000    0.000 
#    0.000    0.000    0.000    0.000    0.000    0.000 
#
# Total GULP energy -372172.516258 kJ/mol
# GULP energy per Si atom -12405.750542 kJ/mol
# Density = 2.042541 g / cm^3
# Si number density = 20.472009 Si / 1000 Ang^3
#
#
#
# Elastic Constant Matrix: (Units=GPa)
#
#
# Indices 1 2 3 4 5 6 
#
# 1 93.7464 8.0877 -0.0409 0.0000 12.8567 0.0000
# 2 8.0877 76.4203 50.9166 0.0000 -17.0017 0.0000
# 3 -0.0409 50.9166 110.3979 0.0000 -4.0408 0.0000
# 4 0.0000 0.0000 0.0000 2.0753 0.0000 -3.3357
# 5 12.8567 -17.0017 -4.0408 0.0000 37.1197 0.0000
# 6 0.0000 0.0000 0.0000 -3.3357 0.0000 25.3680
#
#
#
# Elastic Compliance Matrix: (Units=1/GPa)
#
#
# Indices 1 2 3 4 5 6 
#
# 1 0.011702 -0.003348 0.001349 0.000000 -0.005440 0.000000
# 2 -0.003348 0.022353 -0.009933 0.000000 0.010316 0.000000
# 3 0.001349 -0.009933 0.013510 0.000000 -0.003546 0.000000
# 4 0.000000 0.000000 0.000000 0.610976 0.000000 0.080338
# 5 -0.005440 0.010316 -0.003546 0.000000 0.033163 0.000000
# 6 0.000000 0.000000 0.000000 0.080338 0.000000 0.049984
#
#
# Mechanical properties :
#
#
# Convention : Reuss Voigt Hill
#
# Bulk Modulus (GPa) = 42.18947 44.27683 43.23315
# Shear Modulus (GPa) = 6.46452 27.68603 17.07528
#
# Velocity S-wave (km/s) = 1.77893 3.68147 2.89118
# Velocity P-wave (km/s) = 4.98724 6.30443 5.68412
#
# Compressibility (1/GPa) = 0.02370260
#
# Stress axis : x y z
#
# Youngs Moduli (GPa) = 85.45195 44.73657 74.01883
#
# Poissons Ratio (x) = 0.14976 -0.09986
# Poissons Ratio (y) = 0.28606 0.73524
# Poissons Ratio (z) = -0.11529 0.44437
#
# Static dielectric constant tensor:
#      x y z
#    x 4.159300 0.000000 0.177790 
#    y 0.000000 3.220830 0.000000 
#    z 0.177790 0.000000 3.988570 
# 
# 
# High freq. dielectric constant tensor:
#      x y z
#    x 1.812780 0.000000 0.005530 
#    y 0.000000 1.777930 0.000000 
#    z 0.005530 0.000000 1.823540 
# 
# From -- ./inp_files/172449.got.cif
#   From: 2010.06.25/outbox.cif.g09.slc.cpg/sg15_87_cif.got.tgz:172449.got - 2010.06.28 07:06:18.
