data_PCOD8152031
_publ_section_title
;
Structure prediction by ZEFSAII (Michael W. Deem and Ramdas Pophale) SiO2 
 PCOD8152031
Probable space group: C 2/C
;
_chemical_formula_sum "Si O2"
_cell_formula_units_Z 48
_cell_length_a 16.216827
_cell_length_b 9.400969
_cell_length_c 26.835137
_cell_angle_alpha 90.000000
_cell_angle_beta 147.394078
_cell_angle_gamma 90.000000
_cell_volume 2204.532676
_symmetry_space_group_name_H-M "C 2/C"
_symmetry_group_IT_number 15
_symmetry_cell_setting 'monoclinic'
loop_
_space_group_symop_operation_xyz
x,y,z
-x,y,1/2-z
-x,-y,-z
x,-y,1/2+z
1/2+x,1/2+y,z
1/2-x,1/2+y,1/2-z
1/2-x,1/2-y,-z
1/2+x,1/2-y,1/2+z
loop_
_atom_site_type_symbol
_atom_site_label
_atom_site_fract_x
_atom_site_fract_y
_atom_site_fract_z
Si Si1 0.362668 0.808846 0.149582
Si Si2 0.959940 0.838292 0.468486
Si Si3 0.423371 0.552765 0.115067
Si Si4 0.102854 0.491199 0.922354
Si Si5 0.422549 0.718100 0.833704
Si Si6 0.581402 0.768384 0.125826
O O1 0.500000 0.879230 0.250000
O O2 0.212713 0.796049 0.106368
O O3 0.421573 0.653375 0.162308
O O4 0.333927 0.915427 0.090431
O O5 0.974831 0.802122 0.417814
O O6 0.076849 0.747369 0.563158
O O7 0.000000 0.000000 0.500000
O O8 0.548889 0.427275 0.182397
O O9 0.461701 0.652307 0.086640
O O10 0.260713 0.470600 0.032204
O O11 0.029141 0.343811 0.866777
O O12 0.975047 0.573550 0.889537
O O13 0.246269 0.759297 0.734764
#
# Coordination Sequence:
#
# PCOD8152031 Si02
#       6
#     8   8   8   8   8   8
#     4  11  23  42  70  92 127 176 225 258 325 407
#     4  12  23  43  70  99 127 176 226 270 319 400
#     4  11  21  46  64  92 132 175 213 266 335 394
#     4  11  22  43  67  93 131 175 213 271 337 386
#     4  12  26  40  69 101 134 164 222 284 329 381
#     4  11  22  42  68  96 131 175 219 269 330 394
#
# _framework density 21.773323999999999
#
# number of rings (size 3 to 8) (size 9 to 14) (size 15 to 20)
#    0.000    0.667    5.000    4.500    2.333    0.667 
#    3.000    0.833    0.000    0.000    0.000    0.000 
#    0.000    0.000    0.000    0.000    0.000    0.000 
#
# Total GULP energy -297517.149832 kJ/mol
# GULP energy per Si atom -12396.547910 kJ/mol
# Density = 2.172377 g / cm^3
# Si number density = 21.773324 Si / 1000 Ang^3
#
#
#
# Elastic Constant Matrix: (Units=GPa)
#
#
# Indices 1 2 3 4 5 6 
#
# 1 52.1520 31.4776 19.1121 0.0000 14.1861 0.0000
# 2 31.4776 105.3059 13.5253 0.0000 11.6432 0.0000
# 3 19.1121 13.5253 118.0703 0.0000 6.5749 0.0000
# 4 0.0000 0.0000 0.0000 24.8827 0.0000 15.8719
# 5 14.1861 11.6432 6.5749 0.0000 25.6734 0.0000
# 6 0.0000 0.0000 0.0000 15.8719 0.0000 19.1282
#
#
#
# Elastic Compliance Matrix: (Units=1/GPa)
#
#
# Indices 1 2 3 4 5 6 
#
# 1 0.027313 -0.006518 -0.003042 0.000000 -0.011357 0.000000
# 2 -0.006518 0.011649 -0.000188 0.000000 -0.001633 0.000000
# 3 -0.003042 -0.000188 0.009014 0.000000 -0.000542 0.000000
# 4 0.000000 0.000000 0.000000 0.085377 0.000000 -0.070843
# 5 -0.011357 -0.001633 -0.000542 0.000000 0.046106 0.000000
# 6 0.000000 0.000000 0.000000 -0.070843 0.000000 0.111062
#
#
# Mechanical properties :
#
#
# Convention : Reuss Voigt Hill
#
# Bulk Modulus (GPa) = 35.11358 44.86203 39.98780
# Shear Modulus (GPa) = 15.64894 28.03109 21.84001
#
# Velocity S-wave (km/s) = 2.68381 3.59194 3.17055
# Velocity P-wave (km/s) = 5.07599 6.15236 5.63991
#
# Compressibility (1/GPa) = 0.02847901
#
# Stress axis : x y z
#
# Youngs Moduli (GPa) = 36.61294 85.84274 110.94198
#
# Poissons Ratio (x) = 0.55951 0.33749
# Poissons Ratio (y) = 0.23864 0.02091
# Poissons Ratio (z) = 0.11138 0.01618
#
# Static dielectric constant tensor:
#      x y z
#    x 4.130470 0.000000 0.216900 
#    y 0.000000 3.934300 0.000000 
#    z 0.216900 0.000000 4.055290 
# 
# 
# High freq. dielectric constant tensor:
#      x y z
#    x 1.840680 0.000000 0.009750 
#    y 0.000000 1.853590 0.000000 
#    z 0.009750 0.000000 1.864750 
# 
# From -- ./inp_files/224694.got.cif
#   From: 2010.06.25/outbox.cif.g09.slc.cpg/sg15_113_cif.got.tgz:224694.got - 2010.06.28 07:06:18.
