data_PCOD8152546
_publ_section_title
;
Structure prediction by ZEFSAII (Michael W. Deem and Ramdas Pophale) SiO2 
 PCOD8152546
Probable space group: C 2/C
;
_chemical_formula_sum "Si O2"
_cell_formula_units_Z 52
_cell_length_a 20.493212
_cell_length_b 17.436103
_cell_length_c 9.013650
_cell_angle_alpha 90.000000
_cell_angle_beta 129.830633
_cell_angle_gamma 90.000000
_cell_volume 2473.364406
_symmetry_space_group_name_H-M "C 2/C"
_symmetry_group_IT_number 15
_symmetry_cell_setting 'monoclinic'
loop_
_space_group_symop_operation_xyz
x,y,z
-x,y,1/2-z
-x,-y,-z
x,-y,1/2+z
1/2+x,1/2+y,z
1/2-x,1/2+y,1/2-z
1/2-x,1/2-y,-z
1/2+x,1/2-y,1/2+z
loop_
_atom_site_type_symbol
_atom_site_label
_atom_site_fract_x
_atom_site_fract_y
_atom_site_fract_z
Si Si1 0.320157 0.037200 0.543581
Si Si2 0.071982 0.546900 0.526703
Si Si3 0.500000 0.182993 0.250000
Si Si4 0.164150 0.781883 0.449641
Si Si5 0.845107 0.058160 0.718343
Si Si6 0.094066 0.920992 0.863660
Si Si7 0.284870 0.680894 0.147326
O O1 0.346678 0.057965 0.749564
O O2 0.285897 0.115795 0.419941
O O3 0.400788 0.002570 0.576447
O O4 0.249554 0.971483 0.449433
O O5 0.036624 0.630294 0.434612
O O6 0.000000 0.500000 0.500000
O O7 0.579518 0.231024 0.300360
O O8 0.250000 0.750000 0.500000
O O9 0.141189 0.861778 0.341567
O O10 0.178761 0.788317 0.645915
O O11 0.910918 0.998856 0.739958
O O12 0.858544 0.064170 0.913066
O O13 0.140267 0.855514 0.839098
O O14 0.000000 0.889809 0.750000
O O15 0.250000 0.750000 0.000000
#
# Coordination Sequence:
#
# PCOD8152546 Si02
#       7
#     8   8   4   8   8   8   8
#     4  11  22  42  73  94 135 175 241 280 348 428
#     4  12  23  43  66 102 130 176 226 292 346 418
#     4  12  28  44  70 106 146 178 244 294 362 434
#     4  12  27  45  71 101 148 190 233 300 376 432
#     4  11  23  43  70 102 134 191 233 294 355 436
#     4  11  24  42  71 103 142 182 244 294 356 433
#     4  11  24  45  67 102 136 189 237 298 365 435
#
# _framework density 21.023993999999998
#
# number of rings (size 3 to 8) (size 9 to 14) (size 15 to 20)
#    0.000    0.615    1.538    7.846    5.385    0.000 
#    0.000    0.000    0.000    0.000    0.000    0.000 
#    0.000    0.000    0.000    0.000    0.000    0.000 
#
# Total GULP energy -322494.510131 kJ/mol
# GULP energy per Si atom -12403.635005 kJ/mol
# Density = 2.097614 g / cm^3
# Si number density = 21.023994 Si / 1000 Ang^3
#
#
#
# Elastic Constant Matrix: (Units=GPa)
#
#
# Indices 1 2 3 4 5 6 
#
# 1 148.3236 78.2259 55.4035 0.0000 6.9329 0.0000
# 2 78.2259 153.8902 44.4139 0.0000 6.7235 0.0000
# 3 55.4035 44.4139 145.0781 0.0000 -11.0477 0.0000
# 4 0.0000 0.0000 0.0000 32.0809 0.0000 -4.0843
# 5 6.9329 6.7235 -11.0477 0.0000 41.3789 0.0000
# 6 0.0000 0.0000 0.0000 -4.0843 0.0000 42.2211
#
#
#
# Elastic Compliance Matrix: (Units=1/GPa)
#
#
# Indices 1 2 3 4 5 6 
#
# 1 0.010073 -0.004276 -0.002668 0.000000 -0.001705 0.000000
# 2 -0.004276 0.009073 -0.001227 0.000000 -0.001086 0.000000
# 3 -0.002668 -0.001227 0.008510 0.000000 0.002918 0.000000
# 4 0.000000 0.000000 0.000000 0.031560 0.000000 0.003053
# 5 -0.001705 -0.001086 0.002918 0.000000 0.025408 0.000000
# 6 0.000000 0.000000 0.000000 0.003053 0.000000 0.023980
#
#
# Mechanical properties :
#
#
# Convention : Reuss Voigt Hill
#
# Bulk Modulus (GPa) = 88.38571 89.26427 88.82499
# Shear Modulus (GPa) = 38.84447 41.08608 39.96527
#
# Velocity S-wave (km/s) = 4.30306 4.42548 4.36470
# Velocity P-wave (km/s) = 8.17436 8.28635 8.23055
#
# Compressibility (1/GPa) = 0.01131405
#
# Stress axis : x y z
#
# Youngs Moduli (GPa) = 99.27121 110.21155 117.51467
#
# Poissons Ratio (x) = 0.47128 0.31349
# Poissons Ratio (y) = 0.42450 0.14424
# Poissons Ratio (z) = 0.26482 0.13527
#
# Static dielectric constant tensor:
#      x y z
#    x 3.954120 0.000000 -0.070280 
#    y 0.000000 4.280490 0.000000 
#    z -0.070280 0.000000 3.858960 
# 
# 
# High freq. dielectric constant tensor:
#      x y z
#    x 1.834180 0.000000 -0.000020 
#    y 0.000000 1.830540 0.000000 
#    z -0.000020 0.000000 1.840140 
# 
# From -- ./inp_files/48668.got.cif
#   From: 2010.06.25/outbox.cif.g09.slc.cpg/sg15_25_cif.got.tgz:48668.got - 2010.06.28 07:06:18.
