data_PCOD8152393
_publ_section_title
;
Structure prediction by ZEFSAII (Michael W. Deem and Ramdas Pophale) SiO2 
 PCOD8152393
Probable space group: C 2/C
;
_chemical_formula_sum "Si O2"
_cell_formula_units_Z 44
_cell_length_a 9.309776
_cell_length_b 11.209094
_cell_length_c 25.645027
_cell_angle_alpha 90.000000
_cell_angle_beta 132.056533
_cell_angle_gamma 90.000000
_cell_volume 1987.010418
_symmetry_space_group_name_H-M "C 2/C"
_symmetry_group_IT_number 15
_symmetry_cell_setting 'monoclinic'
loop_
_space_group_symop_operation_xyz
x,y,z
-x,y,1/2-z
-x,-y,-z
x,-y,1/2+z
1/2+x,1/2+y,z
1/2-x,1/2+y,1/2-z
1/2-x,1/2-y,-z
1/2+x,1/2-y,1/2+z
loop_
_atom_site_type_symbol
_atom_site_label
_atom_site_fract_x
_atom_site_fract_y
_atom_site_fract_z
Si Si1 0.955935 0.060005 0.850452
Si Si2 0.150012 0.499232 0.862138
Si Si3 0.208049 0.615665 0.693994
Si Si4 0.094878 0.301464 0.923840
Si Si5 0.000000 0.682877 0.250000
Si Si6 0.163239 0.463454 0.580922
O O1 0.837343 0.043416 0.768002
O O2 0.036128 0.196578 0.869326
O O3 0.831304 0.038559 0.872273
O O4 0.127577 0.961256 0.896571
O O5 0.198475 0.421923 0.925846
O O6 0.015887 0.615996 0.840815
O O7 0.010257 0.402532 0.801774
O O8 0.299447 0.745445 0.708442
O O9 0.205770 0.557892 0.636808
O O10 0.900976 0.338847 0.908705
O O11 0.250000 0.250000 0.000000
O O12 0.000000 0.500000 0.500000
#
# Coordination Sequence:
#
# PCOD8152393 Si02
#       6
#     8   8   8   8   4   8
#     4  12  22  44  67  98 129 171 223 273 328 393
#     4  11  25  41  67 100 130 166 225 278 321 393
#     4  11  22  41  67  96 130 173 218 270 330 390
#     4  11  24  44  66  93 137 177 212 273 340 388
#     4  12  20  40  70  90 132 168 214 276 332 378
#     4  11  23  42  68  98 134 177 221 270 333 400
#
# _framework density 22.143820000000002
#
# number of rings (size 3 to 8) (size 9 to 14) (size 15 to 20)
#    0.000    0.727    7.273    0.000    0.000    2.182 
#    0.000    2.727    0.000    0.000    0.000    0.000 
#    0.000    0.000    0.000    0.000    0.000    0.000 
#
# Total GULP energy -272540.918863 kJ/mol
# GULP energy per Si atom -12388.223585 kJ/mol
# Density = 2.209342 g / cm^3
# Si number density = 22.143820 Si / 1000 Ang^3
#
#
#
# Elastic Constant Matrix: (Units=GPa)
#
#
# Indices 1 2 3 4 5 6 
#
# 1 143.9945 24.1515 22.3801 0.0000 12.3318 0.0000
# 2 24.1515 57.4352 0.5222 0.0000 -0.8303 0.0000
# 3 22.3801 0.5222 100.8430 0.0000 -9.0696 0.0000
# 4 0.0000 0.0000 0.0000 31.4449 0.0000 -1.3729
# 5 12.3318 -0.8303 -9.0696 0.0000 24.8976 0.0000
# 6 0.0000 0.0000 0.0000 -1.3729 0.0000 40.3283
#
#
#
# Elastic Compliance Matrix: (Units=1/GPa)
#
#
# Indices 1 2 3 4 5 6 
#
# 1 0.008332 -0.003556 -0.002287 0.000000 -0.005078 0.000000
# 2 -0.003556 0.018937 0.000937 0.000000 0.002734 0.000000
# 3 -0.002287 0.000937 0.010880 0.000000 0.005128 0.000000
# 4 0.000000 0.000000 0.000000 0.031849 0.000000 0.001084
# 5 -0.005078 0.002734 0.005128 0.000000 0.044639 0.000000
# 6 0.000000 0.000000 0.000000 0.001084 0.000000 0.024833
#
#
# Mechanical properties :
#
#
# Convention : Reuss Voigt Hill
#
# Bulk Modulus (GPa) = 35.29023 44.04226 39.66624
# Shear Modulus (GPa) = 31.50030 36.34877 33.92453
#
# Velocity S-wave (km/s) = 3.77574 4.05592 3.91834
# Velocity P-wave (km/s) = 5.91436 6.47042 6.19863
#
# Compressibility (1/GPa) = 0.02833645
#
# Stress axis : x y z
#
# Youngs Moduli (GPa) = 120.02525 52.80595 91.90882
#
# Poissons Ratio (x) = 0.18778 0.21023
# Poissons Ratio (y) = 0.42682 -0.08612
# Poissons Ratio (z) = 0.27454 -0.04948
#
# Static dielectric constant tensor:
#      x y z
#    x 4.351370 0.000000 -0.096590 
#    y 0.000000 4.219450 0.000000 
#    z -0.096590 0.000000 4.535660 
# 
# 
# High freq. dielectric constant tensor:
#      x y z
#    x 1.884350 0.000000 -0.011730 
#    y 0.000000 1.848830 0.000000 
#    z -0.011730 0.000000 1.877770 
# 
# From -- ./inp_files/230157.got.cif
#   From: 2010.06.25/outbox.cif.g09.slc.cpg/sg15_116_cif.got.tgz:230157.got - 2010.06.28 07:06:18.
