data_PCOD8152457
_publ_section_title
;
Structure prediction by ZEFSAII (Michael W. Deem and Ramdas Pophale) SiO2 
 PCOD8152457
Probable space group: C 2/C
;
_chemical_formula_sum "Si O2"
_cell_formula_units_Z 56
_cell_length_a 19.042948
_cell_length_b 16.650145
_cell_length_c 8.528894
_cell_angle_alpha 90.000000
_cell_angle_beta 58.544886
_cell_angle_gamma 90.000000
_cell_volume 2306.848188
_symmetry_space_group_name_H-M "C 2/C"
_symmetry_group_IT_number 15
_symmetry_cell_setting 'monoclinic'
loop_
_space_group_symop_operation_xyz
x,y,z
-x,y,1/2-z
-x,-y,-z
x,-y,1/2+z
1/2+x,1/2+y,z
1/2-x,1/2+y,1/2-z
1/2-x,1/2-y,-z
1/2+x,1/2-y,1/2+z
loop_
_atom_site_type_symbol
_atom_site_label
_atom_site_fract_x
_atom_site_fract_y
_atom_site_fract_z
Si Si1 0.632346 0.101763 0.445242
Si Si2 0.659926 0.616844 0.661103
Si Si3 0.083288 0.537211 0.830084
Si Si4 0.577337 0.224418 0.271874
Si Si5 0.318468 0.168517 0.618345
Si Si6 0.061017 0.040614 0.309538
Si Si7 0.805938 0.841249 0.723313
O O1 0.581838 0.060240 0.647566
O O2 0.576882 0.174598 0.436417
O O3 0.721378 0.129922 0.405177
O O4 0.647612 0.035150 0.290260
O O5 0.587207 0.680000 0.793441
O O6 0.731021 0.621770 0.711699
O O7 0.624917 0.527676 0.681663
O O8 0.701679 0.639872 0.450027
O O9 0.108755 0.614971 0.897867
O O10 0.000000 0.500000 0.000000
O O11 0.500000 0.208086 0.250000
O O12 0.658288 0.196155 0.084224
O O13 0.312268 0.245589 0.740286
O O14 0.112166 0.117245 0.306377
O O15 0.000000 0.074457 0.250000
O O16 0.000000 0.000000 0.500000
#
# Coordination Sequence:
#
# PCOD8152457 Si02
#       7
#     8   8   8   8   8   8   8
#     4  12  25  47  73 106 147 195 256 303 375 455
#     4  11  22  46  74 104 152 195 254 300 380 453
#     4  12  28  47  71 104 152 198 245 312 380 448
#     4  11  22  41  76 110 142 194 246 311 371 445
#     4  11  23  48  74 106 149 196 253 310 374 449
#     4  12  26  45  70 107 150 195 245 310 379 444
#     4  11  24  45  75 111 144 197 254 305 376 453
#
# _framework density 24.275545000000001
#
# number of rings (size 3 to 8) (size 9 to 14) (size 15 to 20)
#    0.000    0.571    4.286    4.286    4.000    1.714 
#    2.571    0.000    0.000    0.000    0.000    0.000 
#    0.000    0.000    0.000    0.000    0.000    0.000 
#
# Total GULP energy -347080.422039 kJ/mol
# GULP energy per Si atom -12395.729359 kJ/mol
# Density = 2.422029 g / cm^3
# Si number density = 24.275545 Si / 1000 Ang^3
#
#
#
# Elastic Constant Matrix: (Units=GPa)
#
#
# Indices 1 2 3 4 5 6 
#
# 1 186.2140 67.3750 41.8394 0.0000 -16.0441 0.0000
# 2 67.3750 131.2251 21.6954 0.0000 -6.7030 0.0000
# 3 41.8394 21.6954 79.2449 0.0000 -4.8661 0.0000
# 4 0.0000 0.0000 0.0000 29.4090 0.0000 -1.6899
# 5 -16.0441 -6.7030 -4.8661 0.0000 40.0663 0.0000
# 6 0.0000 0.0000 0.0000 -1.6899 0.0000 50.5940
#
#
#
# Elastic Compliance Matrix: (Units=1/GPa)
#
#
# Indices 1 2 3 4 5 6 
#
# 1 0.007350 -0.003192 -0.002880 0.000000 0.002059 0.000000
# 2 -0.003192 0.009415 -0.000880 0.000000 0.000190 0.000000
# 3 -0.002880 -0.000880 0.014408 0.000000 0.000449 0.000000
# 4 0.000000 0.000000 0.000000 0.034069 0.000000 0.001138
# 5 0.002059 0.000190 0.000449 0.000000 0.025870 0.000000
# 6 0.000000 0.000000 0.000000 0.001138 0.000000 0.019803
#
#
# Mechanical properties :
#
#
# Convention : Reuss Voigt Hill
#
# Bulk Modulus (GPa) = 57.91288 73.16705 65.53997
# Shear Modulus (GPa) = 38.29208 41.73215 40.01212
#
# Velocity S-wave (km/s) = 3.97595 4.15070 4.06427
# Velocity P-wave (km/s) = 6.70715 7.29224 7.00581
#
# Compressibility (1/GPa) = 0.01726731
#
# Stress axis : x y z
#
# Youngs Moduli (GPa) = 136.06028 106.21649 69.40423
#
# Poissons Ratio (x) = 0.33907 0.19989
# Poissons Ratio (y) = 0.43433 0.06111
# Poissons Ratio (z) = 0.39186 0.09352
#
# Static dielectric constant tensor:
#      x y z
#    x 4.432640 0.000000 -0.040530 
#    y 0.000000 5.074720 0.000000 
#    z -0.040530 0.000000 4.083100 
# 
# 
# High freq. dielectric constant tensor:
#      x y z
#    x 1.979480 0.000000 -0.010680 
#    y 0.000000 1.974990 0.000000 
#    z -0.010680 0.000000 1.939450 
# 
# From -- ./inp_files/105648.got.cif
#   From: 2010.06.25/outbox.cif.g09.slc.cpg/sg15_53_cif.got.tgz:105648.got - 2010.06.28 07:06:18.
