data_PCOD8152240
_publ_section_title
;
Structure prediction by ZEFSAII (Michael W. Deem and Ramdas Pophale) SiO2 
 PCOD8152240
Probable space group: C 2/C
;
_chemical_formula_sum "Si O2"
_cell_formula_units_Z 44
_cell_length_a 16.117745
_cell_length_b 10.239414
_cell_length_c 14.117967
_cell_angle_alpha 90.000000
_cell_angle_beta 60.164530
_cell_angle_gamma 90.000000
_cell_volume 2021.155907
_symmetry_space_group_name_H-M "C 2/C"
_symmetry_group_IT_number 15
_symmetry_cell_setting 'monoclinic'
loop_
_space_group_symop_operation_xyz
x,y,z
-x,y,1/2-z
-x,-y,-z
x,-y,1/2+z
1/2+x,1/2+y,z
1/2-x,1/2+y,1/2-z
1/2-x,1/2-y,-z
1/2+x,1/2-y,1/2+z
loop_
_atom_site_type_symbol
_atom_site_label
_atom_site_fract_x
_atom_site_fract_y
_atom_site_fract_z
Si Si1 0.000000 0.123502 0.250000
Si Si2 0.238129 0.546365 0.458064
Si Si3 0.721437 0.172597 0.831830
Si Si4 0.625947 0.595542 0.492153
Si Si5 0.832780 0.704771 0.844867
Si Si6 0.080712 0.081249 0.848170
O O1 0.076235 0.222712 0.161371
O O2 0.056764 0.042195 0.296092
O O3 0.187026 0.455853 0.409079
O O4 0.335135 0.466546 0.431610
O O5 0.180776 0.569698 0.589044
O O6 0.247459 0.689756 0.406414
O O7 0.697896 0.296501 0.910592
O O8 0.659379 0.172919 0.771052
O O9 0.836218 0.170749 0.744737
O O10 0.520103 0.656094 0.574679
O O11 0.621555 0.474392 0.422766
#
# Coordination Sequence:
#
# PCOD8152240 Si02
#       6
#     4   8   8   8   8   8
#     4  12  20  44  66  94 130 186 224 272 340 408
#     4  11  23  41  64  96 137 179 222 276 349 395
#     4  12  22  42  69 104 137 176 225 290 335 392
#     4  11  22  39  67 105 133 177 232 277 333 404
#     4  11  24  41  68  96 135 181 225 277 336 418
#     4  11  22  39  69  99 135 178 234 271 329 416
#
# _framework density 21.769721000000001
#
# number of rings (size 3 to 8) (size 9 to 14) (size 15 to 20)
#    0.000    0.727    7.273    0.545    0.000    0.000 
#    0.000    2.727    0.000    0.000    0.000    0.000 
#    0.000    0.000    0.000    0.000    0.000    0.000 
#
# Total GULP energy -272657.135841 kJ/mol
# GULP energy per Si atom -12393.506175 kJ/mol
# Density = 2.172017 g / cm^3
# Si number density = 21.769721 Si / 1000 Ang^3
#
#
#
# Elastic Constant Matrix: (Units=GPa)
#
#
# Indices 1 2 3 4 5 6 
#
# 1 66.5093 35.1115 38.5826 0.0000 -5.2961 0.0000
# 2 35.1115 93.1776 57.2570 0.0000 -3.4292 0.0000
# 3 38.5826 57.2570 108.3202 0.0000 1.6448 0.0000
# 4 0.0000 0.0000 0.0000 47.5929 0.0000 -3.1566
# 5 -5.2961 -3.4292 1.6448 0.0000 48.3121 0.0000
# 6 0.0000 0.0000 0.0000 -3.1566 0.0000 32.4361
#
#
#
# Elastic Compliance Matrix: (Units=1/GPa)
#
#
# Indices 1 2 3 4 5 6 
#
# 1 0.020480 -0.004649 -0.004869 0.000000 0.002081 0.000000
# 2 -0.004649 0.017048 -0.007370 0.000000 0.000951 0.000000
# 3 -0.004869 -0.007370 0.014886 0.000000 -0.001564 0.000000
# 4 0.000000 0.000000 0.000000 0.021148 0.000000 0.002058
# 5 0.002081 0.000951 -0.001564 0.000000 0.021048 0.000000
# 6 0.000000 0.000000 0.000000 0.002058 0.000000 0.031030
#
#
# Mechanical properties :
#
#
# Convention : Reuss Voigt Hill
#
# Bulk Modulus (GPa) = 53.65413 58.87879 56.26646
# Shear Modulus (GPa) = 30.18834 34.80529 32.49681
#
# Velocity S-wave (km/s) = 3.72790 4.00283 3.86781
# Velocity P-wave (km/s) = 6.57490 6.96193 6.77118
#
# Compressibility (1/GPa) = 0.01863789
#
# Stress axis : x y z
#
# Youngs Moduli (GPa) = 48.82829 58.65905 67.17917
#
# Poissons Ratio (x) = 0.27269 0.32710
# Poissons Ratio (y) = 0.22699 0.49510
# Poissons Ratio (z) = 0.23775 0.43231
#
# Static dielectric constant tensor:
#      x y z
#    x 3.819050 0.000000 -0.000540 
#    y 0.000000 3.666740 0.000000 
#    z -0.000540 0.000000 4.246580 
# 
# 
# High freq. dielectric constant tensor:
#      x y z
#    x 1.840150 0.000000 0.014260 
#    y 0.000000 1.827980 0.000000 
#    z 0.014260 0.000000 1.873990 
# 
# From -- ./inp_files/159675.got.cif
#   From: 2010.06.25/outbox.cif.g09.slc.cpg/sg15_80_cif.got.tgz:159675.got - 2010.06.28 07:06:18.
