data_PCOD8152038
_publ_section_title
;
Structure prediction by ZEFSAII (Michael W. Deem and Ramdas Pophale) SiO2 
 PCOD8152038
Probable space group: C 2/C
;
_chemical_formula_sum "Si O2"
_cell_formula_units_Z 40
_cell_length_a 32.338082
_cell_length_b 7.802915
_cell_length_c 15.514374
_cell_angle_alpha 90.000000
_cell_angle_beta 156.009469
_cell_angle_gamma 90.000000
_cell_volume 1591.686190
_symmetry_space_group_name_H-M "C 2/C"
_symmetry_group_IT_number 15
_symmetry_cell_setting 'monoclinic'
loop_
_space_group_symop_operation_xyz
x,y,z
-x,y,1/2-z
-x,-y,-z
x,-y,1/2+z
1/2+x,1/2+y,z
1/2-x,1/2+y,1/2-z
1/2-x,1/2-y,-z
1/2+x,1/2-y,1/2+z
loop_
_atom_site_type_symbol
_atom_site_label
_atom_site_fract_x
_atom_site_fract_y
_atom_site_fract_z
Si Si1 0.142237 0.505380 0.193749
Si Si2 0.015588 0.742755 0.543418
Si Si3 0.332658 0.300882 0.068490
Si Si4 0.584165 0.380087 0.840410
Si Si5 0.618234 0.994685 0.457653
O O1 0.029780 0.589975 0.982890
O O2 0.221148 0.637262 0.395898
O O3 0.175063 0.483232 0.157256
O O4 0.122046 0.321939 0.201745
O O5 0.930168 0.806528 0.315233
O O6 0.040906 0.889728 0.659999
O O7 0.340984 0.457872 0.014707
O O8 0.328676 0.122526 0.009275
O O9 0.500000 0.416890 0.750000
O O10 0.638272 0.197992 0.961215
O O11 0.500000 0.037815 0.250000
#
# Coordination Sequence:
#
# PCOD8152038 Si02
#       5
#     8   8   8   8   8
#     4  11  24  42  70 106 135 186 238 282 358 427
#     4  11  22  46  69  94 146 186 226 299 357 410
#     4  12  26  42  73 107 134 185 240 289 354 430
#     4  11  24  44  71 101 137 185 235 285 357 426
#     4  11  21  46  69  95 146 185 222 294 355 413
#
# _framework density 25.130580999999999
#
# number of rings (size 3 to 8) (size 9 to 14) (size 15 to 20)
#    0.000    0.800    6.000    3.000    2.800    0.800 
#    0.000    2.000    0.000    0.000    0.000    0.000 
#    0.000    0.000    0.000    0.000    0.000    0.000 
#
# Total GULP energy -247788.171251 kJ/mol
# GULP energy per Si atom -12389.408563 kJ/mol
# Density = 2.507338 g / cm^3
# Si number density = 25.130581 Si / 1000 Ang^3
#
#
#
# Elastic Constant Matrix: (Units=GPa)
#
#
# Indices 1 2 3 4 5 6 
#
# 1 31.0843 -9.4591 11.3081 0.0000 -15.7823 0.0000
# 2 -9.4591 76.6879 1.0436 0.0000 12.2912 0.0000
# 3 11.3081 1.0436 77.4655 0.0000 -2.3856 0.0000
# 4 0.0000 0.0000 0.0000 28.7177 0.0000 8.6498
# 5 -15.7823 12.2912 -2.3856 0.0000 40.9719 0.0000
# 6 0.0000 0.0000 0.0000 8.6498 0.0000 3.9244
#
#
#
# Elastic Compliance Matrix: (Units=1/GPa)
#
#
# Indices 1 2 3 4 5 6 
#
# 1 0.042970 0.002922 -0.005840 0.000000 0.015336 0.000000
# 2 0.002922 0.013905 -0.000709 0.000000 -0.003087 0.000000
# 3 -0.005840 -0.000709 0.013733 0.000000 -0.001237 0.000000
# 4 0.000000 0.000000 0.000000 0.103601 0.000000 -0.228348
# 5 0.015336 -0.003087 -0.001237 0.000000 0.031168 0.000000
# 6 0.000000 0.000000 0.000000 -0.228348 0.000000 0.758122
#
#
# Mechanical properties :
#
#
# Convention : Reuss Voigt Hill
#
# Bulk Modulus (GPa) = 15.78429 21.22478 18.50454
# Shear Modulus (GPa) = 5.04098 26.87914 15.96006
#
# Velocity S-wave (km/s) = 1.41784 3.27399 2.52282
# Velocity P-wave (km/s) = 2.99581 4.77034 3.98316
#
# Compressibility (1/GPa) = 0.06335412
#
# Stress axis : x y z
#
# Youngs Moduli (GPa) = 23.27186 71.91821 72.81793
#
# Poissons Ratio (x) = -0.21013 0.42524
# Poissons Ratio (y) = -0.06799 0.05162
# Poissons Ratio (z) = 0.13590 0.05098
#
# Static dielectric constant tensor:
#      x y z
#    x 4.723450 0.000000 0.145380 
#    y 0.000000 4.595330 0.000000 
#    z 0.145380 0.000000 4.736320 
# 
# 
# High freq. dielectric constant tensor:
#      x y z
#    x 2.006630 0.000000 -0.009340 
#    y 0.000000 2.006290 0.000000 
#    z -0.009340 0.000000 1.993220 
# 
# From -- ./inp_files/181262.got.cif
#   From: 2010.06.25/outbox.cif.g09.slc.cpg/sg15_91_cif.got.tgz:181262.got - 2010.06.28 07:06:18.
