data_PCOD8152335
_publ_section_title
;
Structure prediction by ZEFSAII (Michael W. Deem and Ramdas Pophale) SiO2 
 PCOD8152335
Probable space group: C 2/C
;
_chemical_formula_sum "Si O2"
_cell_formula_units_Z 56
_cell_length_a 9.209679
_cell_length_b 22.121164
_cell_length_c 13.920531
_cell_angle_alpha 90.000000
_cell_angle_beta 111.238857
_cell_angle_gamma 90.000000
_cell_volume 2643.386612
_symmetry_space_group_name_H-M "C 2/C"
_symmetry_group_IT_number 15
_symmetry_cell_setting 'monoclinic'
loop_
_space_group_symop_operation_xyz
x,y,z
-x,y,1/2-z
-x,-y,-z
x,-y,1/2+z
1/2+x,1/2+y,z
1/2-x,1/2+y,1/2-z
1/2-x,1/2-y,-z
1/2+x,1/2-y,1/2+z
loop_
_atom_site_type_symbol
_atom_site_label
_atom_site_fract_x
_atom_site_fract_y
_atom_site_fract_z
Si Si1 0.240612 0.899231 0.570632
Si Si2 0.158592 0.832765 0.242045
Si Si3 0.670519 0.194921 0.258993
Si Si4 0.606676 0.975370 0.365628
Si Si5 0.918614 0.383062 0.423213
Si Si6 0.390478 0.607977 0.959886
Si Si7 0.289752 0.812186 0.958405
O O1 0.222422 0.848703 0.650070
O O2 0.314234 0.872782 0.491912
O O3 0.063844 0.919708 0.506265
O O4 0.357922 0.953603 0.624209
O O5 0.195858 0.765248 0.288685
O O6 0.304763 0.874241 0.305285
O O7 0.130067 0.836910 0.121220
O O8 0.000000 0.858099 0.250000
O O9 0.500000 0.174055 0.250000
O O10 0.701645 0.186805 0.154178
O O11 0.500000 0.959850 0.250000
O O12 0.507203 0.948182 0.432678
O O13 0.776656 0.945556 0.400300
O O14 0.047053 0.330761 0.454864
O O15 0.341424 0.637425 0.049457
O O16 0.250000 0.750000 0.000000
#
# Coordination Sequence:
#
# PCOD8152335 Si02
#       7
#     8   8   8   8   8   8   8
#     4  12  25  44  70 100 142 178 234 288 351 411
#     4  11  22  40  69 101 135 179 238 281 339 426
#     4  11  24  42  69 103 139 184 229 281 347 422
#     4  11  24  44  72  97 135 183 235 291 343 413
#     4  11  24  42  71  98 132 185 232 282 349 411
#     4  11  24  44  66 102 139 184 228 288 350 411
#     4  11  24  43  66 100 142 179 225 283 350 412
#
# _framework density 21.184944999999999
#
# number of rings (size 3 to 8) (size 9 to 14) (size 15 to 20)
#    0.000    0.857    5.714    1.286    2.000    1.143 
#    0.000    0.000    3.143    0.000    0.000    0.000 
#    0.000    0.000    0.000    0.000    0.000    0.000 
#
# Total GULP energy -347053.014423 kJ/mol
# GULP energy per Si atom -12394.750515 kJ/mol
# Density = 2.113673 g / cm^3
# Si number density = 21.184945 Si / 1000 Ang^3
#
#
#
# Elastic Constant Matrix: (Units=GPa)
#
#
# Indices 1 2 3 4 5 6 
#
# 1 130.5144 33.2419 52.6870 0.0000 4.0248 0.0000
# 2 33.2419 79.4623 32.0568 0.0000 8.2353 0.0000
# 3 52.6870 32.0568 103.0775 0.0000 -5.1114 0.0000
# 4 0.0000 0.0000 0.0000 28.0269 0.0000 2.8419
# 5 4.0248 8.2353 -5.1114 0.0000 44.4409 0.0000
# 6 0.0000 0.0000 0.0000 2.8419 0.0000 27.1450
#
#
#
# Elastic Compliance Matrix: (Units=1/GPa)
#
#
# Indices 1 2 3 4 5 6 
#
# 1 0.010094 -0.002306 -0.004492 0.000000 -0.001003 0.000000
# 2 -0.002306 0.015384 -0.003758 0.000000 -0.003074 0.000000
# 3 -0.004492 -0.003758 0.013297 0.000000 0.002632 0.000000
# 4 0.000000 0.000000 0.000000 0.036063 0.000000 -0.003775
# 5 -0.001003 -0.003074 0.002632 0.000000 0.023465 0.000000
# 6 0.000000 0.000000 0.000000 -0.003775 0.000000 0.037235
#
#
# Mechanical properties :
#
#
# Convention : Reuss Voigt Hill
#
# Bulk Modulus (GPa) = 56.61846 61.00286 58.81066
# Shear Modulus (GPa) = 30.76235 32.92711 31.84473
#
# Velocity S-wave (km/s) = 3.81476 3.94670 3.88129
# Velocity P-wave (km/s) = 6.79610 7.04461 6.92147
#
# Compressibility (1/GPa) = 0.01766208
#
# Stress axis : x y z
#
# Youngs Moduli (GPa) = 99.07237 65.00215 75.20741
#
# Poissons Ratio (x) = 0.14993 0.33781
# Poissons Ratio (y) = 0.22851 0.28262
# Poissons Ratio (z) = 0.44500 0.24427
#
# Static dielectric constant tensor:
#      x y z
#    x 4.035170 0.000000 -0.028060 
#    y 0.000000 3.680450 0.000000 
#    z -0.028060 0.000000 3.799540 
# 
# 
# High freq. dielectric constant tensor:
#      x y z
#    x 1.846550 0.000000 0.000280 
#    y 0.000000 1.821440 0.000000 
#    z 0.000280 0.000000 1.826810 
# 
# From -- ./inp_files/137952.got.cif
#   From: 2010.06.25/outbox.cif.g09.slc.cpg/sg15_69_cif.got.tgz:137952.got - 2010.06.28 07:06:18.
