data_PCOD8152604
_publ_section_title
;
Structure prediction by ZEFSAII (Michael W. Deem and Ramdas Pophale) SiO2 
 PCOD8152604
Probable space group: C 2/C
;
_chemical_formula_sum "Si O2"
_cell_formula_units_Z 44
_cell_length_a 18.331810
_cell_length_b 6.681567
_cell_length_c 16.400748
_cell_angle_alpha 90.000000
_cell_angle_beta 75.720653
_cell_angle_gamma 90.000000
_cell_volume 1946.785181
_symmetry_space_group_name_H-M "C 2/C"
_symmetry_group_IT_number 15
_symmetry_cell_setting 'monoclinic'
loop_
_space_group_symop_operation_xyz
x,y,z
-x,y,1/2-z
-x,-y,-z
x,-y,1/2+z
1/2+x,1/2+y,z
1/2-x,1/2+y,1/2-z
1/2-x,1/2-y,-z
1/2+x,1/2-y,1/2+z
loop_
_atom_site_type_symbol
_atom_site_label
_atom_site_fract_x
_atom_site_fract_y
_atom_site_fract_z
Si Si1 0.386215 0.928315 0.613499
Si Si2 0.168301 0.751172 0.984795
Si Si3 0.206817 0.044211 0.834799
Si Si4 0.000000 0.075002 0.250000
Si Si5 0.355100 0.224717 0.759821
Si Si6 0.486884 0.365926 0.423134
O O1 0.332782 0.756668 0.662958
O O2 0.468535 0.839830 0.571952
O O3 0.349443 0.029260 0.543639
O O4 0.394329 0.105190 0.676009
O O5 0.168602 0.924202 0.917641
O O6 0.250000 0.750000 0.000000
O O7 0.101500 0.814880 0.064812
O O8 0.296573 0.081183 0.824181
O O9 0.193781 0.916405 0.756297
O O10 0.074146 0.203852 0.205610
O O11 0.981973 0.953217 0.171643
O O12 0.500000 0.500000 0.500000
#
# Coordination Sequence:
#
# PCOD8152604 Si02
#       6
#     8   8   8   4   8   8
#     4  11  23  45  74  96 143 202 231 289 380 421
#     4  11  27  42  68 108 136 186 249 297 362 429
#     4  11  22  43  70  98 143 189 234 295 367 431
#     4  12  28  44  74 114 142 188 254 300 354 436
#     4  11  24  43  70 107 139 183 246 297 355 433
#     4  12  25  50  73 100 154 191 236 301 363 435
#
# _framework density 22.601362999999999
#
# number of rings (size 3 to 8) (size 9 to 14) (size 15 to 20)
#    0.000    0.727    5.455    1.636    2.545    5.818 
#    0.000    0.000    0.000    0.000    0.000    0.000 
#    0.000    0.000    0.000    0.000    0.000    0.000 
#
# Total GULP energy -272699.166548 kJ/mol
# GULP energy per Si atom -12395.416661 kJ/mol
# Density = 2.254992 g / cm^3
# Si number density = 22.601363 Si / 1000 Ang^3
#
#
#
# Elastic Constant Matrix: (Units=GPa)
#
#
# Indices 1 2 3 4 5 6 
#
# 1 167.0060 48.6229 30.8982 0.0000 -28.6521 0.0000
# 2 48.6229 115.0938 29.8569 0.0000 -4.3619 0.0000
# 3 30.8982 29.8569 80.2090 0.0000 -7.2852 0.0000
# 4 0.0000 0.0000 0.0000 18.2262 0.0000 -11.8390
# 5 -28.6521 -4.3619 -7.2852 0.0000 43.6018 0.0000
# 6 0.0000 0.0000 0.0000 -11.8390 0.0000 47.0335
#
#
#
# Elastic Compliance Matrix: (Units=1/GPa)
#
#
# Indices 1 2 3 4 5 6 
#
# 1 0.007875 -0.002738 -0.001593 0.000000 0.004635 0.000000
# 2 -0.002738 0.010575 -0.002995 0.000000 -0.001242 0.000000
# 3 -0.001593 -0.002995 0.014290 0.000000 0.001041 0.000000
# 4 0.000000 0.000000 0.000000 0.065590 0.000000 0.016510
# 5 0.004635 -0.001242 0.001041 0.000000 0.026030 0.000000
# 6 0.000000 0.000000 0.000000 0.016510 0.000000 0.025417
#
#
# Mechanical properties :
#
#
# Convention : Reuss Voigt Hill
#
# Bulk Modulus (GPa) = 55.28315 64.56276 59.92295
# Shear Modulus (GPa) = 29.33257 38.63437 33.98347
#
# Velocity S-wave (km/s) = 3.60644 4.13895 3.88184
# Velocity P-wave (km/s) = 6.46955 7.17420 6.83097
#
# Compressibility (1/GPa) = 0.01808869
#
# Stress axis : x y z
#
# Youngs Moduli (GPa) = 126.98625 94.56296 69.97659
#
# Poissons Ratio (x) = 0.25890 0.11151
# Poissons Ratio (y) = 0.34767 0.20955
# Poissons Ratio (z) = 0.20235 0.28317
#
# Static dielectric constant tensor:
#      x y z
#    x 4.235820 0.000000 -0.195000 
#    y 0.000000 4.295470 0.000000 
#    z -0.195000 0.000000 3.970260 
# 
# 
# High freq. dielectric constant tensor:
#      x y z
#    x 1.902700 0.000000 -0.028030 
#    y 0.000000 1.901860 0.000000 
#    z -0.028030 0.000000 1.871280 
# 
# From -- ./inp_files/246398.got.cif
#   From: 2010.06.25/outbox.cif.g09.slc.cpg/sg15_124_cif.got.tgz:246398.got - 2010.06.28 07:06:18.
