data_PCOD8152345
_publ_section_title
;
Structure prediction by ZEFSAII (Michael W. Deem and Ramdas Pophale) SiO2 
 PCOD8152345
Probable space group: C 2/C
;
_chemical_formula_sum "Si O2"
_cell_formula_units_Z 64
_cell_length_a 6.271887
_cell_length_b 26.296601
_cell_length_c 27.001792
_cell_angle_alpha 90.000000
_cell_angle_beta 138.483131
_cell_angle_gamma 90.000000
_cell_volume 2951.885333
_symmetry_space_group_name_H-M "C 2/C"
_symmetry_group_IT_number 15
_symmetry_cell_setting 'monoclinic'
loop_
_space_group_symop_operation_xyz
x,y,z
-x,y,1/2-z
-x,-y,-z
x,-y,1/2+z
1/2+x,1/2+y,z
1/2-x,1/2+y,1/2-z
1/2-x,1/2-y,-z
1/2+x,1/2-y,1/2+z
loop_
_atom_site_type_symbol
_atom_site_label
_atom_site_fract_x
_atom_site_fract_y
_atom_site_fract_z
Si Si1 0.801238 0.673289 0.416723
Si Si2 0.718758 0.177978 0.585017
Si Si3 0.265301 0.102617 0.063201
Si Si4 0.099853 0.646454 0.821695
Si Si5 0.447075 0.912588 0.092205
Si Si6 0.627816 0.985272 0.575180
Si Si7 0.702876 0.416539 0.662143
Si Si8 0.673115 0.238971 0.673082
O O1 0.525827 0.631175 0.369267
O O2 0.633432 0.725212 0.369927
O O3 0.942175 0.682284 0.495850
O O4 0.082480 0.657214 0.426603
O O5 0.703105 0.125720 0.613285
O O6 0.692166 0.225762 0.617796
O O7 0.058672 0.174973 0.616554
O O8 0.407735 0.061844 0.050741
O O9 0.359392 0.087330 0.135066
O O10 0.882739 0.101256 0.992881
O O11 0.094174 0.596780 0.856150
O O12 0.000000 0.627919 0.750000
O O13 0.850122 0.687984 0.798236
O O14 0.574624 0.969491 0.105305
O O15 0.000939 0.968556 0.636199
O O16 0.500000 0.000000 0.500000
O O17 0.000000 0.415895 0.750000
O O18 0.000000 0.265882 0.750000
#
# Coordination Sequence:
#
# PCOD8152345 Si02
#       8
#     8   8   8   8   8   8   8   8
#     4  11  23  41  67 103 125 176 228 272 334 410
#     4  11  22  42  66  94 134 169 227 283 327 397
#     4  11  22  42  70  97 132 170 222 275 328 399
#     4  11  24  43  65  94 140 175 218 289 336 394
#     4  11  22  40  70  97 127 176 226 270 338 400
#     4  11  23  40  72  99 127 174 228 269 327 406
#     4  11  25  45  66  95 143 172 215 287 337 390
#     4  11  24  42  65  95 136 179 221 274 344 403
#
# _framework density 21.681058
#
# number of rings (size 3 to 8) (size 9 to 14) (size 15 to 20)
#    0.000    1.000    5.000    1.875    0.000    3.500 
#    2.250    3.750    0.000    0.000    0.000    0.000 
#    0.000    0.000    0.000    0.000    0.000    0.000 
#
# Total GULP energy -396850.864564 kJ/mol
# GULP energy per Si atom -12401.589518 kJ/mol
# Density = 2.163171 g / cm^3
# Si number density = 21.681058 Si / 1000 Ang^3
#
#
#
# Elastic Constant Matrix: (Units=GPa)
#
#
# Indices 1 2 3 4 5 6 
#
# 1 112.6050 40.5100 49.8096 0.0000 -13.8342 0.0000
# 2 40.5100 93.5731 42.3438 0.0000 -5.4808 0.0000
# 3 49.8096 42.3438 161.8323 0.0000 -14.6737 0.0000
# 4 0.0000 0.0000 0.0000 21.2166 0.0000 8.3527
# 5 -13.8342 -5.4808 -14.6737 0.0000 40.0111 0.0000
# 6 0.0000 0.0000 0.0000 8.3527 0.0000 43.8133
#
#
#
# Elastic Compliance Matrix: (Units=1/GPa)
#
#
# Indices 1 2 3 4 5 6 
#
# 1 0.011610 -0.003815 -0.002336 0.000000 0.002635 0.000000
# 2 -0.003815 0.013386 -0.002360 0.000000 -0.000351 0.000000
# 3 -0.002336 -0.002360 0.007668 0.000000 0.001681 0.000000
# 4 0.000000 0.000000 0.000000 0.050957 0.000000 -0.009715
# 5 0.002635 -0.000351 0.001681 0.000000 0.026473 0.000000
# 6 0.000000 0.000000 0.000000 -0.009715 0.000000 0.024676
#
#
# Mechanical properties :
#
#
# Convention : Reuss Voigt Hill
#
# Bulk Modulus (GPa) = 63.93137 70.37081 67.15109
# Shear Modulus (GPa) = 31.84576 36.69800 34.27188
#
# Velocity S-wave (km/s) = 3.83669 4.11862 3.98015
# Velocity P-wave (km/s) = 7.01271 7.42598 7.22230
#
# Compressibility (1/GPa) = 0.01564177
#
# Stress axis : x y z
#
# Youngs Moduli (GPa) = 86.13160 74.70625 130.40690
#
# Poissons Ratio (x) = 0.28498 0.30468
# Poissons Ratio (y) = 0.32857 0.30778
# Poissons Ratio (z) = 0.20124 0.17632
#
# Static dielectric constant tensor:
#      x y z
#    x 5.004220 0.000000 0.094650 
#    y 0.000000 3.945220 0.000000 
#    z 0.094650 0.000000 3.836980 
# 
# 
# High freq. dielectric constant tensor:
#      x y z
#    x 1.865500 0.000000 0.002840 
#    y 0.000000 1.839390 0.000000 
#    z 0.002840 0.000000 1.853180 
# 
# From -- ./inp_files/286786.got.cif
#   From: 2010.06.25/outbox.cif.g09.slc.cpg/sg15_144_cif.got.tgz:286786.got - 2010.06.28 07:06:18.
