data_PCOD8152163
_publ_section_title
;
Structure prediction by ZEFSAII (Michael W. Deem and Ramdas Pophale) SiO2 
 PCOD8152163
Probable space group: C 2/C
;
_chemical_formula_sum "Si O2"
_cell_formula_units_Z 48
_cell_length_a 13.412782
_cell_length_b 18.108715
_cell_length_c 15.205216
_cell_angle_alpha 90.000000
_cell_angle_beta 36.783913
_cell_angle_gamma 90.000000
_cell_volume 2211.464543
_symmetry_space_group_name_H-M "C 2/C"
_symmetry_group_IT_number 15
_symmetry_cell_setting 'monoclinic'
loop_
_space_group_symop_operation_xyz
x,y,z
-x,y,1/2-z
-x,-y,-z
x,-y,1/2+z
1/2+x,1/2+y,z
1/2-x,1/2+y,1/2-z
1/2-x,1/2-y,-z
1/2+x,1/2-y,1/2+z
loop_
_atom_site_type_symbol
_atom_site_label
_atom_site_fract_x
_atom_site_fract_y
_atom_site_fract_z
Si Si1 0.320191 0.752644 0.856162
Si Si2 0.780111 0.095828 0.146835
Si Si3 0.399287 0.199212 0.637083
Si Si4 0.624922 0.938878 0.941581
Si Si5 0.394472 0.340099 0.029701
Si Si6 0.812330 0.459262 0.411216
O O1 0.500000 0.718888 0.750000
O O2 0.330909 0.834026 0.804210
O O3 0.200472 0.700564 0.883926
O O4 0.250000 0.750000 0.000000
O O5 0.746955 0.078152 0.273695
O O6 0.739220 0.029195 0.110914
O O7 0.976647 0.114459 0.999174
O O8 0.528340 0.132903 0.543615
O O9 0.501742 0.273390 0.586858
O O10 0.259205 0.192488 0.808882
O O11 0.710595 0.973913 0.968231
O O12 0.500000 0.000000 0.000000
O O13 0.316830 0.392951 0.011781
O O14 0.000000 0.436995 0.250000
#
# Coordination Sequence:
#
# PCOD8152163 Si02
#       6
#     8   8   8   8   8   8
#     4  11  22  38  66  99 133 182 228 283 357 410
#     4  11  24  45  70 104 144 178 234 300 346 426
#     4  11  23  43  66 100 141 181 233 298 344 416
#     4  12  25  44  72 101 142 189 234 290 359 416
#     4  11  24  46  71 100 141 182 234 297 348 418
#     4  12  24  45  72 103 139 189 234 283 356 420
#
# _framework density 21.705072999999999
#
# number of rings (size 3 to 8) (size 9 to 14) (size 15 to 20)
#    0.000    0.667    3.333    6.000    2.333    1.333 
#    0.000    0.000    0.000    0.000    0.000    0.000 
#    0.000    0.000    0.000    0.000    0.000    0.000 
#
# Total GULP energy -297454.613383 kJ/mol
# GULP energy per Si atom -12393.942224 kJ/mol
# Density = 2.165567 g / cm^3
# Si number density = 21.705073 Si / 1000 Ang^3
#
#
#
# Elastic Constant Matrix: (Units=GPa)
#
#
# Indices 1 2 3 4 5 6 
#
# 1 116.3726 41.0317 38.5530 0.0046 11.0418 -0.0026
# 2 41.0317 86.7266 30.8770 0.0068 -7.5168 -0.0015
# 3 38.5530 30.8770 103.2938 -0.0023 9.9677 -0.0015
# 4 0.0046 0.0068 -0.0023 27.6334 -0.0018 6.2591
# 5 11.0418 -7.5168 9.9677 -0.0018 51.3730 0.0027
# 6 -0.0026 -0.0015 -0.0015 6.2591 0.0027 21.0071
#
#
#
# Elastic Compliance Matrix: (Units=1/GPa)
#
#
# Indices 1 2 3 4 5 6 
#
# 1 0.011346 -0.004675 -0.002584 -0.000001 -0.002621 0.000002
# 2 -0.004675 0.015205 -0.003171 -0.000003 0.003845 0.000001
# 3 -0.002584 -0.003171 0.011806 0.000002 -0.002199 0.000000
# 4 -0.000001 -0.000003 0.000002 0.038807 0.000001 -0.011563
# 5 -0.002621 0.003845 -0.002199 0.000001 0.021018 -0.000003
# 6 0.000002 0.000001 0.000000 -0.011563 -0.000003 0.051048
#
#
# Mechanical properties :
#
#
# Convention : Reuss Voigt Hill
#
# Bulk Modulus (GPa) = 57.15771 58.59072 57.87421
# Shear Modulus (GPa) = 28.42144 33.06480 30.74312
#
# Velocity S-wave (km/s) = 3.62254 3.90727 3.76760
# Velocity P-wave (km/s) = 6.62480 6.88537 6.75634
#
# Compressibility (1/GPa) = 0.01749545
#
# Stress axis : x y z
#
# Youngs Moduli (GPa) = 88.13337 65.76929 84.70385
#
# Poissons Ratio (x) = 0.30749 0.21891
# Poissons Ratio (y) = 0.41205 0.26860
# Poissons Ratio (z) = 0.22777 0.20856
#
# Static dielectric constant tensor:
#      x y z
#    x 4.270030 0.000040 -0.011280 
#    y 0.000040 5.097890 -0.000020 
#    z -0.011280 -0.000020 3.835500 
# 
# 
# High freq. dielectric constant tensor:
#      x y z
#    x 1.866350 0.000000 -0.005290 
#    y 0.000000 1.856010 0.000000 
#    z -0.005290 0.000000 1.854810 
# 
# From -- ./inp_files/147350.got.cif
#   From: 2010.06.25/outbox.cif.g09.slc.cpg/sg15_74_cif.got.tgz:147350.got - 2010.06.28 07:06:18.
