data_PCOD8152823
_publ_section_title
;
Structure prediction by ZEFSAII (Michael W. Deem and Ramdas Pophale) SiO2 
 PCOD8152823
Probable space group: C 2/C
;
_chemical_formula_sum "Si O2"
_cell_formula_units_Z 48
_cell_length_a 16.933866
_cell_length_b 16.491675
_cell_length_c 19.070831
_cell_angle_alpha 90.000000
_cell_angle_beta 24.709262
_cell_angle_gamma 90.000000
_cell_volume 2226.287559
_symmetry_space_group_name_H-M "C 2/C"
_symmetry_group_IT_number 15
_symmetry_cell_setting 'monoclinic'
loop_
_space_group_symop_operation_xyz
x,y,z
-x,y,1/2-z
-x,-y,-z
x,-y,1/2+z
1/2+x,1/2+y,z
1/2-x,1/2+y,1/2-z
1/2-x,1/2-y,-z
1/2+x,1/2-y,1/2+z
loop_
_atom_site_type_symbol
_atom_site_label
_atom_site_fract_x
_atom_site_fract_y
_atom_site_fract_z
Si Si1 0.716462 0.003687 0.053244
Si Si2 0.504637 0.438252 0.431151
Si Si3 0.280082 0.827627 0.428686
Si Si4 0.164055 0.472400 0.442368
Si Si5 0.893000 0.368428 0.582532
Si Si6 0.989381 0.199097 0.046846
O O1 0.500000 0.003642 0.250000
O O2 0.803650 0.912776 0.975420
O O3 0.826100 0.052320 0.024503
O O4 0.743545 0.046150 0.955605
O O5 0.500000 0.500000 0.500000
O O6 0.691953 0.450803 0.235292
O O7 0.501991 0.347188 0.462772
O O8 0.500000 0.841530 0.250000
O O9 0.250000 0.750000 0.500000
O O10 0.186305 0.813090 0.428986
O O11 0.115868 0.568628 0.475613
O O12 0.976876 0.417723 0.581481
O O13 0.686229 0.333370 0.766360
O O14 0.033264 0.294860 0.449539
#
# Coordination Sequence:
#
# PCOD8152823 Si02
#       6
#     8   8   8   8   8   8
#     4  11  24  41  65  95 132 174 224 276 334 397
#     4  12  23  43  69  96 134 176 225 271 334 403
#     4  11  23  37  60  92 135 170 217 269 337 395
#     4  11  24  43  68  99 133 178 227 275 336 405
#     4  11  24  40  68  97 137 173 228 268 344 393
#     4  12  23  42  64  99 135 179 221 282 330 403
#
# _framework density 21.560556999999999
#
# number of rings (size 3 to 8) (size 9 to 14) (size 15 to 20)
#    0.000    0.667    3.333    4.500    2.333    2.667 
#    0.000    0.833    0.000    0.000    0.000    0.000 
#    0.000    0.000    0.000    0.000    0.000    0.000 
#
# Total GULP energy -297582.232632 kJ/mol
# GULP energy per Si atom -12399.259693 kJ/mol
# Density = 2.151148 g / cm^3
# Si number density = 21.560557 Si / 1000 Ang^3
#
#
#
# Elastic Constant Matrix: (Units=GPa)
#
#
# Indices 1 2 3 4 5 6 
#
# 1 187.0717 58.2529 41.8437 0.0122 -7.2018 -0.0005
# 2 58.2529 124.2364 38.7262 0.0624 -14.0970 0.0193
# 3 41.8437 38.7262 74.6979 0.0803 -2.1911 -0.0159
# 4 0.0122 0.0624 0.0803 32.2000 -0.0040 -2.7587
# 5 -7.2018 -14.0970 -2.1911 -0.0040 34.3709 -0.0020
# 6 -0.0005 0.0193 -0.0159 -2.7587 -0.0020 28.5362
#
#
#
# Elastic Compliance Matrix: (Units=1/GPa)
#
#
# Indices 1 2 3 4 5 6 
#
# 1 0.006634 -0.002293 -0.002519 0.000008 0.000289 0.000001
# 2 -0.002293 0.010867 -0.004241 -0.000010 0.003706 -0.000010
# 3 -0.002519 -0.004241 0.016962 -0.000032 -0.001186 0.000009
# 4 0.000008 -0.000010 -0.000032 0.031315 -0.000001 0.003027
# 5 0.000289 0.003706 -0.001186 -0.000001 0.030599 -0.000001
# 6 0.000001 -0.000010 0.000009 0.003027 -0.000001 0.035336
#
#
# Mechanical properties :
#
#
# Convention : Reuss Voigt Hill
#
# Bulk Modulus (GPa) = 61.13229 73.73907 67.43568
# Shear Modulus (GPa) = 32.20176 35.50029 33.85102
#
# Velocity S-wave (km/s) = 3.86884 4.06216 3.96668
# Velocity P-wave (km/s) = 6.95504 7.50178 7.23357
#
# Compressibility (1/GPa) = 0.01635797
#
# Stress axis : x y z
#
# Youngs Moduli (GPa) = 150.73755 92.02563 58.95451
#
# Poissons Ratio (x) = 0.21097 0.14852
# Poissons Ratio (y) = 0.34557 0.25001
# Poissons Ratio (z) = 0.37974 0.39025
#
# Static dielectric constant tensor:
#      x y z
#    x 4.045020 -0.001210 -0.130820 
#    y -0.001210 2.443280 0.002210 
#    z -0.130820 0.002210 3.688040 
# 
# 
# High freq. dielectric constant tensor:
#      x y z
#    x 1.849960 0.000000 -0.011340 
#    y 0.000000 1.845940 0.000020 
#    z -0.011340 0.000020 1.848720 
# 
# From -- ./inp_files/206390.got.cif
#   From: 2010.06.25/outbox.cif.g09.slc.cpg/sg15_104_cif.got.tgz:206390.got - 2010.06.28 07:06:18.
