data_PCOD8152793
_publ_section_title
;
Structure prediction by ZEFSAII (Michael W. Deem and Ramdas Pophale) SiO2 
 PCOD8152793
Probable space group: C 2/C
;
_chemical_formula_sum "Si O2"
_cell_formula_units_Z 56
_cell_length_a 15.423528
_cell_length_b 11.421461
_cell_length_c 13.498988
_cell_angle_alpha 90.000000
_cell_angle_beta 101.116966
_cell_angle_gamma 90.000000
_cell_volume 2333.350071
_symmetry_space_group_name_H-M "C 2/C"
_symmetry_group_IT_number 15
_symmetry_cell_setting 'monoclinic'
loop_
_space_group_symop_operation_xyz
x,y,z
-x,y,1/2-z
-x,-y,-z
x,-y,1/2+z
1/2+x,1/2+y,z
1/2-x,1/2+y,1/2-z
1/2-x,1/2-y,-z
1/2+x,1/2-y,1/2+z
loop_
_atom_site_type_symbol
_atom_site_label
_atom_site_fract_x
_atom_site_fract_y
_atom_site_fract_z
Si Si1 0.489831 0.868136 0.958603
Si Si2 0.208390 0.061757 0.835203
Si Si3 0.500000 0.694546 0.250000
Si Si4 0.354672 0.886678 0.218507
Si Si5 0.500000 0.931273 0.750000
Si Si6 0.931198 0.005266 0.360335
Si Si7 0.199971 0.631086 0.007712
Si Si8 0.582828 0.648648 0.962771
O O1 0.516334 0.853073 0.849208
O O2 0.562467 0.773540 0.014960
O O3 0.391475 0.829185 0.961705
O O4 0.500000 0.000000 0.000000
O O5 0.139574 0.010358 0.741452
O O6 0.281976 0.131295 0.788216
O O7 0.160581 0.154735 0.897643
O O8 0.249192 0.955776 0.907612
O O9 0.410986 0.769249 0.217833
O O10 0.496842 0.611389 0.345321
O O11 0.314537 0.926207 0.103693
O O12 0.417732 0.990625 0.267101
O O13 0.885839 0.049118 0.452230
O O14 0.989999 0.889859 0.390789
O O15 0.250000 0.750000 0.000000
#
# Coordination Sequence:
#
# PCOD8152793 Si02
#       8
#     8   8   4   8   4   8   8   8
#     4  12  27  51  76 104 143 196 252 297 364 441
#     4  12  25  48  69 114 148 186 245 309 366 429
#     4  11  22  47  76 102 138 199 243 290 362 448
#     4  11  25  44  75 105 146 187 244 299 361 431
#     4  11  24  47  76 102 140 197 241 296 364 432
#     4  11  24  47  73 105 145 194 238 291 366 439
#     4  12  27  45  74 107 147 194 242 302 366 435
#     4  11  27  45  76 105 147 190 245 302 360 431
#
# _framework density 23.999827
#
# number of rings (size 3 to 8) (size 9 to 14) (size 15 to 20)
#    0.000    0.571    4.286    2.571   10.000    0.000 
#    2.571    1.429    0.000    0.000    0.000    0.000 
#    0.000    0.000    0.000    0.000    0.000    0.000 
#
# Total GULP energy -347096.517258 kJ/mol
# GULP energy per Si atom -12396.304188 kJ/mol
# Density = 2.394520 g / cm^3
# Si number density = 23.999827 Si / 1000 Ang^3
#
#
#
# Elastic Constant Matrix: (Units=GPa)
#
#
# Indices 1 2 3 4 5 6 
#
# 1 137.7766 48.5038 44.4948 0.0000 -34.0396 0.0000
# 2 48.5038 97.9930 20.3080 0.0000 -10.1227 0.0000
# 3 44.4948 20.3080 111.1275 0.0000 -13.9834 0.0000
# 4 0.0000 0.0000 0.0000 36.1497 0.0000 -6.6458
# 5 -34.0396 -10.1227 -13.9834 0.0000 51.3884 0.0000
# 6 0.0000 0.0000 0.0000 -6.6458 0.0000 25.1902
#
#
#
# Elastic Compliance Matrix: (Units=1/GPa)
#
#
# Indices 1 2 3 4 5 6 
#
# 1 0.011146 -0.004313 -0.002954 0.000000 0.005730 0.000000
# 2 -0.004313 0.012407 -0.000613 0.000000 -0.000580 0.000000
# 3 -0.002954 -0.000613 0.010388 0.000000 0.000749 0.000000
# 4 0.000000 0.000000 0.000000 0.029073 0.000000 0.007670
# 5 0.005730 -0.000580 0.000749 0.000000 0.023345 0.000000
# 6 0.000000 0.000000 0.000000 0.007670 0.000000 0.041722
#
#
# Mechanical properties :
#
#
# Convention : Reuss Voigt Hill
#
# Bulk Modulus (GPa) = 55.00377 63.72336 59.36356
# Shear Modulus (GPa) = 33.35566 38.11837 35.73701
#
# Velocity S-wave (km/s) = 3.73209 3.98964 3.86301
# Velocity P-wave (km/s) = 6.44511 6.91608 6.68475
#
# Compressibility (1/GPa) = 0.01818057
#
# Stress axis : x y z
#
# Youngs Moduli (GPa) = 89.71843 80.60088 96.26802
#
# Poissons Ratio (x) = 0.34763 0.28434
# Poissons Ratio (y) = 0.38695 0.05905
# Poissons Ratio (z) = 0.26499 0.04944
#
# Static dielectric constant tensor:
#      x y z
#    x 4.564550 0.000000 -0.100670 
#    y 0.000000 4.032980 0.000000 
#    z -0.100670 0.000000 4.514340 
# 
# 
# High freq. dielectric constant tensor:
#      x y z
#    x 1.951730 0.000000 -0.014390 
#    y 0.000000 1.944640 0.000000 
#    z -0.014390 0.000000 1.972720 
# 
# From -- ./inp_files/152644.got.cif
#   From: 2010.06.25/outbox.cif.g09.slc.cpg/sg15_77_cif.got.tgz:152644.got - 2010.06.28 07:06:18.
