data_PCOD8152833
_publ_section_title
;
Structure prediction by ZEFSAII (Michael W. Deem and Ramdas Pophale) SiO2 
 PCOD8152833
Probable space group: C 2/C
;
_chemical_formula_sum "Si O2"
_cell_formula_units_Z 40
_cell_length_a 13.177265
_cell_length_b 10.835513
_cell_length_c 18.117340
_cell_angle_alpha 90.000000
_cell_angle_beta 50.804080
_cell_angle_gamma 90.000000
_cell_volume 2004.772086
_symmetry_space_group_name_H-M "C 2/C"
_symmetry_group_IT_number 15
_symmetry_cell_setting 'monoclinic'
loop_
_space_group_symop_operation_xyz
x,y,z
-x,y,1/2-z
-x,-y,-z
x,-y,1/2+z
1/2+x,1/2+y,z
1/2-x,1/2+y,1/2-z
1/2-x,1/2-y,-z
1/2+x,1/2-y,1/2+z
loop_
_atom_site_type_symbol
_atom_site_label
_atom_site_fract_x
_atom_site_fract_y
_atom_site_fract_z
Si Si1 0.971846 0.858436 0.013938
Si Si2 0.953102 0.194070 0.175204
Si Si3 0.500000 0.466384 0.250000
Si Si4 0.000000 0.565781 0.250000
Si Si5 0.175763 0.659180 0.659324
Si Si6 0.104326 0.230187 0.598080
O O1 0.820796 0.840549 0.061588
O O2 0.009601 0.800693 0.073951
O O3 0.053782 0.798360 0.909646
O O4 0.000000 0.000000 0.000000
O O5 0.825105 0.265860 0.262913
O O6 0.943912 0.053613 0.210573
O O7 0.081507 0.267539 0.145889
O O8 0.393816 0.377917 0.340196
O O9 0.872634 0.479043 0.298831
O O10 0.962685 0.647667 0.338009
O O11 0.250000 0.250000 0.500000
#
# Coordination Sequence:
#
# PCOD8152833 Si02
#       6
#     8   8   4   4   8   8
#     4  12  22  36  63  94 115 156 206 242 294 360
#     4   9  20  41  63  87 117 157 202 245 299 351
#     4   9  19  40  58  88 113 165 190 244 300 343
#     4   9  21  42  58  86 121 163 188 250 308 347
#     4   9  21  41  63  83 123 157 198 249 298 352
#     4  11  23  38  60  88 129 158 196 244 306 358
#
# _framework density 19.952390999999999
#
# number of rings (size 3 to 8) (size 9 to 14) (size 15 to 20)
#    0.000    2.400    2.000    1.800    0.000    4.800 
#    3.600    4.000    0.000    0.000    0.000    0.000 
#    0.000    0.000    0.000    0.000    0.000    0.000 
#
# Total GULP energy -247767.881565 kJ/mol
# GULP energy per Si atom -12388.394078 kJ/mol
# Density = 1.990698 g / cm^3
# Si number density = 19.952391 Si / 1000 Ang^3
#
#
#
# Elastic Constant Matrix: (Units=GPa)
#
#
# Indices 1 2 3 4 5 6 
#
# 1 47.8920 24.0386 29.5891 0.0000 6.2192 0.0000
# 2 24.0386 133.2702 58.1960 0.0000 11.7917 0.0000
# 3 29.5891 58.1960 130.4018 0.0000 20.1329 0.0000
# 4 0.0000 0.0000 0.0000 36.5378 0.0000 -2.2155
# 5 6.2192 11.7917 20.1329 0.0000 25.1286 0.0000
# 6 0.0000 0.0000 0.0000 -2.2155 0.0000 11.4555
#
#
#
# Elastic Compliance Matrix: (Units=1/GPa)
#
#
# Indices 1 2 3 4 5 6 
#
# 1 0.025001 -0.002483 -0.004324 0.000000 -0.001558 0.000000
# 2 -0.002483 0.009598 -0.003560 0.000000 -0.001037 0.000000
# 3 -0.004324 -0.003560 0.011201 0.000000 -0.006233 0.000000
# 4 0.000000 0.000000 0.000000 0.027694 0.000000 0.005356
# 5 -0.001558 -0.001037 -0.006233 0.000000 0.045662 0.000000
# 6 0.000000 0.000000 0.000000 0.005356 0.000000 0.088330
#
#
# Mechanical properties :
#
#
# Convention : Reuss Voigt Hill
#
# Bulk Modulus (GPa) = 39.89645 59.46794 49.68219
# Shear Modulus (GPa) = 21.13506 27.94040 24.53773
#
# Velocity S-wave (km/s) = 3.25818 3.74619 3.51067
# Velocity P-wave (km/s) = 5.84753 6.97005 6.43331
#
# Compressibility (1/GPa) = 0.02506489
#
# Stress axis : x y z
#
# Youngs Moduli (GPa) = 39.99898 104.19176 89.27987
#
# Poissons Ratio (x) = 0.25876 0.38604
# Poissons Ratio (y) = 0.09934 0.31780
# Poissons Ratio (z) = 0.17295 0.37088
#
# Static dielectric constant tensor:
#      x y z
#    x 2.900520 0.000000 -0.251620 
#    y 0.000000 3.917340 0.000000 
#    z -0.251620 0.000000 3.386240 
# 
# 
# High freq. dielectric constant tensor:
#      x y z
#    x 1.738530 0.000000 0.004990 
#    y 0.000000 1.793570 0.000000 
#    z 0.004990 0.000000 1.802190 
# 
# From -- ./inp_files/203416.got.cif
#   From: 2010.06.25/outbox.cif.g09.slc.cpg/sg15_102_cif.got.tgz:203416.got - 2010.06.28 07:06:18.
