data_PCOD8152975
_publ_section_title
;
Structure prediction by ZEFSAII (Michael W. Deem and Ramdas Pophale) SiO2 
 PCOD8152975
Probable space group: C 2/C
;
_chemical_formula_sum "Si O2"
_cell_formula_units_Z 36
_cell_length_a 5.326764
_cell_length_b 25.750997
_cell_length_c 11.483882
_cell_angle_alpha 90.000000
_cell_angle_beta 91.813949
_cell_angle_gamma 90.000000
_cell_volume 1574.448788
_symmetry_space_group_name_H-M "C 2/C"
_symmetry_group_IT_number 15
_symmetry_cell_setting 'monoclinic'
loop_
_space_group_symop_operation_xyz
x,y,z
-x,y,1/2-z
-x,-y,-z
x,-y,1/2+z
1/2+x,1/2+y,z
1/2-x,1/2+y,1/2-z
1/2-x,1/2-y,-z
1/2+x,1/2-y,1/2+z
loop_
_atom_site_type_symbol
_atom_site_label
_atom_site_fract_x
_atom_site_fract_y
_atom_site_fract_z
Si Si1 0.286726 0.208534 0.827335
Si Si2 0.502346 0.561270 0.996024
Si Si3 0.520276 0.898401 0.617778
Si Si4 0.455516 0.783299 0.935900
Si Si5 0.000000 0.113920 0.750000
O O1 0.500000 0.235786 0.750000
O O2 0.236057 0.152792 0.767755
O O3 0.050687 0.247652 0.830540
O O4 0.343473 0.200302 0.963711
O O5 0.463117 0.578723 0.862170
O O6 0.500000 0.500000 0.000000
O O7 0.251600 0.573317 0.062332
O O8 0.754694 0.587881 0.051314
O O9 0.500000 0.917661 0.750000
O O10 0.614199 0.838500 0.619685
O O11 0.250000 0.750000 0.000000
#
# Coordination Sequence:
#
# PCOD8152975 Si02
#       5
#     8   8   8   8   4
#     4  11  23  41  69 104 146 195 252 300 375 457
#     4  12  29  54  81 113 148 208 265 332 398 456
#     4  12  28  50  77 116 160 198 256 325 395 470
#     4  11  25  43  67 109 153 200 252 300 379 471
#     4  12  26  48  78 108 158 192 270 324 382 480
#
# _framework density 22.865141999999999
#
# number of rings (size 3 to 8) (size 9 to 14) (size 15 to 20)
#    0.000    0.444    2.222    5.333   10.889    0.000 
#    0.000    0.000    0.000    0.000    0.000    0.000 
#    0.000    0.000    0.000    0.000    0.000    0.000 
#
# Total GULP energy -223019.773080 kJ/mol
# GULP energy per Si atom -12389.987393 kJ/mol
# Density = 2.281310 g / cm^3
# Si number density = 22.865142 Si / 1000 Ang^3
#
#
#
# Elastic Constant Matrix: (Units=GPa)
#
#
# Indices 1 2 3 4 5 6 
#
# 1 152.2102 48.3865 68.4041 0.0000 -31.1069 0.0000
# 2 48.3865 170.7986 73.3274 0.0000 -17.1308 0.0000
# 3 68.4041 73.3274 191.7173 0.0000 -17.1494 0.0000
# 4 0.0000 0.0000 0.0000 20.4438 0.0000 6.5075
# 5 -31.1069 -17.1308 -17.1494 0.0000 53.6000 0.0000
# 6 0.0000 0.0000 0.0000 6.5075 0.0000 31.7580
#
#
#
# Elastic Compliance Matrix: (Units=1/GPa)
#
#
# Indices 1 2 3 4 5 6 
#
# 1 0.008794 -0.001073 -0.002369 0.000000 0.004003 0.000000
# 2 -0.001073 0.007243 -0.002302 0.000000 0.000956 0.000000
# 3 -0.002369 -0.002302 0.006952 0.000000 0.000114 0.000000
# 4 0.000000 0.000000 0.000000 0.052328 0.000000 -0.010722
# 5 0.004003 0.000956 0.000114 0.000000 0.021321 0.000000
# 6 0.000000 0.000000 0.000000 -0.010722 0.000000 0.033685
#
#
# Mechanical properties :
#
#
# Convention : Reuss Voigt Hill
#
# Bulk Modulus (GPa) = 86.95107 99.44024 93.19565
# Shear Modulus (GPa) = 34.33024 42.80088 38.56556
#
# Velocity S-wave (km/s) = 3.87902 4.33122 4.11134
# Velocity P-wave (km/s) = 7.62711 8.28233 7.96146
#
# Compressibility (1/GPa) = 0.01150072
#
# Stress axis : x y z
#
# Youngs Moduli (GPa) = 113.71952 138.06643 143.84367
#
# Poissons Ratio (x) = 0.14809 0.34080
# Poissons Ratio (y) = 0.12197 0.33114
# Poissons Ratio (z) = 0.26943 0.31784
#
# Static dielectric constant tensor:
#      x y z
#    x 4.225030 0.000000 0.223800 
#    y 0.000000 4.373670 0.000000 
#    z 0.223800 0.000000 4.640670 
# 
# 
# High freq. dielectric constant tensor:
#      x y z
#    x 1.907650 0.000000 0.002340 
#    y 0.000000 1.900320 0.000000 
#    z 0.002340 0.000000 1.941070 
# 
# From -- ./inp_files/72576.got.cif
#   From: 2010.06.25/outbox.cif.g09.slc.cpg/sg15_37_cif.got.tgz:72576.got - 2010.06.28 07:06:18.
