data_PCOD8152329
_publ_section_title
;
Structure prediction by ZEFSAII (Michael W. Deem and Ramdas Pophale) SiO2 
 PCOD8152329
Probable space group: C 2/C
;
_chemical_formula_sum "Si O2"
_cell_formula_units_Z 56
_cell_length_a 18.293270
_cell_length_b 13.431671
_cell_length_c 14.798304
_cell_angle_alpha 90.000000
_cell_angle_beta 51.931992
_cell_angle_gamma 90.000000
_cell_volume 2862.610366
_symmetry_space_group_name_H-M "C 2/C"
_symmetry_group_IT_number 15
_symmetry_cell_setting 'monoclinic'
loop_
_space_group_symop_operation_xyz
x,y,z
-x,y,1/2-z
-x,-y,-z
x,-y,1/2+z
1/2+x,1/2+y,z
1/2-x,1/2+y,1/2-z
1/2-x,1/2-y,-z
1/2+x,1/2-y,1/2+z
loop_
_atom_site_type_symbol
_atom_site_label
_atom_site_fract_x
_atom_site_fract_y
_atom_site_fract_z
Si Si1 0.519569 0.734069 0.836441
Si Si2 0.795235 0.331713 0.737597
Si Si3 0.555738 0.480497 0.366582
Si Si4 0.765233 0.446605 0.263423
Si Si5 0.293085 0.284294 0.061329
Si Si6 0.999392 0.812326 0.649563
Si Si7 0.878186 0.716613 0.592791
O O1 0.500000 0.767377 0.750000
O O2 0.621934 0.767249 0.785526
O O3 0.510878 0.615205 0.852949
O O4 0.442983 0.788276 0.956099
O O5 0.813906 0.447472 0.742949
O O6 0.785204 0.306753 0.638438
O O7 0.699831 0.301863 0.860637
O O8 0.500000 0.500000 0.500000
O O9 0.663736 0.462454 0.300425
O O10 0.544508 0.577211 0.312364
O O11 0.761157 0.380730 0.358142
O O12 0.828262 0.389710 0.141885
O O13 0.250000 0.250000 0.000000
O O14 0.398838 0.317205 0.970229
O O15 0.000000 0.768058 0.750000
O O16 0.938355 0.738848 0.635925
#
# Coordination Sequence:
#
# PCOD8152329 Si02
#       7
#     8   8   8   8   8   8   8
#     4  12  25  44  63  92 133 177 217 267 329 395
#     4  11  22  45  65  91 135 170 216 274 331 392
#     4  12  19  41  67  94 129 166 217 281 324 379
#     4  11  22  40  68  95 129 172 213 265 339 384
#     4  11  23  43  66 101 134 167 221 281 328 396
#     4  12  22  38  68  99 126 171 219 272 336 387
#     4  11  22  43  67  91 133 169 215 277 321 390
#
# _framework density 19.562566
#
# number of rings (size 3 to 8) (size 9 to 14) (size 15 to 20)
#    0.000    0.571    8.571    2.143    0.000    1.143 
#    2.571    0.714    0.000    0.000    0.000    0.000 
#    0.000    0.000    0.000    0.000    0.000    0.000 
#
# Total GULP energy -347285.494436 kJ/mol
# GULP energy per Si atom -12403.053373 kJ/mol
# Density = 1.951804 g / cm^3
# Si number density = 19.562566 Si / 1000 Ang^3
#
#
#
# Elastic Constant Matrix: (Units=GPa)
#
#
# Indices 1 2 3 4 5 6 
#
# 1 109.6515 33.0970 60.5479 0.0000 1.1721 0.0000
# 2 33.0970 118.8628 29.1249 0.0000 3.1026 0.0000
# 3 60.5479 29.1249 117.0545 0.0000 4.9669 0.0000
# 4 0.0000 0.0000 0.0000 29.4493 0.0000 -8.4595
# 5 1.1721 3.1026 4.9669 0.0000 32.2930 0.0000
# 6 0.0000 0.0000 0.0000 -8.4595 0.0000 11.7209
#
#
#
# Elastic Compliance Matrix: (Units=1/GPa)
#
#
# Indices 1 2 3 4 5 6 
#
# 1 0.013275 -0.002156 -0.006360 0.000000 0.000704 0.000000
# 2 -0.002156 0.009318 -0.001176 0.000000 -0.000636 0.000000
# 3 -0.006360 -0.001176 0.012190 0.000000 -0.001531 0.000000
# 4 0.000000 0.000000 0.000000 0.042838 0.000000 0.030918
# 5 0.000704 -0.000636 -0.001531 0.000000 0.031238 0.000000
# 6 0.000000 0.000000 0.000000 0.030918 0.000000 0.107632
#
#
# Mechanical properties :
#
#
# Convention : Reuss Voigt Hill
#
# Bulk Modulus (GPa) = 64.94029 65.67871 65.30950
# Shear Modulus (GPa) = 20.74607 29.54592 25.14599
#
# Velocity S-wave (km/s) = 3.26006 3.89051 3.58916
# Velocity P-wave (km/s) = 6.88759 7.33676 7.11572
#
# Compressibility (1/GPa) = 0.01539876
#
# Stress axis : x y z
#
# Youngs Moduli (GPa) = 75.32925 107.31591 82.03160
#
# Poissons Ratio (x) = 0.23141 0.52172
# Poissons Ratio (y) = 0.16244 0.09648
# Poissons Ratio (z) = 0.47909 0.12622
#
# Static dielectric constant tensor:
#      x y z
#    x 3.672570 0.000000 -0.164630 
#    y 0.000000 3.817120 0.000000 
#    z -0.164630 0.000000 3.693020 
# 
# 
# High freq. dielectric constant tensor:
#      x y z
#    x 1.758200 0.000000 -0.015920 
#    y 0.000000 1.758230 0.000000 
#    z -0.015920 0.000000 1.769710 
# 
# From -- ./inp_files/162197.got.cif
#   From: 2010.06.25/outbox.cif.g09.slc.cpg/sg15_82_cif.got.tgz:162197.got - 2010.06.28 07:06:18.
