data_PCOD8152094
_publ_section_title
;
Structure prediction by ZEFSAII (Michael W. Deem and Ramdas Pophale) SiO2 
 PCOD8152094
Probable space group: C 2/C
;
_chemical_formula_sum "Si O2"
_cell_formula_units_Z 48
_cell_length_a 13.421262
_cell_length_b 14.622848
_cell_length_c 15.450916
_cell_angle_alpha 90.000000
_cell_angle_beta 125.600508
_cell_angle_gamma 90.000000
_cell_volume 2465.591717
_symmetry_space_group_name_H-M "C 2/C"
_symmetry_group_IT_number 15
_symmetry_cell_setting 'monoclinic'
loop_
_space_group_symop_operation_xyz
x,y,z
-x,y,1/2-z
-x,-y,-z
x,-y,1/2+z
1/2+x,1/2+y,z
1/2-x,1/2+y,1/2-z
1/2-x,1/2-y,-z
1/2+x,1/2-y,1/2+z
loop_
_atom_site_type_symbol
_atom_site_label
_atom_site_fract_x
_atom_site_fract_y
_atom_site_fract_z
Si Si1 0.691036 0.291316 0.055820
Si Si2 0.128524 0.994606 0.979164
Si Si3 0.802267 0.519405 0.910766
Si Si4 0.513097 0.857630 0.468507
Si Si5 0.091174 0.242355 0.225396
Si Si6 0.358838 0.449990 0.827928
O O1 0.792464 0.296511 0.180410
O O2 0.750000 0.250000 0.000000
O O3 0.638833 0.387478 0.001490
O O4 0.581651 0.230389 0.044182
O O5 0.200443 0.032479 0.932549
O O6 0.984610 0.009010 0.885147
O O7 0.180174 0.046012 0.090595
O O8 0.885453 0.611444 0.948698
O O9 0.740900 0.495803 0.786983
O O10 0.890736 0.439277 0.987472
O O11 0.483347 0.823482 0.357347
O O12 0.130755 0.157469 0.186420
O O13 0.000000 0.198566 0.250000
#
# Coordination Sequence:
#
# PCOD8152094 Si02
#       6
#     8   8   8   8   8   8
#     4  12  19  36  61  89 118 155 206 255 306 357
#     4  11  22  38  61  92 122 158 209 255 299 375
#     4  11  22  41  57  91 130 161 192 256 324 358
#     4  11  23  35  60  89 120 158 197 250 312 370
#     4  12  20  35  61  89 117 156 210 262 302 350
#     4  11  22  36  62  88 120 164 210 253 308 362
#
# _framework density 19.467943000000002
#
# number of rings (size 3 to 8) (size 9 to 14) (size 15 to 20)
#    0.000    0.667    6.667    2.500    0.000    0.000 
#    0.000    3.333    0.000    0.000    0.000    0.000 
#    0.000    0.000    0.000    0.000    0.000    0.000 
#
# Total GULP energy -297396.399861 kJ/mol
# GULP energy per Si atom -12391.516661 kJ/mol
# Density = 1.942363 g / cm^3
# Si number density = 19.467943 Si / 1000 Ang^3
#
#
#
# Elastic Constant Matrix: (Units=GPa)
#
#
# Indices 1 2 3 4 5 6 
#
# 1 77.0901 26.0222 30.2596 0.0000 0.7068 0.0000
# 2 26.0222 70.4741 17.4026 0.0000 -2.5168 0.0000
# 3 30.2596 17.4026 123.4955 0.0000 13.0595 0.0000
# 4 0.0000 0.0000 0.0000 30.9109 0.0000 2.7267
# 5 0.7068 -2.5168 13.0595 0.0000 33.9284 0.0000
# 6 0.0000 0.0000 0.0000 2.7267 0.0000 32.6315
#
#
#
# Elastic Compliance Matrix: (Units=1/GPa)
#
#
# Indices 1 2 3 4 5 6 
#
# 1 0.015954 -0.005069 -0.003252 0.000000 0.000544 0.000000
# 2 -0.005069 0.016439 -0.001266 0.000000 0.001812 0.000000
# 3 -0.003252 -0.001266 0.009461 0.000000 -0.003668 0.000000
# 4 0.000000 0.000000 0.000000 0.032591 0.000000 -0.002723
# 5 0.000544 0.001812 -0.003668 0.000000 0.031009 0.000000
# 6 0.000000 0.000000 0.000000 -0.002723 0.000000 0.030873
#
#
# Mechanical properties :
#
#
# Convention : Reuss Voigt Hill
#
# Bulk Modulus (GPa) = 44.09322 46.49205 45.29264
# Shear Modulus (GPa) = 30.66347 32.65254 31.65800
#
# Velocity S-wave (km/s) = 3.97303 4.09986 4.03694
# Velocity P-wave (km/s) = 6.61399 6.80772 6.71155
#
# Compressibility (1/GPa) = 0.02267922
#
# Stress axis : x y z
#
# Youngs Moduli (GPa) = 62.67850 60.83270 105.70055
#
# Poissons Ratio (x) = 0.30833 0.34379
# Poissons Ratio (y) = 0.31769 0.13384
# Poissons Ratio (z) = 0.20386 0.07703
#
# Static dielectric constant tensor:
#      x y z
#    x 4.025330 0.000000 0.289360 
#    y 0.000000 3.798470 0.000000 
#    z 0.289360 0.000000 3.996050 
# 
# 
# High freq. dielectric constant tensor:
#      x y z
#    x 1.743550 0.000000 0.023000 
#    y 0.000000 1.743010 0.000000 
#    z 0.023000 0.000000 1.780780 
# 
# From -- ./inp_files/144386.got.cif
#   From: 2010.06.25/outbox.cif.g09.slc.cpg/sg15_73_cif.got.tgz:144386.got - 2010.06.28 07:06:18.
