data_PCOD8152086
_publ_section_title
;
Structure prediction by ZEFSAII (Michael W. Deem and Ramdas Pophale) SiO2 
 PCOD8152086
Probable space group: C 2/C
;
_chemical_formula_sum "Si O2"
_cell_formula_units_Z 60
_cell_length_a 16.629518
_cell_length_b 22.527113
_cell_length_c 8.615249
_cell_angle_alpha 90.000000
_cell_angle_beta 121.649814
_cell_angle_gamma 90.000000
_cell_volume 2747.393693
_symmetry_space_group_name_H-M "C 2/C"
_symmetry_group_IT_number 15
_symmetry_cell_setting 'monoclinic'
loop_
_space_group_symop_operation_xyz
x,y,z
-x,y,1/2-z
-x,-y,-z
x,-y,1/2+z
1/2+x,1/2+y,z
1/2-x,1/2+y,1/2-z
1/2-x,1/2-y,-z
1/2+x,1/2-y,1/2+z
loop_
_atom_site_type_symbol
_atom_site_label
_atom_site_fract_x
_atom_site_fract_y
_atom_site_fract_z
Si Si1 0.627247 0.473383 0.131778
Si Si2 0.500000 0.533520 0.750000
Si Si3 0.269208 0.564874 0.046038
Si Si4 0.862974 0.378847 0.712409
Si Si5 0.594705 0.008203 0.760581
Si Si6 0.744440 0.687325 0.324969
Si Si7 0.102259 0.272581 0.298090
Si Si8 0.564658 0.121663 0.543027
O O1 0.575524 0.431687 0.214364
O O2 0.666232 0.529339 0.267692
O O3 0.552780 0.491611 0.925634
O O4 0.708848 0.440923 0.117958
O O5 0.281370 0.633785 0.087748
O O6 0.160552 0.543596 0.950031
O O7 0.848368 0.449084 0.735920
O O8 0.775802 0.340250 0.690861
O O9 0.864743 0.368750 0.529616
O O10 0.959671 0.357785 0.890896
O O11 0.500000 0.985353 0.750000
O O12 0.565717 0.052033 0.590724
O O13 0.830562 0.725425 0.483241
O O14 0.649963 0.727918 0.219526
O O15 0.095809 0.338183 0.218730
O O16 0.000000 0.248994 0.250000
#
# Coordination Sequence:
#
# PCOD8152086 Si02
#       8
#     8   4   8   8   8   8   8   8
#     4   9  19  35  61  87 122 167 206 264 330 382
#     4   8  16  38  58  78 110 168 212 252 312 380
#     4  11  22  36  58  96 135 168 213 267 322 401
#     4  11  24  37  62  98 136 171 218 258 342 394
#     4  12  23  35  61  99 145 179 208 254 328 423
#     4  11  24  42  65  96 124 172 221 276 321 388
#     4  11  23  45  71  88 122 170 232 278 328 375
#     4  11  22  39  63  95 133 178 212 273 323 399
#
# _framework density 21.83888
#
# number of rings (size 3 to 8) (size 9 to 14) (size 15 to 20)
#    0.000    1.333    4.000    2.400    3.733    0.533 
#    7.200    0.000    0.000    1.600    0.000    0.000 
#    0.000    0.000    0.000    0.000    0.000    0.000 
#
# Total GULP energy -371749.172918 kJ/mol
# GULP energy per Si atom -12391.639097 kJ/mol
# Density = 2.178917 g / cm^3
# Si number density = 21.838880 Si / 1000 Ang^3
#
#
#
# Elastic Constant Matrix: (Units=GPa)
#
#
# Indices 1 2 3 4 5 6 
#
# 1 140.4452 43.0129 30.3377 0.0000 -21.1316 0.0000
# 2 43.0129 76.2926 0.1262 0.0000 -4.0050 0.0000
# 3 30.3377 0.1262 75.7178 0.0000 -5.3770 0.0000
# 4 0.0000 0.0000 0.0000 19.9389 0.0000 -5.4271
# 5 -21.1316 -4.0050 -5.3770 0.0000 35.1010 0.0000
# 6 0.0000 0.0000 0.0000 -5.4271 0.0000 28.7200
#
#
#
# Elastic Compliance Matrix: (Units=1/GPa)
#
#
# Indices 1 2 3 4 5 6 
#
# 1 0.010418 -0.005602 -0.003806 0.000000 0.005050 0.000000
# 2 -0.005602 0.016199 0.002133 0.000000 -0.001198 0.000000
# 3 -0.003806 0.002133 0.014743 0.000000 0.000210 0.000000
# 4 0.000000 0.000000 0.000000 0.052873 0.000000 0.009991
# 5 0.005050 -0.001198 0.000210 0.000000 0.031425 0.000000
# 6 0.000000 0.000000 0.000000 0.009991 0.000000 0.036707
#
#
# Mechanical properties :
#
#
# Convention : Reuss Voigt Hill
#
# Bulk Modulus (GPa) = 37.30069 48.82325 43.06197
# Shear Modulus (GPa) = 26.90302 31.35058 29.12680
#
# Velocity S-wave (km/s) = 3.51363 3.79296 3.65597
# Velocity P-wave (km/s) = 5.79464 6.44878 6.13044
#
# Compressibility (1/GPa) = 0.02680916
#
# Stress axis : x y z
#
# Youngs Moduli (GPa) = 95.98905 61.73053 67.82725
#
# Poissons Ratio (x) = 0.34582 0.25816
# Poissons Ratio (y) = 0.53774 -0.14464
# Poissons Ratio (z) = 0.36535 -0.13164
#
# Static dielectric constant tensor:
#      x y z
#    x 4.629860 0.000000 -0.116550 
#    y 0.000000 3.562770 0.000000 
#    z -0.116550 0.000000 3.939010 
# 
# 
# High freq. dielectric constant tensor:
#      x y z
#    x 1.878990 0.000000 -0.007580 
#    y 0.000000 1.810290 0.000000 
#    z -0.007580 0.000000 1.859800 
# 
# From -- ./inp_files/50665.got.cif
#   From: 2010.06.25/outbox.cif.g09.slc.cpg/sg15_26_cif.got.tgz:50665.got - 2010.06.28 07:06:18.
