data_PCOD8152051
_publ_section_title
;
Structure prediction by ZEFSAII (Michael W. Deem and Ramdas Pophale) SiO2 
 PCOD8152051
Probable space group: C 2/C
;
_chemical_formula_sum "Si O2"
_cell_formula_units_Z 56
_cell_length_a 8.554718
_cell_length_b 16.972402
_cell_length_c 18.836178
_cell_angle_alpha 90.000000
_cell_angle_beta 112.620672
_cell_angle_gamma 90.000000
_cell_volume 2524.510249
_symmetry_space_group_name_H-M "C 2/C"
_symmetry_group_IT_number 15
_symmetry_cell_setting 'monoclinic'
loop_
_space_group_symop_operation_xyz
x,y,z
-x,y,1/2-z
-x,-y,-z
x,-y,1/2+z
1/2+x,1/2+y,z
1/2-x,1/2+y,1/2-z
1/2-x,1/2-y,-z
1/2+x,1/2-y,1/2+z
loop_
_atom_site_type_symbol
_atom_site_label
_atom_site_fract_x
_atom_site_fract_y
_atom_site_fract_z
Si Si1 0.826907 0.308753 0.181061
Si Si2 0.912440 0.682944 0.309653
Si Si3 0.842975 0.018359 0.521899
Si Si4 0.857095 0.326460 0.526209
Si Si5 0.616710 0.997682 0.704241
Si Si6 0.930145 0.610091 0.564862
Si Si7 0.562763 0.430251 0.188320
O O1 0.768356 0.224889 0.204068
O O2 0.857664 0.319169 0.102024
O O3 0.670629 0.367044 0.165202
O O4 0.000000 0.334154 0.250000
O O5 0.899293 0.591024 0.322169
O O6 0.000000 0.704033 0.250000
O O7 0.039426 0.709693 0.391297
O O8 0.752394 0.095937 0.474737
O O9 0.910412 0.033867 0.614000
O O10 0.715030 0.944358 0.496240
O O11 0.000000 0.000000 0.500000
O O12 0.750000 0.250000 0.500000
O O13 0.972888 0.344059 0.479057
O O14 0.500000 0.020073 0.750000
O O15 0.563499 0.054640 0.630163
O O16 0.811445 0.001600 0.762943
O O17 0.500000 0.388693 0.250000
#
# Coordination Sequence:
#
# PCOD8152051 Si02
#       7
#     8   8   8   8   8   8   8
#     4  12  25  47  74 104 144 192 241 293 366 428
#     4  11  28  47  72 105 151 189 234 297 371 431
#     4  12  25  46  75 111 143 185 248 298 361 439
#     4  12  29  49  72 107 149 196 239 304 374 425
#     4  11  21  47  74 105 141 192 240 295 358 427
#     4  12  24  49  78 102 147 194 246 299 361 442
#     4  12  24  40  75 108 141 184 247 294 357 436
#
# _framework density 22.18252
#
# number of rings (size 3 to 8) (size 9 to 14) (size 15 to 20)
#    0.000    0.286    5.714    2.571    6.000    1.143 
#    0.000    0.000    0.000    0.000    0.000    0.000 
#    0.000    0.000    0.000    0.000    0.000    0.000 
#
# Total GULP energy -346961.898048 kJ/mol
# GULP energy per Si atom -12391.496359 kJ/mol
# Density = 2.213203 g / cm^3
# Si number density = 22.182520 Si / 1000 Ang^3
#
#
#
# Elastic Constant Matrix: (Units=GPa)
#
#
# Indices 1 2 3 4 5 6 
#
# 1 127.6491 59.0740 51.2649 0.0000 -16.6614 0.0000
# 2 59.0740 94.8238 38.8133 0.0000 -19.1120 0.0000
# 3 51.2649 38.8133 143.5764 0.0000 -6.8570 0.0000
# 4 0.0000 0.0000 0.0000 38.8954 0.0000 -21.0265
# 5 -16.6614 -19.1120 -6.8570 0.0000 47.9875 0.0000
# 6 0.0000 0.0000 0.0000 -21.0265 0.0000 56.0269
#
#
#
# Elastic Compliance Matrix: (Units=1/GPa)
#
#
# Indices 1 2 3 4 5 6 
#
# 1 0.011828 -0.006070 -0.002519 0.000000 0.001329 0.000000
# 2 -0.006070 0.015922 -0.001948 0.000000 0.003955 0.000000
# 3 -0.002519 -0.001948 0.008369 0.000000 -0.000455 0.000000
# 4 0.000000 0.000000 0.000000 0.032254 0.000000 0.012105
# 5 0.001329 0.003955 -0.000455 0.000000 0.022811 0.000000
# 6 0.000000 0.000000 0.000000 0.012105 0.000000 0.022391
#
#
# Mechanical properties :
#
#
# Convention : Reuss Voigt Hill
#
# Bulk Modulus (GPa) = 66.46411 73.81706 70.14058
# Shear Modulus (GPa) = 35.80030 43.04177 39.42104
#
# Velocity S-wave (km/s) = 4.02169 4.40972 4.22017
# Velocity P-wave (km/s) = 7.18281 7.69914 7.44545
#
# Compressibility (1/GPa) = 0.01504571
#
# Stress axis : x y z
#
# Youngs Moduli (GPa) = 84.54424 62.80674 119.48496
#
# Poissons Ratio (x) = 0.38122 0.30098
# Poissons Ratio (y) = 0.51316 0.23276
# Poissons Ratio (z) = 0.21296 0.12235
#
# Static dielectric constant tensor:
#      x y z
#    x 4.659090 0.000000 0.154770 
#    y 0.000000 4.711870 0.000000 
#    z 0.154770 0.000000 4.159700 
# 
# 
# High freq. dielectric constant tensor:
#      x y z
#    x 1.888060 0.000000 0.001090 
#    y 0.000000 1.869720 0.000000 
#    z 0.001090 0.000000 1.885820 
# 
# From -- ./inp_files/191023.got.cif
#   From: 2010.06.25/outbox.cif.g09.slc.cpg/sg15_96_cif.got.tgz:191023.got - 2010.06.28 07:06:18.
