data_PCOD8152658
_publ_section_title
;
Structure prediction by ZEFSAII (Michael W. Deem and Ramdas Pophale) SiO2 
 PCOD8152658
Probable space group: C 2/C
;
_chemical_formula_sum "Si O2"
_cell_formula_units_Z 28
_cell_length_a 21.755531
_cell_length_b 14.195950
_cell_length_c 7.874733
_cell_angle_alpha 90.000000
_cell_angle_beta 147.875023
_cell_angle_gamma 90.000000
_cell_volume 1293.278433
_symmetry_space_group_name_H-M "C 2/C"
_symmetry_group_IT_number 15
_symmetry_cell_setting 'monoclinic'
loop_
_space_group_symop_operation_xyz
x,y,z
-x,y,1/2-z
-x,-y,-z
x,-y,1/2+z
1/2+x,1/2+y,z
1/2-x,1/2+y,1/2-z
1/2-x,1/2-y,-z
1/2+x,1/2-y,1/2+z
loop_
_atom_site_type_symbol
_atom_site_label
_atom_site_fract_x
_atom_site_fract_y
_atom_site_fract_z
Si Si1 0.192952 0.118030 0.762340
Si Si2 0.461625 0.104153 0.352873
Si Si3 0.000000 0.735128 0.750000
Si Si4 0.414841 0.554032 0.677224
O O1 0.115733 0.202092 0.508783
O O2 0.171215 0.119164 0.916106
O O3 0.159774 0.018316 0.605933
O O4 0.326809 0.128886 0.041435
O O5 0.500000 0.124123 0.250000
O O6 0.516750 0.174137 0.619210
O O7 0.500000 0.000000 0.500000
O O8 0.500000 0.613433 0.750000
O O9 0.500000 0.500000 0.000000
#
# Coordination Sequence:
#
# PCOD8152658 Si02
#       4
#     8   8   4   8
#     4  11  22  44  69 106 139 179 237 291 335 423
#     4  12  27  49  70  98 143 194 228 283 363 420
#     4  12  26  46  70 106 138 178 246 296 336 410
#     4   9  17  35  66 100 137 174 220 283 352 405
#
# _framework density 21.650403000000001
#
# number of rings (size 3 to 8) (size 9 to 14) (size 15 to 20)
#    0.000    1.143    5.714    2.571    0.000    2.286 
#    0.000    0.000    0.000    0.000    0.000    0.000 
#    0.000    0.000    0.000    0.000    0.000    0.000 
#
# Total GULP energy -173443.163404 kJ/mol
# GULP energy per Si atom -12388.797386 kJ/mol
# Density = 2.160113 g / cm^3
# Si number density = 21.650403 Si / 1000 Ang^3
#
#
#
# Elastic Constant Matrix: (Units=GPa)
#
#
# Indices 1 2 3 4 5 6 
#
# 1 229.0557 55.5542 78.3945 0.0000 13.9829 0.0000
# 2 55.5542 103.7355 60.6892 0.0000 3.8215 0.0000
# 3 78.3945 60.6892 123.8321 0.0000 20.3383 0.0000
# 4 0.0000 0.0000 0.0000 29.5991 0.0000 -9.9747
# 5 13.9829 3.8215 20.3383 0.0000 42.2870 0.0000
# 6 0.0000 0.0000 0.0000 -9.9747 0.0000 30.2654
#
#
#
# Elastic Compliance Matrix: (Units=1/GPa)
#
#
# Indices 1 2 3 4 5 6 
#
# 1 0.005705 -0.001352 -0.002887 0.000000 -0.000376 0.000000
# 2 -0.001352 0.014015 -0.006382 0.000000 0.002250 0.000000
# 3 -0.002887 -0.006382 0.013876 0.000000 -0.005142 0.000000
# 4 0.000000 0.000000 0.000000 0.038006 0.000000 0.012526
# 5 -0.000376 0.002250 -0.005142 0.000000 0.026042 0.000000
# 6 0.000000 0.000000 0.000000 0.012526 0.000000 0.037169
#
#
# Mechanical properties :
#
#
# Convention : Reuss Voigt Hill
#
# Bulk Modulus (GPa) = 80.95616 93.98879 87.47248
# Shear Modulus (GPa) = 31.21629 37.89599 34.55614
#
# Velocity S-wave (km/s) = 3.80127 4.18827 3.99945
# Velocity P-wave (km/s) = 7.53258 8.17894 7.86241
#
# Compressibility (1/GPa) = 0.01235236
#
# Stress axis : x y z
#
# Youngs Moduli (GPa) = 175.29234 71.35225 72.06882
#
# Poissons Ratio (x) = 0.09648 0.20807
# Poissons Ratio (y) = 0.23703 0.45996
# Poissons Ratio (z) = 0.50609 0.45538
#
# Static dielectric constant tensor:
#      x y z
#    x 6.087630 0.000000 -0.043630 
#    y 0.000000 3.773530 0.000000 
#    z -0.043630 0.000000 3.999300 
# 
# 
# High freq. dielectric constant tensor:
#      x y z
#    x 1.875010 0.000000 -0.003380 
#    y 0.000000 1.833480 0.000000 
#    z -0.003380 0.000000 1.856560 
# 
# From -- ./inp_files/27375.got.cif
#   From: 2010.06.25/outbox.cif.g09.slc.cpg/sg15_14_cif.got.tgz:27375.got - 2010.06.28 07:06:18.
