data_PCOD8152180
_publ_section_title
;
Structure prediction by ZEFSAII (Michael W. Deem and Ramdas Pophale) SiO2 
 PCOD8152180
Probable space group: C 2/C
;
_chemical_formula_sum "Si O2"
_cell_formula_units_Z 44
_cell_length_a 12.502444
_cell_length_b 7.447536
_cell_length_c 17.918993
_cell_angle_alpha 90.000000
_cell_angle_beta 96.484317
_cell_angle_gamma 90.000000
_cell_volume 1657.806880
_symmetry_space_group_name_H-M "C 2/C"
_symmetry_group_IT_number 15
_symmetry_cell_setting 'monoclinic'
loop_
_space_group_symop_operation_xyz
x,y,z
-x,y,1/2-z
-x,-y,-z
x,-y,1/2+z
1/2+x,1/2+y,z
1/2-x,1/2+y,1/2-z
1/2-x,1/2-y,-z
1/2+x,1/2-y,1/2+z
loop_
_atom_site_type_symbol
_atom_site_label
_atom_site_fract_x
_atom_site_fract_y
_atom_site_fract_z
Si Si1 0.500000 0.971248 0.250000
Si Si2 0.665816 0.253378 0.222449
Si Si3 0.360807 0.720395 0.136098
Si Si4 0.933562 0.953424 0.887398
Si Si5 0.264999 0.534678 0.980521
Si Si6 0.742314 0.199188 0.612388
O O1 0.582422 0.092351 0.210003
O O2 0.437745 0.860427 0.182630
O O3 0.770143 0.172623 0.189305
O O4 0.620512 0.433475 0.182869
O O5 0.686625 0.311402 0.308613
O O6 0.437825 0.555694 0.114205
O O7 0.306611 0.793173 0.053124
O O8 0.890895 0.044544 0.961892
O O9 0.881889 0.750966 0.877881
O O10 0.210158 0.361508 0.935319
O O11 0.253600 0.493836 0.069266
#
# Coordination Sequence:
#
# PCOD8152180 Si02
#       6
#     4   8   8   8   8   8
#     4  12  24  36  62  92 126 168 204 254 326 368
#     4  11  22  39  60  95 129 162 209 263 308 374
#     4  11  22  40  63  96 128 162 214 263 308 380
#     4   9  20  36  62  93 125 164 210 260 316 365
#     4   8  18  38  62  94 130 171 208 253 318 384
#     4   9  17  38  62  94 132 171 205 257 319 379
#
# _framework density 26.541090000000001
#
# number of rings (size 3 to 8) (size 9 to 14) (size 15 to 20)
#    1.091    1.091    1.818    1.091    0.000    4.364 
#    0.000    0.000    0.000   14.182    0.000   64.909 
#    0.000    0.000    0.000    0.000    0.000    0.000 
#
# Total GULP energy -272705.299974 kJ/mol
# GULP energy per Si atom -12395.695453 kJ/mol
# Density = 2.648068 g / cm^3
# Si number density = 26.541090 Si / 1000 Ang^3
#
#
#
# Elastic Constant Matrix: (Units=GPa)
#
#
# Indices 1 2 3 4 5 6 
#
# 1 206.0676 60.0780 65.0207 0.0000 -15.6302 0.0000
# 2 60.0780 89.5785 30.1684 0.0000 -14.3906 0.0000
# 3 65.0207 30.1684 188.1476 0.0000 -10.3240 0.0000
# 4 0.0000 0.0000 0.0000 32.9779 0.0000 13.3297
# 5 -15.6302 -14.3906 -10.3240 0.0000 23.9690 0.0000
# 6 0.0000 0.0000 0.0000 13.3297 0.0000 36.3225
#
#
#
# Elastic Compliance Matrix: (Units=1/GPa)
#
#
# Indices 1 2 3 4 5 6 
#
# 1 0.006514 -0.003607 -0.001596 0.000000 0.001395 0.000000
# 2 -0.003607 0.014849 -0.000793 0.000000 0.006221 0.000000
# 3 -0.001596 -0.000793 0.006054 0.000000 0.001090 0.000000
# 4 0.000000 0.000000 0.000000 0.035605 0.000000 -0.013066
# 5 0.001395 0.006221 0.001090 0.000000 0.046835 0.000000
# 6 0.000000 0.000000 0.000000 -0.013066 0.000000 0.032326
#
#
# Mechanical properties :
#
#
# Convention : Reuss Voigt Hill
#
# Bulk Modulus (GPa) = 64.83432 88.25866 76.54649
# Shear Modulus (GPa) = 31.38412 40.55565 35.96988
#
# Velocity S-wave (km/s) = 3.44244 3.91325 3.68537
# Velocity P-wave (km/s) = 6.34677 7.33101 6.85658
#
# Compressibility (1/GPa) = 0.01542393
#
# Stress axis : x y z
#
# Youngs Moduli (GPa) = 153.51993 67.34413 165.19144
#
# Poissons Ratio (x) = 0.24291 0.26367
# Poissons Ratio (y) = 0.55376 0.13101
# Poissons Ratio (z) = 0.24504 0.05341
#
# Static dielectric constant tensor:
#      x y z
#    x 5.373380 0.000000 0.004390 
#    y 0.000000 5.016190 0.000000 
#    z 0.004390 0.000000 4.932180 
# 
# 
# High freq. dielectric constant tensor:
#      x y z
#    x 2.055170 0.000000 -0.003270 
#    y 0.000000 2.085390 0.000000 
#    z -0.003270 0.000000 2.090750 
# 
# From -- ./inp_files/236164.got.cif
#   From: 2010.06.25/outbox.cif.g09.slc.cpg/sg15_119_cif.got.tgz:236164.got - 2010.06.28 07:06:18.
