data_PCOD8152892
_publ_section_title
;
Structure prediction by ZEFSAII (Michael W. Deem and Ramdas Pophale) SiO2 
 PCOD8152892
Probable space group: C 2/C
;
_chemical_formula_sum "Si O2"
_cell_formula_units_Z 60
_cell_length_a 7.866120
_cell_length_b 22.327735
_cell_length_c 16.522867
_cell_angle_alpha 90.000000
_cell_angle_beta 119.643694
_cell_angle_gamma 90.000000
_cell_volume 2522.141135
_symmetry_space_group_name_H-M "C 2/C"
_symmetry_group_IT_number 15
_symmetry_cell_setting 'monoclinic'
loop_
_space_group_symop_operation_xyz
x,y,z
-x,y,1/2-z
-x,-y,-z
x,-y,1/2+z
1/2+x,1/2+y,z
1/2-x,1/2+y,1/2-z
1/2-x,1/2-y,-z
1/2+x,1/2-y,1/2+z
loop_
_atom_site_type_symbol
_atom_site_label
_atom_site_fract_x
_atom_site_fract_y
_atom_site_fract_z
Si Si1 0.817344 0.473764 0.850033
Si Si2 0.619698 0.302623 0.705012
Si Si3 0.540400 0.778839 0.461494
Si Si4 0.836377 0.606641 0.887319
Si Si5 0.543888 0.433755 0.644370
Si Si6 0.500000 0.323675 0.250000
Si Si7 0.284598 0.099157 0.055594
Si Si8 0.530172 0.216710 0.370198
O O1 0.903084 0.540878 0.876098
O O2 0.701476 0.465761 0.739167
O O3 0.669982 0.463253 0.892171
O O4 0.000130 0.429894 0.895760
O O5 0.500000 0.271673 0.750000
O O6 0.617407 0.256160 0.630165
O O7 0.513229 0.364848 0.661335
O O8 0.841324 0.312863 0.783842
O O9 0.750000 0.750000 0.500000
O O10 0.527827 0.849964 0.437910
O O11 0.480604 0.769219 0.538697
O O12 0.687361 0.632793 0.784632
O O13 0.720975 0.604315 0.946961
O O14 0.624948 0.437932 0.570865
O O15 0.558120 0.282352 0.339744
O O16 0.303042 0.165184 0.103000
#
# Coordination Sequence:
#
# PCOD8152892 Si02
#       8
#     8   8   8   8   8   4   8   8
#     4  11  23  46  67 100 144 182 235 295 354 422
#     4  12  20  40  67 103 138 181 235 293 362 418
#     4  11  25  42  68 104 140 185 235 293 366 430
#     4  11  27  45  67  96 146 189 226 293 363 432
#     4  11  23  40  74 102 130 186 237 293 352 418
#     4  12  24  44  64  96 138 186 226 286 370 420
#     4  11  24  44  70 105 133 181 246 297 350 421
#     4  11  23  40  66 100 142 176 236 303 347 433
#
# _framework density 23.789311999999999
#
# number of rings (size 3 to 8) (size 9 to 14) (size 15 to 20)
#    0.000    0.800    5.333    2.400    3.733    1.600 
#    0.000    5.333    0.000    0.000    0.000    0.000 
#    0.000    0.000    0.000    0.000    0.000    0.000 
#
# Total GULP energy -371892.401217 kJ/mol
# GULP energy per Si atom -12396.413374 kJ/mol
# Density = 2.373517 g / cm^3
# Si number density = 23.789312 Si / 1000 Ang^3
#
#
#
# Elastic Constant Matrix: (Units=GPa)
#
#
# Indices 1 2 3 4 5 6 
#
# 1 103.8008 32.1145 10.9722 0.0000 -0.8163 0.0000
# 2 32.1145 137.8868 40.1065 0.0000 -8.5983 0.0000
# 3 10.9722 40.1065 87.4686 0.0000 -15.6853 0.0000
# 4 0.0000 0.0000 0.0000 16.2769 0.0000 -4.1649
# 5 -0.8163 -8.5983 -15.6853 0.0000 24.2066 0.0000
# 6 0.0000 0.0000 0.0000 -4.1649 0.0000 27.6262
#
#
#
# Elastic Compliance Matrix: (Units=1/GPa)
#
#
# Indices 1 2 3 4 5 6 
#
# 1 0.010397 -0.002365 -0.000348 0.000000 -0.000715 0.000000
# 2 -0.002365 0.008913 -0.003662 0.000000 0.000713 0.000000
# 3 -0.000348 -0.003662 0.014619 0.000000 0.008160 0.000000
# 4 0.000000 0.000000 0.000000 0.063902 0.000000 0.009634
# 5 -0.000715 0.000713 0.008160 0.000000 0.046828 0.000000
# 6 0.000000 0.000000 0.000000 0.009634 0.000000 0.037650
#
#
# Mechanical properties :
#
#
# Convention : Reuss Voigt Hill
#
# Bulk Modulus (GPa) = 47.21845 55.06029 51.13937
# Shear Modulus (GPa) = 24.73814 30.01949 27.37882
#
# Velocity S-wave (km/s) = 3.22822 3.55616 3.39615
# Velocity P-wave (km/s) = 5.81265 6.32906 6.07634
#
# Compressibility (1/GPa) = 0.02117816
#
# Stress axis : x y z
#
# Youngs Moduli (GPa) = 96.18497 112.19869 68.40480
#
# Poissons Ratio (x) = 0.26532 0.02381
# Poissons Ratio (y) = 0.22745 0.25051
# Poissons Ratio (z) = 0.03348 0.41089
#
# Static dielectric constant tensor:
#      x y z
#    x 4.270890 0.000000 -0.192920 
#    y 0.000000 3.714190 0.000000 
#    z -0.192920 0.000000 4.513850 
# 
# 
# High freq. dielectric constant tensor:
#      x y z
#    x 1.931710 0.000000 0.000140 
#    y 0.000000 1.948320 0.000000 
#    z 0.000140 0.000000 1.946680 
# 
# From -- ./inp_files/192571.got.cif
#   From: 2010.06.25/outbox.cif.g09.slc.cpg/sg15_97_cif.got.tgz:192571.got - 2010.06.28 07:06:18.
