data_PCOD8152728
_publ_section_title
;
Structure prediction by ZEFSAII (Michael W. Deem and Ramdas Pophale) SiO2 
 PCOD8152728
Probable space group: C 2/C
;
_chemical_formula_sum "Si O2"
_cell_formula_units_Z 56
_cell_length_a 15.571343
_cell_length_b 10.622073
_cell_length_c 29.301995
_cell_angle_alpha 90.000000
_cell_angle_beta 31.534976
_cell_angle_gamma 90.000000
_cell_volume 2534.836631
_symmetry_space_group_name_H-M "C 2/C"
_symmetry_group_IT_number 15
_symmetry_cell_setting 'monoclinic'
loop_
_space_group_symop_operation_xyz
x,y,z
-x,y,1/2-z
-x,-y,-z
x,-y,1/2+z
1/2+x,1/2+y,z
1/2-x,1/2+y,1/2-z
1/2-x,1/2-y,-z
1/2+x,1/2-y,1/2+z
loop_
_atom_site_type_symbol
_atom_site_label
_atom_site_fract_x
_atom_site_fract_y
_atom_site_fract_z
Si Si1 0.129664 0.865432 0.306734
Si Si2 0.879248 0.420293 0.672067
Si Si3 0.959582 0.329069 0.991500
Si Si4 0.887981 0.066439 0.842723
Si Si5 0.834629 0.420652 0.434626
Si Si6 0.538192 0.438455 0.031214
Si Si7 0.748856 0.177655 0.430573
O O1 0.187352 0.716839 0.279715
O O2 0.955812 0.868672 0.358320
O O3 0.118156 0.913151 0.364600
O O4 0.245380 0.967378 0.229077
O O5 0.956044 0.404740 0.587466
O O6 0.023177 0.476528 0.639422
O O7 0.879187 0.197205 0.013002
O O8 0.097086 0.297395 0.966101
O O9 0.804272 0.406173 0.080352
O O10 0.000000 0.110482 0.750000
O O11 0.888016 0.915695 0.848138
O O12 0.656475 0.476157 0.506876
O O13 0.854392 0.303915 0.391116
O O14 0.839297 0.373083 0.484137
O O15 0.500000 0.500000 0.000000
#
# Coordination Sequence:
#
# PCOD8152728 Si02
#       7
#     8   8   8   8   8   8   8
#     4  11  26  44  68 105 139 188 231 297 346 415
#     4  11  25  45  72  99 145 185 235 293 351 416
#     4  11  23  44  71 101 137 183 237 282 350 419
#     4  12  25  41  68 103 142 181 233 287 350 416
#     4  11  23  42  70  98 135 183 226 289 350 415
#     4  11  22  45  70  95 134 180 231 285 350 417
#     4  11  23  40  67 104 134 180 229 284 346 418
#
# _framework density 22.092151999999999
#
# number of rings (size 3 to 8) (size 9 to 14) (size 15 to 20)
#    0.000    0.857    4.286    2.143    4.000    3.429 
#    0.000    0.714    0.000    0.000    0.000    0.000 
#    0.000    0.000    0.000    0.000    0.000    0.000 
#
# Total GULP energy -347005.678660 kJ/mol
# GULP energy per Si atom -12393.059952 kJ/mol
# Density = 2.204187 g / cm^3
# Si number density = 22.092152 Si / 1000 Ang^3
#
#
#
# Elastic Constant Matrix: (Units=GPa)
#
#
# Indices 1 2 3 4 5 6 
#
# 1 108.9645 34.3008 33.5821 0.0000 4.1805 -0.0001
# 2 34.3008 156.5199 47.2131 -0.0001 7.5279 -0.0001
# 3 33.5821 47.2131 84.6823 -0.0008 8.6208 -0.0001
# 4 0.0000 -0.0001 -0.0008 34.8040 -0.0001 -2.9487
# 5 4.1805 7.5279 8.6208 -0.0001 25.5766 0.0000
# 6 -0.0001 -0.0001 -0.0001 -2.9487 0.0000 32.8601
#
#
#
# Elastic Compliance Matrix: (Units=1/GPa)
#
#
# Indices 1 2 3 4 5 6 
#
# 1 0.010664 -0.001272 -0.003501 0.000000 -0.000189 0.000000
# 2 -0.001272 0.007850 -0.003788 0.000000 -0.000826 0.000000
# 3 -0.003501 -0.003788 0.015675 0.000000 -0.003596 0.000000
# 4 0.000000 0.000000 0.000000 0.028952 0.000000 0.002598
# 5 -0.000189 -0.000826 -0.003596 0.000000 0.040584 0.000000
# 6 0.000000 0.000000 0.000000 0.002598 0.000000 0.030665
#
#
# Mechanical properties :
#
#
# Convention : Reuss Voigt Hill
#
# Bulk Modulus (GPa) = 58.59016 64.48430 61.53723
# Shear Modulus (GPa) = 31.80627 34.31950 33.06289
#
# Velocity S-wave (km/s) = 3.79847 3.94568 3.87278
# Velocity P-wave (km/s) = 6.76876 7.07178 6.92193
#
# Compressibility (1/GPa) = 0.01706771
#
# Stress axis : x y z
#
# Youngs Moduli (GPa) = 93.77545 127.38672 63.79508
#
# Poissons Ratio (x) = 0.16203 0.22332
# Poissons Ratio (y) = 0.11928 0.24167
# Poissons Ratio (z) = 0.32826 0.48257
#
# Static dielectric constant tensor:
#      x y z
#    x 4.084440 0.000000 -0.011210 
#    y 0.000000 4.442910 0.000000 
#    z -0.011210 0.000000 3.580420 
# 
# 
# High freq. dielectric constant tensor:
#      x y z
#    x 1.875700 0.000000 -0.002070 
#    y 0.000000 1.893530 0.000000 
#    z -0.002070 0.000000 1.839080 
# 
# From -- ./inp_files/313712.got.cif
#   From: 2010.06.25/outbox.cif.g09.slc.cpg/sg15_157_cif.got.tgz:313712.got - 2010.06.28 07:06:18.
