data_PCOD8152754
_publ_section_title
;
Structure prediction by ZEFSAII (Michael W. Deem and Ramdas Pophale) SiO2 
 PCOD8152754
Probable space group: C 2/C
;
_chemical_formula_sum "Si O2"
_cell_formula_units_Z 56
_cell_length_a 8.496974
_cell_length_b 18.000609
_cell_length_c 26.938462
_cell_angle_alpha 90.000000
_cell_angle_beta 146.155015
_cell_angle_gamma 90.000000
_cell_volume 2294.768290
_symmetry_space_group_name_H-M "C 2/C"
_symmetry_group_IT_number 15
_symmetry_cell_setting 'monoclinic'
loop_
_space_group_symop_operation_xyz
x,y,z
-x,y,1/2-z
-x,-y,-z
x,-y,1/2+z
1/2+x,1/2+y,z
1/2-x,1/2+y,1/2-z
1/2-x,1/2-y,-z
1/2+x,1/2-y,1/2+z
loop_
_atom_site_type_symbol
_atom_site_label
_atom_site_fract_x
_atom_site_fract_y
_atom_site_fract_z
Si Si1 0.000000 0.032025 0.750000
Si Si2 0.455241 0.189020 0.031001
Si Si3 0.442549 0.090460 0.357041
Si Si4 0.117123 0.802394 0.708331
Si Si5 0.850875 0.090075 0.370485
Si Si6 0.180962 0.641161 0.715204
Si Si7 0.898866 0.669608 0.535903
Si Si8 0.500000 0.959182 0.250000
O O1 0.959872 0.088672 0.786025
O O2 0.709142 0.986825 0.669687
O O3 0.412377 0.116291 0.053863
O O4 0.783223 0.213682 0.118667
O O5 0.385984 0.172044 0.955073
O O6 0.250000 0.250000 0.000000
O O7 0.197508 0.147503 0.276331
O O8 0.674303 0.086694 0.374883
O O9 0.231233 0.841795 0.687843
O O10 0.266188 0.722781 0.756590
O O11 0.178135 0.101500 0.469362
O O12 0.778333 0.013403 0.321917
O O13 0.053905 0.651053 0.627070
O O14 0.967759 0.596130 0.694876
O O15 0.750000 0.750000 0.500000
#
# Coordination Sequence:
#
# PCOD8152754 Si02
#       8
#     4   8   8   8   8   8   8   4
#     4  12  26  46  68 104 156 184 238 308 380 434
#     4  11  24  40  73 109 146 188 251 310 370 438
#     4  12  23  45  74 104 140 203 246 301 367 461
#     4  11  23  43  76 105 140 192 262 303 355 441
#     4  11  22  45  79 102 140 202 247 297 380 456
#     4  12  28  45  70 111 150 189 245 324 363 441
#     4  11  24  47  72 109 150 190 254 313 372 445
#     4  12  26  46  72 106 146 194 252 292 388 446
#
# _framework density 24.403334000000001
#
# number of rings (size 3 to 8) (size 9 to 14) (size 15 to 20)
#    0.000    0.571    7.143    0.857    6.000    0.571 
#    0.000    0.714    0.000    0.000    0.000    0.000 
#    0.000    0.000    0.000    0.000    0.000    0.000 
#
# Total GULP energy -346874.977405 kJ/mol
# GULP energy per Si atom -12388.392050 kJ/mol
# Density = 2.434779 g / cm^3
# Si number density = 24.403334 Si / 1000 Ang^3
#
#
#
# Elastic Constant Matrix: (Units=GPa)
#
#
# Indices 1 2 3 4 5 6 
#
# 1 166.3662 65.3962 40.3429 0.0005 -11.8405 0.0006
# 2 65.3962 160.4128 21.2199 -0.0006 -6.4138 -0.0010
# 3 40.3429 21.2199 53.8769 0.0071 -18.4767 -0.0012
# 4 0.0005 -0.0006 0.0071 21.2319 0.0009 -0.0763
# 5 -11.8405 -6.4138 -18.4767 0.0009 35.6840 0.0013
# 6 0.0006 -0.0010 -0.0012 -0.0763 0.0013 47.6598
#
#
#
# Elastic Compliance Matrix: (Units=1/GPa)
#
#
# Indices 1 2 3 4 5 6 
#
# 1 0.008338 -0.002712 -0.005342 0.000002 -0.000487 0.000000
# 2 -0.002712 0.007460 -0.000920 0.000001 -0.000035 0.000000
# 3 -0.005342 -0.000920 0.027064 -0.000009 0.012076 0.000000
# 4 0.000002 0.000001 -0.000009 0.047099 -0.000005 0.000075
# 5 -0.000487 -0.000035 0.012076 -0.000005 0.034108 -0.000001
# 6 0.000000 0.000000 0.000000 0.000075 -0.000001 0.020982
#
#
# Mechanical properties :
#
#
# Convention : Reuss Voigt Hill
#
# Bulk Modulus (GPa) = 40.13669 70.50821 55.32245
# Shear Modulus (GPa) = 29.18801 37.82829 33.50815
#
# Velocity S-wave (km/s) = 3.46217 3.94144 3.70955
# Velocity P-wave (km/s) = 5.69781 7.04761 6.40835
#
# Compressibility (1/GPa) = 0.02491486
#
# Stress axis : x y z
#
# Youngs Moduli (GPa) = 119.93879 134.05380 36.94890
#
# Poissons Ratio (x) = 0.36353 0.19738
# Poissons Ratio (y) = 0.32525 0.03397
# Poissons Ratio (z) = 0.64072 0.12326
#
# Static dielectric constant tensor:
#      x y z
#    x 4.817950 0.000000 -0.180690 
#    y 0.000000 4.770480 -0.000010 
#    z -0.180690 -0.000010 4.307920 
# 
# 
# High freq. dielectric constant tensor:
#      x y z
#    x 1.994230 0.000000 -0.011680 
#    y 0.000000 1.973730 0.000000 
#    z -0.011680 0.000000 1.937860 
# 
# From -- ./inp_files/308678.got.cif
#   From: 2010.06.25/outbox.cif.g09.slc.cpg/sg15_155_cif.got.tgz:308678.got - 2010.06.28 07:06:18.
