data_PCOD8152098
_publ_section_title
;
Structure prediction by ZEFSAII (Michael W. Deem and Ramdas Pophale) SiO2 
 PCOD8152098
Probable space group: C 2/C
;
_chemical_formula_sum "Si O2"
_cell_formula_units_Z 64
_cell_length_a 17.898386
_cell_length_b 14.931006
_cell_length_c 14.731051
_cell_angle_alpha 90.000000
_cell_angle_beta 47.366033
_cell_angle_gamma 90.000000
_cell_volume 2896.242217
_symmetry_space_group_name_H-M "C 2/C"
_symmetry_group_IT_number 15
_symmetry_cell_setting 'monoclinic'
loop_
_space_group_symop_operation_xyz
x,y,z
-x,y,1/2-z
-x,-y,-z
x,-y,1/2+z
1/2+x,1/2+y,z
1/2-x,1/2+y,1/2-z
1/2-x,1/2-y,-z
1/2+x,1/2-y,1/2+z
loop_
_atom_site_type_symbol
_atom_site_label
_atom_site_fract_x
_atom_site_fract_y
_atom_site_fract_z
Si Si1 0.795094 0.624984 0.735526
Si Si2 0.795938 0.638745 0.414363
Si Si3 0.496977 0.442256 0.911598
Si Si4 0.518298 0.247135 0.963426
Si Si5 0.725719 0.549548 0.974957
Si Si6 0.782548 0.045851 0.311826
Si Si7 0.416622 0.723337 0.892903
Si Si8 0.183309 0.702306 0.296924
O O1 0.904552 0.672152 0.637014
O O2 0.770324 0.617161 0.863507
O O3 0.780388 0.534705 0.686381
O O4 0.712920 0.694420 0.768295
O O5 0.796011 0.534944 0.396361
O O6 0.683600 0.664164 0.541581
O O7 0.879790 0.672161 0.418192
O O8 0.839217 0.683952 0.288484
O O9 0.502356 0.333790 0.913221
O O10 0.598099 0.476210 0.777150
O O11 0.500000 0.500000 0.000000
O O12 0.394868 0.466466 0.940496
O O13 0.546027 0.292358 0.036515
O O14 0.415090 0.190344 0.059080
O O15 0.753030 0.571332 0.057103
O O16 0.770772 0.135653 0.261069
O O17 0.500000 0.695572 0.750000
#
# Coordination Sequence:
#
# PCOD8152098 Si02
#       8
#     8   8   8   8   8   8   8   8
#     4  12  25  47  71 100 142 183 232 296 350 418
#     4  11  23  42  65 103 143 179 224 296 356 411
#     4  12  22  45  72 101 141 178 232 287 355 416
#     4  12  24  42  70  99 133 192 230 284 352 413
#     4  12  26  44  70 104 138 183 235 292 346 421
#     4  12  26  46  71 105 140 186 234 293 356 420
#     4  11  22  36  66 106 139 179 229 285 355 431
#     4  12  23  46  71  96 139 186 230 287 354 419
#
# _framework density 22.0976
#
# number of rings (size 3 to 8) (size 9 to 14) (size 15 to 20)
#    0.000    0.250    7.500    1.875    1.750    3.000 
#    0.000    0.625    0.000    0.000    0.000    0.000 
#    0.000    0.000    0.000    0.000    0.000    0.000 
#
# Total GULP energy -396507.221356 kJ/mol
# GULP energy per Si atom -12390.850667 kJ/mol
# Density = 2.204730 g / cm^3
# Si number density = 22.097600 Si / 1000 Ang^3
#
#
#
# Elastic Constant Matrix: (Units=GPa)
#
#
# Indices 1 2 3 4 5 6 
#
# 1 46.4967 3.3759 0.0870 0.0000 10.0739 0.0000
# 2 3.3759 72.7617 -3.3282 0.0000 6.3162 0.0000
# 3 0.0870 -3.3282 67.3944 0.0000 -9.8324 0.0000
# 4 0.0000 0.0000 0.0000 32.1096 0.0000 0.6364
# 5 10.0739 6.3162 -9.8324 0.0000 42.7162 0.0000
# 6 0.0000 0.0000 0.0000 0.6364 0.0000 23.7332
#
#
#
# Elastic Compliance Matrix: (Units=1/GPa)
#
#
# Indices 1 2 3 4 5 6 
#
# 1 0.022738 -0.000620 -0.000858 0.000000 -0.005468 0.000000
# 2 -0.000620 0.013950 0.000424 0.000000 -0.001819 0.000000
# 3 -0.000858 0.000424 0.015398 0.000000 0.003684 0.000000
# 4 0.000000 0.000000 0.000000 0.031160 0.000000 -0.000836
# 5 -0.005468 -0.001819 0.003684 0.000000 0.025817 0.000000
# 6 0.000000 0.000000 0.000000 -0.000836 0.000000 0.042158
#
#
# Mechanical properties :
#
#
# Convention : Reuss Voigt Hill
#
# Bulk Modulus (GPa) = 20.00824 20.76914 20.38869
# Shear Modulus (GPa) = 29.41433 32.14633 30.78033
#
# Velocity S-wave (km/s) = 3.65240 3.81825 3.73624
# Velocity P-wave (km/s) = 5.18274 5.37196 5.27820
#
# Compressibility (1/GPa) = 0.04997941
#
# Stress axis : x y z
#
# Youngs Moduli (GPa) = 43.97883 71.68695 64.94553
#
# Poissons Ratio (x) = 0.04441 0.05571
# Poissons Ratio (y) = 0.02725 -0.02756
# Poissons Ratio (z) = 0.03772 -0.03042
#
# Static dielectric constant tensor:
#      x y z
#    x 3.932860 0.000000 0.099080 
#    y 0.000000 3.986730 0.000000 
#    z 0.099080 0.000000 2.481270 
# 
# 
# High freq. dielectric constant tensor:
#      x y z
#    x 1.858250 0.000000 -0.002910 
#    y 0.000000 1.865860 0.000000 
#    z -0.002910 0.000000 1.882270 
# 
# From -- ./inp_files/162549.got.cif
#   From: 2010.06.25/outbox.cif.g09.slc.cpg/sg15_82_cif.got.tgz:162549.got - 2010.06.28 07:06:18.
