data_PCOD8152197
_publ_section_title
;
Structure prediction by ZEFSAII (Michael W. Deem and Ramdas Pophale) SiO2 
 PCOD8152197
Probable space group: C 2/C
;
_chemical_formula_sum "Si O2"
_cell_formula_units_Z 60
_cell_length_a 18.814666
_cell_length_b 17.392541
_cell_length_c 16.828122
_cell_angle_alpha 90.000000
_cell_angle_beta 33.224547
_cell_angle_gamma 90.000000
_cell_volume 3017.266518
_symmetry_space_group_name_H-M "C 2/C"
_symmetry_group_IT_number 15
_symmetry_cell_setting 'monoclinic'
loop_
_space_group_symop_operation_xyz
x,y,z
-x,y,1/2-z
-x,-y,-z
x,-y,1/2+z
1/2+x,1/2+y,z
1/2-x,1/2+y,1/2-z
1/2-x,1/2-y,-z
1/2+x,1/2-y,1/2+z
loop_
_atom_site_type_symbol
_atom_site_label
_atom_site_fract_x
_atom_site_fract_y
_atom_site_fract_z
Si Si1 0.352191 0.841813 0.697555
Si Si2 0.544111 0.699543 0.125233
Si Si3 0.201020 0.013517 0.293894
Si Si4 0.500000 0.595830 0.750000
Si Si5 0.640639 0.874105 0.394820
Si Si6 0.533927 0.468582 0.593662
Si Si7 0.802101 0.217654 0.869506
Si Si8 0.783070 0.260266 0.302425
O O1 0.252787 0.912684 0.793516
O O2 0.488265 0.878012 0.547227
O O3 0.361755 0.792569 0.769821
O O4 0.307965 0.786140 0.670491
O O5 0.500000 0.736249 0.250000
O O6 0.560836 0.608169 0.118015
O O7 0.422137 0.718845 0.182594
O O8 0.687048 0.731464 0.968112
O O9 0.113369 0.034368 0.299908
O O10 0.311660 0.961718 0.149618
O O11 0.122974 0.965864 0.432472
O O12 0.564582 0.541233 0.622391
O O13 0.403569 0.650443 0.792033
O O14 0.692055 0.820681 0.418314
O O15 0.684334 0.841492 0.268392
O O16 0.750000 0.250000 0.000000
#
# Coordination Sequence:
#
# PCOD8152197 Si02
#       8
#     8   8   8   4   8   8   8   8
#     4  11  23  39  66  91 128 172 213 271 326 383
#     4  12  23  42  65  93 129 167 210 267 329 382
#     4  11  22  40  61  92 122 165 217 264 316 385
#     4  12  22  42  62  94 130 162 216 266 328 398
#     4  11  22  39  63  90 127 170 211 268 326 380
#     4  11  23  37  66  92 122 162 214 267 319 379
#     4  11  24  40  63  94 130 170 214 268 334 394
#     4  11  23  40  64  94 127 164 217 267 316 397
#
# _framework density 19.885548
#
# number of rings (size 3 to 8) (size 9 to 14) (size 15 to 20)
#    0.000    0.800    6.000    2.400    0.000    1.067 
#    0.000    0.000    0.000    0.000    1.733    0.000 
#    0.000    0.000    0.000    0.000    0.000    0.000 
#
# Total GULP energy -371839.527737 kJ/mol
# GULP energy per Si atom -12394.650925 kJ/mol
# Density = 1.984029 g / cm^3
# Si number density = 19.885548 Si / 1000 Ang^3
#
#
#
# Elastic Constant Matrix: (Units=GPa)
#
#
# Indices 1 2 3 4 5 6 
#
# 1 59.2768 14.4192 18.3876 -0.0004 8.1565 0.0002
# 2 14.4192 101.3836 26.9955 0.0002 0.3881 0.0011
# 3 18.3876 26.9955 89.2362 0.0003 0.4410 0.0022
# 4 -0.0004 0.0002 0.0003 17.9476 -0.0004 -7.1165
# 5 8.1565 0.3881 0.4410 -0.0004 32.1862 -0.0006
# 6 0.0002 0.0011 0.0022 -7.1165 -0.0006 25.6997
#
#
#
# Elastic Compliance Matrix: (Units=1/GPa)
#
#
# Indices 1 2 3 4 5 6 
#
# 1 0.018998 -0.001792 -0.003349 0.000000 -0.004747 0.000000
# 2 -0.001792 0.010897 -0.002929 0.000000 0.000363 0.000000
# 3 -0.003349 -0.002929 0.012779 -0.000001 0.000709 -0.000001
# 4 0.000000 0.000000 -0.000001 0.062590 0.000001 0.017332
# 5 -0.004747 0.000363 0.000709 0.000001 0.032258 0.000001
# 6 0.000000 0.000000 -0.000001 0.017332 0.000001 0.043710
#
#
# Mechanical properties :
#
#
# Convention : Reuss Voigt Hill
#
# Bulk Modulus (GPa) = 37.68820 41.05569 39.37195
# Shear Modulus (GPa) = 24.24627 27.83964 26.04296
#
# Velocity S-wave (km/s) = 3.49562 3.74571 3.62282
# Velocity P-wave (km/s) = 5.94022 6.27678 6.11082
#
# Compressibility (1/GPa) = 0.02653351
#
# Stress axis : x y z
#
# Youngs Moduli (GPa) = 52.63720 91.76892 78.25400
#
# Poissons Ratio (x) = 0.16445 0.26208
# Poissons Ratio (y) = 0.09433 0.22921
# Poissons Ratio (z) = 0.17629 0.26880
#
# Static dielectric constant tensor:
#      x y z
#    x 3.967910 -0.000020 0.118100 
#    y -0.000020 3.820330 0.000000 
#    z 0.118100 0.000000 3.695730 
# 
# 
# High freq. dielectric constant tensor:
#      x y z
#    x 1.774160 0.000000 0.001120 
#    y 0.000000 1.781380 0.000000 
#    z 0.001120 0.000000 1.776790 
# 
# From -- ./inp_files/211732.got.cif
#   From: 2010.06.25/outbox.cif.g09.slc.cpg/sg15_106_cif.got.tgz:211732.got - 2010.06.28 07:06:18.
