data_PCOD8152682
_publ_section_title
;
Structure prediction by ZEFSAII (Michael W. Deem and Ramdas Pophale) SiO2 
 PCOD8152682
Probable space group: C 2/C
;
_chemical_formula_sum "Si O2"
_cell_formula_units_Z 60
_cell_length_a 11.928219
_cell_length_b 21.995747
_cell_length_c 16.010138
_cell_angle_alpha 90.000000
_cell_angle_beta 39.125043
_cell_angle_gamma 90.000000
_cell_volume 2650.629575
_symmetry_space_group_name_H-M "C 2/C"
_symmetry_group_IT_number 15
_symmetry_cell_setting 'monoclinic'
loop_
_space_group_symop_operation_xyz
x,y,z
-x,y,1/2-z
-x,-y,-z
x,-y,1/2+z
1/2+x,1/2+y,z
1/2-x,1/2+y,1/2-z
1/2-x,1/2-y,-z
1/2+x,1/2-y,1/2+z
loop_
_atom_site_type_symbol
_atom_site_label
_atom_site_fract_x
_atom_site_fract_y
_atom_site_fract_z
Si Si1 0.319789 0.893399 0.393248
Si Si2 0.712306 0.241914 0.256386
Si Si3 0.685848 0.484792 0.927143
Si Si4 0.864698 0.607521 0.206714
Si Si5 0.000000 0.173498 0.750000
Si Si6 0.370965 0.726471 0.507783
Si Si7 0.791777 0.058745 0.366566
Si Si8 0.749573 0.066851 0.943343
O O1 0.500000 0.863331 0.250000
O O2 0.156612 0.846465 0.473394
O O3 0.318875 0.913053 0.491208
O O4 0.300602 0.954189 0.349234
O O5 0.638941 0.177794 0.267024
O O6 0.588788 0.288613 0.274637
O O7 0.690037 0.247323 0.368350
O O8 0.923959 0.246878 0.118620
O O9 0.773823 0.427249 0.834481
O O10 0.500000 0.500000 0.000000
O O11 0.643401 0.469409 0.047515
O O12 0.765752 0.598698 0.177610
O O13 0.059836 0.582082 0.088093
O O14 0.840808 0.130098 0.869949
O O15 0.250000 0.750000 0.500000
O O16 0.000000 0.069808 0.250000
O O17 0.745247 0.986681 0.375369
#
# Coordination Sequence:
#
# PCOD8152682 Si02
#       8
#     8   8   8   8   4   8   8   8
#     4  11  24  43  70 106 142 179 234 304 374 439
#     4  12  29  47  74 107 146 202 246 305 372 441
#     4  11  24  42  69 104 139 184 239 303 369 432
#     4  12  25  43  72 101 143 186 243 299 366 440
#     4  12  30  48  72 104 158 204 258 294 364 468
#     4  12  26  50  76 109 144 192 252 312 375 443
#     4  11  22  44  72 108 141 183 234 305 377 432
#     4  11  25  45  68 102 143 193 244 297 367 442
#
# _framework density 22.636130999999999
#
# number of rings (size 3 to 8) (size 9 to 14) (size 15 to 20)
#    0.000    0.533    0.667    8.400    5.600    2.133 
#    0.000    0.000    0.000    0.000    0.000    0.000 
#    0.000    0.000    0.000    0.000    0.000    0.000 
#
# Total GULP energy -371814.006629 kJ/mol
# GULP energy per Si atom -12393.800221 kJ/mol
# Density = 2.258461 g / cm^3
# Si number density = 22.636131 Si / 1000 Ang^3
#
#
#
# Elastic Constant Matrix: (Units=GPa)
#
#
# Indices 1 2 3 4 5 6 
#
# 1 82.1528 17.0207 16.3564 -0.0005 -0.9654 0.0002
# 2 17.0207 121.7355 10.9638 -0.0009 10.7986 0.0011
# 3 16.3564 10.9638 98.2749 -0.0085 7.3815 0.0038
# 4 -0.0005 -0.0009 -0.0085 41.7345 0.0039 -0.1784
# 5 -0.9654 10.7986 7.3815 0.0039 22.9343 -0.0011
# 6 0.0002 0.0011 0.0038 -0.1784 -0.0011 36.7122
#
#
#
# Elastic Compliance Matrix: (Units=1/GPa)
#
#
# Indices 1 2 3 4 5 6 
#
# 1 0.012993 -0.001811 -0.002117 -0.000001 0.002081 0.000000
# 2 -0.001811 0.008868 -0.000378 0.000000 -0.004130 0.000000
# 3 -0.002117 -0.000378 0.010825 0.000002 -0.003395 -0.000001
# 4 -0.000001 0.000000 0.000002 0.023961 -0.000005 0.000116
# 5 0.002081 -0.004130 -0.003395 -0.000005 0.046728 0.000002
# 6 0.000000 0.000000 -0.000001 0.000116 0.000002 0.027239
#
#
# Mechanical properties :
#
#
# Convention : Reuss Voigt Hill
#
# Bulk Modulus (GPa) = 41.53507 43.42722 42.48114
# Shear Modulus (GPa) = 33.95555 37.46435 35.70995
#
# Velocity S-wave (km/s) = 3.87726 4.07267 3.97617
# Velocity P-wave (km/s) = 6.19944 6.42978 6.31566
#
# Compressibility (1/GPa) = 0.02407604
#
# Stress axis : x y z
#
# Youngs Moduli (GPa) = 76.96157 112.76396 92.37850
#
# Poissons Ratio (x) = 0.20418 0.19555
# Poissons Ratio (y) = 0.13935 0.03490
# Poissons Ratio (z) = 0.16292 0.04260
#
# Static dielectric constant tensor:
#      x y z
#    x 4.387380 -0.000020 -0.046620 
#    y -0.000020 4.370400 0.000010 
#    z -0.046620 0.000010 4.066300 
# 
# 
# High freq. dielectric constant tensor:
#      x y z
#    x 1.895220 0.000000 -0.001270 
#    y 0.000000 1.911970 0.000000 
#    z -0.001270 0.000000 1.905780 
# 
# From -- ./inp_files/200520.got.cif
#   From: 2010.06.25/outbox.cif.g09.slc.cpg/sg15_101_cif.got.tgz:200520.got - 2010.06.28 07:06:18.
