data_PCOD8152075
_publ_section_title
;
Structure prediction by ZEFSAII (Michael W. Deem and Ramdas Pophale) SiO2 
 PCOD8152075
Probable space group: C 2/C
;
_chemical_formula_sum "Si O2"
_cell_formula_units_Z 52
_cell_length_a 25.057082
_cell_length_b 12.706796
_cell_length_c 8.318540
_cell_angle_alpha 90.000000
_cell_angle_beta 116.862199
_cell_angle_gamma 90.000000
_cell_volume 2362.790252
_symmetry_space_group_name_H-M "C 2/C"
_symmetry_group_IT_number 15
_symmetry_cell_setting 'monoclinic'
loop_
_space_group_symop_operation_xyz
x,y,z
-x,y,1/2-z
-x,-y,-z
x,-y,1/2+z
1/2+x,1/2+y,z
1/2-x,1/2+y,1/2-z
1/2-x,1/2-y,-z
1/2+x,1/2-y,1/2+z
loop_
_atom_site_type_symbol
_atom_site_label
_atom_site_fract_x
_atom_site_fract_y
_atom_site_fract_z
Si Si1 0.321334 0.958024 0.186344
Si Si2 0.196797 0.941457 0.563412
Si Si3 0.154561 0.143906 0.683771
Si Si4 0.034006 0.266102 0.452879
Si Si5 0.408057 0.023669 0.545523
Si Si6 0.500000 0.847744 0.750000
Si Si7 0.733968 0.245378 0.794133
O O1 0.344073 0.938923 0.036625
O O2 0.309103 0.855633 0.280320
O O3 0.263710 0.032947 0.094257
O O4 0.384041 0.004986 0.333992
O O5 0.155759 0.894983 0.367728
O O6 0.199875 0.852476 0.704862
O O7 0.164366 0.045182 0.580852
O O8 0.091830 0.195203 0.558613
O O9 0.207084 0.230041 0.733855
O O10 0.046037 0.381748 0.400934
O O11 0.000000 0.214195 0.250000
O O12 0.001636 0.277230 0.585646
O O13 0.440753 0.920406 0.661672
O O14 0.750000 0.250000 0.000000
#
# Coordination Sequence:
#
# PCOD8152075 Si02
#       7
#     8   8   8   8   8   4   8
#     4  11  22  35  66  99 136 180 218 280 355 424
#     4  11  23  44  65 103 143 179 236 281 350 435
#     4  11  25  44  70  99 139 187 228 295 353 413
#     4  12  26  48  71 101 138 182 243 298 354 415
#     4  12  22  41  65 100 140 174 224 287 360 424
#     4  12  26  44  70 106 138 186 234 292 358 418
#     4  11  22  38  65 105 140 182 225 278 350 435
#
# _framework density 22.007878999999999
#
# number of rings (size 3 to 8) (size 9 to 14) (size 15 to 20)
#    0.000    0.615    2.308    8.308    2.154    0.000 
#    2.769    0.769    0.000    0.000    0.000    0.000 
#    0.000    0.000    0.000    0.000    0.000    0.000 
#
# Total GULP energy -322203.702377 kJ/mol
# GULP energy per Si atom -12392.450091 kJ/mol
# Density = 2.195779 g / cm^3
# Si number density = 22.007879 Si / 1000 Ang^3
#
#
#
# Elastic Constant Matrix: (Units=GPa)
#
#
# Indices 1 2 3 4 5 6 
#
# 1 107.4647 38.5737 42.9226 0.0000 -4.6152 0.0000
# 2 38.5737 82.0054 30.8562 0.0000 2.4914 0.0000
# 3 42.9226 30.8562 131.9650 0.0000 -0.3869 0.0000
# 4 0.0000 0.0000 0.0000 40.1786 0.0000 1.3053
# 5 -4.6152 2.4914 -0.3869 0.0000 37.5871 0.0000
# 6 0.0000 0.0000 0.0000 1.3053 0.0000 36.4821
#
#
#
# Elastic Compliance Matrix: (Units=1/GPa)
#
#
# Indices 1 2 3 4 5 6 
#
# 1 0.012223 -0.004725 -0.002865 0.000000 0.001784 0.000000
# 2 -0.004725 0.015229 -0.002029 0.000000 -0.001611 0.000000
# 3 -0.002865 -0.002029 0.008984 0.000000 -0.000125 0.000000
# 4 0.000000 0.000000 0.000000 0.024918 0.000000 -0.000892
# 5 0.001784 -0.001611 -0.000125 0.000000 0.026929 0.000000
# 6 0.000000 0.000000 0.000000 -0.000892 0.000000 0.027443
#
#
# Mechanical properties :
#
#
# Convention : Reuss Voigt Hill
#
# Bulk Modulus (GPa) = 58.15031 60.68224 59.41628
# Shear Modulus (GPa) = 35.53746 36.78840 36.16293
#
# Velocity S-wave (km/s) = 4.02277 4.09296 4.05801
# Velocity P-wave (km/s) = 6.93230 7.06889 7.00093
#
# Compressibility (1/GPa) = 0.01719681
#
# Stress axis : x y z
#
# Youngs Moduli (GPa) = 81.81562 65.66296 111.31223
#
# Poissons Ratio (x) = 0.31028 0.31895
# Poissons Ratio (y) = 0.38661 0.22582
# Poissons Ratio (z) = 0.23443 0.13321
#
# Static dielectric constant tensor:
#      x y z
#    x 3.653470 0.000000 -0.302590 
#    y 0.000000 3.010490 0.000000 
#    z -0.302590 0.000000 4.085780 
# 
# 
# High freq. dielectric constant tensor:
#      x y z
#    x 1.857250 0.000000 -0.011430 
#    y 0.000000 1.852760 0.000000 
#    z -0.011430 0.000000 1.885670 
# 
# From -- ./inp_files/65593.got.cif
#   From: 2010.06.25/outbox.cif.g09.slc.cpg/sg15_33_cif.got.tgz:65593.got - 2010.06.28 07:06:18.
