data_PCOD8152981
_publ_section_title
;
Structure prediction by ZEFSAII (Michael W. Deem and Ramdas Pophale) SiO2 
 PCOD8152981
Probable space group: C 2/C
;
_chemical_formula_sum "Si O2"
_cell_formula_units_Z 40
_cell_length_a 12.809184
_cell_length_b 8.930830
_cell_length_c 18.088700
_cell_angle_alpha 90.000000
_cell_angle_beta 112.271296
_cell_angle_gamma 90.000000
_cell_volume 1914.917192
_symmetry_space_group_name_H-M "C 2/C"
_symmetry_group_IT_number 15
_symmetry_cell_setting 'monoclinic'
loop_
_space_group_symop_operation_xyz
x,y,z
-x,y,1/2-z
-x,-y,-z
x,-y,1/2+z
1/2+x,1/2+y,z
1/2-x,1/2+y,1/2-z
1/2-x,1/2-y,-z
1/2+x,1/2-y,1/2+z
loop_
_atom_site_type_symbol
_atom_site_label
_atom_site_fract_x
_atom_site_fract_y
_atom_site_fract_z
Si Si1 0.741149 0.695570 0.335316
Si Si2 0.801767 0.975011 0.817794
Si Si3 0.272889 0.410295 0.972528
Si Si4 0.947530 0.099618 0.105726
Si Si5 0.909706 0.387119 0.006450
O O1 0.741770 0.866175 0.310096
O O2 0.763452 0.599972 0.267760
O O3 0.624310 0.643636 0.341257
O O4 0.842446 0.677608 0.419331
O O5 0.784316 0.882721 0.888470
O O6 0.935822 0.975501 0.836801
O O7 0.250000 0.250000 0.000000
O O8 0.386561 0.477023 0.038062
O O9 0.172984 0.528320 0.959545
O O10 0.969708 0.250491 0.064575
O O11 0.000000 0.500000 0.000000
#
# Coordination Sequence:
#
# PCOD8152981 Si02
#       5
#     8   8   8   8   8
#     4  11  26  45  64 102 134 174 223 278 338 406
#     4  12  25  44  69  95 139 174 220 279 343 398
#     4  11  23  41  70 100 130 173 232 274 324 414
#     4  11  23  47  70  92 134 180 221 281 338 395
#     4  11  23  44  70  97 132 179 228 276 337 400
#
# _framework density 20.888632000000001
#
# number of rings (size 3 to 8) (size 9 to 14) (size 15 to 20)
#    0.000    0.800    4.000    3.600   11.200    0.000 
#    0.000    1.000    0.000    0.000    0.000    0.000 
#    0.000    0.000    0.000    0.000    0.000    0.000 
#
# Total GULP energy -248069.409408 kJ/mol
# GULP energy per Si atom -12403.470470 kJ/mol
# Density = 2.084109 g / cm^3
# Si number density = 20.888632 Si / 1000 Ang^3
#
#
#
# Elastic Constant Matrix: (Units=GPa)
#
#
# Indices 1 2 3 4 5 6 
#
# 1 42.9564 -3.9563 14.8505 0.0000 -10.1882 0.0000
# 2 -3.9563 96.2928 30.9122 0.0000 -21.9130 0.0000
# 3 14.8505 30.9122 105.5018 0.0000 -34.6317 0.0000
# 4 0.0000 0.0000 0.0000 40.8443 0.0000 -4.4037
# 5 -10.1882 -21.9130 -34.6317 0.0000 26.1801 0.0000
# 6 0.0000 0.0000 0.0000 -4.4037 0.0000 31.2999
#
#
#
# Elastic Compliance Matrix: (Units=1/GPa)
#
#
# Indices 1 2 3 4 5 6 
#
# 1 0.027067 0.004354 -0.000763 0.000000 0.013168 0.000000
# 2 0.004354 0.013539 -0.000537 0.000000 0.012316 0.000000
# 3 -0.000763 -0.000537 0.016788 0.000000 0.021461 0.000000
# 4 0.000000 0.000000 0.000000 0.024860 0.000000 0.003498
# 5 0.013168 0.012316 0.021461 0.000000 0.082020 0.000000
# 6 0.000000 0.000000 0.000000 0.003498 0.000000 0.032441
#
#
# Mechanical properties :
#
#
# Convention : Reuss Voigt Hill
#
# Bulk Modulus (GPa) = 15.74758 36.48488 26.11623
# Shear Modulus (GPa) = 23.60990 33.19451 28.40220
#
# Velocity S-wave (km/s) = 3.36560 3.99070 3.69141
# Velocity P-wave (km/s) = 4.76007 6.22403 5.54061
#
# Compressibility (1/GPa) = 0.06350181
#
# Stress axis : x y z
#
# Youngs Moduli (GPa) = 36.94488 73.86070 59.56625
#
# Poissons Ratio (x) = -0.32157 0.04546
# Poissons Ratio (y) = -0.16085 0.03198
# Poissons Ratio (z) = 0.02819 0.03965
#
# Static dielectric constant tensor:
#      x y z
#    x 4.045270 0.000000 -0.100770 
#    y 0.000000 4.048740 0.000000 
#    z -0.100770 0.000000 3.979780 
# 
# 
# High freq. dielectric constant tensor:
#      x y z
#    x 1.817610 0.000000 -0.013170 
#    y 0.000000 1.827230 0.000000 
#    z -0.013170 0.000000 1.825910 
# 
# From -- ./inp_files/150587.got.cif
#   From: 2010.06.25/outbox.cif.g09.slc.cpg/sg15_76_cif.got.tgz:150587.got - 2010.06.28 07:06:18.
