data_PCOD8152655
_publ_section_title
;
Structure prediction by ZEFSAII (Michael W. Deem and Ramdas Pophale) SiO2 
 PCOD8152655
Probable space group: C 2/C
;
_chemical_formula_sum "Si O2"
_cell_formula_units_Z 48
_cell_length_a 16.918592
_cell_length_b 14.513076
_cell_length_c 17.505167
_cell_angle_alpha 90.000000
_cell_angle_beta 33.684165
_cell_angle_gamma 90.000000
_cell_volume 2383.862197
_symmetry_space_group_name_H-M "C 2/C"
_symmetry_group_IT_number 15
_symmetry_cell_setting 'monoclinic'
loop_
_space_group_symop_operation_xyz
x,y,z
-x,y,1/2-z
-x,-y,-z
x,-y,1/2+z
1/2+x,1/2+y,z
1/2-x,1/2+y,1/2-z
1/2-x,1/2-y,-z
1/2+x,1/2-y,1/2+z
loop_
_atom_site_type_symbol
_atom_site_label
_atom_site_fract_x
_atom_site_fract_y
_atom_site_fract_z
Si Si1 0.628795 0.709457 0.808369
Si Si2 0.186733 0.457255 0.307879
Si Si3 0.860391 0.331266 0.410208
Si Si4 0.802530 0.200830 0.033217
Si Si5 0.845403 0.510356 0.340390
Si Si6 0.900562 0.367698 0.552116
O O1 0.673356 0.606465 0.798510
O O2 0.734631 0.750308 0.660653
O O3 0.639582 0.773025 0.874349
O O4 0.472040 0.707047 0.899952
O O5 0.144100 0.484548 0.256555
O O6 0.212606 0.552238 0.333862
O O7 0.057421 0.401335 0.451782
O O8 0.750000 0.250000 0.500000
O O9 0.786533 0.421543 0.433222
O O10 0.907127 0.352126 0.457621
O O11 0.000000 0.302770 0.250000
O O12 0.761933 0.093865 0.061492
O O13 0.750000 0.250000 0.000000
O O14 0.000000 0.537385 0.250000
#
# Coordination Sequence:
#
# PCOD8152655 Si02
#       6
#     8   8   8   8   8   8
#     4  12  25  46  69  99 137 175 228 284 336 402
#     4  11  23  42  70  98 128 181 224 271 336 403
#     4  11  24  44  68  97 132 180 222 276 335 398
#     4  12  27  44  68 101 136 179 223 281 342 407
#     4  11  22  44  68  97 135 179 224 273 342 409
#     4  11  23  42  70  96 135 175 225 272 337 405
#
# _framework density 20.135393000000001
#
# number of rings (size 3 to 8) (size 9 to 14) (size 15 to 20)
#    0.000    0.667    6.667    2.500    2.333    0.667 
#    3.000    0.000    0.000    0.000    0.000    0.000 
#    0.000    0.000    0.000    0.000    0.000    0.000 
#
# Total GULP energy -297650.037954 kJ/mol
# GULP energy per Si atom -12402.084915 kJ/mol
# Density = 2.008956 g / cm^3
# Si number density = 20.135393 Si / 1000 Ang^3
#
#
#
# Elastic Constant Matrix: (Units=GPa)
#
#
# Indices 1 2 3 4 5 6 
#
# 1 99.1332 45.3213 52.8451 -0.0002 10.2537 0.0000
# 2 45.3213 145.7215 54.6906 -0.0002 -5.0887 0.0000
# 3 52.8451 54.6906 80.6964 -0.0009 5.4858 0.0007
# 4 -0.0002 -0.0002 -0.0009 22.7475 0.0006 -12.3323
# 5 10.2537 -5.0887 5.4858 0.0006 40.6392 -0.0004
# 6 0.0000 0.0000 0.0007 -12.3323 -0.0004 29.2662
#
#
#
# Elastic Compliance Matrix: (Units=1/GPa)
#
#
# Indices 1 2 3 4 5 6 
#
# 1 0.016052 -0.001649 -0.009189 0.000000 -0.003016 0.000000
# 2 -0.001649 0.009539 -0.005545 0.000000 0.002359 0.000000
# 3 -0.009189 -0.005545 0.022262 0.000001 -0.001381 0.000000
# 4 0.000000 0.000000 0.000001 0.056977 -0.000001 0.024009
# 5 -0.003016 0.002359 -0.001381 -0.000001 0.025850 0.000000
# 6 0.000000 0.000000 0.000000 0.024009 0.000000 0.044286
#
#
# Mechanical properties :
#
#
# Convention : Reuss Voigt Hill
#
# Bulk Modulus (GPa) = 66.28798 70.14060 68.21429
# Shear Modulus (GPa) = 23.50059 30.04352 26.77205
#
# Velocity S-wave (km/s) = 3.42003 3.86693 3.65033
# Velocity P-wave (km/s) = 6.97052 7.40592 7.19151
#
# Compressibility (1/GPa) = 0.01508569
#
# Stress axis : x y z
#
# Youngs Moduli (GPa) = 62.29873 104.83473 44.91974
#
# Poissons Ratio (x) = 0.17286 0.41277
# Poissons Ratio (y) = 0.10272 0.24910
# Poissons Ratio (z) = 0.57247 0.58135
#
# Static dielectric constant tensor:
#      x y z
#    x 3.614340 0.000000 0.095100 
#    y 0.000000 3.885960 -0.000010 
#    z 0.095100 -0.000010 4.007540 
# 
# 
# High freq. dielectric constant tensor:
#      x y z
#    x 1.789140 0.000000 0.017700 
#    y 0.000000 1.803430 0.000000 
#    z 0.017700 0.000000 1.781730 
# 
# From -- ./inp_files/66434.got.cif
#   From: 2010.06.25/outbox.cif.g09.slc.cpg/sg15_34_cif.got.tgz:66434.got - 2010.06.28 07:06:18.
