data_PCOD8152800
_publ_section_title
;
Structure prediction by ZEFSAII (Michael W. Deem and Ramdas Pophale) SiO2 
 PCOD8152800
Probable space group: C 2/C
;
_chemical_formula_sum "Si O2"
_cell_formula_units_Z 48
_cell_length_a 11.535437
_cell_length_b 15.072751
_cell_length_c 25.406429
_cell_angle_alpha 90.000000
_cell_angle_beta 148.676510
_cell_angle_gamma 90.000000
_cell_volume 2296.489372
_symmetry_space_group_name_H-M "C 2/C"
_symmetry_group_IT_number 15
_symmetry_cell_setting 'monoclinic'
loop_
_space_group_symop_operation_xyz
x,y,z
-x,y,1/2-z
-x,-y,-z
x,-y,1/2+z
1/2+x,1/2+y,z
1/2-x,1/2+y,1/2-z
1/2-x,1/2-y,-z
1/2+x,1/2-y,1/2+z
loop_
_atom_site_type_symbol
_atom_site_label
_atom_site_fract_x
_atom_site_fract_y
_atom_site_fract_z
Si Si1 0.500000 0.330542 0.750000
Si Si2 0.313244 0.349336 0.021854
Si Si3 0.008490 0.740167 0.930760
Si Si4 0.543467 0.097543 0.035411
Si Si5 0.357783 0.418183 0.926522
Si Si6 0.000000 0.538573 0.750000
Si Si7 0.183525 0.678764 0.749195
O O1 0.697535 0.393060 0.847835
O O2 0.617265 0.270305 0.751459
O O3 0.571336 0.357560 0.140287
O O4 0.250000 0.250000 0.000000
O O5 0.261317 0.377851 0.942385
O O6 0.137868 0.400937 0.988980
O O7 0.959956 0.839462 0.931425
O O8 0.838144 0.699325 0.821327
O O9 0.250000 0.750000 0.000000
O O10 0.994011 0.673488 0.973746
O O11 0.500000 0.000000 0.000000
O O12 0.195690 0.468253 0.824660
O O13 0.500000 0.500000 0.000000
O O14 0.987391 0.601876 0.797034
#
# Coordination Sequence:
#
# PCOD8152800 Si02
#       7
#     4   8   8   8   8   4   8
#     4  11  22  48  73 100 138 196 235 294 369 422
#     4  12  25  48  72 104 147 190 238 305 362 430
#     4  12  26  46  72 107 147 190 239 301 364 434
#     4  12  29  47  74 108 149 189 239 303 369 436
#     4  12  26  46  74 107 143 188 246 299 357 436
#     4  11  26  44  75 108 136 194 251 296 357 442
#     4  11  24  45  77 101 143 191 243 297 366 429
#
# _framework density 20.901468999999999
#
# number of rings (size 3 to 8) (size 9 to 14) (size 15 to 20)
#    0.000    0.333    6.667    1.000    7.000    2.000 
#    0.000    0.000    0.000    0.000    0.000    0.000 
#    0.000    0.000    0.000    0.000    0.000    0.000 
#
# Total GULP energy -297317.484161 kJ/mol
# GULP energy per Si atom -12388.228507 kJ/mol
# Density = 2.085390 g / cm^3
# Si number density = 20.901469 Si / 1000 Ang^3
#
#
#
# Elastic Constant Matrix: (Units=GPa)
#
#
# Indices 1 2 3 4 5 6 
#
# 1 124.2434 53.7694 28.4475 -0.0001 -1.6494 0.0000
# 2 53.7694 175.4380 45.9311 0.0000 -1.5147 0.0000
# 3 28.4475 45.9311 109.8012 -0.0007 1.7571 0.0001
# 4 -0.0001 0.0000 -0.0007 41.2165 0.0000 -0.5887
# 5 -1.6494 -1.5147 1.7571 0.0000 37.4631 0.0000
# 6 0.0000 0.0000 0.0001 -0.5887 0.0000 40.3524
#
#
#
# Elastic Compliance Matrix: (Units=1/GPa)
#
#
# Indices 1 2 3 4 5 6 
#
# 1 0.009470 -0.002533 -0.001400 0.000000 0.000380 0.000000
# 2 -0.002533 0.007084 -0.002312 0.000000 0.000283 0.000000
# 3 -0.001400 -0.002312 0.010447 0.000000 -0.000645 0.000000
# 4 0.000000 0.000000 0.000000 0.024267 0.000000 0.000354
# 5 0.000380 0.000283 -0.000645 0.000000 0.026751 0.000000
# 6 0.000000 0.000000 0.000000 0.000354 0.000000 0.024787
#
#
# Mechanical properties :
#
#
# Convention : Reuss Voigt Hill
#
# Bulk Modulus (GPa) = 68.90537 73.97540 71.44039
# Shear Modulus (GPa) = 41.62020 42.56203 42.09112
#
# Velocity S-wave (km/s) = 4.46719 4.51745 4.49239
# Velocity P-wave (km/s) = 7.72309 7.91701 7.82065
#
# Compressibility (1/GPa) = 0.01451266
#
# Stress axis : x y z
#
# Youngs Moduli (GPa) = 105.59154 141.16501 95.71702
#
# Poissons Ratio (x) = 0.35753 0.13403
# Poissons Ratio (y) = 0.26743 0.22126
# Poissons Ratio (z) = 0.14785 0.32632
#
# Static dielectric constant tensor:
#      x y z
#    x 3.884830 0.000000 -0.080860 
#    y 0.000000 3.935770 0.000000 
#    z -0.080860 0.000000 3.898430 
# 
# 
# High freq. dielectric constant tensor:
#      x y z
#    x 1.826450 0.000000 0.000840 
#    y 0.000000 1.838530 0.000000 
#    z 0.000840 0.000000 1.823300 
# 
# From -- ./inp_files/182553.got.cif
#   From: 2010.06.25/outbox.cif.g09.slc.cpg/sg15_92_cif.got.tgz:182553.got - 2010.06.28 07:06:18.
