data_PCOD8152910
_publ_section_title
;
Structure prediction by ZEFSAII (Michael W. Deem and Ramdas Pophale) SiO2 
 PCOD8152910
Probable space group: C 2/C
;
_chemical_formula_sum "Si O2"
_cell_formula_units_Z 56
_cell_length_a 8.886656
_cell_length_b 26.855338
_cell_length_c 11.582183
_cell_angle_alpha 90.000000
_cell_angle_beta 64.782699
_cell_angle_gamma 90.000000
_cell_volume 2500.709577
_symmetry_space_group_name_H-M "C 2/C"
_symmetry_group_IT_number 15
_symmetry_cell_setting 'monoclinic'
loop_
_space_group_symop_operation_xyz
x,y,z
-x,y,1/2-z
-x,-y,-z
x,-y,1/2+z
1/2+x,1/2+y,z
1/2-x,1/2+y,1/2-z
1/2-x,1/2-y,-z
1/2+x,1/2-y,1/2+z
loop_
_atom_site_type_symbol
_atom_site_label
_atom_site_fract_x
_atom_site_fract_y
_atom_site_fract_z
Si Si1 0.603288 0.102909 0.440228
Si Si2 0.210619 0.641055 0.855566
Si Si3 0.090587 0.473787 0.613169
Si Si4 0.589594 0.587640 0.530422
Si Si5 0.641693 0.654569 0.298516
Si Si6 0.222479 0.577484 0.632120
Si Si7 0.693818 0.250282 0.153607
O O1 0.441353 0.138469 0.503234
O O2 0.533167 0.044932 0.450177
O O3 0.707539 0.120863 0.297204
O O4 0.718853 0.109100 0.515017
O O5 0.371813 0.617140 0.864254
O O6 0.153042 0.610208 0.761123
O O7 0.251062 0.697349 0.808612
O O8 0.277479 0.455405 0.533477
O O9 0.101816 0.531456 0.643331
O O10 0.000000 0.446301 0.750000
O O11 0.573384 0.627212 0.433346
O O12 0.410463 0.561163 0.601424
O O13 0.500000 0.660671 0.250000
O O14 0.703434 0.708900 0.312615
O O15 0.500000 0.242222 0.250000
O O16 0.750000 0.250000 0.000000
#
# Coordination Sequence:
#
# PCOD8152910 Si02
#       7
#     8   8   8   8   8   8   8
#     4  11  24  44  70  97 143 181 234 291 345 420
#     4  11  25  45  71 101 141 187 230 294 352 427
#     4  11  23  40  69  98 133 186 236 283 348 419
#     4  11  23  44  68  95 142 178 232 286 347 413
#     4  12  25  45  71 105 137 182 232 296 348 417
#     4  12  24  43  65 104 140 182 231 289 356 413
#     4  12  26  46  77 106 140 191 245 288 365 435
#
# _framework density 22.393643000000001
#
# number of rings (size 3 to 8) (size 9 to 14) (size 15 to 20)
#    0.000    0.571    4.286    4.286    2.000    2.286 
#    0.000    3.571    0.000    0.000    0.000    0.000 
#    0.000    0.000    0.000    0.000    0.000    0.000 
#
# Total GULP energy -347032.792840 kJ/mol
# GULP energy per Si atom -12394.028316 kJ/mol
# Density = 2.234267 g / cm^3
# Si number density = 22.393643 Si / 1000 Ang^3
#
#
#
# Elastic Constant Matrix: (Units=GPa)
#
#
# Indices 1 2 3 4 5 6 
#
# 1 110.8452 34.7103 34.6692 0.0000 10.8854 0.0000
# 2 34.7103 124.3756 36.1826 0.0000 16.9183 0.0000
# 3 34.6692 36.1826 92.7121 0.0000 1.9075 0.0000
# 4 0.0000 0.0000 0.0000 3.5472 0.0000 -40.2910
# 5 10.8854 16.9183 1.9075 0.0000 47.6994 0.0000
# 6 0.0000 0.0000 0.0000 -40.2910 0.0000 -41.9874
#
#
#
# Elastic Compliance Matrix: (Units=1/GPa)
#
#
# Indices 1 2 3 4 5 6 
#
# 1 0.010786 -0.001825 -0.003287 0.000000 -0.001683 0.000000
# 2 -0.001825 0.009854 -0.003102 0.000000 -0.002954 0.000000
# 3 -0.003287 -0.003102 0.013199 0.000000 0.001323 0.000000
# 4 0.000000 0.000000 0.000000 0.023691 0.000000 -0.022734
# 5 -0.001683 -0.002954 0.001323 0.000000 0.022344 0.000000
# 6 0.000000 0.000000 0.000000 -0.022734 0.000000 -0.002001
#
#
# Mechanical properties :
#
#
# Convention : Reuss Voigt Hill
#
# Bulk Modulus (GPa) = 57.43620 59.89525 58.66573
# Shear Modulus (GPa) = 49.94824 16.67657 33.31241
#
# Velocity S-wave (km/s) = 4.72790 2.73188 3.86110
# Velocity P-wave (km/s) = 7.45038 6.06263 6.79204
#
# Compressibility (1/GPa) = 0.01741062
#
# Stress axis : x y z
#
# Youngs Moduli (GPa) = 92.71000 101.48223 75.76558
#
# Poissons Ratio (x) = 0.18523 0.24901
# Poissons Ratio (y) = 0.16922 0.23505
# Poissons Ratio (z) = 0.30470 0.31483
#
# Static dielectric constant tensor:
#      x y z
#    x 4.060340 0.000000 0.051010 
#    y 0.000000 3.804280 0.000000 
#    z 0.051010 0.000000 4.281580 
# 
# 
# High freq. dielectric constant tensor:
#      x y z
#    x 1.895530 0.000000 -0.003620 
#    y 0.000000 1.867300 0.000000 
#    z -0.003620 0.000000 1.900710 
# 
# From -- ./inp_files/81247.got.cif
#   From: 2010.06.25/outbox.cif.g09.slc.cpg/sg15_41_cif.got.tgz:81247.got - 2010.06.28 07:06:18.
