data_PCOD8152771
_publ_section_title
;
Structure prediction by ZEFSAII (Michael W. Deem and Ramdas Pophale) SiO2 
 PCOD8152771
Probable space group: C 2/C
;
_chemical_formula_sum "Si O2"
_cell_formula_units_Z 56
_cell_length_a 18.102182
_cell_length_b 8.829474
_cell_length_c 17.486328
_cell_angle_alpha 90.000000
_cell_angle_beta 69.784330
_cell_angle_gamma 90.000000
_cell_volume 2622.718671
_symmetry_space_group_name_H-M "C 2/C"
_symmetry_group_IT_number 15
_symmetry_cell_setting 'monoclinic'
loop_
_space_group_symop_operation_xyz
x,y,z
-x,y,1/2-z
-x,-y,-z
x,-y,1/2+z
1/2+x,1/2+y,z
1/2-x,1/2+y,1/2-z
1/2-x,1/2-y,-z
1/2+x,1/2-y,1/2+z
loop_
_atom_site_type_symbol
_atom_site_label
_atom_site_fract_x
_atom_site_fract_y
_atom_site_fract_z
Si Si1 0.229910 0.077045 0.509775
Si Si2 0.426212 0.622634 0.317578
Si Si3 0.996354 0.407904 0.579621
Si Si4 0.701031 0.561686 0.697346
Si Si5 0.444542 0.570608 0.955799
Si Si6 0.874108 0.438431 0.371132
Si Si7 0.340678 0.104923 0.229999
O O1 0.250000 0.250000 0.500000
O O2 0.223264 0.037267 0.600883
O O3 0.148430 0.047104 0.492729
O O4 0.297839 0.979746 0.447194
O O5 0.500000 0.701015 0.250000
O O6 0.380760 0.529227 0.267392
O O7 0.460265 0.509193 0.369433
O O8 0.372830 0.756132 0.371208
O O9 0.907095 0.382270 0.640666
O O10 0.000000 0.500000 0.500000
O O11 0.038574 0.247823 0.555022
O O12 0.044705 0.505202 0.622514
O O13 0.687791 0.733008 0.728834
O O14 0.766166 0.484537 0.725544
O O15 0.500000 0.500000 0.000000
O O16 0.873523 0.507064 0.287317
#
# Coordination Sequence:
#
# PCOD8152771 Si02
#       7
#     8   8   8   8   8   8   8
#     4  11  22  46  71  96 141 180 229 291 354 421
#     4  11  24  44  66  97 139 175 225 282 347 416
#     4  12  25  43  68  99 136 176 233 285 349 416
#     4  11  25  44  68 100 136 186 229 287 358 416
#     4  11  25  42  68  98 132 179 225 285 347 411
#     4  12  24  42  70  99 132 185 224 284 351 416
#     4  12  25  42  68  99 136 177 231 285 346 420
#
# _framework density 21.351889
#
# number of rings (size 3 to 8) (size 9 to 14) (size 15 to 20)
#    0.000    0.571    2.857    5.571    0.000    5.714 
#    0.000    0.000    0.000    0.000    0.000    0.000 
#    0.000    0.000    0.000    0.000    0.000    0.000 
#
# Total GULP energy -347218.380200 kJ/mol
# GULP energy per Si atom -12400.656436 kJ/mol
# Density = 2.130329 g / cm^3
# Si number density = 21.351889 Si / 1000 Ang^3
#
#
#
# Elastic Constant Matrix: (Units=GPa)
#
#
# Indices 1 2 3 4 5 6 
#
# 1 147.5645 53.6820 54.1425 0.0000 18.4571 0.0000
# 2 53.6820 156.2411 39.8300 -0.0001 10.4253 -0.0001
# 3 54.1425 39.8300 97.7177 0.0000 -6.1434 0.0000
# 4 0.0000 -0.0001 0.0000 27.0940 0.0000 0.8780
# 5 18.4571 10.4253 -6.1434 0.0000 50.5653 0.0000
# 6 0.0000 -0.0001 0.0000 0.8780 0.0000 43.1769
#
#
#
# Elastic Compliance Matrix: (Units=1/GPa)
#
#
# Indices 1 2 3 4 5 6 
#
# 1 0.009699 -0.001844 -0.004858 0.000000 -0.003750 0.000000
# 2 -0.001844 0.007667 -0.002177 0.000000 -0.001172 0.000000
# 3 -0.004858 -0.002177 0.014060 0.000000 0.003930 0.000000
# 4 0.000000 0.000000 0.000000 0.036933 0.000000 -0.000751
# 5 -0.003750 -0.001172 0.003930 0.000000 0.021865 0.000000
# 6 0.000000 0.000000 0.000000 -0.000751 0.000000 0.023176
#
#
# Mechanical properties :
#
#
# Convention : Reuss Voigt Hill
#
# Bulk Modulus (GPa) = 73.16564 77.42582 75.29573
# Shear Modulus (GPa) = 36.84226 41.09183 38.96705
#
# Velocity S-wave (km/s) = 4.15840 4.39168 4.27663
# Velocity P-wave (km/s) = 7.57610 7.87758 7.72831
#
# Compressibility (1/GPa) = 0.01366762
#
# Stress axis : x y z
#
# Youngs Moduli (GPa) = 103.10310 130.42736 71.12399
#
# Poissons Ratio (x) = 0.24047 0.34554
# Poissons Ratio (y) = 0.19009 0.15486
# Poissons Ratio (z) = 0.50090 0.28398
#
# Static dielectric constant tensor:
#      x y z
#    x 4.175140 0.000000 -0.002450 
#    y 0.000000 5.282020 0.000000 
#    z -0.002450 0.000000 3.779440 
# 
# 
# High freq. dielectric constant tensor:
#      x y z
#    x 1.858720 0.000000 -0.001850 
#    y 0.000000 1.855340 0.000000 
#    z -0.001850 0.000000 1.838420 
# 
# From -- ./inp_files/209536.got.cif
#   From: 2010.06.25/outbox.cif.g09.slc.cpg/sg15_105_cif.got.tgz:209536.got - 2010.06.28 07:06:18.
