data_PCOD8152209
_publ_section_title
;
Structure prediction by ZEFSAII (Michael W. Deem and Ramdas Pophale) SiO2 
 PCOD8152209
Probable space group: C 2/C
;
_chemical_formula_sum "Si O2"
_cell_formula_units_Z 56
_cell_length_a 19.525949
_cell_length_b 13.532715
_cell_length_c 9.181530
_cell_angle_alpha 90.000000
_cell_angle_beta 86.512931
_cell_angle_gamma 90.000000
_cell_volume 2421.627414
_symmetry_space_group_name_H-M "C 2/C"
_symmetry_group_IT_number 15
_symmetry_cell_setting 'monoclinic'
loop_
_space_group_symop_operation_xyz
x,y,z
-x,y,1/2-z
-x,-y,-z
x,-y,1/2+z
1/2+x,1/2+y,z
1/2-x,1/2+y,1/2-z
1/2-x,1/2-y,-z
1/2+x,1/2-y,1/2+z
loop_
_atom_site_type_symbol
_atom_site_label
_atom_site_fract_x
_atom_site_fract_y
_atom_site_fract_z
Si Si1 0.304648 0.646943 0.681849
Si Si2 0.849362 0.340712 0.199803
Si Si3 0.753810 0.454151 0.877673
Si Si4 0.900826 0.741103 0.975036
Si Si5 0.850495 0.183616 0.978272
Si Si6 0.844559 0.552158 0.107308
Si Si7 0.013336 0.102358 0.419372
O O1 0.226164 0.673816 0.724517
O O2 0.307391 0.527697 0.666440
O O3 0.332311 0.699391 0.532168
O O4 0.357171 0.681092 0.803199
O O5 0.899481 0.282093 0.302529
O O6 0.851748 0.295386 0.037055
O O7 0.875708 0.453263 0.177188
O O8 0.723154 0.366308 0.977097
O O9 0.790613 0.404726 0.732782
O O10 0.805608 0.522470 0.964507
O O11 0.901471 0.635736 0.062767
O O12 0.967362 0.808706 0.994738
O O13 0.908345 0.124770 0.056485
O O14 0.000000 0.090353 0.250000
O O15 0.000000 0.000000 0.500000
#
# Coordination Sequence:
#
# PCOD8152209 Si02
#       7
#     8   8   8   8   8   8   8
#     4  11  24  38  68 106 141 183 235 295 378 426
#     4  11  23  42  68 107 143 187 233 302 371 428
#     4  11  22  39  64 109 148 181 230 304 369 433
#     4  12  25  46  70 100 150 194 241 298 363 440
#     4  12  25  42  69  99 147 187 242 289 358 428
#     4  11  23  41  68 106 146 180 234 294 375 431
#     4  12  30  52  74  99 141 196 246 294 347 439
#
# _framework density 23.124943999999999
#
# number of rings (size 3 to 8) (size 9 to 14) (size 15 to 20)
#    0.000    0.571    7.143    2.571    8.000    0.000 
#    0.000    0.714    0.000    0.000    0.000    0.000 
#    0.000    0.000    0.000    0.000    0.000    0.000 
#
# Total GULP energy -347125.185350 kJ/mol
# GULP energy per Si atom -12397.328048 kJ/mol
# Density = 2.307231 g / cm^3
# Si number density = 23.124944 Si / 1000 Ang^3
#
#
#
# Elastic Constant Matrix: (Units=GPa)
#
#
# Indices 1 2 3 4 5 6 
#
# 1 51.9044 30.8369 16.8319 0.0000 4.6080 0.0000
# 2 30.8369 132.2126 37.2827 0.0000 -9.6361 0.0000
# 3 16.8319 37.2827 114.7480 0.0000 1.9629 0.0000
# 4 0.0000 0.0000 0.0000 48.2335 0.0000 -4.6380
# 5 4.6080 -9.6361 1.9629 0.0000 27.2064 0.0000
# 6 0.0000 0.0000 0.0000 -4.6380 0.0000 37.3834
#
#
#
# Elastic Compliance Matrix: (Units=1/GPa)
#
#
# Indices 1 2 3 4 5 6 
#
# 1 0.023543 -0.005470 -0.001577 0.000000 -0.005811 0.000000
# 2 -0.005470 0.009876 -0.002485 0.000000 0.004604 0.000000
# 3 -0.001577 -0.002485 0.009776 0.000000 -0.001318 0.000000
# 4 0.000000 0.000000 0.000000 0.020983 0.000000 0.002603
# 5 -0.005811 0.004604 -0.001318 0.000000 0.039466 0.000000
# 6 0.000000 0.000000 0.000000 0.002603 0.000000 0.027073
#
#
# Mechanical properties :
#
#
# Convention : Reuss Voigt Hill
#
# Bulk Modulus (GPa) = 41.44025 52.08532 46.76279
# Shear Modulus (GPa) = 31.68083 36.82555 34.25319
#
# Velocity S-wave (km/s) = 3.70535 3.99489 3.85284
# Velocity P-wave (km/s) = 6.02206 6.62203 6.32916
#
# Compressibility (1/GPa) = 0.02413113
#
# Stress axis : x y z
#
# Youngs Moduli (GPa) = 42.47498 101.25869 102.29117
#
# Poissons Ratio (x) = 0.55389 0.16129
# Poissons Ratio (y) = 0.23234 0.25420
# Poissons Ratio (z) = 0.06697 0.25163
#
# Static dielectric constant tensor:
#      x y z
#    x 3.751980 0.000000 -0.091080 
#    y 0.000000 4.547510 0.000000 
#    z -0.091080 0.000000 4.453950 
# 
# 
# High freq. dielectric constant tensor:
#      x y z
#    x 1.863210 0.000000 -0.001330 
#    y 0.000000 1.932040 0.000000 
#    z -0.001330 0.000000 1.931510 
# 
# From -- ./inp_files/55608.got.cif
#   From: 2010.06.25/outbox.cif.g09.slc.cpg/sg15_28_cif.got.tgz:55608.got - 2010.06.28 07:06:18.
