data_PCOD8152245
_publ_section_title
;
Structure prediction by ZEFSAII (Michael W. Deem and Ramdas Pophale) SiO2 
 PCOD8152245
Probable space group: C 2/C
;
_chemical_formula_sum "Si O2"
_cell_formula_units_Z 64
_cell_length_a 29.319582
_cell_length_b 10.866072
_cell_length_c 22.442740
_cell_angle_alpha 90.000000
_cell_angle_beta 25.743806
_cell_angle_gamma 90.000000
_cell_volume 3105.588725
_symmetry_space_group_name_H-M "C 2/C"
_symmetry_group_IT_number 15
_symmetry_cell_setting 'monoclinic'
loop_
_space_group_symop_operation_xyz
x,y,z
-x,y,1/2-z
-x,-y,-z
x,-y,1/2+z
1/2+x,1/2+y,z
1/2-x,1/2+y,1/2-z
1/2-x,1/2-y,-z
1/2+x,1/2-y,1/2+z
loop_
_atom_site_type_symbol
_atom_site_label
_atom_site_fract_x
_atom_site_fract_y
_atom_site_fract_z
Si Si1 0.803945 0.582480 0.370446
Si Si2 0.411868 0.995324 0.053820
Si Si3 0.606081 0.268611 0.096238
Si Si4 0.413742 0.586059 0.073645
Si Si5 0.208304 0.661218 0.386184
Si Si6 0.272311 0.439922 0.153518
Si Si7 0.380204 0.982503 0.396857
Si Si8 0.996043 0.720636 0.395830
O O1 0.697254 0.648483 0.515672
O O2 0.787662 0.517369 0.326446
O O3 0.830828 0.477818 0.388061
O O4 0.886082 0.698222 0.267906
O O5 0.312466 0.919085 0.194811
O O6 0.374314 0.124079 0.068987
O O7 0.458014 0.920241 0.944505
O O8 0.500000 0.000000 0.000000
O O9 0.500000 0.314890 0.250000
O O10 0.627847 0.125264 0.078319
O O11 0.584513 0.292426 0.052057
O O12 0.325274 0.623760 0.226373
O O13 0.368017 0.515649 0.069557
O O14 0.500000 0.500000 0.000000
O O15 0.482949 0.706253 0.973138
O O16 0.193390 0.807270 0.412067
O O17 0.183594 0.597760 0.479299
O O18 0.500000 0.935385 0.250000
#
# Coordination Sequence:
#
# PCOD8152245 Si02
#       8
#     8   8   8   8   8   8   8   8
#     4  12  24  41  71  95 136 171 220 283 327 401
#     4  11  22  39  68  96 126 174 216 267 321 394
#     4  11  23  41  65 100 128 165 226 276 332 383
#     4  11  27  42  64 102 139 172 216 277 343 401
#     4  11  25  43  67  94 139 173 223 274 329 410
#     4  11  25  42  62 101 131 172 219 265 338 399
#     4  11  23  44  67  98 125 178 234 271 328 391
#     4  12  22  41  70 101 128 170 225 272 331 401
#
# _framework density 20.60801
#
# number of rings (size 3 to 8) (size 9 to 14) (size 15 to 20)
#    0.000    0.750    7.500    0.375    3.500    0.500 
#    0.000    0.625    0.000    0.000    0.000    0.000 
#    0.000    0.000    0.000    0.000    0.000    0.000 
#
# Total GULP energy -396499.377801 kJ/mol
# GULP energy per Si atom -12390.605556 kJ/mol
# Density = 2.056110 g / cm^3
# Si number density = 20.608010 Si / 1000 Ang^3
#
#
#
# Elastic Constant Matrix: (Units=GPa)
#
#
# Indices 1 2 3 4 5 6 
#
# 1 120.7559 20.0781 31.2350 0.0001 -9.8159 -0.0001
# 2 20.0781 74.6667 40.9112 0.0006 -2.8141 0.0003
# 3 31.2350 40.9112 98.3551 0.0009 -0.2539 -0.0002
# 4 0.0001 0.0006 0.0009 32.7510 0.0003 8.1195
# 5 -9.8159 -2.8141 -0.2539 0.0003 33.8928 -0.0001
# 6 -0.0001 0.0003 -0.0002 8.1195 -0.0001 31.2765
#
#
#
# Elastic Compliance Matrix: (Units=1/GPa)
#
#
# Indices 1 2 3 4 5 6 
#
# 1 0.009316 -0.001023 -0.002526 0.000000 0.002594 0.000000
# 2 -0.001023 0.017524 -0.006961 0.000000 0.001107 0.000000
# 3 -0.002526 -0.006961 0.013862 0.000000 -0.001206 0.000000
# 4 0.000000 0.000000 0.000000 0.032634 0.000000 -0.008472
# 5 0.002594 0.001107 -0.001206 0.000000 0.030339 0.000000
# 6 0.000000 0.000000 0.000000 -0.008472 0.000000 0.034172
#
#
# Mechanical properties :
#
#
# Convention : Reuss Voigt Hill
#
# Bulk Modulus (GPa) = 50.81235 53.13624 51.97430
# Shear Modulus (GPa) = 30.22470 33.02095 31.62282
#
# Velocity S-wave (km/s) = 3.83384 4.00726 3.92151
# Velocity P-wave (km/s) = 6.65642 6.87394 6.76605
#
# Compressibility (1/GPa) = 0.01968025
#
# Stress axis : x y z
#
# Youngs Moduli (GPa) = 107.34730 57.06485 72.13980
#
# Poissons Ratio (x) = 0.05838 0.18223
# Poissons Ratio (y) = 0.10983 0.50219
# Poissons Ratio (z) = 0.27117 0.39725
#
# Static dielectric constant tensor:
#      x y z
#    x 4.029910 0.000000 0.019280 
#    y 0.000000 3.613510 0.000000 
#    z 0.019280 0.000000 3.874530 
# 
# 
# High freq. dielectric constant tensor:
#      x y z
#    x 1.818250 0.000000 0.001960 
#    y 0.000000 1.784970 0.000000 
#    z 0.001960 0.000000 1.813440 
# 
# From -- ./inp_files/257509.got.cif
#   From: 2010.06.25/outbox.cif.g09.slc.cpg/sg15_129_cif.got.tgz:257509.got - 2010.06.28 07:06:18.
