data_PCOD8152113
_publ_section_title
;
Structure prediction by ZEFSAII (Michael W. Deem and Ramdas Pophale) SiO2 
 PCOD8152113
Probable space group: C 2/C
;
_chemical_formula_sum "Si O2"
_cell_formula_units_Z 60
_cell_length_a 25.522938
_cell_length_b 12.759924
_cell_length_c 12.207291
_cell_angle_alpha 90.000000
_cell_angle_beta 132.728610
_cell_angle_gamma 90.000000
_cell_volume 2920.348695
_symmetry_space_group_name_H-M "C 2/C"
_symmetry_group_IT_number 15
_symmetry_cell_setting 'monoclinic'
loop_
_space_group_symop_operation_xyz
x,y,z
-x,y,1/2-z
-x,-y,-z
x,-y,1/2+z
1/2+x,1/2+y,z
1/2-x,1/2+y,1/2-z
1/2-x,1/2-y,-z
1/2+x,1/2-y,1/2+z
loop_
_atom_site_type_symbol
_atom_site_label
_atom_site_fract_x
_atom_site_fract_y
_atom_site_fract_z
Si Si1 0.781458 0.689583 0.150068
Si Si2 0.110582 0.991016 0.100201
Si Si3 0.367309 0.368856 0.681277
Si Si4 0.738865 0.465078 0.133324
Si Si5 0.180917 0.725587 0.686292
Si Si6 0.041794 0.193877 0.919426
Si Si7 0.567310 0.255421 0.057351
Si Si8 0.000000 0.768072 0.750000
O O1 0.767428 0.566643 0.109783
O O2 0.749133 0.728811 0.219157
O O3 0.866044 0.703356 0.287025
O O4 0.750000 0.750000 0.000000
O O5 0.116254 0.020266 0.236293
O O6 0.189607 0.004291 0.162674
O O7 0.082381 0.875114 0.045403
O O8 0.057055 0.071596 0.964580
O O9 0.305707 0.386478 0.506171
O O10 0.337954 0.286084 0.728312
O O11 0.440671 0.336113 0.728730
O O12 0.805715 0.397085 0.271197
O O13 0.114397 0.739535 0.509825
O O14 0.000000 0.204254 0.750000
O O15 0.998705 0.249030 0.954985
O O16 0.541833 0.201604 0.905051
#
# Coordination Sequence:
#
# PCOD8152113 Si02
#       8
#     8   8   8   8   8   8   8   4
#     4  12  25  44  67 101 137 178 228 286 337 407
#     4  11  22  37  62  99 134 164 214 276 347 403
#     4  11  23  40  64 100 136 175 224 281 343 403
#     4  12  24  41  70  97 130 179 224 275 336 406
#     4  11  23  46  64  97 139 176 226 272 339 413
#     4  11  24  40  64  94 135 174 221 278 340 399
#     4  12  24  39  62  96 135 173 223 277 340 402
#     4  12  22  40  64  96 136 176 218 282 348 400
#
# _framework density 20.545491999999999
#
# number of rings (size 3 to 8) (size 9 to 14) (size 15 to 20)
#    0.000    0.533    8.000    2.400    2.800    0.000 
#    0.000    0.667    1.467    0.000    0.000    0.000 
#    0.000    0.000    0.000    0.000    0.000    0.000 
#
# Total GULP energy -371887.657613 kJ/mol
# GULP energy per Si atom -12396.255254 kJ/mol
# Density = 2.049873 g / cm^3
# Si number density = 20.545492 Si / 1000 Ang^3
#
#
#
# Elastic Constant Matrix: (Units=GPa)
#
#
# Indices 1 2 3 4 5 6 
#
# 1 89.7366 19.4605 9.9083 0.0000 -2.4465 0.0000
# 2 19.4605 63.7613 15.9522 0.0000 10.6819 0.0000
# 3 9.9083 15.9522 116.0989 0.0000 4.2053 0.0000
# 4 0.0000 0.0000 0.0000 23.1557 0.0000 7.4353
# 5 -2.4465 10.6819 4.2053 0.0000 35.2384 0.0000
# 6 0.0000 0.0000 0.0000 7.4353 0.0000 20.0980
#
#
#
# Elastic Compliance Matrix: (Units=1/GPa)
#
#
# Indices 1 2 3 4 5 6 
#
# 1 0.012111 -0.003903 -0.000573 0.000000 0.002092 0.000000
# 2 -0.003903 0.018306 -0.001980 0.000000 -0.005584 0.000000
# 3 -0.000573 -0.001980 0.008953 0.000000 -0.000508 0.000000
# 4 0.000000 0.000000 0.000000 0.049008 0.000000 -0.018130
# 5 0.002092 -0.005584 -0.000508 0.000000 0.030277 0.000000
# 6 0.000000 0.000000 0.000000 -0.018130 0.000000 0.056464
#
#
# Mechanical properties :
#
#
# Convention : Reuss Voigt Hill
#
# Bulk Modulus (GPa) = 37.79817 40.02652 38.91235
# Shear Modulus (GPa) = 25.40031 30.65015 28.02523
#
# Velocity S-wave (km/s) = 3.51991 3.86660 3.69732
# Velocity P-wave (km/s) = 5.91244 6.28158 6.09981
#
# Compressibility (1/GPa) = 0.02645631
#
# Stress axis : x y z
#
# Youngs Moduli (GPa) = 82.57268 54.62802 111.69832
#
# Poissons Ratio (x) = 0.21324 0.06400
# Poissons Ratio (y) = 0.32232 0.22114
# Poissons Ratio (z) = 0.04732 0.10815
#
# Static dielectric constant tensor:
#      x y z
#    x 4.065340 0.000000 -0.041690 
#    y 0.000000 3.477510 0.000000 
#    z -0.041690 0.000000 4.046750 
# 
# 
# High freq. dielectric constant tensor:
#      x y z
#    x 1.820550 0.000000 -0.001560 
#    y 0.000000 1.761050 0.000000 
#    z -0.001560 0.000000 1.818080 
# 
# From -- ./inp_files/118788.got.cif
#   From: 2010.06.25/outbox.cif.g09.slc.cpg/sg15_60_cif.got.tgz:118788.got - 2010.06.28 07:06:18.
