data_PCOD8152303
_publ_section_title
;
Structure prediction by ZEFSAII (Michael W. Deem and Ramdas Pophale) SiO2 
 PCOD8152303
Probable space group: C 2/C
;
_chemical_formula_sum "Si O2"
_cell_formula_units_Z 56
_cell_length_a 16.598590
_cell_length_b 17.918715
_cell_length_c 11.813240
_cell_angle_alpha 90.000000
_cell_angle_beta 127.938547
_cell_angle_gamma 90.000000
_cell_volume 2771.039753
_symmetry_space_group_name_H-M "C 2/C"
_symmetry_group_IT_number 15
_symmetry_cell_setting 'monoclinic'
loop_
_space_group_symop_operation_xyz
x,y,z
-x,y,1/2-z
-x,-y,-z
x,-y,1/2+z
1/2+x,1/2+y,z
1/2-x,1/2+y,1/2-z
1/2-x,1/2-y,-z
1/2+x,1/2-y,1/2+z
loop_
_atom_site_type_symbol
_atom_site_label
_atom_site_fract_x
_atom_site_fract_y
_atom_site_fract_z
Si Si1 0.956204 0.921838 0.423682
Si Si2 0.169074 0.697462 0.666459
Si Si3 0.773338 0.922826 0.103941
Si Si4 0.233293 0.588632 0.109222
Si Si5 0.458283 0.818755 0.095822
Si Si6 0.329908 0.359754 0.915347
Si Si7 0.168324 0.829095 0.010234
O O1 0.887433 0.928705 0.252399
O O2 0.889573 0.892145 0.469781
O O3 0.047822 0.866069 0.472251
O O4 0.000000 0.000000 0.500000
O O5 0.201030 0.628110 0.617754
O O6 0.198821 0.773469 0.627798
O O7 0.229090 0.696988 0.837354
O O8 0.048610 0.692053 0.583749
O O9 0.724026 0.004732 0.055129
O O10 0.776458 0.888227 0.982370
O O11 0.287852 0.588579 0.277864
O O12 0.119960 0.621753 0.023995
O O13 0.301801 0.638452 0.085097
O O14 0.500000 0.851178 0.250000
O O15 0.405437 0.739982 0.074514
#
# Coordination Sequence:
#
# PCOD8152303 Si02
#       7
#     8   8   8   8   8   8   8
#     4  11  22  40  67 100 132 175 217 278 340 394
#     4  11  24  46  67  99 135 178 228 274 331 408
#     4  11  27  44  67  97 143 178 220 275 335 409
#     4  12  25  41  68 101 135 175 225 280 338 394
#     4  12  23  40  70  99 132 175 225 279 332 399
#     4  12  23  43  68  98 137 177 223 274 339 399
#     4  11  23  40  67 102 133 168 226 283 337 391
#
# _framework density 20.209019999999999
#
# number of rings (size 3 to 8) (size 9 to 14) (size 15 to 20)
#    0.000    0.571    5.714    3.000    2.000    0.571 
#    0.000    0.714    0.000    0.000    0.000    0.000 
#    0.000    0.000    0.000    0.000    0.000    0.000 
#
# Total GULP energy -347434.955815 kJ/mol
# GULP energy per Si atom -12408.391279 kJ/mol
# Density = 2.016302 g / cm^3
# Si number density = 20.209020 Si / 1000 Ang^3
#
#
#
# Elastic Constant Matrix: (Units=GPa)
#
#
# Indices 1 2 3 4 5 6 
#
# 1 105.9063 42.3188 42.2100 0.0000 -2.0315 0.0000
# 2 42.3188 121.5780 36.3449 0.0000 3.0802 0.0000
# 3 42.2100 36.3449 94.8196 0.0000 -11.6941 0.0000
# 4 0.0000 0.0000 0.0000 31.0112 0.0000 2.7212
# 5 -2.0315 3.0802 -11.6941 0.0000 34.7029 0.0000
# 6 0.0000 0.0000 0.0000 2.7212 0.0000 32.4764
#
#
#
# Elastic Compliance Matrix: (Units=1/GPa)
#
#
# Indices 1 2 3 4 5 6 
#
# 1 0.012389 -0.002973 -0.004438 0.000000 -0.000506 0.000000
# 2 -0.002973 0.010154 -0.002818 0.000000 -0.002025 0.000000
# 3 -0.004438 -0.002818 0.014191 0.000000 0.004772 0.000000
# 4 0.000000 0.000000 0.000000 0.032485 0.000000 -0.002722
# 5 -0.000506 -0.002025 0.004772 0.000000 0.030574 0.000000
# 6 0.000000 0.000000 0.000000 -0.002722 0.000000 0.031020
#
#
# Mechanical properties :
#
#
# Convention : Reuss Voigt Hill
#
# Bulk Modulus (GPa) = 61.44301 62.67237 62.05769
# Shear Modulus (GPa) = 31.90864 33.06677 32.48771
#
# Velocity S-wave (km/s) = 3.97789 4.04943 4.01382
# Velocity P-wave (km/s) = 7.18108 7.27621 7.22880
#
# Compressibility (1/GPa) = 0.01627524
#
# Stress axis : x y z
#
# Youngs Moduli (GPa) = 80.71406 98.48527 70.46764
#
# Poissons Ratio (x) = 0.29279 0.31275
# Poissons Ratio (y) = 0.23995 0.19860
# Poissons Ratio (z) = 0.35823 0.27756
#
# Static dielectric constant tensor:
#      x y z
#    x 3.688090 0.000000 0.107090 
#    y 0.000000 3.717110 0.000000 
#    z 0.107090 0.000000 3.768350 
# 
# 
# High freq. dielectric constant tensor:
#      x y z
#    x 1.793970 0.000000 0.001300 
#    y 0.000000 1.797900 0.000000 
#    z 0.001300 0.000000 1.791760 
# 
# From -- ./inp_files/106730.got.cif
#   From: 2010.06.25/outbox.cif.g09.slc.cpg/sg15_54_cif.got.tgz:106730.got - 2010.06.28 07:06:18.
