data_PCOD8152412
_publ_section_title
;
Structure prediction by ZEFSAII (Michael W. Deem and Ramdas Pophale) SiO2 
 PCOD8152412
Probable space group: C 2/C
;
_chemical_formula_sum "Si O2"
_cell_formula_units_Z 56
_cell_length_a 15.970040
_cell_length_b 9.195538
_cell_length_c 22.920102
_cell_angle_alpha 90.000000
_cell_angle_beta 123.851942
_cell_angle_gamma 90.000000
_cell_volume 2795.302247
_symmetry_space_group_name_H-M "C 2/C"
_symmetry_group_IT_number 15
_symmetry_cell_setting 'monoclinic'
loop_
_space_group_symop_operation_xyz
x,y,z
-x,y,1/2-z
-x,-y,-z
x,-y,1/2+z
1/2+x,1/2+y,z
1/2-x,1/2+y,1/2-z
1/2-x,1/2-y,-z
1/2+x,1/2-y,1/2+z
loop_
_atom_site_type_symbol
_atom_site_label
_atom_site_fract_x
_atom_site_fract_y
_atom_site_fract_z
Si Si1 0.401378 0.901720 0.468937
Si Si2 0.476172 0.970562 0.676721
Si Si3 0.180698 0.802742 0.177347
Si Si4 0.330636 0.960963 0.316981
Si Si5 0.450566 0.297597 0.086198
Si Si6 0.212097 0.331198 0.398608
Si Si7 0.285731 0.461935 0.543233
O O1 0.352434 0.879180 0.386603
O O2 0.431803 0.748853 0.511157
O O3 0.500000 0.000000 0.500000
O O4 0.322653 0.973871 0.482621
O O5 0.500000 0.906808 0.750000
O O6 0.573066 0.049975 0.687236
O O7 0.394456 0.094812 0.650298
O O8 0.433767 0.841928 0.620540
O O9 0.236941 0.875793 0.253463
O O10 0.195375 0.629543 0.183792
O O11 0.223684 0.862467 0.133891
O O12 0.064757 0.852411 0.137275
O O13 0.373517 0.418943 0.078057
O O14 0.279960 0.393840 0.476949
O O15 0.188221 0.161247 0.399325
#
# Coordination Sequence:
#
# PCOD8152412 Si02
#       7
#     8   8   8   8   8   8   8
#     4  12  20  42  70  94 128 172 217 268 330 384
#     4  11  22  41  68  94 126 172 215 266 323 395
#     4  11  24  44  63  96 133 172 215 268 324 396
#     4  11  24  41  68  95 130 172 216 266 331 385
#     4  11  25  43  66 100 130 168 224 271 323 386
#     4  11  22  42  67  93 133 171 213 266 332 389
#     4  11  24  40  68  99 129 168 220 274 322 385
#
# _framework density 20.033612000000002
#
# number of rings (size 3 to 8) (size 9 to 14) (size 15 to 20)
#    0.000    0.857    7.143    0.429    0.000    6.286 
#    0.000    0.000    0.000    0.000    0.000    0.000 
#    0.000    0.000    0.000    0.000    0.000    0.000 
#
# Total GULP energy -347290.454923 kJ/mol
# GULP energy per Si atom -12403.230533 kJ/mol
# Density = 1.998801 g / cm^3
# Si number density = 20.033612 Si / 1000 Ang^3
#
#
#
# Elastic Constant Matrix: (Units=GPa)
#
#
# Indices 1 2 3 4 5 6 
#
# 1 133.0779 48.3945 54.5791 0.0000 17.1695 0.0000
# 2 48.3945 63.4331 36.2783 0.0000 24.9845 0.0000
# 3 54.5791 36.2783 129.5067 0.0000 2.8971 0.0000
# 4 0.0000 0.0000 0.0000 35.4634 0.0000 10.9656
# 5 17.1695 24.9845 2.8971 0.0000 35.2212 0.0000
# 6 0.0000 0.0000 0.0000 10.9656 0.0000 35.8659
#
#
#
# Elastic Compliance Matrix: (Units=1/GPa)
#
#
# Indices 1 2 3 4 5 6 
#
# 1 0.011177 -0.006752 -0.002810 0.000000 -0.000428 0.000000
# 2 -0.006752 0.031364 -0.005526 0.000000 -0.018502 0.000000
# 3 -0.002810 -0.005526 0.010354 0.000000 0.004438 0.000000
# 4 0.000000 0.000000 0.000000 0.031142 0.000000 -0.009521
# 5 -0.000428 -0.018502 0.004438 0.000000 0.041360 0.000000
# 6 0.000000 0.000000 0.000000 -0.009521 0.000000 0.030793
#
#
# Mechanical properties :
#
#
# Convention : Reuss Voigt Hill
#
# Bulk Modulus (GPa) = 44.01442 67.16904 55.59173
# Shear Modulus (GPa) = 25.78112 33.76116 29.77114
#
# Velocity S-wave (km/s) = 3.59122 4.10960 3.85913
# Velocity P-wave (km/s) = 6.26209 7.49129 6.90410
#
# Compressibility (1/GPa) = 0.02271983
#
# Stress axis : x y z
#
# Youngs Moduli (GPa) = 89.46702 31.88358 96.57646
#
# Poissons Ratio (x) = 0.21528 0.27134
# Poissons Ratio (y) = 0.60408 0.53373
# Poissons Ratio (z) = 0.25136 0.17620
#
# Static dielectric constant tensor:
#      x y z
#    x 3.856440 0.000000 -0.164770 
#    y 0.000000 3.529780 0.000000 
#    z -0.164770 0.000000 3.887870 
# 
# 
# High freq. dielectric constant tensor:
#      x y z
#    x 1.795810 0.000000 -0.003750 
#    y 0.000000 1.766610 0.000000 
#    z -0.003750 0.000000 1.795040 
# 
# From -- ./inp_files/242791.got.cif
#   From: 2010.06.25/outbox.cif.g09.slc.cpg/sg15_122_cif.got.tgz:242791.got - 2010.06.28 07:06:18.
