data_PCOD8152277
_publ_section_title
;
Structure prediction by ZEFSAII (Michael W. Deem and Ramdas Pophale) SiO2 
 PCOD8152277
Probable space group: C 2/C
;
_chemical_formula_sum "Si O2"
_cell_formula_units_Z 56
_cell_length_a 28.306315
_cell_length_b 18.197175
_cell_length_c 9.900070
_cell_angle_alpha 90.000000
_cell_angle_beta 148.464213
_cell_angle_gamma 90.000000
_cell_volume 2667.184271
_symmetry_space_group_name_H-M "C 2/C"
_symmetry_group_IT_number 15
_symmetry_cell_setting 'monoclinic'
loop_
_space_group_symop_operation_xyz
x,y,z
-x,y,1/2-z
-x,-y,-z
x,-y,1/2+z
1/2+x,1/2+y,z
1/2-x,1/2+y,1/2-z
1/2-x,1/2-y,-z
1/2+x,1/2-y,1/2+z
loop_
_atom_site_type_symbol
_atom_site_label
_atom_site_fract_x
_atom_site_fract_y
_atom_site_fract_z
Si Si1 0.841932 0.703663 0.708924
Si Si2 0.000000 0.780374 0.250000
Si Si3 0.265995 0.085453 0.113308
Si Si4 0.778416 0.919408 0.511134
Si Si5 0.603267 0.797635 0.462951
Si Si6 0.841751 0.135055 0.880149
Si Si7 0.500000 0.533832 0.250000
Si Si8 0.887964 0.093799 0.556935
O O1 0.750000 0.750000 0.500000
O O2 0.814449 0.622932 0.687852
O O3 0.882754 0.700927 0.661296
O O4 0.922427 0.730982 0.998282
O O5 0.048410 0.835836 0.264219
O O6 0.356870 0.127742 0.375499
O O7 0.248106 0.109053 0.915331
O O8 0.188997 0.112705 0.026099
O O9 0.264993 0.998154 0.125982
O O10 0.833163 0.885113 0.517523
O O11 0.846642 0.915599 0.804589
O O12 0.647475 0.721592 0.622056
O O13 0.500000 0.796853 0.250000
O O14 0.923242 0.088945 0.006162
O O15 0.551253 0.479699 0.266618
#
# Coordination Sequence:
#
# PCOD8152277 Si02
#       8
#     8   4   8   8   8   8   4   8
#     4  12  24  47  72 100 141 187 236 283 349 422
#     4  11  24  40  72 105 134 186 234 277 342 426
#     4  12  25  45  68 100 140 187 227 286 355 408
#     4  12  23  46  70  97 138 190 231 282 344 424
#     4  12  27  46  68 100 143 183 234 295 338 409
#     4  12  25  39  70 102 139 177 227 286 354 411
#     4  11  22  40  64 111 138 170 224 291 356 422
#     4  11  23  41  70 101 144 178 221 285 362 425
#
# _framework density 20.995923999999999
#
# number of rings (size 3 to 8) (size 9 to 14) (size 15 to 20)
#    0.000    0.286    7.857    0.429    2.000    4.571 
#    1.286    0.714    0.000    0.000    0.000    0.000 
#    0.000    0.000    0.000    0.000    0.000    0.000 
#
# Total GULP energy -346949.891836 kJ/mol
# GULP energy per Si atom -12391.067566 kJ/mol
# Density = 2.094814 g / cm^3
# Si number density = 20.995924 Si / 1000 Ang^3
#
#
#
# Elastic Constant Matrix: (Units=GPa)
#
#
# Indices 1 2 3 4 5 6 
#
# 1 103.0150 33.2111 37.5358 0.0000 3.4039 0.0000
# 2 33.2111 118.1762 37.4895 0.0000 30.8593 0.0000
# 3 37.5358 37.4895 83.0393 0.0000 12.4153 0.0000
# 4 0.0000 0.0000 0.0000 40.7064 0.0000 8.0796
# 5 3.4039 30.8593 12.4153 0.0000 24.0669 0.0000
# 6 0.0000 0.0000 0.0000 8.0796 0.0000 27.0466
#
#
#
# Elastic Compliance Matrix: (Units=1/GPa)
#
#
# Indices 1 2 3 4 5 6 
#
# 1 0.012351 -0.003197 -0.004867 0.000000 0.004863 0.000000
# 2 -0.003197 0.014614 -0.002621 0.000000 -0.016934 0.000000
# 3 -0.004867 -0.002621 0.016059 0.000000 -0.004236 0.000000
# 4 0.000000 0.000000 0.000000 0.026115 0.000000 -0.007801
# 5 0.004863 -0.016934 -0.004236 0.000000 0.064761 0.000000
# 6 0.000000 0.000000 0.000000 -0.007801 0.000000 0.039304
#
#
# Mechanical properties :
#
#
# Convention : Reuss Voigt Hill
#
# Bulk Modulus (GPa) = 46.17924 57.85593 52.01759
# Shear Modulus (GPa) = 24.77838 31.43025 28.10432
#
# Velocity S-wave (km/s) = 3.43906 3.87327 3.66260
# Velocity P-wave (km/s) = 6.14912 6.90062 6.53568
#
# Compressibility (1/GPa) = 0.02165475
#
# Stress axis : x y z
#
# Youngs Moduli (GPa) = 80.96836 68.42886 62.27152
#
# Poissons Ratio (x) = 0.21876 0.30304
# Poissons Ratio (y) = 0.25884 0.16320
# Poissons Ratio (z) = 0.39403 0.17933
#
# Static dielectric constant tensor:
#      x y z
#    x 4.005820 0.000000 0.100200 
#    y 0.000000 4.245790 0.000000 
#    z 0.100200 0.000000 3.741920 
# 
# 
# High freq. dielectric constant tensor:
#      x y z
#    x 1.821270 0.000000 0.001780 
#    y 0.000000 1.839890 0.000000 
#    z 0.001780 0.000000 1.808590 
# 
# From -- ./inp_files/67231.got.cif
#   From: 2010.06.25/outbox.cif.g09.slc.cpg/sg15_34_cif.got.tgz:67231.got - 2010.06.28 07:06:18.
