data_PCOD8152469
_publ_section_title
;
Structure prediction by ZEFSAII (Michael W. Deem and Ramdas Pophale) SiO2 
 PCOD8152469
Probable space group: C 2/C
;
_chemical_formula_sum "Si O2"
_cell_formula_units_Z 48
_cell_length_a 6.541831
_cell_length_b 25.140878
_cell_length_c 18.068918
_cell_angle_alpha 90.000000
_cell_angle_beta 51.633210
_cell_angle_gamma 90.000000
_cell_volume 2330.008616
_symmetry_space_group_name_H-M "C 2/C"
_symmetry_group_IT_number 15
_symmetry_cell_setting 'monoclinic'
loop_
_space_group_symop_operation_xyz
x,y,z
-x,y,1/2-z
-x,-y,-z
x,-y,1/2+z
1/2+x,1/2+y,z
1/2-x,1/2+y,1/2-z
1/2-x,1/2-y,-z
1/2+x,1/2-y,1/2+z
loop_
_atom_site_type_symbol
_atom_site_label
_atom_site_fract_x
_atom_site_fract_y
_atom_site_fract_z
Si Si1 0.761829 0.334438 0.469535
Si Si2 0.795240 0.514646 0.155915
Si Si3 0.875324 0.870547 0.153277
Si Si4 0.148315 0.245573 0.439703
Si Si5 0.500000 0.964469 0.250000
Si Si6 0.575902 0.081844 0.977000
Si Si7 0.000000 0.202775 0.750000
O O1 0.778962 0.339557 0.376609
O O2 0.469357 0.312982 0.550708
O O3 0.946841 0.291856 0.465729
O O4 0.834692 0.391682 0.486596
O O5 0.500000 0.527751 0.250000
O O6 0.981048 0.501840 0.183063
O O7 0.941093 0.564296 0.084082
O O8 0.796543 0.466233 0.097588
O O9 0.759809 0.929068 0.189363
O O10 0.823296 0.837263 0.240452
O O11 0.185716 0.876175 0.064996
O O12 0.250000 0.250000 0.500000
O O13 0.379499 0.254869 0.332049
#
# Coordination Sequence:
#
# PCOD8152469 Si02
#       7
#     8   8   8   8   4   8   4
#     4  11  22  42  65  94 131 174 214 273 337 390
#     4  11  24  41  63  96 134 171 224 273 336 399
#     4  12  22  39  68 100 127 167 229 278 333 388
#     4  11  23  42  64  98 135 166 219 280 331 395
#     4  12  22  36  66 103 124 168 227 286 326 398
#     4  11  23  42  65  93 135 176 216 282 331 400
#     4  12  22  40  68  99 128 170 219 286 322 402
#
# _framework density 20.60078
#
# number of rings (size 3 to 8) (size 9 to 14) (size 15 to 20)
#    0.000    0.667    6.667    2.000    0.000    2.000 
#    0.000    3.333    0.000    0.000    0.000    0.000 
#    0.000    0.000    0.000    0.000    0.000    0.000 
#
# Total GULP energy -297360.027995 kJ/mol
# GULP energy per Si atom -12390.001166 kJ/mol
# Density = 2.055389 g / cm^3
# Si number density = 20.600780 Si / 1000 Ang^3
#
#
#
# Elastic Constant Matrix: (Units=GPa)
#
#
# Indices 1 2 3 4 5 6 
#
# 1 121.2510 36.8957 63.2373 0.0000 19.9915 0.0000
# 2 36.8957 47.5136 33.6556 0.0000 9.0519 0.0000
# 3 63.2373 33.6556 134.9370 0.0000 17.0765 0.0000
# 4 0.0000 0.0000 0.0000 32.8184 0.0000 9.7191
# 5 19.9915 9.0519 17.0765 0.0000 41.1649 0.0000
# 6 0.0000 0.0000 0.0000 9.7191 0.0000 33.8688
#
#
#
# Elastic Compliance Matrix: (Units=1/GPa)
#
#
# Indices 1 2 3 4 5 6 
#
# 1 0.012835 -0.006546 -0.003985 0.000000 -0.003141 0.000000
# 2 -0.006546 0.029292 -0.004037 0.000000 -0.001587 0.000000
# 3 -0.003985 -0.004037 0.010478 0.000000 -0.001524 0.000000
# 4 0.000000 0.000000 0.000000 0.033301 0.000000 -0.009556
# 5 -0.003141 -0.001587 -0.001524 0.000000 0.026799 0.000000
# 6 0.000000 0.000000 0.000000 -0.009556 0.000000 0.032268
#
#
# Mechanical properties :
#
#
# Convention : Reuss Voigt Hill
#
# Bulk Modulus (GPa) = 42.60954 63.47540 53.04247
# Shear Modulus (GPa) = 27.48265 32.89796 30.19030
#
# Velocity S-wave (km/s) = 3.65644 4.00049 3.83233
# Velocity P-wave (km/s) = 6.20922 7.22618 6.73691
#
# Compressibility (1/GPa) = 0.02346892
#
# Stress axis : x y z
#
# Youngs Moduli (GPa) = 77.90895 34.13908 95.43586
#
# Poissons Ratio (x) = 0.22347 0.38032
# Poissons Ratio (y) = 0.50999 0.38530
# Poissons Ratio (z) = 0.31048 0.13783
#
# Static dielectric constant tensor:
#      x y z
#    x 3.988560 0.000000 -0.197070 
#    y 0.000000 3.344800 0.000000 
#    z -0.197070 0.000000 4.715930 
# 
# 
# High freq. dielectric constant tensor:
#      x y z
#    x 1.824700 0.000000 0.009950 
#    y 0.000000 1.791010 0.000000 
#    z 0.009950 0.000000 1.797190 
# 
# From -- ./inp_files/130633.got.cif
#   From: 2010.06.25/outbox.cif.g09.slc.cpg/sg15_66_cif.got.tgz:130633.got - 2010.06.28 07:06:18.
