data_PCOD8152431
_publ_section_title
;
Structure prediction by ZEFSAII (Michael W. Deem and Ramdas Pophale) SiO2 
 PCOD8152431
Probable space group: C 2/C
;
_chemical_formula_sum "Si O2"
_cell_formula_units_Z 64
_cell_length_a 14.642809
_cell_length_b 11.881707
_cell_length_c 27.000770
_cell_angle_alpha 90.000000
_cell_angle_beta 40.735592
_cell_angle_gamma 90.000000
_cell_volume 3065.532869
_symmetry_space_group_name_H-M "C 2/C"
_symmetry_group_IT_number 15
_symmetry_cell_setting 'monoclinic'
loop_
_space_group_symop_operation_xyz
x,y,z
-x,y,1/2-z
-x,-y,-z
x,-y,1/2+z
1/2+x,1/2+y,z
1/2-x,1/2+y,1/2-z
1/2-x,1/2-y,-z
1/2+x,1/2-y,1/2+z
loop_
_atom_site_type_symbol
_atom_site_label
_atom_site_fract_x
_atom_site_fract_y
_atom_site_fract_z
Si Si1 0.786452 0.376986 0.176066
Si Si2 0.617021 0.296190 0.332787
Si Si3 0.415321 0.942548 0.689652
Si Si4 0.161381 0.125189 0.363753
Si Si5 0.587173 0.515386 0.570476
Si Si6 0.212812 0.502317 0.098470
Si Si7 0.358056 0.533416 0.338981
Si Si8 0.663954 0.782648 0.173948
O O1 0.649389 0.348669 0.265329
O O2 0.897990 0.448563 0.161963
O O3 0.850863 0.259601 0.131591
O O4 0.747847 0.447918 0.143529
O O5 0.565413 0.168139 0.351614
O O6 0.492705 0.367722 0.408151
O O7 0.760618 0.302641 0.304652
O O8 0.279726 0.927138 0.779657
O O9 0.552329 0.957091 0.667001
O O10 0.191859 0.082031 0.406372
O O11 0.011309 0.086547 0.405891
O O12 0.730061 0.512541 0.480726
O O13 0.623634 0.506159 0.612815
O O14 0.222788 0.373074 0.111118
O O15 0.500000 0.533126 0.250000
O O16 0.297645 0.660048 0.363114
O O17 0.500000 0.799640 0.250000
#
# Coordination Sequence:
#
# PCOD8152431 Si02
#       8
#     8   8   8   8   8   8   8   8
#     4  11  22  41  69  99 129 165 225 277 323 389
#     4  11  22  41  69  96 134 172 216 276 329 392
#     4  11  23  43  68 101 129 172 224 278 327 392
#     4  11  24  42  70  97 130 175 227 273 327 393
#     4  12  26  45  66  97 138 177 220 271 341 400
#     4  12  26  44  65  97 138 176 221 276 335 395
#     4  11  23  42  67  99 131 175 220 275 332 392
#     4  11  23  41  71  98 132 173 227 274 325 388
#
# _framework density 20.877282999999998
#
# number of rings (size 3 to 8) (size 9 to 14) (size 15 to 20)
#    0.000    0.750    5.000    2.250    8.750    1.000 
#    0.000    0.625    0.000    0.000    0.000    0.000 
#    0.000    0.000    0.000    0.000    0.000    0.000 
#
# Total GULP energy -396956.641620 kJ/mol
# GULP energy per Si atom -12404.895051 kJ/mol
# Density = 2.082977 g / cm^3
# Si number density = 20.877283 Si / 1000 Ang^3
#
#
#
# Elastic Constant Matrix: (Units=GPa)
#
#
# Indices 1 2 3 4 5 6 
#
# 1 117.9246 34.2753 27.1558 0.0000 13.0316 0.0000
# 2 34.2753 146.2124 40.2532 0.0000 5.8775 0.0000
# 3 27.1558 40.2532 57.4363 0.0000 12.2845 0.0000
# 4 0.0000 0.0000 0.0000 4.2394 0.0000 -2.9309
# 5 13.0316 5.8775 12.2845 0.0000 26.1169 0.0000
# 6 0.0000 0.0000 0.0000 -2.9309 0.0000 30.1507
#
#
#
# Elastic Compliance Matrix: (Units=1/GPa)
#
#
# Indices 1 2 3 4 5 6 
#
# 1 0.009934 -0.001358 -0.003058 0.000000 -0.003213 0.000000
# 2 -0.001358 0.008683 -0.005749 0.000000 0.001427 0.000000
# 3 -0.003058 -0.005749 0.024775 0.000000 -0.008833 0.000000
# 4 0.000000 0.000000 0.000000 0.252875 0.000000 0.024582
# 5 -0.003213 0.001427 -0.008833 0.000000 0.043726 0.000000
# 6 0.000000 0.000000 0.000000 0.024582 0.000000 0.035556
#
#
# Mechanical properties :
#
#
# Convention : Reuss Voigt Hill
#
# Bulk Modulus (GPa) = 43.36026 58.32688 50.84357
# Shear Modulus (GPa) = 12.38957 26.76068 19.57512
#
# Velocity S-wave (km/s) = 2.43872 3.58412 3.06539
# Velocity P-wave (km/s) = 5.36134 6.71763 6.07744
#
# Compressibility (1/GPa) = 0.02306259
#
# Stress axis : x y z
#
# Youngs Moduli (GPa) = 100.66583 115.16916 40.36400
#
# Poissons Ratio (x) = 0.15636 0.12344
# Poissons Ratio (y) = 0.13667 0.23204
# Poissons Ratio (z) = 0.30784 0.66206
#
# Static dielectric constant tensor:
#      x y z
#    x 3.837340 0.000000 0.067270 
#    y 0.000000 4.155910 0.000000 
#    z 0.067270 0.000000 3.394210 
# 
# 
# High freq. dielectric constant tensor:
#      x y z
#    x 1.826400 0.000000 0.005100 
#    y 0.000000 1.838470 0.000000 
#    z 0.005100 0.000000 1.784500 
# 
# From -- ./inp_files/296133.got.cif
#   From: 2010.06.25/outbox.cif.g09.slc.cpg/sg15_149_cif.got.tgz:296133.got - 2010.06.28 07:06:18.
