data_PCOD8152498
_publ_section_title
;
Structure prediction by ZEFSAII (Michael W. Deem and Ramdas Pophale) SiO2 
 PCOD8152498
Probable space group: C 2/C
;
_chemical_formula_sum "Si O2"
_cell_formula_units_Z 52
_cell_length_a 8.197207
_cell_length_b 11.118068
_cell_length_c 28.395602
_cell_angle_alpha 90.000000
_cell_angle_beta 117.518920
_cell_angle_gamma 90.000000
_cell_volume 2295.094368
_symmetry_space_group_name_H-M "C 2/C"
_symmetry_group_IT_number 15
_symmetry_cell_setting 'monoclinic'
loop_
_space_group_symop_operation_xyz
x,y,z
-x,y,1/2-z
-x,-y,-z
x,-y,1/2+z
1/2+x,1/2+y,z
1/2-x,1/2+y,1/2-z
1/2-x,1/2-y,-z
1/2+x,1/2-y,1/2+z
loop_
_atom_site_type_symbol
_atom_site_label
_atom_site_fract_x
_atom_site_fract_y
_atom_site_fract_z
Si Si1 0.328446 0.355813 0.479413
Si Si2 0.365081 0.962628 0.610685
Si Si3 0.492005 0.720313 0.907444
Si Si4 0.607894 0.307707 0.837094
Si Si5 0.974709 0.961315 0.589743
Si Si6 0.500000 0.498406 0.250000
Si Si7 0.107202 0.417195 0.216022
O O1 0.250000 0.250000 0.500000
O O2 0.167178 0.429627 0.431094
O O3 0.467071 0.296847 0.460198
O O4 0.432539 0.446586 0.528675
O O5 0.384620 0.836242 0.586095
O O6 0.194938 0.953256 0.623899
O O7 0.542793 0.992288 0.666028
O O8 0.296127 0.734982 0.854499
O O9 0.585807 0.596042 0.901192
O O10 0.617290 0.356753 0.891911
O O11 0.591268 0.422694 0.802464
O O12 0.437489 0.219898 0.804441
O O13 0.330486 0.422031 0.249807
O O14 0.000000 0.450117 0.250000
#
# Coordination Sequence:
#
# PCOD8152498 Si02
#       7
#     8   8   8   8   8   4   8
#     4  11  22  42  69 101 140 184 228 285 347 414
#     4  11  23  43  70  99 138 185 228 285 357 414
#     4  11  23  43  68  97 139 178 227 285 337 421
#     4  12  24  48  69  97 142 178 227 299 345 416
#     4  11  24  43  70 100 138 183 229 285 352 416
#     4  12  28  44  74 106 132 190 240 286 366 420
#     4  12  25  49  72 102 142 182 236 297 356 423
#
# _framework density 22.657018999999998
#
# number of rings (size 3 to 8) (size 9 to 14) (size 15 to 20)
#    0.000    0.615    6.923    2.769    0.000    4.308 
#    6.923    0.000    0.000    0.000    0.000    0.000 
#    0.000    0.000    0.000    0.000    0.000    0.000 
#
# Total GULP energy -322345.279212 kJ/mol
# GULP energy per Si atom -12397.895354 kJ/mol
# Density = 2.260545 g / cm^3
# Si number density = 22.657019 Si / 1000 Ang^3
#
#
#
# Elastic Constant Matrix: (Units=GPa)
#
#
# Indices 1 2 3 4 5 6 
#
# 1 75.8210 34.4094 21.6482 0.0000 1.7401 0.0000
# 2 34.4094 142.4269 23.3562 0.0000 -14.4860 0.0000
# 3 21.6482 23.3562 97.2124 0.0000 -7.5955 0.0000
# 4 0.0000 0.0000 0.0000 43.5436 0.0000 -0.8538
# 5 1.7401 -14.4860 -7.5955 0.0000 28.7804 0.0000
# 6 0.0000 0.0000 0.0000 -0.8538 0.0000 38.8075
#
#
#
# Elastic Compliance Matrix: (Units=1/GPa)
#
#
# Indices 1 2 3 4 5 6 
#
# 1 0.015780 -0.003700 -0.002905 0.000000 -0.003583 0.000000
# 2 -0.003700 0.008494 -0.000883 0.000000 0.004266 0.000000
# 3 -0.002905 -0.000883 0.011359 0.000000 0.002729 0.000000
# 4 0.000000 0.000000 0.000000 0.022975 0.000000 0.000505
# 5 -0.003583 0.004266 0.002729 0.000000 0.037830 0.000000
# 6 0.000000 0.000000 0.000000 0.000505 0.000000 0.025779
#
#
# Mechanical properties :
#
#
# Convention : Reuss Voigt Hill
#
# Bulk Modulus (GPa) = 48.41339 52.69866 50.55602
# Shear Modulus (GPa) = 34.70291 37.96272 36.33282
#
# Velocity S-wave (km/s) = 3.91789 4.09778 4.00884
# Velocity P-wave (km/s) = 6.47154 6.76009 6.61739
#
# Compressibility (1/GPa) = 0.02065544
#
# Stress axis : x y z
#
# Youngs Moduli (GPa) = 63.37159 117.73193 88.03505
#
# Poissons Ratio (x) = 0.43566 0.25574
# Poissons Ratio (y) = 0.23450 0.07777
# Poissons Ratio (z) = 0.18409 0.10400
#
# Static dielectric constant tensor:
#      x y z
#    x 3.833570 0.000000 -0.038370 
#    y 0.000000 4.213190 0.000000 
#    z -0.038370 0.000000 4.216110 
# 
# 
# High freq. dielectric constant tensor:
#      x y z
#    x 1.868840 0.000000 -0.001740 
#    y 0.000000 1.908470 0.000000 
#    z -0.001740 0.000000 1.902920 
# 
# From -- ./inp_files/288123.got.cif
#   From: 2010.06.25/outbox.cif.g09.slc.cpg/sg15_145_cif.got.tgz:288123.got - 2010.06.28 07:06:18.
