data_PCOD8152123
_publ_section_title
;
Structure prediction by ZEFSAII (Michael W. Deem and Ramdas Pophale) SiO2 
 PCOD8152123
Probable space group: C 2/C
;
_chemical_formula_sum "Si O2"
_cell_formula_units_Z 64
_cell_length_a 15.668135
_cell_length_b 13.443417
_cell_length_c 17.467714
_cell_angle_alpha 90.000000
_cell_angle_beta 126.406075
_cell_angle_gamma 90.000000
_cell_volume 2961.199553
_symmetry_space_group_name_H-M "C 2/C"
_symmetry_group_IT_number 15
_symmetry_cell_setting 'monoclinic'
loop_
_space_group_symop_operation_xyz
x,y,z
-x,y,1/2-z
-x,-y,-z
x,-y,1/2+z
1/2+x,1/2+y,z
1/2-x,1/2+y,1/2-z
1/2-x,1/2-y,-z
1/2+x,1/2-y,1/2+z
loop_
_atom_site_type_symbol
_atom_site_label
_atom_site_fract_x
_atom_site_fract_y
_atom_site_fract_z
Si Si1 0.141662 0.781904 0.100318
Si Si2 0.288947 0.456136 0.469301
Si Si3 0.638626 0.074886 0.019315
Si Si4 0.908898 0.543380 0.859654
Si Si5 0.718474 0.775636 0.178683
Si Si6 0.885295 0.569105 0.203748
Si Si7 0.610881 0.703448 0.834812
Si Si8 0.592616 0.354275 0.492709
O O1 0.206230 0.860967 0.083065
O O2 0.116663 0.685309 0.037961
O O3 0.206812 0.745745 0.209580
O O4 0.031012 0.834303 0.062154
O O5 0.252643 0.423741 0.535677
O O6 0.194500 0.530916 0.401296
O O7 0.393310 0.526776 0.517630
O O8 0.636749 0.994246 0.084652
O O9 0.535745 0.043788 0.914365
O O10 0.873415 0.657779 0.833941
O O11 0.850858 0.471872 0.768210
O O12 0.787948 0.843264 0.155466
O O13 0.664370 0.681993 0.103648
O O14 0.887658 0.687420 0.202865
O O15 0.000000 0.523064 0.250000
O O16 0.500000 0.651404 0.750000
O O17 0.628104 0.705013 0.934957
#
# Coordination Sequence:
#
# PCOD8152123 Si02
#       8
#     8   8   8   8   8   8   8   8
#     4  12  26  45  68  95 134 184 233 271 328 418
#     4  12  25  44  66  94 137 186 216 279 342 394
#     4  11  25  42  69  97 134 174 233 277 338 401
#     4  11  23  40  67 101 134 169 218 288 340 392
#     4  12  23  41  69 101 134 176 218 279 344 397
#     4  11  22  37  64  99 130 163 218 277 337 391
#     4  11  23  39  69 100 136 165 219 280 342 397
#     4  12  26  44  68 102 137 176 224 281 345 405
#
# _framework density 21.612862
#
# number of rings (size 3 to 8) (size 9 to 14) (size 15 to 20)
#    0.000    0.500    6.250    2.625    3.500    0.000 
#    0.000    0.000    0.000    0.000    0.000    0.000 
#    0.000    0.000    0.000    0.000    0.000    0.000 
#
# Total GULP energy -396495.961671 kJ/mol
# GULP energy per Si atom -12390.498802 kJ/mol
# Density = 2.156367 g / cm^3
# Si number density = 21.612862 Si / 1000 Ang^3
#
#
#
# Elastic Constant Matrix: (Units=GPa)
#
#
# Indices 1 2 3 4 5 6 
#
# 1 85.9443 16.0799 20.3447 0.0000 -7.8801 0.0000
# 2 16.0799 79.8331 18.1823 0.0000 -9.8946 0.0000
# 3 20.3447 18.1823 93.2152 0.0000 -12.3625 0.0000
# 4 0.0000 0.0000 0.0000 21.0032 0.0000 -2.1499
# 5 -7.8801 -9.8946 -12.3625 0.0000 30.0276 0.0000
# 6 0.0000 0.0000 0.0000 -2.1499 0.0000 28.9828
#
#
#
# Elastic Compliance Matrix: (Units=1/GPa)
#
#
# Indices 1 2 3 4 5 6 
#
# 1 0.012658 -0.001830 -0.002163 0.000000 0.001828 0.000000
# 2 -0.001830 0.013721 -0.001842 0.000000 0.003283 0.000000
# 3 -0.002163 -0.001842 0.012062 0.000000 0.003792 0.000000
# 4 0.000000 0.000000 0.000000 0.047976 0.000000 0.003559
# 5 0.001828 0.003283 0.003792 0.000000 0.036425 0.000000
# 6 0.000000 0.000000 0.000000 0.003559 0.000000 0.034767
#
#
# Mechanical properties :
#
#
# Convention : Reuss Voigt Hill
#
# Bulk Modulus (GPa) = 37.35413 40.91181 39.13297
# Shear Modulus (GPa) = 28.05797 29.62844 28.84321
#
# Velocity S-wave (km/s) = 3.60697 3.70654 3.65710
# Velocity P-wave (km/s) = 5.88794 6.10643 5.99818
#
# Compressibility (1/GPa) = 0.02677080
#
# Stress axis : x y z
#
# Youngs Moduli (GPa) = 79.00436 72.88060 82.90485
#
# Poissons Ratio (x) = 0.13339 0.17933
# Poissons Ratio (y) = 0.14460 0.15267
# Poissons Ratio (z) = 0.17090 0.13421
#
# Static dielectric constant tensor:
#      x y z
#    x 4.255540 0.000000 0.057940 
#    y 0.000000 3.725040 0.000000 
#    z 0.057940 0.000000 3.939130 
# 
# 
# High freq. dielectric constant tensor:
#      x y z
#    x 1.860490 0.000000 -0.001320 
#    y 0.000000 1.832040 0.000000 
#    z -0.001320 0.000000 1.848940 
# 
# From -- ./inp_files/205469.got.cif
#   From: 2010.06.25/outbox.cif.g09.slc.cpg/sg15_103_cif.got.tgz:205469.got - 2010.06.28 07:06:18.
