data_PCOD8152284
_publ_section_title
;
Structure prediction by ZEFSAII (Michael W. Deem and Ramdas Pophale) SiO2 
 PCOD8152284
Probable space group: C 2/C
;
_chemical_formula_sum "Si O2"
_cell_formula_units_Z 48
_cell_length_a 14.959445
_cell_length_b 19.477486
_cell_length_c 8.811755
_cell_angle_alpha 90.000000
_cell_angle_beta 110.222897
_cell_angle_gamma 90.000000
_cell_volume 2409.228258
_symmetry_space_group_name_H-M "C 2/C"
_symmetry_group_IT_number 15
_symmetry_cell_setting 'monoclinic'
loop_
_space_group_symop_operation_xyz
x,y,z
-x,y,1/2-z
-x,-y,-z
x,-y,1/2+z
1/2+x,1/2+y,z
1/2-x,1/2+y,1/2-z
1/2-x,1/2-y,-z
1/2+x,1/2-y,1/2+z
loop_
_atom_site_type_symbol
_atom_site_label
_atom_site_fract_x
_atom_site_fract_y
_atom_site_fract_z
Si Si1 0.006444 0.846300 0.502233
Si Si2 0.000000 0.255723 0.250000
Si Si3 0.181993 0.691127 0.512698
Si Si4 0.821137 0.924280 0.057973
Si Si5 0.192995 0.691653 0.876783
Si Si6 0.328741 0.571148 0.919340
Si Si7 0.500000 0.246472 0.250000
O O1 0.092660 0.886022 0.474509
O O2 0.047555 0.794604 0.652731
O O3 0.929978 0.897785 0.534006
O O4 0.952576 0.797687 0.346840
O O5 0.083345 0.303648 0.371323
O O6 0.250000 0.750000 0.500000
O O7 0.223378 0.618028 0.481746
O O8 0.181568 0.700281 0.691313
O O9 0.078606 0.698600 0.375422
O O10 0.841087 0.934083 0.246541
O O11 0.807347 0.997567 0.974402
O O12 0.243276 0.618580 0.933259
O O13 0.250000 0.750000 0.000000
#
# Coordination Sequence:
#
# PCOD8152284 Si02
#       7
#     8   4   8   8   8   8   4
#     4  12  22  38  64  94 125 161 206 263 314 374
#     4  12  24  38  66  98 124 160 214 260 318 364
#     4  11  22  40  65  91 125 164 211 259 311 373
#     4  11  24  41  60  91 127 167 207 252 313 376
#     4  11  23  41  62  92 127 163 209 263 308 372
#     4  11  24  41  61  89 129 165 206 255 312 376
#     4  12  20  40  66  94 122 162 210 266 314 360
#
# _framework density 19.923392
#
# number of rings (size 3 to 8) (size 9 to 14) (size 15 to 20)
#    0.000    0.667    6.667    1.500    2.333    1.333 
#    0.000    0.833    0.000    4.000    0.000    0.000 
#    0.000    0.000    0.000    0.000    0.000    0.000 
#
# Total GULP energy -297433.049262 kJ/mol
# GULP energy per Si atom -12393.043719 kJ/mol
# Density = 1.987805 g / cm^3
# Si number density = 19.923392 Si / 1000 Ang^3
#
#
#
# Elastic Constant Matrix: (Units=GPa)
#
#
# Indices 1 2 3 4 5 6 
#
# 1 119.0197 80.6404 42.4293 0.0000 22.6612 0.0000
# 2 80.6404 145.3535 51.9460 0.0000 2.4929 0.0000
# 3 42.4293 51.9460 74.6147 0.0000 14.5178 0.0000
# 4 0.0000 0.0000 0.0000 31.6627 0.0000 -6.2545
# 5 22.6612 2.4929 14.5178 0.0000 33.0296 0.0000
# 6 0.0000 0.0000 0.0000 -6.2545 0.0000 35.9373
#
#
#
# Elastic Compliance Matrix: (Units=1/GPa)
#
#
# Indices 1 2 3 4 5 6 
#
# 1 0.016640 -0.008491 -0.001591 0.000000 -0.010077 0.000000
# 2 -0.008491 0.013654 -0.006136 0.000000 0.007492 0.000000
# 3 -0.001591 -0.006136 0.019985 0.000000 -0.007230 0.000000
# 4 0.000000 0.000000 0.000000 0.032707 0.000000 0.005692
# 5 -0.010077 0.007492 -0.007230 0.000000 0.039802 0.000000
# 6 0.000000 0.000000 0.000000 0.005692 0.000000 0.028817
#
#
# Mechanical properties :
#
#
# Convention : Reuss Voigt Hill
#
# Bulk Modulus (GPa) = 56.03525 76.55772 66.29648
# Shear Modulus (GPa) = 26.31738 31.05737 28.68738
#
# Velocity S-wave (km/s) = 3.63840 3.95250 3.79870
# Velocity P-wave (km/s) = 6.77031 7.70319 7.25176
#
# Compressibility (1/GPa) = 0.01784591
#
# Stress axis : x y z
#
# Youngs Moduli (GPa) = 60.09509 73.23603 50.03733
#
# Poissons Ratio (x) = 0.62181 0.07960
# Poissons Ratio (y) = 0.51024 0.30701
# Poissons Ratio (z) = 0.09560 0.44935
#
# Static dielectric constant tensor:
#      x y z
#    x 3.690370 0.000000 -0.187430 
#    y 0.000000 3.772840 0.000000 
#    z -0.187430 0.000000 3.681760 
# 
# 
# High freq. dielectric constant tensor:
#      x y z
#    x 1.777400 0.000000 -0.005290 
#    y 0.000000 1.767700 0.000000 
#    z -0.005290 0.000000 1.787680 
# 
# From -- ./inp_files/40714.got.cif
#   From: 2010.06.25/outbox.cif.g09.slc.cpg/sg15_21_cif.got.tgz:40714.got - 2010.06.28 07:06:18.
