data_PCOD8152204
_publ_section_title
;
Structure prediction by ZEFSAII (Michael W. Deem and Ramdas Pophale) SiO2 
 PCOD8152204
Probable space group: C 2/C
;
_chemical_formula_sum "Si O2"
_cell_formula_units_Z 40
_cell_length_a 4.951963
_cell_length_b 23.670209
_cell_length_c 16.330337
_cell_angle_alpha 90.000000
_cell_angle_beta 93.826798
_cell_angle_gamma 90.000000
_cell_volume 1909.876259
_symmetry_space_group_name_H-M "C 2/C"
_symmetry_group_IT_number 15
_symmetry_cell_setting 'monoclinic'
loop_
_space_group_symop_operation_xyz
x,y,z
-x,y,1/2-z
-x,-y,-z
x,-y,1/2+z
1/2+x,1/2+y,z
1/2-x,1/2+y,1/2-z
1/2-x,1/2-y,-z
1/2+x,1/2-y,1/2+z
loop_
_atom_site_type_symbol
_atom_site_label
_atom_site_fract_x
_atom_site_fract_y
_atom_site_fract_z
Si Si1 0.913936 0.818138 0.612440
Si Si2 0.420402 0.346896 0.063780
Si Si3 0.431030 0.806613 0.155671
Si Si4 0.251653 0.039356 0.014208
Si Si5 0.907681 0.614578 0.160241
O O1 0.822464 0.757266 0.643449
O O2 0.657436 0.859539 0.614612
O O3 0.006070 0.816705 0.519948
O O4 0.170699 0.839478 0.670787
O O5 0.694827 0.349539 0.122860
O O6 0.197751 0.310129 0.105802
O O7 0.291129 0.408786 0.049162
O O8 0.500000 0.821614 0.250000
O O9 0.282462 0.062724 0.106935
O O10 0.500000 0.000000 0.000000
O O11 0.000000 0.000000 0.000000
O O12 0.000000 0.591562 0.250000
#
# Coordination Sequence:
#
# PCOD8152204 Si02
#       5
#     8   8   8   8   8
#     4  11  22  39  64  90 124 163 198 240 298 362
#     4  11  23  41  62  88 120 161 208 247 291 362
#     4  12  23  38  60  93 131 164 193 236 295 363
#     4  11  23  43  65  84 115 160 206 252 306 356
#     4  11  22  39  63  95 121 150 203 263 302 343
#
# _framework density 20.943764999999999
#
# number of rings (size 3 to 8) (size 9 to 14) (size 15 to 20)
#    0.000    0.800    0.000   10.800    0.000    0.000 
#    0.000    6.000    0.000    0.000    0.000    0.000 
#    0.000    0.000    0.000    0.000    0.000    0.000 
#
# Total GULP energy -248084.263143 kJ/mol
# GULP energy per Si atom -12404.213157 kJ/mol
# Density = 2.089610 g / cm^3
# Si number density = 20.943765 Si / 1000 Ang^3
#
#
#
# Elastic Constant Matrix: (Units=GPa)
#
#
# Indices 1 2 3 4 5 6 
#
# 1 149.9528 39.8779 52.6113 0.0000 11.6324 0.0000
# 2 39.8779 93.7282 56.5683 0.0000 12.9357 0.0000
# 3 52.6113 56.5683 133.6511 0.0000 26.1323 0.0000
# 4 0.0000 0.0000 0.0000 19.7237 0.0000 5.1632
# 5 11.6324 12.9357 26.1323 0.0000 41.5577 0.0000
# 6 0.0000 0.0000 0.0000 5.1632 0.0000 48.9300
#
#
#
# Elastic Compliance Matrix: (Units=1/GPa)
#
#
# Indices 1 2 3 4 5 6 
#
# 1 0.008014 -0.002017 -0.002263 0.000000 -0.000192 0.000000
# 2 -0.002017 0.014857 -0.005359 0.000000 -0.000690 0.000000
# 3 -0.002263 -0.005359 0.011620 0.000000 -0.005005 0.000000
# 4 0.000000 0.000000 0.000000 0.052141 0.000000 -0.005502
# 5 -0.000192 -0.000690 -0.005005 0.000000 0.027479 0.000000
# 6 0.000000 0.000000 0.000000 -0.005502 0.000000 0.021018
#
#
# Mechanical properties :
#
#
# Convention : Reuss Voigt Hill
#
# Bulk Modulus (GPa) = 65.73948 75.04969 70.39458
# Shear Modulus (GPa) = 31.35195 37.26058 34.30627
#
# Velocity S-wave (km/s) = 3.87325 4.22249 4.05163
# Velocity P-wave (km/s) = 7.17353 7.72556 7.45465
#
# Compressibility (1/GPa) = 0.01521156
#
# Stress axis : x y z
#
# Youngs Moduli (GPa) = 124.77783 67.30739 86.05697
#
# Poissons Ratio (x) = 0.13577 0.19478
# Poissons Ratio (y) = 0.25170 0.46122
# Poissons Ratio (z) = 0.28243 0.36073
#
# Static dielectric constant tensor:
#      x y z
#    x 4.059450 0.000000 0.184340 
#    y 0.000000 4.039360 0.000000 
#    z 0.184340 0.000000 3.779590 
# 
# 
# High freq. dielectric constant tensor:
#      x y z
#    x 1.848250 0.000000 0.009080 
#    y 0.000000 1.804060 0.000000 
#    z 0.009080 0.000000 1.820960 
# 
# From -- ./inp_files/129119.got.cif
#   From: 2010.06.25/outbox.cif.g09.slc.cpg/sg15_65_cif.got.tgz:129119.got - 2010.06.28 07:06:18.
