data_PCOD8152721
_publ_section_title
;
Structure prediction by ZEFSAII (Michael W. Deem and Ramdas Pophale) SiO2 
 PCOD8152721
Probable space group: C 2/C
;
_chemical_formula_sum "Si O2"
_cell_formula_units_Z 56
_cell_length_a 11.061494
_cell_length_b 9.597284
_cell_length_c 24.432730
_cell_angle_alpha 90.000000
_cell_angle_beta 75.484489
_cell_angle_gamma 90.000000
_cell_volume 2510.991824
_symmetry_space_group_name_H-M "C 2/C"
_symmetry_group_IT_number 15
_symmetry_cell_setting 'monoclinic'
loop_
_space_group_symop_operation_xyz
x,y,z
-x,y,1/2-z
-x,-y,-z
x,-y,1/2+z
1/2+x,1/2+y,z
1/2-x,1/2+y,1/2-z
1/2-x,1/2-y,-z
1/2+x,1/2-y,1/2+z
loop_
_atom_site_type_symbol
_atom_site_label
_atom_site_fract_x
_atom_site_fract_y
_atom_site_fract_z
Si Si1 0.560598 0.148836 0.002492
Si Si2 0.722148 0.555723 0.589181
Si Si3 0.193357 0.444299 0.305483
Si Si4 0.450440 0.791467 0.869582
Si Si5 0.369963 0.723790 0.449548
Si Si6 0.410381 0.093359 0.840454
Si Si7 0.214437 0.251195 0.785656
O O1 0.705458 0.133022 0.968364
O O2 0.493186 0.267159 0.973314
O O3 0.543121 0.192510 0.066155
O O4 0.500000 0.000000 0.000000
O O5 0.814500 0.515250 0.628686
O O6 0.635137 0.660174 0.632304
O O7 0.640627 0.427588 0.576569
O O8 0.241675 0.586295 0.271048
O O9 0.288677 0.324831 0.273354
O O10 0.054522 0.390576 0.305484
O O11 0.583861 0.746616 0.831604
O O12 0.389582 0.926572 0.847616
O O13 0.250000 0.750000 0.500000
O O14 0.381262 0.841407 0.402567
O O15 0.320362 0.167037 0.807230
#
# Coordination Sequence:
#
# PCOD8152721 Si02
#       7
#     8   8   8   8   8   8   8
#     4  12  21  42  69  95 136 180 223 271 335 412
#     4  12  25  42  64 105 139 169 229 282 343 408
#     4  11  25  45  70  98 131 182 230 284 342 410
#     4  11  26  42  68 102 139 176 220 284 343 405
#     4  12  22  37  71  97 131 178 218 273 335 405
#     4  11  22  45  69  96 130 180 229 270 343 409
#     4  11  25  46  69  98 135 176 236 282 341 410
#
# _framework density 22.301945
#
# number of rings (size 3 to 8) (size 9 to 14) (size 15 to 20)
#    0.000    0.571    5.714    2.571    2.000    3.429 
#    2.571    0.000    0.000    0.000    0.000    0.000 
#    0.000    0.000    0.000    0.000    0.000    0.000 
#
# Total GULP energy -347070.965277 kJ/mol
# GULP energy per Si atom -12395.391617 kJ/mol
# Density = 2.225118 g / cm^3
# Si number density = 22.301945 Si / 1000 Ang^3
#
#
#
# Elastic Constant Matrix: (Units=GPa)
#
#
# Indices 1 2 3 4 5 6 
#
# 1 76.2847 45.1871 14.4951 0.0000 -13.8258 0.0000
# 2 45.1871 129.0555 47.3289 0.0000 -34.2186 0.0000
# 3 14.4951 47.3289 102.1537 0.0000 -15.5581 0.0000
# 4 0.0000 0.0000 0.0000 46.5797 0.0000 -2.6712
# 5 -13.8258 -34.2186 -15.5581 0.0000 31.4823 0.0000
# 6 0.0000 0.0000 0.0000 -2.6712 0.0000 41.9422
#
#
#
# Elastic Compliance Matrix: (Units=1/GPa)
#
#
# Indices 1 2 3 4 5 6 
#
# 1 0.016598 -0.005601 0.000457 0.000000 0.001428 0.000000
# 2 -0.005601 0.014075 -0.004078 0.000000 0.010823 0.000000
# 3 0.000457 -0.004078 0.011862 0.000000 0.001630 0.000000
# 4 0.000000 0.000000 0.000000 0.021547 0.000000 0.001372
# 5 0.001428 0.010823 0.001630 0.000000 0.044961 0.000000
# 6 0.000000 0.000000 0.000000 0.001372 0.000000 0.023930
#
#
# Mechanical properties :
#
#
# Convention : Reuss Voigt Hill
#
# Bulk Modulus (GPa) = 41.50759 57.94625 49.72692
# Shear Modulus (GPa) = 31.35846 37.36637 34.36241
#
# Velocity S-wave (km/s) = 3.75385 4.09770 3.92954
# Velocity P-wave (km/s) = 6.11887 6.95896 6.55239
#
# Compressibility (1/GPa) = 0.02409198
#
# Stress axis : x y z
#
# Youngs Moduli (GPa) = 60.24719 71.04825 84.30302
#
# Poissons Ratio (x) = 0.39793 -0.03854
# Poissons Ratio (y) = 0.33743 0.34378
# Poissons Ratio (z) = -0.02754 0.28973
#
# Static dielectric constant tensor:
#      x y z
#    x 4.659870 0.000000 0.198980 
#    y 0.000000 3.667400 0.000000 
#    z 0.198980 0.000000 3.566330 
# 
# 
# High freq. dielectric constant tensor:
#      x y z
#    x 1.869270 0.000000 0.000530 
#    y 0.000000 1.884560 0.000000 
#    z 0.000530 0.000000 1.901730 
# 
# From -- ./inp_files/291523.got.cif
#   From: 2010.06.25/outbox.cif.g09.slc.cpg/sg15_146_cif.got.tgz:291523.got - 2010.06.28 07:06:18.
