data_PCOD8152916
_publ_section_title
;
Structure prediction by ZEFSAII (Michael W. Deem and Ramdas Pophale) SiO2 
 PCOD8152916
Probable space group: C 2/C
;
_chemical_formula_sum "Si O2"
_cell_formula_units_Z 64
_cell_length_a 24.255991
_cell_length_b 13.512475
_cell_length_c 18.159206
_cell_angle_alpha 90.000000
_cell_angle_beta 153.165298
_cell_angle_gamma 90.000000
_cell_volume 2686.765213
_symmetry_space_group_name_H-M "C 2/C"
_symmetry_group_IT_number 15
_symmetry_cell_setting 'monoclinic'
loop_
_space_group_symop_operation_xyz
x,y,z
-x,y,1/2-z
-x,-y,-z
x,-y,1/2+z
1/2+x,1/2+y,z
1/2-x,1/2+y,1/2-z
1/2-x,1/2-y,-z
1/2+x,1/2-y,1/2+z
loop_
_atom_site_type_symbol
_atom_site_label
_atom_site_fract_x
_atom_site_fract_y
_atom_site_fract_z
Si Si1 0.476560 0.247288 0.304257
Si Si2 0.058749 0.590522 0.638507
Si Si3 0.242194 0.947114 0.865037
Si Si4 0.182760 0.361145 0.136530
Si Si5 0.710495 0.835030 0.713725
Si Si6 0.690677 0.907892 0.839506
Si Si7 0.407810 0.532303 0.697475
Si Si8 0.626634 0.187895 0.867480
O O1 0.500000 0.209120 0.250000
O O2 0.581769 0.213448 0.484599
O O3 0.350478 0.198783 0.180069
O O4 0.464998 0.365096 0.292583
O O5 0.145084 0.595346 0.670206
O O6 0.071096 0.476968 0.682482
O O7 0.102893 0.659731 0.755650
O O8 0.922249 0.617386 0.455551
O O9 0.209546 0.869397 0.761381
O O10 0.285174 0.052357 0.882572
O O11 0.116761 0.963064 0.761294
O O12 0.346205 0.902164 0.043065
O O13 0.295387 0.284606 0.286346
O O14 0.764657 0.885333 0.852383
O O15 0.777969 0.957372 0.002749
O O16 0.500000 0.479566 0.750000
O O17 0.500000 0.238009 0.750000
O O18 0.750000 0.250000 0.000000
#
# Coordination Sequence:
#
# PCOD8152916 Si02
#       8
#     8   8   8   8   8   8   8   8
#     4  11  23  40  71 108 144 192 244 307 382 449
#     4  12  25  45  71 103 145 192 252 313 369 446
#     4  12  25  47  77 108 145 203 257 305 380 461
#     4  12  26  46  74 111 151 194 251 311 382 460
#     4  12  24  44  72 109 146 190 249 306 376 446
#     4  12  22  44  69 100 146 190 247 307 373 453
#     4  11  25  45  67 109 152 195 249 314 383 451
#     4  12  28  51  80 113 151 202 262 320 384 461
#
# _framework density 23.820466
#
# number of rings (size 3 to 8) (size 9 to 14) (size 15 to 20)
#    0.000    0.250    5.000    5.250    0.000    0.500 
#    0.000    3.750    0.000    0.000    0.000    0.000 
#    0.000    0.000    0.000    0.000    0.000    0.000 
#
# Total GULP energy -396580.424156 kJ/mol
# GULP energy per Si atom -12393.138255 kJ/mol
# Density = 2.376625 g / cm^3
# Si number density = 23.820466 Si / 1000 Ang^3
#
#
#
# Elastic Constant Matrix: (Units=GPa)
#
#
# Indices 1 2 3 4 5 6 
#
# 1 170.4082 38.2990 34.5184 0.0000 7.1507 0.0000
# 2 38.2990 95.4183 31.5712 0.0000 7.1506 0.0000
# 3 34.5184 31.5712 56.1731 0.0000 1.9922 0.0000
# 4 0.0000 0.0000 0.0000 38.9589 0.0000 -0.8327
# 5 7.1507 7.1506 1.9922 0.0000 39.8591 0.0000
# 6 0.0000 0.0000 0.0000 -0.8327 0.0000 47.4464
#
#
#
# Elastic Compliance Matrix: (Units=1/GPa)
#
#
# Indices 1 2 3 4 5 6 
#
# 1 0.006940 -0.001627 -0.003322 0.000000 -0.000787 0.000000
# 2 -0.001627 0.013409 -0.006473 0.000000 -0.001790 0.000000
# 3 -0.003322 -0.006473 0.023461 0.000000 0.000585 0.000000
# 4 0.000000 0.000000 0.000000 0.025678 0.000000 0.000451
# 5 -0.000787 -0.001790 0.000585 0.000000 0.025521 0.000000
# 6 0.000000 0.000000 0.000000 0.000451 0.000000 0.021084
#
#
# Mechanical properties :
#
#
# Convention : Reuss Voigt Hill
#
# Bulk Modulus (GPa) = 47.69801 58.97521 53.33661
# Shear Modulus (GPa) = 34.26380 39.76029 37.01205
#
# Velocity S-wave (km/s) = 3.79676 4.08997 3.94609
# Velocity P-wave (km/s) = 6.26801 6.86410 6.57281
#
# Compressibility (1/GPa) = 0.02096523
#
# Stress axis : x y z
#
# Youngs Moduli (GPa) = 144.09279 74.57547 42.62437
#
# Poissons Ratio (x) = 0.12137 0.14160
# Poissons Ratio (y) = 0.23450 0.27590
# Poissons Ratio (z) = 0.47868 0.48272
#
# Static dielectric constant tensor:
#      x y z
#    x 4.986810 0.000000 -0.308040 
#    y 0.000000 4.434610 0.000000 
#    z -0.308040 0.000000 4.499930 
# 
# 
# High freq. dielectric constant tensor:
#      x y z
#    x 1.969820 0.000000 -0.017460 
#    y 0.000000 1.938220 0.000000 
#    z -0.017460 0.000000 1.931890 
# 
# From -- ./inp_files/219743.got.cif
#   From: 2010.06.25/outbox.cif.g09.slc.cpg/sg15_110_cif.got.tgz:219743.got - 2010.06.28 07:06:18.
