data_PCOD8152249
_publ_section_title
;
Structure prediction by ZEFSAII (Michael W. Deem and Ramdas Pophale) SiO2 
 PCOD8152249
Probable space group: C 2/C
;
_chemical_formula_sum "Si O2"
_cell_formula_units_Z 48
_cell_length_a 20.919543
_cell_length_b 11.206563
_cell_length_c 11.302785
_cell_angle_alpha 90.000000
_cell_angle_beta 52.642009
_cell_angle_gamma 90.000000
_cell_volume 2106.204772
_symmetry_space_group_name_H-M "C 2/C"
_symmetry_group_IT_number 15
_symmetry_cell_setting 'monoclinic'
loop_
_space_group_symop_operation_xyz
x,y,z
-x,y,1/2-z
-x,-y,-z
x,-y,1/2+z
1/2+x,1/2+y,z
1/2-x,1/2+y,1/2-z
1/2-x,1/2-y,-z
1/2+x,1/2-y,1/2+z
loop_
_atom_site_type_symbol
_atom_site_label
_atom_site_fract_x
_atom_site_fract_y
_atom_site_fract_z
Si Si1 0.539245 0.665622 0.517634
Si Si2 0.232436 0.913857 0.466754
Si Si3 0.792772 0.334480 0.856032
Si Si4 0.708611 0.701806 0.222429
Si Si5 0.557674 0.415055 0.586807
Si Si6 0.521683 0.082684 0.355687
O O1 0.621662 0.658414 0.355111
O O2 0.545600 0.559297 0.605863
O O3 0.463841 0.638824 0.517045
O O4 0.531560 0.797031 0.582021
O O5 0.300016 0.829088 0.333284
O O6 0.241356 0.900963 0.597926
O O7 0.145862 0.870155 0.519300
O O8 0.240912 0.047263 0.417903
O O9 0.773918 0.276977 0.751270
O O10 0.886207 0.371383 0.758539
O O11 0.750000 0.250000 0.000000
O O12 0.500000 0.357868 0.750000
O O13 0.500000 0.021557 0.250000
O O14 0.500000 0.000000 0.500000
#
# Coordination Sequence:
#
# PCOD8152249 Si02
#       6
#     8   8   8   8   8   8
#     4  11  23  42  71 102 144 178 239 290 364 425
#     4  11  25  43  69 101 142 181 237 292 364 421
#     4  12  28  45  76 101 142 189 246 295 369 445
#     4  11  24  44  69 102 139 184 228 301 356 437
#     4  11  22  39  69 104 135 181 226 300 353 422
#     4  12  29  50  73 105 149 198 246 302 368 451
#
# _framework density 22.789807
#
# number of rings (size 3 to 8) (size 9 to 14) (size 15 to 20)
#    0.000    0.667    3.333    3.500    7.000    0.667 
#    0.000    0.000    0.000    0.000    0.000    0.000 
#    0.000    0.000    0.000    0.000    0.000    0.000 
#
# Total GULP energy -297342.264158 kJ/mol
# GULP energy per Si atom -12389.261007 kJ/mol
# Density = 2.273794 g / cm^3
# Si number density = 22.789807 Si / 1000 Ang^3
#
#
#
# Elastic Constant Matrix: (Units=GPa)
#
#
# Indices 1 2 3 4 5 6 
#
# 1 108.8342 -0.3314 46.1608 0.0000 10.0468 0.0000
# 2 -0.3314 65.9171 21.9854 0.0000 4.1399 0.0000
# 3 46.1608 21.9854 120.0170 0.0000 8.1717 0.0000
# 4 0.0000 0.0000 0.0000 33.1842 0.0000 -3.5464
# 5 10.0468 4.1399 8.1717 0.0000 41.0453 0.0000
# 6 0.0000 0.0000 0.0000 -3.5464 0.0000 25.3155
#
#
#
# Elastic Compliance Matrix: (Units=1/GPa)
#
#
# Indices 1 2 3 4 5 6 
#
# 1 0.011297 0.001691 -0.004516 0.000000 -0.002037 0.000000
# 2 0.001691 0.016456 -0.003572 0.000000 -0.001363 0.000000
# 3 -0.004516 -0.003572 0.010770 0.000000 -0.000678 0.000000
# 4 0.000000 0.000000 0.000000 0.030593 0.000000 0.004286
# 5 -0.002037 -0.001363 -0.000678 0.000000 0.025134 0.000000
# 6 0.000000 0.000000 0.000000 0.004286 0.000000 0.040102
#
#
# Mechanical properties :
#
#
# Convention : Reuss Voigt Hill
#
# Bulk Modulus (GPa) = 38.86796 47.82200 43.34498
# Shear Modulus (GPa) = 32.10846 35.03923 33.57384
#
# Velocity S-wave (km/s) = 3.75760 3.92535 3.84239
# Velocity P-wave (km/s) = 5.99317 6.44779 6.22463
#
# Compressibility (1/GPa) = 0.02572813
#
# Stress axis : x y z
#
# Youngs Moduli (GPa) = 88.51990 60.76790 92.85327
#
# Poissons Ratio (x) = -0.10276 0.41933
# Poissons Ratio (y) = -0.14968 0.33168
# Poissons Ratio (z) = 0.39976 0.21707
#
# Static dielectric constant tensor:
#      x y z
#    x 4.168990 0.000000 0.199170 
#    y 0.000000 4.082510 0.000000 
#    z 0.199170 0.000000 4.418120 
# 
# 
# High freq. dielectric constant tensor:
#      x y z
#    x 1.905920 0.000000 0.002630 
#    y 0.000000 1.892080 0.000000 
#    z 0.002630 0.000000 1.915260 
# 
# From -- ./inp_files/111431.got.cif
#   From: 2010.06.25/outbox.cif.g09.slc.cpg/sg15_56_cif.got.tgz:111431.got - 2010.06.28 07:06:18.
