data_PCOD8152011
_publ_section_title
;
Structure prediction by ZEFSAII (Michael W. Deem and Ramdas Pophale) SiO2 
 PCOD8152011
Probable space group: C 2/C
;
_chemical_formula_sum "Si O2"
_cell_formula_units_Z 48
_cell_length_a 25.180758
_cell_length_b 15.288364
_cell_length_c 11.463467
_cell_angle_alpha 90.000000
_cell_angle_beta 32.155097
_cell_angle_gamma 90.000000
_cell_volume 2348.719933
_symmetry_space_group_name_H-M "C 2/C"
_symmetry_group_IT_number 15
_symmetry_cell_setting 'monoclinic'
loop_
_space_group_symop_operation_xyz
x,y,z
-x,y,1/2-z
-x,-y,-z
x,-y,1/2+z
1/2+x,1/2+y,z
1/2-x,1/2+y,1/2-z
1/2-x,1/2-y,-z
1/2+x,1/2-y,1/2+z
loop_
_atom_site_type_symbol
_atom_site_label
_atom_site_fract_x
_atom_site_fract_y
_atom_site_fract_z
Si Si1 0.621314 0.848473 0.600443
Si Si2 0.152184 0.217053 0.118744
Si Si3 0.467552 0.154948 0.984281
Si Si4 0.500000 0.302009 0.250000
Si Si5 0.003527 0.102136 0.503474
Si Si6 0.837620 0.194872 0.663453
Si Si7 0.000000 0.497624 0.250000
O O1 0.548191 0.850623 0.848299
O O2 0.594313 0.764752 0.568684
O O3 0.737125 0.835500 0.417145
O O4 0.598341 0.940803 0.580129
O O5 0.113256 0.134919 0.265411
O O6 0.068310 0.292309 0.267886
O O7 0.250000 0.250000 0.000000
O O8 0.177547 0.177884 0.944952
O O9 0.368220 0.203384 0.120377
O O10 0.478572 0.060638 0.904156
O O11 0.517159 0.364428 0.328067
O O12 0.925509 0.138472 0.555182
O O13 0.000000 0.000000 0.500000
#
# Coordination Sequence:
#
# PCOD8152011 Si02
#       7
#     8   8   8   4   8   8   4
#     4  11  24  42  67 101 132 176 226 275 343 401
#     4  11  23  43  73  95 132 179 227 270 345 406
#     4  11  21  45  67  96 135 175 223 279 337 400
#     4  11  22  42  69  92 134 170 223 272 338 399
#     4  11  25  43  66  98 134 177 223 282 333 403
#     4  11  23  44  70  95 133 177 224 273 347 403
#     4  11  24  42  67  96 140 174 225 288 330 397
#
# _framework density 20.436664
#
# number of rings (size 3 to 8) (size 9 to 14) (size 15 to 20)
#    0.000    1.000    5.000    3.500    4.667    1.333 
#    6.000    0.000    0.000    0.000    0.000    0.000 
#    0.000    0.000    0.000    0.000    0.000    0.000 
#
# Total GULP energy -297510.526010 kJ/mol
# GULP energy per Si atom -12396.271917 kJ/mol
# Density = 2.039015 g / cm^3
# Si number density = 20.436664 Si / 1000 Ang^3
#
#
#
# Elastic Constant Matrix: (Units=GPa)
#
#
# Indices 1 2 3 4 5 6 
#
# 1 127.5397 56.7689 48.1104 0.0000 -0.6285 0.0000
# 2 56.7689 167.8897 48.2094 0.0000 -4.5465 0.0000
# 3 48.1104 48.2094 98.1825 0.0000 -11.1233 0.0000
# 4 0.0000 0.0000 0.0000 27.8684 0.0000 4.5216
# 5 -0.6285 -4.5465 -11.1233 0.0000 39.8397 0.0000
# 6 0.0000 0.0000 0.0000 4.5216 0.0000 32.0632
#
#
#
# Elastic Compliance Matrix: (Units=1/GPa)
#
#
# Indices 1 2 3 4 5 6 
#
# 1 0.010439 -0.002391 -0.004082 0.000000 -0.001248 0.000000
# 2 -0.002391 0.007483 -0.002489 0.000000 0.000121 0.000000
# 3 -0.004082 -0.002489 0.013805 0.000000 0.003506 0.000000
# 4 0.000000 0.000000 0.000000 0.036723 0.000000 -0.005179
# 5 -0.001248 0.000121 0.003506 0.000000 0.026074 0.000000
# 6 0.000000 0.000000 0.000000 -0.005179 0.000000 0.031919
#
#
# Mechanical properties :
#
#
# Convention : Reuss Voigt Hill
#
# Bulk Modulus (GPa) = 72.45498 77.75437 75.10468
# Shear Modulus (GPa) = 33.56449 35.98916 34.77682
#
# Velocity S-wave (km/s) = 4.05701 4.20099 4.12963
# Velocity P-wave (km/s) = 7.58130 7.85240 7.71804
#
# Compressibility (1/GPa) = 0.01380167
#
# Stress axis : x y z
#
# Youngs Moduli (GPa) = 95.79589 133.64051 72.43915
#
# Poissons Ratio (x) = 0.31957 0.29572
# Poissons Ratio (y) = 0.22907 0.18028
# Poissons Ratio (z) = 0.39108 0.33259
#
# Static dielectric constant tensor:
#      x y z
#    x 3.779810 0.000000 0.019120 
#    y 0.000000 3.821720 0.000000 
#    z 0.019120 0.000000 3.691370 
# 
# 
# High freq. dielectric constant tensor:
#      x y z
#    x 1.813440 0.000000 0.007040 
#    y 0.000000 1.794390 0.000000 
#    z 0.007040 0.000000 1.792920 
# 
# From -- ./inp_files/123470.got.cif
#   From: 2010.06.25/outbox.cif.g09.slc.cpg/sg15_62_cif.got.tgz:123470.got - 2010.06.28 07:06:18.
