data_PCOD8152369
_publ_section_title
;
Structure prediction by ZEFSAII (Michael W. Deem and Ramdas Pophale) SiO2 
 PCOD8152369
Probable space group: C 2/C
;
_chemical_formula_sum "Si O2"
_cell_formula_units_Z 48
_cell_length_a 15.160272
_cell_length_b 13.679326
_cell_length_c 12.083449
_cell_angle_alpha 90.000000
_cell_angle_beta 120.761678
_cell_angle_gamma 90.000000
_cell_volume 2153.319736
_symmetry_space_group_name_H-M "C 2/C"
_symmetry_group_IT_number 15
_symmetry_cell_setting 'monoclinic'
loop_
_space_group_symop_operation_xyz
x,y,z
-x,y,1/2-z
-x,-y,-z
x,-y,1/2+z
1/2+x,1/2+y,z
1/2-x,1/2+y,1/2-z
1/2-x,1/2-y,-z
1/2+x,1/2-y,1/2+z
loop_
_atom_site_type_symbol
_atom_site_label
_atom_site_fract_x
_atom_site_fract_y
_atom_site_fract_z
Si Si1 0.151749 0.848072 0.673465
Si Si2 0.799580 0.055446 0.834210
Si Si3 0.926102 0.713425 0.051486
Si Si4 0.356930 0.257157 0.237577
Si Si5 0.268196 0.640765 0.047568
Si Si6 0.121311 0.488210 0.063220
O O1 0.072724 0.775805 0.562216
O O2 0.264123 0.811351 0.711011
O O3 0.143833 0.849311 0.801986
O O4 0.131125 0.958719 0.623586
O O5 0.849829 0.136238 0.787148
O O6 0.683416 0.030623 0.717860
O O7 0.806880 0.084788 0.965715
O O8 0.867057 0.771571 0.111476
O O9 0.044808 0.696787 0.156123
O O10 0.865993 0.611084 0.000009
O O11 0.168933 0.582195 0.031092
O O12 0.250000 0.750000 0.000000
O O13 0.000000 0.500000 0.000000
#
# Coordination Sequence:
#
# PCOD8152369 Si02
#       6
#     8   8   8   8   8   8
#     4  11  23  41  67  93 130 177 224 275 347 410
#     4  11  24  40  66  93 136 178 218 281 348 408
#     4  11  23  41  68  95 131 176 228 285 332 412
#     4  11  23  42  64  97 132 171 227 281 340 413
#     4  11  22  41  64  97 138 177 214 280 349 407
#     4  11  24  41  69 104 133 174 231 283 350 419
#
# _framework density 22.291162
#
# number of rings (size 3 to 8) (size 9 to 14) (size 15 to 20)
#    0.000    1.000    3.333    3.500    4.667    2.667 
#    0.000    2.500    0.000    0.000    0.000    0.000 
#    0.000    0.000    0.000    0.000    0.000    0.000 
#
# Total GULP energy -297457.604106 kJ/mol
# GULP energy per Si atom -12394.066838 kJ/mol
# Density = 2.224043 g / cm^3
# Si number density = 22.291162 Si / 1000 Ang^3
#
#
#
# Elastic Constant Matrix: (Units=GPa)
#
#
# Indices 1 2 3 4 5 6 
#
# 1 33.9004 2.3670 18.8861 0.0000 -9.3738 0.0000
# 2 2.3670 134.7589 37.9463 0.0000 -22.7347 0.0000
# 3 18.8861 37.9463 142.5967 0.0000 -22.5147 0.0000
# 4 0.0000 0.0000 0.0000 43.1154 0.0000 -4.9683
# 5 -9.3738 -22.7347 -22.5147 0.0000 39.1063 0.0000
# 6 0.0000 0.0000 0.0000 -4.9683 0.0000 37.7634
#
#
#
# Elastic Compliance Matrix: (Units=1/GPa)
#
#
# Indices 1 2 3 4 5 6 
#
# 1 0.033362 0.001620 -0.003782 0.000000 0.006761 0.000000
# 2 0.001620 0.008642 -0.001826 0.000000 0.004361 0.000000
# 3 -0.003782 -0.001826 0.008458 0.000000 0.002901 0.000000
# 4 0.000000 0.000000 0.000000 0.023551 0.000000 0.003098
# 5 0.006761 0.004361 0.002901 0.000000 0.031398 0.000000
# 6 0.000000 0.000000 0.000000 0.003098 0.000000 0.026888
#
#
# Mechanical properties :
#
#
# Convention : Reuss Voigt Hill
#
# Bulk Modulus (GPa) = 23.53770 47.73943 35.63857
# Shear Modulus (GPa) = 32.37591 40.80079 36.58835
#
# Velocity S-wave (km/s) = 3.81518 4.28291 4.05579
# Velocity P-wave (km/s) = 5.47628 6.77647 6.16077
#
# Compressibility (1/GPa) = 0.04248504
#
# Stress axis : x y z
#
# Youngs Moduli (GPa) = 29.97462 115.71313 118.23657
#
# Poissons Ratio (x) = -0.18741 0.44718
# Poissons Ratio (y) = -0.04855 0.21586
# Poissons Ratio (z) = 0.11337 0.21125
#
# Static dielectric constant tensor:
#      x y z
#    x 3.632670 0.000000 -0.074130 
#    y 0.000000 4.239270 0.000000 
#    z -0.074130 0.000000 4.518820 
# 
# 
# High freq. dielectric constant tensor:
#      x y z
#    x 1.842090 0.000000 -0.003250 
#    y 0.000000 1.899060 0.000000 
#    z -0.003250 0.000000 1.897320 
# 
# From -- ./inp_files/96536.got.cif
#   From: 2010.06.25/outbox.cif.g09.slc.cpg/sg15_49_cif.got.tgz:96536.got - 2010.06.28 07:06:18.
