data_PCOD8152556
_publ_section_title
;
Structure prediction by ZEFSAII (Michael W. Deem and Ramdas Pophale) SiO2 
 PCOD8152556
Probable space group: C 2/C
;
_chemical_formula_sum "Si O2"
_cell_formula_units_Z 40
_cell_length_a 14.799820
_cell_length_b 20.056849
_cell_length_c 9.759324
_cell_angle_alpha 90.000000
_cell_angle_beta 139.652978
_cell_angle_gamma 90.000000
_cell_volume 1875.521084
_symmetry_space_group_name_H-M "C 2/C"
_symmetry_group_IT_number 15
_symmetry_cell_setting 'monoclinic'
loop_
_space_group_symop_operation_xyz
x,y,z
-x,y,1/2-z
-x,-y,-z
x,-y,1/2+z
1/2+x,1/2+y,z
1/2-x,1/2+y,1/2-z
1/2-x,1/2-y,-z
1/2+x,1/2-y,1/2+z
loop_
_atom_site_type_symbol
_atom_site_label
_atom_site_fract_x
_atom_site_fract_y
_atom_site_fract_z
Si Si1 0.742246 0.704519 0.619800
Si Si2 0.020665 0.738652 0.071755
Si Si3 0.000000 0.631349 0.250000
Si Si4 0.729895 0.553688 0.887227
Si Si5 0.652302 0.556373 0.487275
Si Si6 0.500000 0.647959 0.750000
O O1 0.750000 0.750000 0.500000
O O2 0.639881 0.737465 0.609598
O O3 0.688320 0.633147 0.509427
O O4 0.896412 0.699033 0.855897
O O5 0.082618 0.681305 0.242441
O O6 0.958503 0.803874 0.075880
O O7 0.118314 0.586631 0.459185
O O8 0.665818 0.536191 0.663454
O O9 0.753247 0.487970 0.007473
O O10 0.629925 0.602973 0.856159
O O11 0.500000 0.541371 0.250000
#
# Coordination Sequence:
#
# PCOD8152556 Si02
#       6
#     8   8   4   8   8   4
#     4  12  25  43  70 105 138 181 228 302 361 410
#     4  11  22  44  72 102 141 177 237 289 356 422
#     4  11  24  46  70 106 139 184 234 290 363 422
#     4  12  26  45  73 103 145 188 239 290 351 425
#     4  12  26  47  69 103 140 191 241 285 350 425
#     4  11  22  42  76 102 133 188 236 294 339 426
#
# _framework density 21.327406
#
# number of rings (size 3 to 8) (size 9 to 14) (size 15 to 20)
#    0.000    0.400    5.000    3.600    0.000    5.600 
#    3.600    0.000    0.000    0.000    0.000    0.000 
#    0.000    0.000    0.000    0.000    0.000    0.000 
#
# Total GULP energy -247965.013469 kJ/mol
# GULP energy per Si atom -12398.250673 kJ/mol
# Density = 2.127886 g / cm^3
# Si number density = 21.327406 Si / 1000 Ang^3
#
#
#
# Elastic Constant Matrix: (Units=GPa)
#
#
# Indices 1 2 3 4 5 6 
#
# 1 157.2068 76.0179 59.0940 0.0000 -19.8361 0.0000
# 2 76.0179 120.8214 40.7393 0.0000 -17.9161 0.0000
# 3 59.0940 40.7393 113.5790 0.0000 -13.1183 0.0000
# 4 0.0000 0.0000 0.0000 31.2901 0.0000 -8.9595
# 5 -19.8361 -17.9161 -13.1183 0.0000 44.0538 0.0000
# 6 0.0000 0.0000 0.0000 -8.9595 0.0000 30.2666
#
#
#
# Elastic Compliance Matrix: (Units=1/GPa)
#
#
# Indices 1 2 3 4 5 6 
#
# 1 0.010285 -0.005115 -0.003337 0.000000 0.001557 0.000000
# 2 -0.005115 0.012338 -0.001502 0.000000 0.002267 0.000000
# 3 -0.003337 -0.001502 0.011221 0.000000 0.001228 0.000000
# 4 0.000000 0.000000 0.000000 0.034919 0.000000 0.010337
# 5 0.001557 0.002267 0.001228 0.000000 0.024688 0.000000
# 6 0.000000 0.000000 0.000000 0.010337 0.000000 0.036100
#
#
# Mechanical properties :
#
#
# Convention : Reuss Voigt Hill
#
# Bulk Modulus (GPa) = 71.75657 82.58996 77.17326
# Shear Modulus (GPa) = 32.44552 35.50583 33.97567
#
# Velocity S-wave (km/s) = 3.90462 4.08462 3.99564
# Velocity P-wave (km/s) = 7.35163 7.81373 7.58620
#
# Compressibility (1/GPa) = 0.01393601
#
# Stress axis : x y z
#
# Youngs Moduli (GPa) = 97.22611 81.05207 89.11752
#
# Poissons Ratio (x) = 0.41460 0.29736
# Poissons Ratio (y) = 0.49734 0.13387
# Poissons Ratio (z) = 0.32441 0.12175
#
# Static dielectric constant tensor:
#      x y z
#    x 3.772400 0.000000 -0.071210 
#    y 0.000000 4.053780 0.000000 
#    z -0.071210 0.000000 3.925230 
# 
# 
# High freq. dielectric constant tensor:
#      x y z
#    x 1.832990 0.000000 -0.010160 
#    y 0.000000 1.851840 0.000000 
#    z -0.010160 0.000000 1.842880 
# 
# From -- ./inp_files/41091.got.cif
#   From: 2010.06.25/outbox.cif.g09.slc.cpg/sg15_21_cif.got.tgz:41091.got - 2010.06.28 07:06:18.
