data_PCOD8152160
_publ_section_title
;
Structure prediction by ZEFSAII (Michael W. Deem and Ramdas Pophale) SiO2 
 PCOD8152160
Probable space group: C 2/C
;
_chemical_formula_sum "Si O2"
_cell_formula_units_Z 52
_cell_length_a 11.555526
_cell_length_b 8.697549
_cell_length_c 24.447005
_cell_angle_alpha 90.000000
_cell_angle_beta 56.796478
_cell_angle_gamma 90.000000
_cell_volume 2055.880862
_symmetry_space_group_name_H-M "C 2/C"
_symmetry_group_IT_number 15
_symmetry_cell_setting 'monoclinic'
loop_
_space_group_symop_operation_xyz
x,y,z
-x,y,1/2-z
-x,-y,-z
x,-y,1/2+z
1/2+x,1/2+y,z
1/2-x,1/2+y,1/2-z
1/2-x,1/2-y,-z
1/2+x,1/2-y,1/2+z
loop_
_atom_site_type_symbol
_atom_site_label
_atom_site_fract_x
_atom_site_fract_y
_atom_site_fract_z
Si Si1 0.985856 0.872011 0.847445
Si Si2 0.266401 0.822942 0.811709
Si Si3 0.396054 0.899970 0.071782
Si Si4 0.186388 0.954454 0.028776
Si Si5 0.463246 0.218954 0.059667
Si Si6 0.797082 0.583084 0.886102
Si Si7 0.000000 0.902865 0.250000
O O1 0.925794 0.700699 0.853764
O O2 0.154494 0.882914 0.796135
O O3 0.934202 0.927854 0.920514
O O4 0.932700 0.992566 0.814952
O O5 0.158020 0.727564 0.875001
O O6 0.381844 0.711221 0.756362
O O7 0.336934 0.952305 0.831607
O O8 0.289772 0.945375 0.051874
O O9 0.436618 0.053850 0.096427
O O10 0.530194 0.827176 0.006607
O O11 0.111517 0.789096 0.038970
O O12 0.261775 0.012643 0.954424
O O13 0.338884 0.334545 0.102712
#
# Coordination Sequence:
#
# PCOD8152160 Si02
#       7
#     8   8   8   8   8   8   4
#     4  12  28  49  77 102 148 189 240 305 360 427
#     4  12  27  50  75 104 140 190 245 304 356 429
#     4  11  24  39  66 109 149 195 229 282 359 437
#     4  12  22  41  71 112 150 187 225 296 364 442
#     4  11  22  38  66 104 156 187 225 281 363 436
#     4  12  25  42  73 112 144 183 239 289 374 447
#     4  12  30  56  70 100 138 188 258 298 354 424
#
# _framework density 25.293295000000001
#
# number of rings (size 3 to 8) (size 9 to 14) (size 15 to 20)
#    0.000    0.308    6.154    2.308    4.308    3.077 
#    2.769    0.000    0.000    0.000    0.000    0.000 
#    0.000    0.000    0.000    0.000    0.000    0.000 
#
# Total GULP energy -322253.999975 kJ/mol
# GULP energy per Si atom -12394.384614 kJ/mol
# Density = 2.523573 g / cm^3
# Si number density = 25.293295 Si / 1000 Ang^3
#
#
#
# Elastic Constant Matrix: (Units=GPa)
#
#
# Indices 1 2 3 4 5 6 
#
# 1 85.8429 23.0680 10.6955 0.0000 -9.3663 0.0000
# 2 23.0680 151.7774 33.4257 0.0000 1.3121 0.0000
# 3 10.6955 33.4257 50.3539 0.0000 -4.3701 0.0000
# 4 0.0000 0.0000 0.0000 39.0366 0.0000 -13.4319
# 5 -9.3663 1.3121 -4.3701 0.0000 24.9928 0.0000
# 6 0.0000 0.0000 0.0000 -13.4319 0.0000 49.8613
#
#
#
# Elastic Compliance Matrix: (Units=1/GPa)
#
#
# Indices 1 2 3 4 5 6 
#
# 1 0.012767 -0.001725 -0.001161 0.000000 0.004672 0.000000
# 2 -0.001725 0.007993 -0.005110 0.000000 -0.001960 0.000000
# 3 -0.001161 -0.005110 0.023845 0.000000 0.004003 0.000000
# 4 0.000000 0.000000 0.000000 0.028234 0.000000 0.007606
# 5 0.004672 -0.001960 0.004003 0.000000 0.042565 0.000000
# 6 0.000000 0.000000 0.000000 0.007606 0.000000 0.022105
#
#
# Mechanical properties :
#
#
# Convention : Reuss Voigt Hill
#
# Bulk Modulus (GPa) = 34.94818 46.92807 40.93813
# Shear Modulus (GPa) = 30.66756 37.49714 34.08235
#
# Velocity S-wave (km/s) = 3.48584 3.85449 3.67479
# Velocity P-wave (km/s) = 5.48166 6.19704 5.85030
#
# Compressibility (1/GPa) = 0.02861379
#
# Stress axis : x y z
#
# Youngs Moduli (GPa) = 78.32559 125.10970 41.93709
#
# Poissons Ratio (x) = 0.21583 0.04870
# Poissons Ratio (y) = 0.13512 0.21428
# Poissons Ratio (z) = 0.09095 0.63925
#
# Static dielectric constant tensor:
#      x y z
#    x 4.703310 0.000000 -0.179530 
#    y 0.000000 5.085110 0.000000 
#    z -0.179530 0.000000 4.283740 
# 
# 
# High freq. dielectric constant tensor:
#      x y z
#    x 2.013520 0.000000 -0.021580 
#    y 0.000000 2.037820 0.000000 
#    z -0.021580 0.000000 1.974370 
# 
# From -- ./inp_files/242511.got.cif
#   From: 2010.06.25/outbox.cif.g09.slc.cpg/sg15_122_cif.got.tgz:242511.got - 2010.06.28 07:06:18.
