data_PCOD8152755
_publ_section_title
;
Structure prediction by ZEFSAII (Michael W. Deem and Ramdas Pophale) SiO2 
 PCOD8152755
Probable space group: C 2/C
;
_chemical_formula_sum "Si O2"
_cell_formula_units_Z 48
_cell_length_a 31.391630
_cell_length_b 5.485292
_cell_length_c 13.605834
_cell_angle_alpha 90.000000
_cell_angle_beta 63.078424
_cell_angle_gamma 90.000000
_cell_volume 2088.921127
_symmetry_space_group_name_H-M "C 2/C"
_symmetry_group_IT_number 15
_symmetry_cell_setting 'monoclinic'
loop_
_space_group_symop_operation_xyz
x,y,z
-x,y,1/2-z
-x,-y,-z
x,-y,1/2+z
1/2+x,1/2+y,z
1/2-x,1/2+y,1/2-z
1/2-x,1/2-y,-z
1/2+x,1/2-y,1/2+z
loop_
_atom_site_type_symbol
_atom_site_label
_atom_site_fract_x
_atom_site_fract_y
_atom_site_fract_z
Si Si1 0.858147 0.950012 0.859153
Si Si2 0.046915 0.049642 0.637219
Si Si3 0.712354 0.251467 0.198198
Si Si4 0.638310 0.121347 0.825194
Si Si5 0.691635 0.451771 0.903646
Si Si6 0.453500 0.955310 0.484397
O O1 0.870199 0.731963 0.773709
O O2 0.908687 0.061659 0.835332
O O3 0.824408 0.149343 0.844147
O O4 0.829636 0.870743 0.989079
O O5 0.048323 0.309670 0.582827
O O6 0.000000 0.029896 0.750000
O O7 0.046877 0.808405 0.567859
O O8 0.718435 0.423863 0.285372
O O9 0.688934 0.009483 0.266393
O O10 0.764996 0.210867 0.096135
O O11 0.645283 0.311549 0.908027
O O12 0.593352 0.950193 0.896790
O O13 0.500000 0.000000 0.500000
#
# Coordination Sequence:
#
# PCOD8152755 Si02
#       6
#     8   8   8   8   8   8
#     4  11  26  42  69 104 137 187 244 295 361 432
#     4  12  27  48  75 109 148 187 241 305 363 436
#     4  11  24  41  70  96 143 186 244 291 363 429
#     4  11  25  43  71 101 142 191 235 298 359 437
#     4  11  22  46  63 102 141 188 237 296 360 422
#     4  12  27  48  78 106 148 193 238 303 368 433
#
# _framework density 22.978366999999999
#
# number of rings (size 3 to 8) (size 9 to 14) (size 15 to 20)
#    0.000    0.667    3.333    3.500    7.000    2.000 
#    0.000    0.000    0.000    0.000    0.000    0.000 
#    0.000    0.000    0.000    0.000    0.000    0.000 
#
# Total GULP energy -297410.115851 kJ/mol
# GULP energy per Si atom -12392.088160 kJ/mol
# Density = 2.292607 g / cm^3
# Si number density = 22.978367 Si / 1000 Ang^3
#
#
#
# Elastic Constant Matrix: (Units=GPa)
#
#
# Indices 1 2 3 4 5 6 
#
# 1 140.3761 3.2087 42.6643 0.0000 7.0960 0.0000
# 2 3.2087 70.7515 3.1454 0.0000 11.0643 0.0000
# 3 42.6643 3.1454 99.6498 0.0000 -26.1604 0.0000
# 4 0.0000 0.0000 0.0000 25.5207 0.0000 -6.2224
# 5 7.0960 11.0643 -26.1604 0.0000 21.4094 0.0000
# 6 0.0000 0.0000 0.0000 -6.2224 0.0000 24.7266
#
#
#
# Elastic Compliance Matrix: (Units=1/GPa)
#
#
# Indices 1 2 3 4 5 6 
#
# 1 0.010387 0.002233 -0.008428 0.000000 -0.014895 0.000000
# 2 0.002233 0.016892 -0.005853 0.000000 -0.016621 0.000000
# 3 -0.008428 -0.005853 0.022608 0.000000 0.033442 0.000000
# 4 0.000000 0.000000 0.000000 0.041745 0.000000 0.010505
# 5 -0.014895 -0.016621 0.033442 0.000000 0.101098 0.000000
# 6 0.000000 0.000000 0.000000 0.010505 0.000000 0.043086
#
#
# Mechanical properties :
#
#
# Convention : Reuss Voigt Hill
#
# Bulk Modulus (GPa) = 38.77228 45.42380 42.09804
# Shear Modulus (GPa) = 18.62138 31.78194 25.20166
#
# Velocity S-wave (km/s) = 2.84982 3.72307 3.31532
# Velocity P-wave (km/s) = 5.26675 6.18811 5.74593
#
# Compressibility (1/GPa) = 0.02579163
#
# Stress axis : x y z
#
# Youngs Moduli (GPa) = 96.27369 59.19906 44.23299
#
# Poissons Ratio (x) = -0.13218 0.37279
# Poissons Ratio (y) = -0.21497 0.25888
# Poissons Ratio (z) = 0.81138 0.34647
#
# Static dielectric constant tensor:
#      x y z
#    x 4.209260 0.000000 -0.056190 
#    y 0.000000 4.562680 0.000000 
#    z -0.056190 0.000000 4.243130 
# 
# 
# High freq. dielectric constant tensor:
#      x y z
#    x 1.935710 0.000000 -0.007220 
#    y 0.000000 1.894340 0.000000 
#    z -0.007220 0.000000 1.919420 
# 
# From -- ./inp_files/180012.got.cif
#   From: 2010.06.25/outbox.cif.g09.slc.cpg/sg15_91_cif.got.tgz:180012.got - 2010.06.28 07:06:18.
