data_PCOD8152500
_publ_section_title
;
Structure prediction by ZEFSAII (Michael W. Deem and Ramdas Pophale) SiO2 
 PCOD8152500
Probable space group: C 2/C
;
_chemical_formula_sum "Si O2"
_cell_formula_units_Z 44
_cell_length_a 11.570688
_cell_length_b 11.899605
_cell_length_c 13.657271
_cell_angle_alpha 90.000000
_cell_angle_beta 80.749853
_cell_angle_gamma 90.000000
_cell_volume 1855.970326
_symmetry_space_group_name_H-M "C 2/C"
_symmetry_group_IT_number 15
_symmetry_cell_setting 'monoclinic'
loop_
_space_group_symop_operation_xyz
x,y,z
-x,y,1/2-z
-x,-y,-z
x,-y,1/2+z
1/2+x,1/2+y,z
1/2-x,1/2+y,1/2-z
1/2-x,1/2-y,-z
1/2+x,1/2-y,1/2+z
loop_
_atom_site_type_symbol
_atom_site_label
_atom_site_fract_x
_atom_site_fract_y
_atom_site_fract_z
Si Si1 0.321918 0.467279 0.420815
Si Si2 0.000000 0.355327 0.750000
Si Si3 0.657344 0.720000 0.095627
Si Si4 0.404349 0.061392 0.451302
Si Si5 0.409670 0.708970 0.045233
Si Si6 0.266684 0.275413 0.278545
O O1 0.362891 0.587684 0.376588
O O2 0.216978 0.500669 0.509762
O O3 0.419221 0.401315 0.473754
O O4 0.282555 0.395445 0.330712
O O5 0.047747 0.442741 0.664388
O O6 0.107804 0.276535 0.769426
O O7 0.529118 0.754558 0.076760
O O8 0.693237 0.788575 0.188094
O O9 0.750000 0.750000 0.000000
O O10 0.373713 0.191370 0.477421
O O11 0.500000 0.000000 0.500000
O O12 0.308168 0.692682 0.140468
#
# Coordination Sequence:
#
# PCOD8152500 Si02
#       6
#     8   4   8   8   8   8
#     4  11  23  47  72  99 141 191 228 290 369 420
#     4  12  20  42  72  96 134 182 244 282 340 436
#     4  12  27  45  69 109 141 177 239 300 348 428
#     4  11  22  42  69 102 136 182 238 290 349 415
#     4  11  22  48  68 101 142 181 233 292 360 426
#     4  11  24  44  70  98 137 184 234 284 352 428
#
# _framework density 23.707276
#
# number of rings (size 3 to 8) (size 9 to 14) (size 15 to 20)
#    0.000    0.727    3.636    5.455    0.000    1.455 
#   19.636    0.000    0.000    0.000    0.000    0.000 
#    0.000    0.000    0.000    0.000    0.000    0.000 
#
# Total GULP energy -272663.375142 kJ/mol
# GULP energy per Si atom -12393.789779 kJ/mol
# Density = 2.365332 g / cm^3
# Si number density = 23.707276 Si / 1000 Ang^3
#
#
#
# Elastic Constant Matrix: (Units=GPa)
#
#
# Indices 1 2 3 4 5 6 
#
# 1 106.4348 -17.2274 20.2422 0.0000 2.7614 0.0000
# 2 -17.2274 67.3172 13.2581 0.0000 4.7388 0.0000
# 3 20.2422 13.2581 135.7993 0.0000 10.2085 0.0000
# 4 0.0000 0.0000 0.0000 24.4224 0.0000 5.0450
# 5 2.7614 4.7388 10.2085 0.0000 39.6725 0.0000
# 6 0.0000 0.0000 0.0000 5.0450 0.0000 33.5723
#
#
#
# Elastic Compliance Matrix: (Units=1/GPa)
#
#
# Indices 1 2 3 4 5 6 
#
# 1 0.010236 0.003012 -0.001774 0.000000 -0.000616 0.000000
# 2 0.003012 0.016116 -0.001899 0.000000 -0.001646 0.000000
# 3 -0.001774 -0.001899 0.007941 0.000000 -0.001693 0.000000
# 4 0.000000 0.000000 0.000000 0.042258 0.000000 -0.006350
# 5 -0.000616 -0.001646 -0.001693 0.000000 0.025882 0.000000
# 6 0.000000 0.000000 0.000000 -0.006350 0.000000 0.030741
#
#
# Mechanical properties :
#
#
# Convention : Reuss Voigt Hill
#
# Bulk Modulus (GPa) = 30.32794 38.01078 34.16936
# Shear Modulus (GPa) = 34.36811 39.08534 36.72672
#
# Velocity S-wave (km/s) = 3.81160 4.06478 3.94023
# Velocity P-wave (km/s) = 5.67376 6.17237 5.92831
#
# Compressibility (1/GPa) = 0.03297290
#
# Stress axis : x y z
#
# Youngs Moduli (GPa) = 97.69174 62.05113 125.93154
#
# Poissons Ratio (x) = -0.18692 0.22335
# Poissons Ratio (y) = -0.29427 0.23910
# Poissons Ratio (z) = 0.17327 0.11781
#
# Static dielectric constant tensor:
#      x y z
#    x 4.367230 0.000000 -0.038130 
#    y 0.000000 3.835070 0.000000 
#    z -0.038130 0.000000 4.344750 
# 
# 
# High freq. dielectric constant tensor:
#      x y z
#    x 1.948930 0.000000 -0.000610 
#    y 0.000000 1.927310 0.000000 
#    z -0.000610 0.000000 1.940890 
# 
# From -- ./inp_files/142192.got.cif
#   From: 2010.06.25/outbox.cif.g09.slc.cpg/sg15_72_cif.got.tgz:142192.got - 2010.06.28 07:06:18.
