data_PCOD8152969
_publ_section_title
;
Structure prediction by ZEFSAII (Michael W. Deem and Ramdas Pophale) SiO2 
 PCOD8152969
Probable space group: C 2/C
;
_chemical_formula_sum "Si O2"
_cell_formula_units_Z 48
_cell_length_a 18.853044
_cell_length_b 15.504165
_cell_length_c 10.941490
_cell_angle_alpha 90.000000
_cell_angle_beta 40.639667
_cell_angle_gamma 90.000000
_cell_volume 2082.990177
_symmetry_space_group_name_H-M "C 2/C"
_symmetry_group_IT_number 15
_symmetry_cell_setting 'monoclinic'
loop_
_space_group_symop_operation_xyz
x,y,z
-x,y,1/2-z
-x,-y,-z
x,-y,1/2+z
1/2+x,1/2+y,z
1/2-x,1/2+y,1/2-z
1/2-x,1/2-y,-z
1/2+x,1/2-y,1/2+z
loop_
_atom_site_type_symbol
_atom_site_label
_atom_site_fract_x
_atom_site_fract_y
_atom_site_fract_z
Si Si1 0.621847 0.071418 0.418240
Si Si2 0.240012 0.150690 0.050056
Si Si3 0.766877 0.884930 0.509043
Si Si4 0.066209 0.020910 0.289314
Si Si5 0.618158 0.231611 0.044451
Si Si6 0.112936 0.608356 0.848571
O O1 0.689866 0.128950 0.422085
O O2 0.671308 0.078793 0.218101
O O3 0.498865 0.105171 0.581524
O O4 0.620156 0.967390 0.442974
O O5 0.288047 0.096220 0.874358
O O6 0.250000 0.250000 0.000000
O O7 0.115497 0.118280 0.232930
O O8 0.714889 0.821261 0.479734
O O9 0.855333 0.832821 0.476581
O O10 0.830125 0.957736 0.350361
O O11 0.000000 0.010992 0.250000
O O12 0.000000 0.000000 0.500000
O O13 0.500000 0.208823 0.250000
O O14 0.619510 0.203064 0.901233
#
# Coordination Sequence:
#
# PCOD8152969 Si02
#       6
#     8   8   8   8   8   8
#     4  11  23  44  72 103 142 188 234 298 373 445
#     4  12  27  47  71 106 149 189 245 310 369 443
#     4  11  23  44  71 101 144 185 239 300 361 448
#     4  12  28  50  76 104 147 204 250 299 380 463
#     4  11  23  41  68 107 141 184 237 302 363 434
#     4  11  24  41  74 104 141 182 243 297 371 439
#
# _framework density 23.043796
#
# number of rings (size 3 to 8) (size 9 to 14) (size 15 to 20)
#    0.000    0.667    3.333    4.000    2.333    2.667 
#    0.000    0.000    0.000    0.000    0.000    0.000 
#    0.000    0.000    0.000    0.000    0.000    0.000 
#
# Total GULP energy -297569.078371 kJ/mol
# GULP energy per Si atom -12398.711599 kJ/mol
# Density = 2.299135 g / cm^3
# Si number density = 23.043796 Si / 1000 Ang^3
#
#
#
# Elastic Constant Matrix: (Units=GPa)
#
#
# Indices 1 2 3 4 5 6 
#
# 1 80.9815 27.6909 20.9073 0.0000 -6.5623 0.0000
# 2 27.6909 105.2557 26.3932 0.0000 -6.6737 0.0000
# 3 20.9073 26.3932 141.5727 0.0000 -0.0125 0.0000
# 4 0.0000 0.0000 0.0000 29.6830 0.0000 -0.5650
# 5 -6.5623 -6.6737 -0.0125 0.0000 35.9311 0.0000
# 6 0.0000 0.0000 0.0000 -0.5650 0.0000 35.3661
#
#
#
# Elastic Compliance Matrix: (Units=1/GPa)
#
#
# Indices 1 2 3 4 5 6 
#
# 1 0.013976 -0.003184 -0.001470 0.000000 0.001961 0.000000
# 2 -0.003184 0.010816 -0.001546 0.000000 0.001427 0.000000
# 3 -0.001470 -0.001546 0.007569 0.000000 -0.000553 0.000000
# 4 0.000000 0.000000 0.000000 0.033700 0.000000 0.000538
# 5 0.001961 0.001427 -0.000553 0.000000 0.028454 0.000000
# 6 0.000000 0.000000 0.000000 0.000538 0.000000 0.028284
#
#
# Mechanical properties :
#
#
# Convention : Reuss Voigt Hill
#
# Bulk Modulus (GPa) = 50.09869 53.08807 51.59338
# Shear Modulus (GPa) = 35.24788 37.05061 36.14924
#
# Velocity S-wave (km/s) = 3.91526 4.01413 3.96500
# Velocity P-wave (km/s) = 6.49822 6.67624 6.58783
#
# Compressibility (1/GPa) = 0.01996060
#
# Stress axis : x y z
#
# Youngs Moduli (GPa) = 71.55329 92.45171 132.12085
#
# Poissons Ratio (x) = 0.29434 0.19424
# Poissons Ratio (y) = 0.22781 0.20428
# Poissons Ratio (z) = 0.10520 0.14295
#
# Static dielectric constant tensor:
#      x y z
#    x 4.045880 0.000000 -0.101730 
#    y 0.000000 4.264700 0.000000 
#    z -0.101730 0.000000 4.232230 
# 
# 
# High freq. dielectric constant tensor:
#      x y z
#    x 1.907040 0.000000 -0.004650 
#    y 0.000000 1.919260 0.000000 
#    z -0.004650 0.000000 1.918060 
# 
# From -- ./inp_files/112947.got.cif
#   From: 2010.06.25/outbox.cif.g09.slc.cpg/sg15_57_cif.got.tgz:112947.got - 2010.06.28 07:06:18.
