data_PCOD8152239
_publ_section_title
;
Structure prediction by ZEFSAII (Michael W. Deem and Ramdas Pophale) SiO2 
 PCOD8152239
Probable space group: C 2/C
;
_chemical_formula_sum "Si O2"
_cell_formula_units_Z 48
_cell_length_a 11.691754
_cell_length_b 18.075312
_cell_length_c 11.763112
_cell_angle_alpha 90.000000
_cell_angle_beta 78.664152
_cell_angle_gamma 90.000000
_cell_volume 2437.427465
_symmetry_space_group_name_H-M "C 2/C"
_symmetry_group_IT_number 15
_symmetry_cell_setting 'monoclinic'
loop_
_space_group_symop_operation_xyz
x,y,z
-x,y,1/2-z
-x,-y,-z
x,-y,1/2+z
1/2+x,1/2+y,z
1/2-x,1/2+y,1/2-z
1/2-x,1/2-y,-z
1/2+x,1/2-y,1/2+z
loop_
_atom_site_type_symbol
_atom_site_label
_atom_site_fract_x
_atom_site_fract_y
_atom_site_fract_z
Si Si1 0.815363 0.939458 0.252966
Si Si2 0.315555 0.917083 0.777119
Si Si3 0.997642 0.424758 0.935947
Si Si4 0.324829 0.297402 0.577475
Si Si5 0.087911 0.341963 0.335165
Si Si6 0.031044 0.927466 0.066093
O O1 0.704860 0.886372 0.284259
O O2 0.868800 0.952903 0.366640
O O3 0.912357 0.902011 0.152717
O O4 0.781632 0.019269 0.209513
O O5 0.406445 0.939342 0.854963
O O6 0.376754 0.906234 0.642888
O O7 0.263380 0.839412 0.823511
O O8 0.963986 0.362074 0.031623
O O9 0.000000 0.500000 0.000000
O O10 0.250000 0.250000 0.500000
O O11 0.389386 0.244600 0.654423
O O12 0.418773 0.355334 0.508270
O O13 0.000000 0.357886 0.250000
O O14 0.000000 0.000000 0.000000
#
# Coordination Sequence:
#
# PCOD8152239 Si02
#       6
#     8   8   8   8   8   8
#     4  11  23  41  68 105 135 180 238 289 352 430
#     4  11  23  40  70 101 137 185 237 288 358 436
#     4  11  22  39  67 103 134 180 234 291 352 427
#     4  12  24  47  69  98 145 192 236 296 368 427
#     4  12  26  45  69 101 141 185 236 304 362 426
#     4  11  24  42  71 100 139 187 235 288 354 438
#
# _framework density 19.692893999999999
#
# number of rings (size 3 to 8) (size 9 to 14) (size 15 to 20)
#    0.000    0.667    6.667    1.000    0.000    4.000 
#    0.000    1.667    0.000    0.000    0.000    0.000 
#    0.000    0.000    0.000    0.000    0.000    0.000 
#
# Total GULP energy -297537.586892 kJ/mol
# GULP energy per Si atom -12397.399454 kJ/mol
# Density = 1.964807 g / cm^3
# Si number density = 19.692894 Si / 1000 Ang^3
#
#
#
# Elastic Constant Matrix: (Units=GPa)
#
#
# Indices 1 2 3 4 5 6 
#
# 1 130.6691 60.0770 67.9955 0.0000 -7.1708 0.0000
# 2 60.0770 140.5356 57.6706 0.0000 -9.4333 0.0000
# 3 67.9955 57.6706 121.5850 0.0000 -14.0013 0.0000
# 4 0.0000 0.0000 0.0000 41.7497 0.0000 6.5949
# 5 -7.1708 -9.4333 -14.0013 0.0000 38.1376 0.0000
# 6 0.0000 0.0000 0.0000 6.5949 0.0000 25.3529
#
#
#
# Elastic Compliance Matrix: (Units=1/GPa)
#
#
# Indices 1 2 3 4 5 6 
#
# 1 0.011661 -0.002878 -0.005206 0.000000 -0.000430 0.000000
# 2 -0.002878 0.009562 -0.002836 0.000000 0.000783 0.000000
# 3 -0.005206 -0.002836 0.012830 0.000000 0.003030 0.000000
# 4 0.000000 0.000000 0.000000 0.024979 0.000000 -0.006498
# 5 -0.000430 0.000783 0.003030 0.000000 0.027446 0.000000
# 6 0.000000 0.000000 0.000000 -0.006498 0.000000 0.041133
#
#
# Mechanical properties :
#
#
# Convention : Reuss Voigt Hill
#
# Bulk Modulus (GPa) = 81.87245 84.91954 83.39599
# Shear Modulus (GPa) = 32.56838 34.85116 33.70977
#
# Velocity S-wave (km/s) = 4.07112 4.21138 4.14185
# Velocity P-wave (km/s) = 7.98521 8.17699 8.08167
#
# Compressibility (1/GPa) = 0.01221412
#
# Stress axis : x y z
#
# Youngs Moduli (GPa) = 85.75272 104.57900 77.93975
#
# Poissons Ratio (x) = 0.30093 0.40577
# Poissons Ratio (y) = 0.24676 0.22105
# Poissons Ratio (z) = 0.44645 0.29660
#
# Static dielectric constant tensor:
#      x y z
#    x 3.610890 0.000000 -0.103670 
#    y 0.000000 3.897080 0.000000 
#    z -0.103670 0.000000 3.848780 
# 
# 
# High freq. dielectric constant tensor:
#      x y z
#    x 1.777720 0.000000 -0.007810 
#    y 0.000000 1.767350 0.000000 
#    z -0.007810 0.000000 1.781330 
# 
# From -- ./inp_files/87289.got.cif
#   From: 2010.06.25/outbox.cif.g09.slc.cpg/sg15_44_cif.got.tgz:87289.got - 2010.06.28 07:06:18.
