data_PCOD8152948
_publ_section_title
;
Structure prediction by ZEFSAII (Michael W. Deem and Ramdas Pophale) SiO2 
 PCOD8152948
Probable space group: C 2/C
;
_chemical_formula_sum "Si O2"
_cell_formula_units_Z 56
_cell_length_a 12.493559
_cell_length_b 17.386836
_cell_length_c 17.770811
_cell_angle_alpha 90.000000
_cell_angle_beta 46.956055
_cell_angle_gamma 90.000000
_cell_volume 2821.178623
_symmetry_space_group_name_H-M "C 2/C"
_symmetry_group_IT_number 15
_symmetry_cell_setting 'monoclinic'
loop_
_space_group_symop_operation_xyz
x,y,z
-x,y,1/2-z
-x,-y,-z
x,-y,1/2+z
1/2+x,1/2+y,z
1/2-x,1/2+y,1/2-z
1/2-x,1/2-y,-z
1/2+x,1/2-y,1/2+z
loop_
_atom_site_type_symbol
_atom_site_label
_atom_site_fract_x
_atom_site_fract_y
_atom_site_fract_z
Si Si1 0.369693 0.359646 0.250900
Si Si2 0.929232 0.556503 0.592557
Si Si3 0.243525 0.306354 0.747619
Si Si4 0.361459 0.039113 0.268608
Si Si5 0.394733 0.564280 0.578422
Si Si6 0.817982 0.668058 0.051779
Si Si7 0.425204 0.319140 0.934229
O O1 0.500000 0.361937 0.250000
O O2 0.226342 0.402945 0.354109
O O3 0.333182 0.270696 0.247930
O O4 0.419665 0.405848 0.152104
O O5 0.914350 0.499971 0.668222
O O6 0.000000 0.500000 0.500000
O O7 0.047875 0.622200 0.548979
O O8 0.221824 0.380105 0.704415
O O9 0.178349 0.329968 0.859774
O O10 0.416721 0.291950 0.671238
O O11 0.500000 0.062400 0.250000
O O12 0.264883 0.973752 0.355776
O O13 0.500000 0.500000 0.500000
O O14 0.432694 0.631148 0.504577
O O15 0.661237 0.638457 0.093347
O O16 0.829172 0.751449 0.012871
#
# Coordination Sequence:
#
# PCOD8152948 Si02
#       7
#     8   8   8   8   8   8   8
#     4  11  26  44  67  94 130 172 211 261 323 383
#     4  11  23  45  63  91 131 162 213 265 308 383
#     4  12  22  44  64  96 134 160 218 266 308 390
#     4  11  24  40  65  94 126 166 207 261 323 373
#     4  11  23  45  63  91 131 162 213 265 308 383
#     4  11  23  41  66  92 125 170 211 260 319 372
#     4  11  23  41  66  92 125 170 211 260 319 372
#
# _framework density 19.849858999999999
#
# number of rings (size 3 to 8) (size 9 to 14) (size 15 to 20)
#    0.000    0.857    5.714    1.714    0.000    2.286 
#    0.000    1.429    0.000    0.000    0.000    0.000 
#    0.000    0.000    0.000    0.000    0.000    0.000 
#
# Total GULP energy -346869.882293 kJ/mol
# GULP energy per Si atom -12388.210082 kJ/mol
# Density = 1.980468 g / cm^3
# Si number density = 19.849859 Si / 1000 Ang^3
#
#
#
# Elastic Constant Matrix: (Units=GPa)
#
#
# Indices 1 2 3 4 5 6 
#
# 1 135.3022 41.3520 31.4536 -0.0001 -15.5147 -0.0001
# 2 41.3520 92.5998 40.2747 0.0002 5.6249 0.0001
# 3 31.4536 40.2747 90.0906 -0.0001 -14.1576 0.0002
# 4 -0.0001 0.0002 -0.0001 15.5499 0.0000 -15.8452
# 5 -15.5147 5.6249 -14.1576 0.0000 19.3639 -0.0003
# 6 -0.0001 0.0001 0.0002 -15.8452 -0.0003 16.8790
#
#
#
# Elastic Compliance Matrix: (Units=1/GPa)
#
#
# Indices 1 2 3 4 5 6 
#
# 1 0.010034 -0.005249 0.000392 0.000008 0.009850 0.000008
# 2 -0.005249 0.017839 -0.008606 -0.000013 -0.015680 -0.000013
# 3 0.000392 -0.008606 0.017233 0.000008 0.015413 0.000007
# 4 0.000008 -0.000013 0.000008 1.481261 0.000034 1.390541
# 5 0.009850 -0.015680 0.015413 0.000034 0.075359 0.000033
# 6 0.000008 -0.000013 0.000007 1.390541 0.000033 1.364622
#
#
# Mechanical properties :
#
#
# Convention : Reuss Voigt Hill
#
# Bulk Modulus (GPa) = 55.01343 60.46147 57.73745
# Shear Modulus (GPa) = 1.66704 24.01937 12.84320
#
# Velocity S-wave (km/s) = 0.91741 3.48235 2.54641
# Velocity P-wave (km/s) = 5.37561 6.83334 6.14783
#
# Compressibility (1/GPa) = 0.01817738
#
# Stress axis : x y z
#
# Youngs Moduli (GPa) = 99.66428 56.05705 58.02901
#
# Poissons Ratio (x) = 0.29426 -0.02272
# Poissons Ratio (y) = 0.52318 0.49941
# Poissons Ratio (z) = -0.03903 0.48244
#
# Static dielectric constant tensor:
#      x y z
#    x 3.707320 -0.000010 -0.078340 
#    y -0.000010 3.509300 0.000000 
#    z -0.078340 0.000000 3.568520 
# 
# 
# High freq. dielectric constant tensor:
#      x y z
#    x 1.769160 0.000000 -0.006950 
#    y 0.000000 1.791940 0.000000 
#    z -0.006950 0.000000 1.787280 
# 
# From -- ./inp_files/199428.got.cif
#   From: 2010.06.25/outbox.cif.g09.slc.cpg/sg15_100_cif.got.tgz:199428.got - 2010.06.28 07:06:18.
