data_PCOD8152661
_publ_section_title
;
Structure prediction by ZEFSAII (Michael W. Deem and Ramdas Pophale) SiO2 
 PCOD8152661
Probable space group: C 2/C
;
_chemical_formula_sum "Si O2"
_cell_formula_units_Z 44
_cell_length_a 24.515061
_cell_length_b 8.604660
_cell_length_c 13.229911
_cell_angle_alpha 90.000000
_cell_angle_beta 130.062328
_cell_angle_gamma 90.000000
_cell_volume 2135.899043
_symmetry_space_group_name_H-M "C 2/C"
_symmetry_group_IT_number 15
_symmetry_cell_setting 'monoclinic'
loop_
_space_group_symop_operation_xyz
x,y,z
-x,y,1/2-z
-x,-y,-z
x,-y,1/2+z
1/2+x,1/2+y,z
1/2-x,1/2+y,1/2-z
1/2-x,1/2-y,-z
1/2+x,1/2-y,1/2+z
loop_
_atom_site_type_symbol
_atom_site_label
_atom_site_fract_x
_atom_site_fract_y
_atom_site_fract_z
Si Si1 0.319030 0.259165 0.298367
Si Si2 0.670575 0.400101 0.613089
Si Si3 0.949141 0.888011 0.876705
Si Si4 0.541046 0.096362 0.966130
Si Si5 0.884620 0.851548 0.175675
Si Si6 0.500000 0.879024 0.750000
O O1 0.324735 0.414461 0.371687
O O2 0.244779 0.177120 0.231678
O O3 0.380389 0.140885 0.404739
O O4 0.326103 0.300078 0.188227
O O5 0.612131 0.328567 0.619700
O O6 0.650773 0.357494 0.475498
O O7 0.993734 0.747245 0.883827
O O8 0.915500 0.979685 0.741930
O O9 0.000000 0.000000 0.000000
O O10 0.549291 0.988525 0.877867
O O11 0.500000 0.000000 0.000000
O O12 0.948948 0.728022 0.257154
#
# Coordination Sequence:
#
# PCOD8152661 Si02
#       6
#     8   8   8   8   8   4
#     4  11  26  45  65  98 135 178 218 275 333 400
#     4  11  25  43  70  92 135 180 220 270 337 395
#     4  11  22  44  69  96 133 174 224 275 329 400
#     4  12  24  44  65 103 134 170 228 279 330 392
#     4  11  23  45  67  99 130 180 222 270 341 394
#     4  12  26  36  74  98 134 176 216 292 326 390
#
# _framework density 20.600224000000001
#
# number of rings (size 3 to 8) (size 9 to 14) (size 15 to 20)
#    0.000    0.727    5.455    2.727    7.636    0.000 
#    0.000    3.636    0.000    0.000    0.000    0.000 
#    0.000    0.000    0.000    0.000    0.000    0.000 
#
# Total GULP energy -272914.642171 kJ/mol
# GULP energy per Si atom -12405.211008 kJ/mol
# Density = 2.055334 g / cm^3
# Si number density = 20.600224 Si / 1000 Ang^3
#
#
#
# Elastic Constant Matrix: (Units=GPa)
#
#
# Indices 1 2 3 4 5 6 
#
# 1 113.8880 34.9036 36.5747 0.0000 17.4741 0.0000
# 2 34.9036 74.9473 25.7463 0.0000 -0.2847 0.0000
# 3 36.5747 25.7463 100.2488 0.0000 4.6209 0.0000
# 4 0.0000 0.0000 0.0000 28.0078 0.0000 8.3942
# 5 17.4741 -0.2847 4.6209 0.0000 36.1091 0.0000
# 6 0.0000 0.0000 0.0000 8.3942 0.0000 39.8078
#
#
#
# Elastic Compliance Matrix: (Units=1/GPa)
#
#
# Indices 1 2 3 4 5 6 
#
# 1 0.011965 -0.004584 -0.002937 0.000000 -0.005450 0.000000
# 2 -0.004584 0.016403 -0.002664 0.000000 0.002689 0.000000
# 3 -0.002937 -0.002664 0.011736 0.000000 -0.000102 0.000000
# 4 0.000000 0.000000 0.000000 0.038113 0.000000 -0.008037
# 5 -0.005450 0.002689 -0.000102 0.000000 0.030366 0.000000
# 6 0.000000 0.000000 0.000000 -0.008037 0.000000 0.026815
#
#
# Mechanical properties :
#
#
# Convention : Reuss Voigt Hill
#
# Bulk Modulus (GPa) = 50.67526 53.72593 52.20060
# Shear Modulus (GPa) = 30.79862 33.57557 32.18709
#
# Velocity S-wave (km/s) = 3.87080 4.04154 3.95709
# Velocity P-wave (km/s) = 6.68058 6.92211 6.80242
#
# Compressibility (1/GPa) = 0.01973349
#
# Stress axis : x y z
#
# Youngs Moduli (GPa) = 83.57854 60.96471 85.21139
#
# Poissons Ratio (x) = 0.27946 0.25024
# Poissons Ratio (y) = 0.38312 0.22702
# Poissons Ratio (z) = 0.24545 0.16242
#
# Static dielectric constant tensor:
#      x y z
#    x 4.052970 0.000000 0.098720 
#    y 0.000000 5.451750 0.000000 
#    z 0.098720 0.000000 3.823670 
# 
# 
# High freq. dielectric constant tensor:
#      x y z
#    x 1.809230 0.000000 -0.000390 
#    y 0.000000 1.817060 0.000000 
#    z -0.000390 0.000000 1.805420 
# 
# From -- ./inp_files/109947.got.cif
#   From: 2010.06.25/outbox.cif.g09.slc.cpg/sg15_55_cif.got.tgz:109947.got - 2010.06.28 07:06:18.
