data_PCOD8152406
_publ_section_title
;
Structure prediction by ZEFSAII (Michael W. Deem and Ramdas Pophale) SiO2 
 PCOD8152406
Probable space group: C 2/C
;
_chemical_formula_sum "Si O2"
_cell_formula_units_Z 64
_cell_length_a 14.741067
_cell_length_b 30.459542
_cell_length_c 9.462826
_cell_angle_alpha 90.000000
_cell_angle_beta 136.290991
_cell_angle_gamma 90.000000
_cell_volume 2935.950484
_symmetry_space_group_name_H-M "C 2/C"
_symmetry_group_IT_number 15
_symmetry_cell_setting 'monoclinic'
loop_
_space_group_symop_operation_xyz
x,y,z
-x,y,1/2-z
-x,-y,-z
x,-y,1/2+z
1/2+x,1/2+y,z
1/2-x,1/2+y,1/2-z
1/2-x,1/2-y,-z
1/2+x,1/2-y,1/2+z
loop_
_atom_site_type_symbol
_atom_site_label
_atom_site_fract_x
_atom_site_fract_y
_atom_site_fract_z
Si Si1 0.700514 0.701904 0.884810
Si Si2 0.795008 0.502873 0.263042
Si Si3 0.003963 0.569055 0.417768
Si Si4 0.649473 0.848235 0.185337
Si Si5 0.867513 0.972676 0.670754
Si Si6 0.410926 0.690355 0.454011
Si Si7 0.134673 0.871355 0.847940
Si Si8 0.113929 0.261232 0.277534
O O1 0.807655 0.674218 0.916009
O O2 0.568615 0.697726 0.641972
O O3 0.750000 0.750000 0.000000
O O4 0.660479 0.676314 0.982289
O O5 0.889631 0.468836 0.445403
O O6 0.664368 0.506638 0.212370
O O7 0.866034 0.550324 0.323377
O O8 0.755568 0.483541 0.067576
O O9 0.042751 0.613665 0.542045
O O10 0.000000 0.581231 0.250000
O O11 0.766528 0.868134 0.409831
O O12 0.584433 0.812043 0.213727
O O13 0.881859 0.921459 0.714473
O O14 0.000000 0.992449 0.750000
O O15 0.343485 0.656367 0.269101
O O16 0.372019 0.738842 0.359343
O O17 0.000000 0.851042 0.750000
O O18 0.250000 0.250000 0.500000
O O19 0.000000 0.242212 0.250000
#
# Coordination Sequence:
#
# PCOD8152406 Si02
#       8
#     8   8   8   8   8   8   8   8
#     4  11  24  42  66  98 142 189 238 289 358 433
#     4  11  23  47  73 102 141 189 232 282 368 436
#     4  11  25  44  71 100 144 193 228 291 361 432
#     4  12  24  43  69 103 138 182 248 299 346 425
#     4  11  24  43  76 107 136 179 238 296 354 438
#     4  11  23  41  68  96 136 192 230 288 366 415
#     4  11  22  41  68 102 137 178 235 298 352 413
#     4  12  25  42  70 100 134 182 238 297 355 420
#
# _framework density 21.798734
#
# number of rings (size 3 to 8) (size 9 to 14) (size 15 to 20)
#    0.000    0.750    6.250    1.500    0.000    3.000 
#    0.000    0.000    0.000    0.000    0.000    0.000 
#    0.000    0.000    0.000    0.000    0.000    0.000 
#
# Total GULP energy -396432.710700 kJ/mol
# GULP energy per Si atom -12388.522209 kJ/mol
# Density = 2.174912 g / cm^3
# Si number density = 21.798734 Si / 1000 Ang^3
#
#
#
# Elastic Constant Matrix: (Units=GPa)
#
#
# Indices 1 2 3 4 5 6 
#
# 1 99.1163 23.5820 17.7511 0.0000 -2.1222 0.0000
# 2 23.5820 100.4625 32.3319 0.0000 -1.2644 0.0000
# 3 17.7511 32.3319 104.2668 0.0000 -4.6618 0.0000
# 4 0.0000 0.0000 0.0000 34.1135 0.0000 4.0101
# 5 -2.1222 -1.2644 -4.6618 0.0000 30.2031 0.0000
# 6 0.0000 0.0000 0.0000 4.0101 0.0000 25.3543
#
#
#
# Elastic Compliance Matrix: (Units=1/GPa)
#
#
# Indices 1 2 3 4 5 6 
#
# 1 0.010820 -0.002164 -0.001149 0.000000 0.000492 0.000000
# 2 -0.002164 0.011490 -0.003202 0.000000 -0.000165 0.000000
# 3 -0.001149 -0.003202 0.010845 0.000000 0.001459 0.000000
# 4 0.000000 0.000000 0.000000 0.029869 0.000000 -0.004724
# 5 0.000492 -0.000165 0.001459 0.000000 0.033362 0.000000
# 6 0.000000 0.000000 0.000000 -0.004724 0.000000 0.040188
#
#
# Mechanical properties :
#
#
# Convention : Reuss Voigt Hill
#
# Bulk Modulus (GPa) = 49.68898 50.13063 49.90980
# Shear Modulus (GPa) = 31.98705 33.27955 32.63330
#
# Velocity S-wave (km/s) = 3.83480 3.91151 3.87334
# Velocity P-wave (km/s) = 6.51548 6.59142 6.55356
#
# Compressibility (1/GPa) = 0.02012519
#
# Stress axis : x y z
#
# Youngs Moduli (GPa) = 92.41857 87.02977 92.21220
#
# Poissons Ratio (x) = 0.18832 0.10596
# Poissons Ratio (y) = 0.19998 0.29526
# Poissons Ratio (z) = 0.10620 0.27867
#
# Static dielectric constant tensor:
#      x y z
#    x 3.839810 0.000000 -0.054510 
#    y 0.000000 3.775970 0.000000 
#    z -0.054510 0.000000 4.106020 
# 
# 
# High freq. dielectric constant tensor:
#      x y z
#    x 1.857440 0.000000 -0.010970 
#    y 0.000000 1.851890 0.000000 
#    z -0.010970 0.000000 1.869340 
# 
# From -- ./inp_files/44880.got.cif
#   From: 2010.06.25/outbox.cif.g09.slc.cpg/sg15_23_cif.got.tgz:44880.got - 2010.06.28 07:06:18.
