data_PCOD8152512
_publ_section_title
;
Structure prediction by ZEFSAII (Michael W. Deem and Ramdas Pophale) SiO2 
 PCOD8152512
Probable space group: C 2/C
;
_chemical_formula_sum "Si O2"
_cell_formula_units_Z 56
_cell_length_a 26.147697
_cell_length_b 8.837490
_cell_length_c 14.205891
_cell_angle_alpha 90.000000
_cell_angle_beta 122.712170
_cell_angle_gamma 90.000000
_cell_volume 2762.048540
_symmetry_space_group_name_H-M "C 2/C"
_symmetry_group_IT_number 15
_symmetry_cell_setting 'monoclinic'
loop_
_space_group_symop_operation_xyz
x,y,z
-x,y,1/2-z
-x,-y,-z
x,-y,1/2+z
1/2+x,1/2+y,z
1/2-x,1/2+y,1/2-z
1/2-x,1/2-y,-z
1/2+x,1/2-y,1/2+z
loop_
_atom_site_type_symbol
_atom_site_label
_atom_site_fract_x
_atom_site_fract_y
_atom_site_fract_z
Si Si1 0.752473 0.317276 0.145609
Si Si2 0.814473 0.280756 0.514799
Si Si3 0.067306 0.146062 0.777495
Si Si4 0.315118 0.580034 0.332947
Si Si5 0.064321 0.815404 0.855196
Si Si6 0.436824 0.418202 0.436500
Si Si7 0.829153 0.386566 0.056137
O O1 0.723752 0.425431 0.196123
O O2 0.787699 0.173746 0.220643
O O3 0.798054 0.414264 0.126541
O O4 0.698858 0.254633 0.027637
O O5 0.750000 0.250000 0.500000
O O6 0.875727 0.247452 0.634533
O O7 0.813105 0.178159 0.423277
O O8 0.821941 0.456537 0.492689
O O9 0.066074 0.174301 0.663814
O O10 0.000000 0.192634 0.750000
O O11 0.083598 0.975699 0.827773
O O12 0.384447 0.543599 0.379616
O O13 0.102825 0.671155 0.859323
O O14 0.000000 0.771382 0.750000
O O15 0.067684 0.819282 0.972896
O O16 0.500000 0.500000 0.500000
#
# Coordination Sequence:
#
# PCOD8152512 Si02
#       7
#     8   8   8   8   8   8   8
#     4  11  24  40  64  95 131 177 212 279 330 394
#     4  12  25  42  65  96 137 181 221 277 337 403
#     4  11  23  43  70  93 132 175 228 274 342 403
#     4  12  24  41  66  98 135 169 230 263 341 398
#     4  11  22  42  69  98 127 175 228 275 336 392
#     4  12  22  40  69 100 126 169 225 278 322 403
#     4  11  24  43  63  92 138 172 221 274 335 391
#
# _framework density 20.274806000000002
#
# number of rings (size 3 to 8) (size 9 to 14) (size 15 to 20)
#    0.000    0.571    7.143    1.714    6.000    0.571 
#    2.571    0.000    0.000    2.571    0.000    0.000 
#    0.000    0.000    0.000    0.000    0.000    0.000 
#
# Total GULP energy -347089.180873 kJ/mol
# GULP energy per Si atom -12396.042174 kJ/mol
# Density = 2.022866 g / cm^3
# Si number density = 20.274806 Si / 1000 Ang^3
#
#
#
# Elastic Constant Matrix: (Units=GPa)
#
#
# Indices 1 2 3 4 5 6 
#
# 1 119.5540 39.7413 40.1294 0.0000 19.3309 0.0000
# 2 39.7413 82.5427 18.0880 0.0000 18.1059 0.0000
# 3 40.1294 18.0880 86.8181 0.0000 -4.3319 0.0000
# 4 0.0000 0.0000 0.0000 23.7378 0.0000 5.9258
# 5 19.3309 18.1059 -4.3319 0.0000 37.3714 0.0000
# 6 0.0000 0.0000 0.0000 5.9258 0.0000 24.1979
#
#
#
# Elastic Compliance Matrix: (Units=1/GPa)
#
#
# Indices 1 2 3 4 5 6 
#
# 1 0.012093 -0.003585 -0.005098 0.000000 -0.005110 0.000000
# 2 -0.003585 0.015545 -0.001876 0.000000 -0.005895 0.000000
# 3 -0.005098 -0.001876 0.014527 0.000000 0.005230 0.000000
# 4 0.000000 0.000000 0.000000 0.044870 0.000000 -0.010988
# 5 -0.005110 -0.005895 0.005230 0.000000 0.032864 0.000000
# 6 0.000000 0.000000 0.000000 -0.010988 0.000000 0.044017
#
#
# Mechanical properties :
#
#
# Convention : Reuss Voigt Hill
#
# Bulk Modulus (GPa) = 47.51087 53.87026 50.69056
# Shear Modulus (GPa) = 26.03519 29.79184 27.91352
#
# Velocity S-wave (km/s) = 3.58734 3.83744 3.71450
# Velocity P-wave (km/s) = 6.37519 6.80164 6.59186
#
# Compressibility (1/GPa) = 0.02104781
#
# Stress axis : x y z
#
# Youngs Moduli (GPa) = 82.68995 64.33018 68.83958
#
# Poissons Ratio (x) = 0.23059 0.35094
# Poissons Ratio (y) = 0.29640 0.12914
# Poissons Ratio (z) = 0.42155 0.12068
#
# Static dielectric constant tensor:
#      x y z
#    x 4.344940 0.000000 -0.228900 
#    y 0.000000 3.460260 0.000000 
#    z -0.228900 0.000000 4.133650 
# 
# 
# High freq. dielectric constant tensor:
#      x y z
#    x 1.807250 0.000000 0.008700 
#    y 0.000000 1.771300 0.000000 
#    z 0.008700 0.000000 1.805700 
# 
# From -- ./inp_files/172278.got.cif
#   From: 2010.06.25/outbox.cif.g09.slc.cpg/sg15_87_cif.got.tgz:172278.got - 2010.06.28 07:06:18.
