data_PCOD8152438
_publ_section_title
;
Structure prediction by ZEFSAII (Michael W. Deem and Ramdas Pophale) SiO2 
 PCOD8152438
Probable space group: C 2/C
;
_chemical_formula_sum "Si O2"
_cell_formula_units_Z 48
_cell_length_a 9.126805
_cell_length_b 26.418624
_cell_length_c 16.220377
_cell_angle_alpha 90.000000
_cell_angle_beta 145.179991
_cell_angle_gamma 90.000000
_cell_volume 2233.192927
_symmetry_space_group_name_H-M "C 2/C"
_symmetry_group_IT_number 15
_symmetry_cell_setting 'monoclinic'
loop_
_space_group_symop_operation_xyz
x,y,z
-x,y,1/2-z
-x,-y,-z
x,-y,1/2+z
1/2+x,1/2+y,z
1/2-x,1/2+y,1/2-z
1/2-x,1/2-y,-z
1/2+x,1/2-y,1/2+z
loop_
_atom_site_type_symbol
_atom_site_label
_atom_site_fract_x
_atom_site_fract_y
_atom_site_fract_z
Si Si1 0.046325 0.693945 0.142199
Si Si2 0.236533 0.464221 0.092730
Si Si3 0.766210 0.962908 0.912149
Si Si4 0.206957 0.647889 0.629039
Si Si5 0.359581 0.651019 0.418107
Si Si6 0.724369 0.203592 0.798652
O O1 0.309914 0.671605 0.302635
O O2 0.080089 0.753943 0.144611
O O3 0.822922 0.681007 0.102883
O O4 0.987903 0.668524 0.028516
O O5 0.500000 0.488891 0.250000
O O6 0.190934 0.412687 0.122302
O O7 0.251435 0.453985 0.002690
O O8 0.000000 0.500000 0.000000
O O9 0.500000 0.984505 0.750000
O O10 0.815886 0.908714 0.894414
O O11 0.000000 0.000000 0.000000
O O12 0.500000 0.665623 0.750000
O O13 0.112175 0.670776 0.671564
O O14 0.643843 0.663679 0.578511
O O15 0.500000 0.228975 0.750000
#
# Coordination Sequence:
#
# PCOD8152438 Si02
#       6
#     8   8   8   8   8   8
#     4  11  22  41  70  94 130 178 231 266 325 410
#     4  11  23  43  66  99 134 175 224 278 338 407
#     4  12  24  44  71 103 134 175 226 284 340 401
#     4  11  22  42  68  93 129 179 231 269 323 415
#     4  11  22  43  69  97 133 178 231 266 327 421
#     4  12  27  42  64 102 139 172 224 290 342 379
#
# _framework density 21.493888999999999
#
# number of rings (size 3 to 8) (size 9 to 14) (size 15 to 20)
#    0.000    0.667    5.000    3.500    2.333    4.667 
#    0.000    0.833    0.000    0.000    0.000    0.000 
#    0.000    0.000    0.000    0.000    0.000    0.000 
#
# Total GULP energy -297609.737413 kJ/mol
# GULP energy per Si atom -12400.405726 kJ/mol
# Density = 2.144497 g / cm^3
# Si number density = 21.493889 Si / 1000 Ang^3
#
#
#
# Elastic Constant Matrix: (Units=GPa)
#
#
# Indices 1 2 3 4 5 6 
#
# 1 71.9487 49.4353 37.7333 0.0000 -1.8077 0.0000
# 2 49.4353 120.8915 47.2576 0.0000 8.0848 0.0000
# 3 37.7333 47.2576 183.5513 0.0000 -20.8661 0.0000
# 4 0.0000 0.0000 0.0000 40.3165 0.0000 1.4299
# 5 -1.8077 8.0848 -20.8661 0.0000 32.5107 0.0000
# 6 0.0000 0.0000 0.0000 1.4299 0.0000 19.5572
#
#
#
# Elastic Compliance Matrix: (Units=1/GPa)
#
#
# Indices 1 2 3 4 5 6 
#
# 1 0.020213 -0.007598 -0.002003 0.000000 0.001728 0.000000
# 2 -0.007598 0.012592 -0.002248 0.000000 -0.004997 0.000000
# 3 -0.002003 -0.002248 0.007000 0.000000 0.004941 0.000000
# 4 0.000000 0.000000 0.000000 0.024868 0.000000 -0.001818
# 5 0.001728 -0.004997 0.004941 0.000000 0.035269 0.000000
# 6 0.000000 0.000000 0.000000 -0.001818 0.000000 0.051265
#
#
# Mechanical properties :
#
#
# Convention : Reuss Voigt Hill
#
# Bulk Modulus (GPa) = 62.08275 71.69378 66.88827
# Shear Modulus (GPa) = 27.73551 34.60789 31.17170
#
# Velocity S-wave (km/s) = 3.59610 4.01699 3.81236
# Velocity P-wave (km/s) = 6.79626 7.41234 7.11098
#
# Compressibility (1/GPa) = 0.01610753
#
# Stress axis : x y z
#
# Youngs Moduli (GPa) = 49.47244 79.41576 142.85444
#
# Poissons Ratio (x) = 0.60344 0.28607
# Poissons Ratio (y) = 0.37591 0.32113
# Poissons Ratio (z) = 0.09907 0.17852
#
# Static dielectric constant tensor:
#      x y z
#    x 3.782060 0.000000 -0.281850 
#    y 0.000000 3.807680 0.000000 
#    z -0.281850 0.000000 4.704060 
# 
# 
# High freq. dielectric constant tensor:
#      x y z
#    x 1.816400 0.000000 -0.013410 
#    y 0.000000 1.842730 0.000000 
#    z -0.013410 0.000000 1.874580 
# 
# From -- ./inp_files/139047.got.cif
#   From: 2010.06.25/outbox.cif.g09.slc.cpg/sg15_70_cif.got.tgz:139047.got - 2010.06.28 07:06:18.
