data_PCOD8152583
_publ_section_title
;
Structure prediction by ZEFSAII (Michael W. Deem and Ramdas Pophale) SiO2 
 PCOD8152583
Probable space group: C 2/C
;
_chemical_formula_sum "Si O2"
_cell_formula_units_Z 40
_cell_length_a 18.199198
_cell_length_b 11.982879
_cell_length_c 17.602438
_cell_angle_alpha 90.000000
_cell_angle_beta 28.871180
_cell_angle_gamma 90.000000
_cell_volume 1853.494286
_symmetry_space_group_name_H-M "C 2/C"
_symmetry_group_IT_number 15
_symmetry_cell_setting 'monoclinic'
loop_
_space_group_symop_operation_xyz
x,y,z
-x,y,1/2-z
-x,-y,-z
x,-y,1/2+z
1/2+x,1/2+y,z
1/2-x,1/2+y,1/2-z
1/2-x,1/2-y,-z
1/2+x,1/2-y,1/2+z
loop_
_atom_site_type_symbol
_atom_site_label
_atom_site_fract_x
_atom_site_fract_y
_atom_site_fract_z
Si Si1 0.174629 0.464469 0.117038
Si Si2 0.772734 0.602969 0.091291
Si Si3 0.159293 0.639159 0.923541
Si Si4 0.598285 0.797423 0.309267
Si Si5 0.103979 0.694806 0.226652
O O1 0.196819 0.378140 0.165352
O O2 0.216001 0.590347 0.105570
O O3 0.000000 0.470874 0.250000
O O4 0.271264 0.426890 0.956025
O O5 0.805757 0.492333 0.109945
O O6 0.631805 0.669370 0.255506
O O7 0.919734 0.682757 0.961729
O O8 0.155162 0.684517 0.842614
O O9 0.292829 0.699674 0.848317
O O10 0.997582 0.659604 0.109432
O O11 0.000000 0.729724 0.250000
#
# Coordination Sequence:
#
# PCOD8152583 Si02
#       5
#     8   8   8   8   8
#     4   9  19  40  68  88 126 173 213 259 318 386
#     4  11  23  44  63  97 129 179 218 262 326 389
#     4  12  24  41  68  98 133 170 217 272 330 380
#     4  11  23  40  67  93 136 169 214 270 325 387
#     4  11  22  43  68  96 131 170 218 267 323 388
#
# _framework density 21.580859
#
# number of rings (size 3 to 8) (size 9 to 14) (size 15 to 20)
#    0.000    1.200    6.000    3.000    2.800    0.000 
#    3.600    5.000    0.000    0.000    0.000    0.000 
#    0.000    0.000    0.000    0.000    0.000    0.000 
#
# Total GULP energy -248070.135356 kJ/mol
# GULP energy per Si atom -12403.506768 kJ/mol
# Density = 2.153174 g / cm^3
# Si number density = 21.580859 Si / 1000 Ang^3
#
#
#
# Elastic Constant Matrix: (Units=GPa)
#
#
# Indices 1 2 3 4 5 6 
#
# 1 94.5980 26.0608 37.5933 -0.0002 33.0760 0.0001
# 2 26.0608 129.3758 72.9980 0.0001 1.6978 -0.0002
# 3 37.5933 72.9980 66.1413 0.0037 16.0041 -0.0023
# 4 -0.0002 0.0001 0.0037 42.7857 -0.0013 5.8489
# 5 33.0760 1.6978 16.0041 -0.0013 37.1988 0.0007
# 6 0.0001 -0.0002 -0.0023 5.8489 0.0007 26.0280
#
#
#
# Elastic Compliance Matrix: (Units=1/GPa)
#
#
# Indices 1 2 3 4 5 6 
#
# 1 0.017986 0.001722 -0.009192 0.000001 -0.012116 -0.000001
# 2 0.001722 0.024459 -0.030509 0.000003 0.010478 -0.000004
# 3 -0.009192 -0.030509 0.057709 -0.000006 -0.015262 0.000007
# 4 0.000001 0.000003 -0.000006 0.024113 0.000003 -0.005419
# 5 -0.012116 0.010478 -0.015262 0.000003 0.043744 -0.000003
# 6 -0.000001 -0.000004 0.000007 -0.005419 -0.000003 0.039638
#
#
# Mechanical properties :
#
#
# Convention : Reuss Voigt Hill
#
# Bulk Modulus (GPa) = 41.32860 62.60214 51.96537
# Shear Modulus (GPa) = 17.14248 31.43336 24.28792
#
# Velocity S-wave (km/s) = 2.82146 3.82060 3.35839
# Velocity P-wave (km/s) = 5.45952 6.96662 6.25860
#
# Compressibility (1/GPa) = 0.02419632
#
# Stress axis : x y z
#
# Youngs Moduli (GPa) = 55.59891 40.88412 17.32829
#
# Poissons Ratio (x) = -0.07042 0.15928
# Poissons Ratio (y) = -0.09577 0.52868
# Poissons Ratio (z) = 0.51107 1.24735
#
# Static dielectric constant tensor:
#      x y z
#    x 3.874730 0.000000 0.375550 
#    y 0.000000 4.089810 0.000000 
#    z 0.375550 0.000000 3.784160 
# 
# 
# High freq. dielectric constant tensor:
#      x y z
#    x 1.844920 0.000000 0.027300 
#    y 0.000000 1.858570 0.000000 
#    z 0.027300 0.000000 1.827120 
# 
# From -- ./inp_files/46235.got.cif
#   From: 2010.06.25/outbox.cif.g09.slc.cpg/sg15_24_cif.got.tgz:46235.got - 2010.06.28 07:06:18.
