data_PCOD8152035
_publ_section_title
;
Structure prediction by ZEFSAII (Michael W. Deem and Ramdas Pophale) SiO2 
 PCOD8152035
Probable space group: C 2/C
;
_chemical_formula_sum "Si O2"
_cell_formula_units_Z 48
_cell_length_a 17.951128
_cell_length_b 8.251280
_cell_length_c 18.200216
_cell_angle_alpha 90.000000
_cell_angle_beta 119.693066
_cell_angle_gamma 90.000000
_cell_volume 2341.828932
_symmetry_space_group_name_H-M "C 2/C"
_symmetry_group_IT_number 15
_symmetry_cell_setting 'monoclinic'
loop_
_space_group_symop_operation_xyz
x,y,z
-x,y,1/2-z
-x,-y,-z
x,-y,1/2+z
1/2+x,1/2+y,z
1/2-x,1/2+y,1/2-z
1/2-x,1/2-y,-z
1/2+x,1/2-y,1/2+z
loop_
_atom_site_type_symbol
_atom_site_label
_atom_site_fract_x
_atom_site_fract_y
_atom_site_fract_z
Si Si1 0.002867 0.113712 0.926807
Si Si2 0.664964 0.816905 0.653611
Si Si3 0.816267 0.818535 0.971249
Si Si4 0.823871 0.687019 0.816033
Si Si5 0.000628 0.182361 0.164266
Si Si6 0.167015 0.796938 0.000104
O O1 0.920390 0.219306 0.869933
O O2 0.009745 0.007801 0.856262
O O3 0.084782 0.235967 0.967256
O O4 0.000000 0.000000 0.000000
O O5 0.748321 0.725027 0.723186
O O6 0.669536 0.824354 0.568995
O O7 0.660448 0.996823 0.681709
O O8 0.790542 0.750709 0.878893
O O9 0.825682 0.013900 0.974752
O O10 0.750000 0.750000 0.000000
O O11 0.912434 0.766097 0.833774
O O12 0.000000 0.222685 0.250000
O O13 0.916472 0.260278 0.086222
O O14 0.250000 0.750000 0.000000
#
# Coordination Sequence:
#
# PCOD8152035 Si02
#       6
#     8   8   8   8   8   8
#     4  11  21  46  68  93 138 178 220 283 348 412
#     4  12  24  41  68  93 131 182 223 281 350 406
#     4  11  23  41  66  98 135 174 224 281 337 411
#     4  12  25  42  66  98 134 175 233 288 341 410
#     4  11  23  42  68  97 133 178 224 279 346 412
#     4  11  22  40  64  96 137 177 224 274 341 411
#
# _framework density 20.496798999999999
#
# number of rings (size 3 to 8) (size 9 to 14) (size 15 to 20)
#    0.000    0.667    5.000    4.000    0.000    8.000 
#    0.000    0.833    0.000    0.000    0.000    0.000 
#    0.000    0.000    0.000    0.000    0.000    0.000 
#
# Total GULP energy -297382.304876 kJ/mol
# GULP energy per Si atom -12390.929370 kJ/mol
# Density = 2.045015 g / cm^3
# Si number density = 20.496799 Si / 1000 Ang^3
#
#
#
# Elastic Constant Matrix: (Units=GPa)
#
#
# Indices 1 2 3 4 5 6 
#
# 1 155.2214 4.8327 67.4202 0.0000 17.1269 0.0000
# 2 4.8327 56.6147 32.8492 0.0000 10.6796 0.0000
# 3 67.4202 32.8492 154.1010 0.0000 16.0209 0.0000
# 4 0.0000 0.0000 0.0000 174.2916 0.0000 -7.1163
# 5 17.1269 10.6796 16.0209 0.0000 49.6406 0.0000
# 6 0.0000 0.0000 0.0000 -7.1163 0.0000 40.9512
#
#
#
# Elastic Compliance Matrix: (Units=1/GPa)
#
#
# Indices 1 2 3 4 5 6 
#
# 1 0.008260 0.001885 -0.003805 0.000000 -0.002027 0.000000
# 2 0.001885 0.021043 -0.004938 0.000000 -0.003584 0.000000
# 3 -0.003805 -0.004938 0.009271 0.000000 -0.000617 0.000000
# 4 0.000000 0.000000 0.000000 0.005779 0.000000 0.001004
# 5 -0.002027 -0.003584 -0.000617 0.000000 0.021814 0.000000
# 6 0.000000 0.000000 0.000000 0.001004 0.000000 0.024594
#
#
# Mechanical properties :
#
#
# Convention : Reuss Voigt Hill
#
# Bulk Modulus (GPa) = 40.22729 64.01571 52.12150
# Shear Modulus (GPa) = 44.34092 70.36567 57.35329
#
# Velocity S-wave (km/s) = 4.65618 5.86554 5.29550
# Velocity P-wave (km/s) = 6.96961 8.78480 7.92932
#
# Compressibility (1/GPa) = 0.02485875
#
# Stress axis : x y z
#
# Youngs Moduli (GPa) = 121.06436 47.52067 107.86746
#
# Poissons Ratio (x) = -0.08958 0.41042
# Poissons Ratio (y) = -0.22821 0.53264
# Poissons Ratio (z) = 0.46064 0.23465
#
# Static dielectric constant tensor:
#      x y z
#    x 3.289030 0.000000 0.562630 
#    y 0.000000 3.609540 0.000000 
#    z 0.562630 0.000000 3.633670 
# 
# 
# High freq. dielectric constant tensor:
#      x y z
#    x 1.822260 0.000000 0.013400 
#    y 0.000000 1.790550 0.000000 
#    z 0.013400 0.000000 1.811240 
# 
# From -- ./inp_files/209273.got.cif
#   From: 2010.06.25/outbox.cif.g09.slc.cpg/sg15_105_cif.got.tgz:209273.got - 2010.06.28 07:06:18.
