data_PCOD8152173
_publ_section_title
;
Structure prediction by ZEFSAII (Michael W. Deem and Ramdas Pophale) SiO2 
 PCOD8152173
Probable space group: C 2/C
;
_chemical_formula_sum "Si O2"
_cell_formula_units_Z 48
_cell_length_a 13.697736
_cell_length_b 21.166490
_cell_length_c 14.032444
_cell_angle_alpha 90.000000
_cell_angle_beta 141.108181
_cell_angle_gamma 90.000000
_cell_volume 2554.395782
_symmetry_space_group_name_H-M "C 2/C"
_symmetry_group_IT_number 15
_symmetry_cell_setting 'monoclinic'
loop_
_space_group_symop_operation_xyz
x,y,z
-x,y,1/2-z
-x,-y,-z
x,-y,1/2+z
1/2+x,1/2+y,z
1/2-x,1/2+y,1/2-z
1/2-x,1/2-y,-z
1/2+x,1/2-y,1/2+z
loop_
_atom_site_type_symbol
_atom_site_label
_atom_site_fract_x
_atom_site_fract_y
_atom_site_fract_z
Si Si1 0.641147 0.701104 0.286460
Si Si2 0.409035 0.425158 0.844524
Si Si3 0.326125 0.531477 0.644252
Si Si4 0.025889 0.322415 0.379091
Si Si5 0.716281 0.506024 0.586402
Si Si6 0.090633 0.559649 0.610431
O O1 0.500000 0.685567 0.250000
O O2 0.640029 0.647347 0.204366
O O3 0.801314 0.704536 0.468634
O O4 0.603478 0.767315 0.204643
O O5 0.326695 0.464194 0.697761
O O6 0.355095 0.448372 0.907243
O O7 0.592395 0.437912 0.974384
O O8 0.500000 0.556443 0.750000
O O9 0.229195 0.522574 0.473278
O O10 0.233203 0.577613 0.646294
O O11 0.000000 0.346040 0.250000
O O12 0.005779 0.376969 0.443580
O O13 0.858485 0.538362 0.746225
O O14 0.000000 0.500000 0.500000
#
# Coordination Sequence:
#
# PCOD8152173 Si02
#       6
#     8   8   8   8   8   8
#     4  11  22  39  57  83 119 155 195 238 287 360
#     4   9  18  31  57  86 115 142 198 235 288 352
#     4   9  18  36  54  86 113 146 191 246 287 352
#     4  11  25  38  58  87 119 157 194 236 300 350
#     4   9  18  32  56  84 110 156 184 240 299 332
#     4  11  24  35  55  87 121 151 196 241 298 349
#
# _framework density 18.791136000000002
#
# number of rings (size 3 to 8) (size 9 to 14) (size 15 to 20)
#    0.000    2.000    0.000    6.500    9.333    0.000 
#    0.000    0.000    0.000    1.000    0.000    0.000 
#    0.000    0.000    0.000    0.000    0.000    0.000 
#
# Total GULP energy -297375.625813 kJ/mol
# GULP energy per Si atom -12390.651076 kJ/mol
# Density = 1.874837 g / cm^3
# Si number density = 18.791136 Si / 1000 Ang^3
#
#
#
# Elastic Constant Matrix: (Units=GPa)
#
#
# Indices 1 2 3 4 5 6 
#
# 1 84.4372 40.6834 40.5251 0.0000 -3.3317 0.0000
# 2 40.6834 103.2840 36.6008 0.0000 -0.0360 0.0000
# 3 40.5251 36.6008 123.4926 0.0000 -6.3221 0.0000
# 4 0.0000 0.0000 0.0000 28.5168 0.0000 -2.1296
# 5 -3.3317 -0.0360 -6.3221 0.0000 32.9417 0.0000
# 6 0.0000 0.0000 0.0000 -2.1296 0.0000 26.6067
#
#
#
# Elastic Compliance Matrix: (Units=1/GPa)
#
#
# Indices 1 2 3 4 5 6 
#
# 1 0.016092 -0.005010 -0.003750 0.000000 0.000902 0.000000
# 2 -0.005010 0.012390 -0.002074 0.000000 -0.000891 0.000000
# 3 -0.003750 -0.002074 0.010022 0.000000 0.001542 0.000000
# 4 0.000000 0.000000 0.000000 0.035278 0.000000 0.002824
# 5 0.000902 -0.000891 0.001542 0.000000 0.030743 0.000000
# 6 0.000000 0.000000 0.000000 0.002824 0.000000 0.037811
#
#
# Mechanical properties :
#
#
# Convention : Reuss Voigt Hill
#
# Bulk Modulus (GPa) = 59.39157 60.75915 60.07536
# Shear Modulus (GPa) = 29.47871 30.50666 29.99269
#
# Velocity S-wave (km/s) = 3.96505 4.03359 3.99947
# Velocity P-wave (km/s) = 7.25513 7.35508 7.30528
#
# Compressibility (1/GPa) = 0.01683741
#
# Stress axis : x y z
#
# Youngs Moduli (GPa) = 62.14224 80.71113 99.78283
#
# Poissons Ratio (x) = 0.40432 0.37417
# Poissons Ratio (y) = 0.31130 0.20693
# Poissons Ratio (z) = 0.23302 0.16738
#
# Static dielectric constant tensor:
#      x y z
#    x 3.748820 0.000000 0.161140 
#    y 0.000000 3.285270 0.000000 
#    z 0.161140 0.000000 3.831370 
# 
# 
# High freq. dielectric constant tensor:
#      x y z
#    x 1.716620 0.000000 0.002370 
#    y 0.000000 1.695080 0.000000 
#    z 0.002370 0.000000 1.748520 
# 
# From -- ./inp_files/156017.got.cif
#   From: 2010.06.25/outbox.cif.g09.slc.cpg/sg15_79_cif.got.tgz:156017.got - 2010.06.28 07:06:18.
