data_PCOD8152533
_publ_section_title
;
Structure prediction by ZEFSAII (Michael W. Deem and Ramdas Pophale) SiO2 
 PCOD8152533
Probable space group: C 2/C
;
_chemical_formula_sum "Si O2"
_cell_formula_units_Z 64
_cell_length_a 17.166076
_cell_length_b 14.625642
_cell_length_c 14.831514
_cell_angle_alpha 90.000000
_cell_angle_beta 125.348500
_cell_angle_gamma 90.000000
_cell_volume 3037.206435
_symmetry_space_group_name_H-M "C 2/C"
_symmetry_group_IT_number 15
_symmetry_cell_setting 'monoclinic'
loop_
_space_group_symop_operation_xyz
x,y,z
-x,y,1/2-z
-x,-y,-z
x,-y,1/2+z
1/2+x,1/2+y,z
1/2-x,1/2+y,1/2-z
1/2-x,1/2-y,-z
1/2+x,1/2-y,1/2+z
loop_
_atom_site_type_symbol
_atom_site_label
_atom_site_fract_x
_atom_site_fract_y
_atom_site_fract_z
Si Si1 0.015706 0.535391 0.865863
Si Si2 0.241980 0.822396 0.817408
Si Si3 0.177418 0.401366 0.026122
Si Si4 0.807380 0.497420 0.287890
Si Si5 0.094743 0.895526 0.858612
Si Si6 0.311351 0.459774 0.956137
Si Si7 0.616567 0.275727 0.573353
Si Si8 0.076525 0.729745 0.969878
O O1 0.071254 0.628161 0.926030
O O2 0.000000 0.523579 0.750000
O O3 0.914775 0.536825 0.847699
O O4 0.076556 0.451506 0.944714
O O5 0.181066 0.881646 0.847299
O O6 0.172905 0.763622 0.706294
O O7 0.305074 0.893621 0.802043
O O8 0.318226 0.755745 0.916237
O O9 0.231529 0.442332 0.150741
O O10 0.159796 0.293531 0.028736
O O11 0.240031 0.413640 0.979227
O O12 0.744744 0.480628 0.156552
O O13 0.066624 0.798061 0.880477
O O14 0.000000 0.936272 0.750000
O O15 0.119573 0.968167 0.951547
O O16 0.374832 0.379866 0.954336
O O17 0.505728 0.251316 0.512841
#
# Coordination Sequence:
#
# PCOD8152533 Si02
#       8
#     8   8   8   8   8   8   8   8
#     4  12  23  39  70 108 140 171 233 291 351 406
#     4  11  24  45  67 102 134 177 230 280 346 411
#     4  12  22  44  71  98 142 184 222 290 344 401
#     4  11  22  42  71  99 136 180 225 284 346 403
#     4  12  25  46  69  96 140 180 230 293 336 406
#     4  11  26  46  67 101 135 191 235 273 340 416
#     4  11  26  44  67 100 143 178 232 285 337 413
#     4  12  24  41  70 103 137 180 224 293 351 400
#
# _framework density 21.071995000000001
#
# number of rings (size 3 to 8) (size 9 to 14) (size 15 to 20)
#    0.000    0.500    6.250    2.250    1.750    0.500 
#    2.250    0.625    0.000    0.000    0.000    0.000 
#    0.000    0.000    0.000    0.000    0.000    0.000 
#
# Total GULP energy -396965.308125 kJ/mol
# GULP energy per Si atom -12405.165879 kJ/mol
# Density = 2.102403 g / cm^3
# Si number density = 21.071995 Si / 1000 Ang^3
#
#
#
# Elastic Constant Matrix: (Units=GPa)
#
#
# Indices 1 2 3 4 5 6 
#
# 1 70.3769 18.0995 51.4206 0.0000 1.4318 0.0000
# 2 18.0995 79.6612 37.1627 0.0000 6.8924 0.0000
# 3 51.4206 37.1627 143.1027 0.0000 3.1770 0.0000
# 4 0.0000 0.0000 0.0000 27.1291 0.0000 -0.8260
# 5 1.4318 6.8924 3.1770 0.0000 35.0484 0.0000
# 6 0.0000 0.0000 0.0000 -0.8260 0.0000 32.0120
#
#
#
# Elastic Compliance Matrix: (Units=1/GPa)
#
#
# Indices 1 2 3 4 5 6 
#
# 1 0.019388 -0.001320 -0.006625 0.000000 0.000068 0.000000
# 2 -0.001320 0.014591 -0.003259 0.000000 -0.002520 0.000000
# 3 -0.006625 -0.003259 0.010215 0.000000 -0.000014 0.000000
# 4 0.000000 0.000000 0.000000 0.036890 0.000000 0.000952
# 5 0.000068 -0.002520 -0.000014 0.000000 0.029026 0.000000
# 6 0.000000 0.000000 0.000000 0.000952 0.000000 0.031263
#
#
# Mechanical properties :
#
#
# Convention : Reuss Voigt Hill
#
# Bulk Modulus (GPa) = 45.90124 56.27850 51.08987
# Shear Modulus (GPa) = 29.23212 31.26842 30.25027
#
# Velocity S-wave (km/s) = 3.72862 3.85630 3.79300
# Velocity P-wave (km/s) = 6.35352 6.82596 6.59397
#
# Compressibility (1/GPa) = 0.02178590
#
# Stress axis : x y z
#
# Youngs Moduli (GPa) = 51.57791 68.53306 97.89238
#
# Poissons Ratio (x) = 0.09048 0.64857
# Poissons Ratio (y) = 0.06809 0.31903
# Poissons Ratio (z) = 0.34172 0.22335
#
# Static dielectric constant tensor:
#      x y z
#    x 3.791780 0.000000 -0.070500 
#    y 0.000000 3.686190 0.000000 
#    z -0.070500 0.000000 4.015730 
# 
# 
# High freq. dielectric constant tensor:
#      x y z
#    x 1.826830 0.000000 -0.006350 
#    y 0.000000 1.823170 0.000000 
#    z -0.006350 0.000000 1.835750 
# 
# From -- ./inp_files/162562.got.cif
#   From: 2010.06.25/outbox.cif.g09.slc.cpg/sg15_82_cif.got.tgz:162562.got - 2010.06.28 07:06:18.
