data_PCOD8152629
_publ_section_title
;
Structure prediction by ZEFSAII (Michael W. Deem and Ramdas Pophale) SiO2 
 PCOD8152629
Probable space group: C 2/C
;
_chemical_formula_sum "Si O2"
_cell_formula_units_Z 36
_cell_length_a 14.149750
_cell_length_b 9.475885
_cell_length_c 11.997761
_cell_angle_alpha 90.000000
_cell_angle_beta 55.855454
_cell_angle_gamma 90.000000
_cell_volume 1331.379718
_symmetry_space_group_name_H-M "C 2/C"
_symmetry_group_IT_number 15
_symmetry_cell_setting 'monoclinic'
loop_
_space_group_symop_operation_xyz
x,y,z
-x,y,1/2-z
-x,-y,-z
x,-y,1/2+z
1/2+x,1/2+y,z
1/2-x,1/2+y,1/2-z
1/2-x,1/2-y,-z
1/2+x,1/2-y,1/2+z
loop_
_atom_site_type_symbol
_atom_site_label
_atom_site_fract_x
_atom_site_fract_y
_atom_site_fract_z
Si Si1 0.690452 0.275615 0.263442
Si Si2 0.360846 0.600384 0.473021
Si Si3 0.893313 0.411048 0.386927
Si Si4 0.385184 0.979708 0.136138
Si Si5 0.500000 0.609945 0.750000
O O1 0.635742 0.365841 0.399125
O O2 0.701764 0.110582 0.287120
O O3 0.814905 0.338470 0.152251
O O4 0.602747 0.288571 0.219453
O O5 0.236940 0.533829 0.522298
O O6 0.386170 0.741983 0.387577
O O7 0.456443 0.485858 0.380810
O O8 0.942745 0.449644 0.225297
O O9 0.948473 0.474734 0.471753
#
# Coordination Sequence:
#
# PCOD8152629 Si02
#       5
#     8   8   8   8   4
#     4  12  29  47  76 110 151 204 252 316 383 447
#     4  11  24  45  77 109 143 203 250 313 374 456
#     4  11  22  43  76 105 147 191 257 303 378 443
#     4  12  27  50  77 111 154 199 255 317 382 452
#     4  12  28  46  70 112 162 188 262 314 382 448
#
# _framework density 27.039618000000001
#
# number of rings (size 3 to 8) (size 9 to 14) (size 15 to 20)
#    0.000    0.444    5.556    2.000    7.778    1.778 
#    0.000    3.333    0.000    0.000    0.000    0.000 
#    0.000    0.000    0.000    0.000    0.000    0.000 
#
# Total GULP energy -223192.730985 kJ/mol
# GULP energy per Si atom -12399.596166 kJ/mol
# Density = 2.697807 g / cm^3
# Si number density = 27.039618 Si / 1000 Ang^3
#
#
#
# Elastic Constant Matrix: (Units=GPa)
#
#
# Indices 1 2 3 4 5 6 
#
# 1 198.0018 51.3831 57.8277 0.0000 9.8982 0.0000
# 2 51.3831 102.3491 52.1361 0.0000 -11.2635 0.0000
# 3 57.8277 52.1361 142.0326 0.0000 -23.4414 0.0000
# 4 0.0000 0.0000 0.0000 34.1480 0.0000 9.4122
# 5 9.8982 -11.2635 -23.4414 0.0000 46.3460 0.0000
# 6 0.0000 0.0000 0.0000 9.4122 0.0000 22.4439
#
#
#
# Elastic Compliance Matrix: (Units=1/GPa)
#
#
# Indices 1 2 3 4 5 6 
#
# 1 0.006506 -0.002458 -0.002263 0.000000 -0.003132 0.000000
# 2 -0.002458 0.012970 -0.003441 0.000000 0.001937 0.000000
# 3 -0.002263 -0.003441 0.010002 0.000000 0.004706 0.000000
# 4 0.000000 0.000000 0.000000 0.033112 0.000000 -0.013886
# 5 -0.003132 0.001937 0.004706 0.000000 0.025097 0.000000
# 6 0.000000 0.000000 0.000000 -0.013886 0.000000 0.050379
#
#
# Mechanical properties :
#
#
# Convention : Reuss Voigt Hill
#
# Bulk Modulus (GPa) = 76.02229 85.00859 80.51544
# Shear Modulus (GPa) = 31.49132 39.32334 35.40733
#
# Velocity S-wave (km/s) = 3.41638 3.81765 3.62257
# Velocity P-wave (km/s) = 6.61350 7.13718 6.88032
#
# Compressibility (1/GPa) = 0.01315404
#
# Stress axis : x y z
#
# Youngs Moduli (GPa) = 153.70637 77.09984 99.98128
#
# Poissons Ratio (x) = 0.18950 0.22631
# Poissons Ratio (y) = 0.37779 0.34400
# Poissons Ratio (z) = 0.34791 0.26527
#
# Static dielectric constant tensor:
#      x y z
#    x 5.243790 0.000000 0.188470 
#    y 0.000000 4.595460 0.000000 
#    z 0.188470 0.000000 5.606950 
# 
# 
# High freq. dielectric constant tensor:
#      x y z
#    x 2.135240 0.000000 0.007660 
#    y 0.000000 2.060390 0.000000 
#    z 0.007660 0.000000 2.150150 
# 
# From -- ./inp_files/102443.got.cif
#   From: 2010.06.25/outbox.cif.g09.slc.cpg/sg15_52_cif.got.tgz:102443.got - 2010.06.28 07:06:18.
