data_PCOD8152242
_publ_section_title
;
Structure prediction by ZEFSAII (Michael W. Deem and Ramdas Pophale) SiO2 
 PCOD8152242
Probable space group: C 2/C
;
_chemical_formula_sum "Si O2"
_cell_formula_units_Z 64
_cell_length_a 14.153386
_cell_length_b 14.407560
_cell_length_c 24.964662
_cell_angle_alpha 90.000000
_cell_angle_beta 143.168678
_cell_angle_gamma 90.000000
_cell_volume 3051.670159
_symmetry_space_group_name_H-M "C 2/C"
_symmetry_group_IT_number 15
_symmetry_cell_setting 'monoclinic'
loop_
_space_group_symop_operation_xyz
x,y,z
-x,y,1/2-z
-x,-y,-z
x,-y,1/2+z
1/2+x,1/2+y,z
1/2-x,1/2+y,1/2-z
1/2-x,1/2-y,-z
1/2+x,1/2-y,1/2+z
loop_
_atom_site_type_symbol
_atom_site_label
_atom_site_fract_x
_atom_site_fract_y
_atom_site_fract_z
Si Si1 0.311401 0.516765 0.221700
Si Si2 0.656411 0.322711 0.690284
Si Si3 0.701681 0.353901 0.990743
Si Si4 0.363205 0.700610 0.591449
Si Si5 0.183930 0.997947 0.894962
Si Si6 0.791847 0.854110 0.289128
Si Si7 0.315836 0.059508 0.651661
Si Si8 0.331116 0.856388 0.664207
O O1 0.256377 0.606161 0.230054
O O2 0.239660 0.518668 0.129135
O O3 0.499146 0.517675 0.305457
O O4 0.246517 0.427513 0.222958
O O5 0.486845 0.358188 0.594564
O O6 0.658015 0.225033 0.722493
O O7 0.757415 0.311229 0.682973
O O8 0.761842 0.425535 0.972147
O O9 0.750000 0.250000 0.000000
O O10 0.775795 0.380867 0.081129
O O11 0.250000 0.750000 0.500000
O O12 0.285352 0.602812 0.572276
O O13 0.534560 0.687932 0.642699
O O14 0.360578 0.769588 0.639758
O O15 0.786214 0.900001 0.345153
O O16 0.500000 0.070627 0.750000
O O17 0.248742 0.954006 0.609105
O O18 0.500000 0.901349 0.750000
#
# Coordination Sequence:
#
# PCOD8152242 Si02
#       8
#     8   8   8   8   8   8   8   8
#     4   9  19  38  62  93 124 172 222 261 336 398
#     4  11  22  39  67  94 130 170 224 278 333 404
#     4  11  25  43  63  96 129 177 228 275 335 398
#     4  11  23  38  64  96 131 170 219 275 338 401
#     4   9  20  39  63  89 129 170 217 278 319 399
#     4  11  22  40  64  97 130 177 222 274 341 409
#     4  11  25  43  67  92 137 177 221 278 343 406
#     4  11  22  41  65  99 132 171 213 280 340 395
#
# _framework density 20.972123
#
# number of rings (size 3 to 8) (size 9 to 14) (size 15 to 20)
#    0.000    1.500    2.500    2.250    5.250    0.500 
#    0.000    0.000    0.000    3.000    0.000    0.000 
#    0.000    0.000    0.000    0.000    0.000    0.000 
#
# Total GULP energy -396580.610964 kJ/mol
# GULP energy per Si atom -12393.144093 kJ/mol
# Density = 2.092439 g / cm^3
# Si number density = 20.972123 Si / 1000 Ang^3
#
#
#
# Elastic Constant Matrix: (Units=GPa)
#
#
# Indices 1 2 3 4 5 6 
#
# 1 114.7359 60.4982 49.7024 0.0000 -32.6336 0.0000
# 2 60.4982 177.9238 54.7117 0.0000 -22.2901 0.0000
# 3 49.7024 54.7117 93.9533 0.0000 -29.0208 0.0000
# 4 0.0000 0.0000 0.0000 35.3624 0.0000 -12.0320
# 5 -32.6336 -22.2901 -29.0208 0.0000 28.9511 0.0000
# 6 0.0000 0.0000 0.0000 -12.0320 0.0000 47.1138
#
#
#
# Elastic Compliance Matrix: (Units=1/GPa)
#
#
# Indices 1 2 3 4 5 6 
#
# 1 0.014599 -0.002715 -0.002469 0.000000 0.011890 0.000000
# 2 -0.002715 0.007420 -0.002992 0.000000 -0.000346 0.000000
# 3 -0.002469 -0.002992 0.017557 0.000000 0.012513 0.000000
# 4 0.000000 0.000000 0.000000 0.030970 0.000000 0.007909
# 5 0.011890 -0.000346 0.012513 0.000000 0.060220 0.000000
# 6 0.000000 0.000000 0.000000 0.007909 0.000000 0.023245
#
#
# Mechanical properties :
#
#
# Convention : Reuss Voigt Hill
#
# Bulk Modulus (GPa) = 43.05878 79.60418 61.33148
# Shear Modulus (GPa) = 28.07364 37.06552 32.56958
#
# Velocity S-wave (km/s) = 3.66268 4.20857 3.94508
# Velocity P-wave (km/s) = 6.20185 7.85211 7.07526
#
# Compressibility (1/GPa) = 0.02322407
#
# Stress axis : x y z
#
# Youngs Moduli (GPa) = 68.49913 134.76902 56.95781
#
# Poissons Ratio (x) = 0.36591 0.14064
# Poissons Ratio (y) = 0.18598 0.17040
# Poissons Ratio (z) = 0.16913 0.40318
#
# Static dielectric constant tensor:
#      x y z
#    x 3.653800 0.000000 -0.078500 
#    y 0.000000 3.992850 0.000000 
#    z -0.078500 0.000000 3.375810 
# 
# 
# High freq. dielectric constant tensor:
#      x y z
#    x 1.820570 0.000000 -0.018600 
#    y 0.000000 1.846620 0.000000 
#    z -0.018600 0.000000 1.801680 
# 
# From -- ./inp_files/274350.got.cif
#   From: 2010.06.25/outbox.cif.g09.slc.cpg/sg15_138_cif.got.tgz:274350.got - 2010.06.28 07:06:18.
