data_PCOD8152473
_publ_section_title
;
Structure prediction by ZEFSAII (Michael W. Deem and Ramdas Pophale) SiO2 
 PCOD8152473
Probable space group: C 2/C
;
_chemical_formula_sum "Si O2"
_cell_formula_units_Z 48
_cell_length_a 11.734582
_cell_length_b 25.312396
_cell_length_c 9.407644
_cell_angle_alpha 90.000000
_cell_angle_beta 130.066236
_cell_angle_gamma 90.000000
_cell_volume 2138.523112
_symmetry_space_group_name_H-M "C 2/C"
_symmetry_group_IT_number 15
_symmetry_cell_setting 'monoclinic'
loop_
_space_group_symop_operation_xyz
x,y,z
-x,y,1/2-z
-x,-y,-z
x,-y,1/2+z
1/2+x,1/2+y,z
1/2-x,1/2+y,1/2-z
1/2-x,1/2-y,-z
1/2+x,1/2-y,1/2+z
loop_
_atom_site_type_symbol
_atom_site_label
_atom_site_fract_x
_atom_site_fract_y
_atom_site_fract_z
Si Si1 0.507612 0.785479 0.421456
Si Si2 0.685565 0.690394 0.172953
Si Si3 0.962443 0.083640 0.375731
Si Si4 0.846383 0.453588 0.547376
Si Si5 0.847029 0.664815 0.043926
Si Si6 0.705837 0.484175 0.173997
O O1 0.500000 0.802885 0.250000
O O2 0.459929 0.724075 0.400074
O O3 0.674740 0.796153 0.611008
O O4 0.378801 0.815922 0.408366
O O5 0.641911 0.628791 0.141877
O O6 0.731863 0.700721 0.044431
O O7 0.880014 0.027638 0.301963
O O8 0.000000 0.104303 0.250000
O O9 0.113666 0.070875 0.585506
O O10 0.783696 0.394346 0.494322
O O11 0.852706 0.471752 0.387121
O O12 0.736474 0.492192 0.543956
O O13 0.000000 0.457564 0.750000
O O14 0.000000 0.666393 0.250000
#
# Coordination Sequence:
#
# PCOD8152473 Si02
#       6
#     8   8   8   8   8   8
#     4  11  24  43  68  99 136 174 226 281 342 401
#     4  11  23  44  69  95 135 175 227 282 333 405
#     4  11  23  41  66  93 132 176 224 280 331 395
#     4  11  22  42  66 100 137 175 220 277 335 407
#     4   9  21  41  65  95 134 174 216 270 335 400
#     4  11  23  41  65  96 135 174 225 269 332 401
#
# _framework density 22.445395999999999
#
# number of rings (size 3 to 8) (size 9 to 14) (size 15 to 20)
#    0.000    1.333    3.333    2.000    0.000    2.667 
#    0.000    1.667    0.000    0.000    0.000    0.000 
#    0.000    0.000    0.000    0.000    0.000    0.000 
#
# Total GULP energy -297335.891903 kJ/mol
# GULP energy per Si atom -12388.995496 kJ/mol
# Density = 2.239431 g / cm^3
# Si number density = 22.445396 Si / 1000 Ang^3
#
#
#
# Elastic Constant Matrix: (Units=GPa)
#
#
# Indices 1 2 3 4 5 6 
#
# 1 92.2927 43.6219 50.3208 0.0000 -22.0333 0.0000
# 2 43.6219 90.1540 63.2782 0.0000 -0.1262 0.0000
# 3 50.3208 63.2782 129.7369 0.0000 -13.7167 0.0000
# 4 0.0000 0.0000 0.0000 -104.0838 0.0000 36.1961
# 5 -22.0333 -0.1262 -13.7167 0.0000 45.5942 0.0000
# 6 0.0000 0.0000 0.0000 36.1961 0.0000 20.7574
#
#
#
# Elastic Compliance Matrix: (Units=1/GPa)
#
#
# Indices 1 2 3 4 5 6 
#
# 1 0.017102 -0.006324 -0.002765 0.000000 0.007415 0.000000
# 2 -0.006324 0.019487 -0.007611 0.000000 -0.005292 0.000000
# 3 -0.002765 -0.007611 0.012755 0.000000 0.002480 0.000000
# 4 0.000000 0.000000 0.000000 -0.005981 0.000000 0.010429
# 5 0.007415 -0.005292 0.002480 0.000000 0.026247 0.000000
# 6 0.000000 0.000000 0.000000 0.010429 0.000000 0.029990
#
#
# Mechanical properties :
#
#
# Convention : Reuss Voigt Hill
#
# Bulk Modulus (GPa) = 62.72120 69.62503 66.17312
# Shear Modulus (GPa) = 36.14968 2.78442 19.46705
#
# Velocity S-wave (km/s) = 4.01753 1.11500 2.94820
# Velocity P-wave (km/s) = 7.03742 5.72230 6.41366
#
# Compressibility (1/GPa) = 0.01594357
#
# Stress axis : x y z
#
# Youngs Moduli (GPa) = 58.47363 51.31672 78.40170
#
# Poissons Ratio (x) = 0.32452 0.21677
# Poissons Ratio (y) = 0.36978 0.59673
# Poissons Ratio (z) = 0.16167 0.39058
#
# Static dielectric constant tensor:
#      x y z
#    x 4.230060 0.000000 -0.165470 
#    y 0.000000 3.965230 0.000000 
#    z -0.165470 0.000000 3.982330 
# 
# 
# High freq. dielectric constant tensor:
#      x y z
#    x 1.884250 0.000000 -0.013890 
#    y 0.000000 1.880960 0.000000 
#    z -0.013890 0.000000 1.882520 
# 
# From -- ./inp_files/33808.got.cif
#   From: 2010.06.25/outbox.cif.g09.slc.cpg/sg15_17_cif.got.tgz:33808.got - 2010.06.28 07:06:18.
