data_PCOD8152149
_publ_section_title
;
Structure prediction by ZEFSAII (Michael W. Deem and Ramdas Pophale) SiO2 
 PCOD8152149
Probable space group: C 2/C
;
_chemical_formula_sum "Si O2"
_cell_formula_units_Z 56
_cell_length_a 8.230363
_cell_length_b 18.686009
_cell_length_c 17.429564
_cell_angle_alpha 90.000000
_cell_angle_beta 107.706186
_cell_angle_gamma 90.000000
_cell_volume 2553.557879
_symmetry_space_group_name_H-M "C 2/C"
_symmetry_group_IT_number 15
_symmetry_cell_setting 'monoclinic'
loop_
_space_group_symop_operation_xyz
x,y,z
-x,y,1/2-z
-x,-y,-z
x,-y,1/2+z
1/2+x,1/2+y,z
1/2-x,1/2+y,1/2-z
1/2-x,1/2-y,-z
1/2+x,1/2-y,1/2+z
loop_
_atom_site_type_symbol
_atom_site_label
_atom_site_fract_x
_atom_site_fract_y
_atom_site_fract_z
Si Si1 0.411608 0.201794 0.659617
Si Si2 0.969222 0.850576 0.870243
Si Si3 0.942291 0.186800 0.824943
Si Si4 0.281745 0.945093 0.909611
Si Si5 0.299682 0.669028 0.507400
Si Si6 0.359173 0.849364 0.783334
Si Si7 0.549877 0.911496 0.064110
O O1 0.500000 0.222553 0.750000
O O2 0.407079 0.279604 0.615472
O O3 0.234781 0.164431 0.659098
O O4 0.524385 0.146197 0.627544
O O5 0.828732 0.848504 0.782260
O O6 0.081221 0.923617 0.882904
O O7 0.877760 0.854081 0.938424
O O8 0.931421 0.271683 0.814530
O O9 0.000000 0.154256 0.750000
O O10 0.078585 0.156326 0.903053
O O11 0.365639 0.891795 0.862124
O O12 0.324530 0.025601 0.887112
O O13 0.365368 0.938021 0.006794
O O14 0.250000 0.750000 0.500000
O O15 0.133225 0.622530 0.500150
O O16 0.500000 0.886942 0.750000
#
# Coordination Sequence:
#
# PCOD8152149 Si02
#       7
#     8   8   8   8   8   8   8
#     4  12  22  41  66  99 133 169 230 288 344 405
#     4  12  23  41  72 100 133 182 238 283 337 422
#     4  11  22  38  63  98 135 170 220 289 342 403
#     4  11  24  45  64  94 137 182 230 280 342 423
#     4  12  23  39  64  99 135 173 223 287 357 399
#     4  11  22  40  68  98 132 181 231 281 337 416
#     4  11  26  43  65  98 137 177 227 286 350 413
#
# _framework density 21.930188000000001
#
# number of rings (size 3 to 8) (size 9 to 14) (size 15 to 20)
#    0.000    0.571    4.286    5.571    0.000    2.286 
#    0.000    5.714    0.000    0.000    0.000    0.000 
#    0.000    0.000    0.000    0.000    0.000    0.000 
#
# Total GULP energy -346945.269859 kJ/mol
# GULP energy per Si atom -12390.902495 kJ/mol
# Density = 2.188027 g / cm^3
# Si number density = 21.930188 Si / 1000 Ang^3
#
#
#
# Elastic Constant Matrix: (Units=GPa)
#
#
# Indices 1 2 3 4 5 6 
#
# 1 115.8631 31.0322 14.0097 0.0000 -17.1629 0.0000
# 2 31.0322 94.0120 21.9338 0.0000 -4.8582 0.0000
# 3 14.0097 21.9338 79.1747 0.0000 -10.9851 0.0000
# 4 0.0000 0.0000 0.0000 23.7175 0.0000 5.1078
# 5 -17.1629 -4.8582 -10.9851 0.0000 44.1424 0.0000
# 6 0.0000 0.0000 0.0000 5.1078 0.0000 34.4609
#
#
#
# Elastic Compliance Matrix: (Units=1/GPa)
#
#
# Indices 1 2 3 4 5 6 
#
# 1 0.010005 -0.003018 -0.000456 0.000000 0.003444 0.000000
# 2 -0.003018 0.012292 -0.002948 0.000000 -0.000554 0.000000
# 3 -0.000456 -0.002948 0.013939 0.000000 0.002967 0.000000
# 4 0.000000 0.000000 0.000000 0.043553 0.000000 -0.006455
# 5 0.003444 -0.000554 0.002967 0.000000 0.024670 0.000000
# 6 0.000000 0.000000 0.000000 -0.006455 0.000000 0.029975
#
#
# Mechanical properties :
#
#
# Convention : Reuss Voigt Hill
#
# Bulk Modulus (GPa) = 42.75097 47.00015 44.87556
# Shear Modulus (GPa) = 32.24198 35.26910 33.75554
#
# Velocity S-wave (km/s) = 3.83849 4.01464 3.92755
# Velocity P-wave (km/s) = 6.25954 6.55500 6.40897
#
# Compressibility (1/GPa) = 0.02339128
#
# Stress axis : x y z
#
# Youngs Moduli (GPa) = 99.95457 81.35155 71.73886
#
# Poissons Ratio (x) = 0.24551 0.03274
# Poissons Ratio (y) = 0.30166 0.21150
# Poissons Ratio (z) = 0.04562 0.23984
#
# Static dielectric constant tensor:
#      x y z
#    x 4.136790 0.000000 -0.234240 
#    y 0.000000 3.580770 0.000000 
#    z -0.234240 0.000000 3.960520 
# 
# 
# High freq. dielectric constant tensor:
#      x y z
#    x 1.880640 0.000000 -0.009840 
#    y 0.000000 1.833490 0.000000 
#    z -0.009840 0.000000 1.868770 
# 
# From -- ./inp_files/191042.got.cif
#   From: 2010.06.25/outbox.cif.g09.slc.cpg/sg15_96_cif.got.tgz:191042.got - 2010.06.28 07:06:18.
