data_PCOD8152817
_publ_section_title
;
Structure prediction by ZEFSAII (Michael W. Deem and Ramdas Pophale) SiO2 
 PCOD8152817
Probable space group: C 2/C
;
_chemical_formula_sum "Si O2"
_cell_formula_units_Z 64
_cell_length_a 18.624711
_cell_length_b 9.496626
_cell_length_c 22.618113
_cell_angle_alpha 90.000000
_cell_angle_beta 128.860380
_cell_angle_gamma 90.000000
_cell_volume 3115.105105
_symmetry_space_group_name_H-M "C 2/C"
_symmetry_group_IT_number 15
_symmetry_cell_setting 'monoclinic'
loop_
_space_group_symop_operation_xyz
x,y,z
-x,y,1/2-z
-x,-y,-z
x,-y,1/2+z
1/2+x,1/2+y,z
1/2-x,1/2+y,1/2-z
1/2-x,1/2-y,-z
1/2+x,1/2-y,1/2+z
loop_
_atom_site_type_symbol
_atom_site_label
_atom_site_fract_x
_atom_site_fract_y
_atom_site_fract_z
Si Si1 0.419197 0.693386 0.429897
Si Si2 0.469809 0.538239 0.859851
Si Si3 0.660866 0.394319 0.414339
Si Si4 0.676493 0.043953 0.677522
Si Si5 0.904848 0.265494 0.902409
Si Si6 0.253967 0.882015 0.579843
Si Si7 0.717298 0.132491 0.828138
Si Si8 0.851534 0.073223 0.201069
O O1 0.461535 0.575403 0.408554
O O2 0.368077 0.809144 0.364135
O O3 0.504118 0.756573 0.510440
O O4 0.342705 0.632147 0.434987
O O5 0.569293 0.610901 0.906382
O O6 0.405584 0.668062 0.844730
O O7 0.443017 0.477883 0.782108
O O8 0.681175 0.257264 0.383497
O O9 0.742545 0.412410 0.504007
O O10 0.651139 0.531079 0.368624
O O11 0.708749 0.050854 0.761803
O O12 0.601410 0.923506 0.625680
O O13 0.765684 0.001942 0.687131
O O14 0.815104 0.210310 0.891527
O O15 0.305781 0.016892 0.633821
O O16 0.643449 0.257884 0.792841
#
# Coordination Sequence:
#
# PCOD8152817 Si02
#       8
#     8   8   8   8   8   8   8   8
#     4  12  21  43  67  97 132 164 219 277 324 390
#     4  12  22  40  67  95 125 168 217 273 319 387
#     4  11  25  41  64  94 130 172 213 265 328 401
#     4  11  23  39  65  98 132 163 217 276 322 379
#     4  11  23  36  66  99 127 164 211 270 327 374
#     4  11  23  42  67  94 129 171 217 269 327 396
#     4  11  23  42  66  97 125 172 224 269 320 387
#     4  11  23  40  63  92 131 173 215 263 331 394
#
# _framework density 20.545052999999999
#
# number of rings (size 3 to 8) (size 9 to 14) (size 15 to 20)
#    0.000    0.750    6.250    1.875    3.500    0.500 
#    0.000    1.250    0.000    0.000    0.000    0.000 
#    0.000    0.000    0.000    0.000    0.000    0.000 
#
# Total GULP energy -396693.789161 kJ/mol
# GULP energy per Si atom -12396.680911 kJ/mol
# Density = 2.049829 g / cm^3
# Si number density = 20.545053 Si / 1000 Ang^3
#
#
#
# Elastic Constant Matrix: (Units=GPa)
#
#
# Indices 1 2 3 4 5 6 
#
# 1 53.8192 35.5058 18.1839 0.0000 -9.7220 0.0000
# 2 35.5058 82.7543 26.4884 0.0000 -7.4112 0.0000
# 3 18.1839 26.4884 91.2668 0.0000 -7.2781 0.0000
# 4 0.0000 0.0000 0.0000 35.8227 0.0000 -7.4417
# 5 -9.7220 -7.4112 -7.2781 0.0000 29.3571 0.0000
# 6 0.0000 0.0000 0.0000 -7.4417 0.0000 33.7749
#
#
#
# Elastic Compliance Matrix: (Units=1/GPa)
#
#
# Indices 1 2 3 4 5 6 
#
# 1 0.027250 -0.010558 -0.001896 0.000000 0.005889 0.000000
# 2 -0.010558 0.017587 -0.002985 0.000000 0.000204 0.000000
# 3 -0.001896 -0.002985 0.012334 0.000000 0.001677 0.000000
# 4 0.000000 0.000000 0.000000 0.029254 0.000000 0.006446
# 5 0.005889 0.000204 0.001677 0.000000 0.036481 0.000000
# 6 0.000000 0.000000 0.000000 0.006446 0.000000 0.031028
#
#
# Mechanical properties :
#
#
# Convention : Reuss Voigt Hill
#
# Bulk Modulus (GPa) = 38.02805 43.13295 40.58050
# Shear Modulus (GPa) = 25.82972 29.63509 27.73240
#
# Velocity S-wave (km/s) = 3.54958 3.80207 3.67799
# Velocity P-wave (km/s) = 5.94551 6.34935 6.15075
#
# Compressibility (1/GPa) = 0.02629638
#
# Stress axis : x y z
#
# Youngs Moduli (GPa) = 36.69722 56.85938 81.07346
#
# Poissons Ratio (x) = 0.60029 0.15368
# Poissons Ratio (y) = 0.38743 0.24197
# Poissons Ratio (z) = 0.06956 0.16970
#
# Static dielectric constant tensor:
#      x y z
#    x 3.621340 0.000000 -0.016360 
#    y 0.000000 3.892080 0.000000 
#    z -0.016360 0.000000 3.784410 
# 
# 
# High freq. dielectric constant tensor:
#      x y z
#    x 1.786720 0.000000 -0.004780 
#    y 0.000000 1.810200 0.000000 
#    z -0.004780 0.000000 1.812240 
# 
# From -- ./inp_files/279591.got.cif
#   From: 2010.06.25/outbox.cif.g09.slc.cpg/sg15_140_cif.got.tgz:279591.got - 2010.06.28 07:06:18.
