data_PCOD8152589
_publ_section_title
;
Structure prediction by ZEFSAII (Michael W. Deem and Ramdas Pophale) SiO2 
 PCOD8152589
Probable space group: C 2/C
;
_chemical_formula_sum "Si O2"
_cell_formula_units_Z 40
_cell_length_a 14.551823
_cell_length_b 14.854211
_cell_length_c 8.683503
_cell_angle_alpha 90.000000
_cell_angle_beta 74.325085
_cell_angle_gamma 90.000000
_cell_volume 1807.184948
_symmetry_space_group_name_H-M "C 2/C"
_symmetry_group_IT_number 15
_symmetry_cell_setting 'monoclinic'
loop_
_space_group_symop_operation_xyz
x,y,z
-x,y,1/2-z
-x,-y,-z
x,-y,1/2+z
1/2+x,1/2+y,z
1/2-x,1/2+y,1/2-z
1/2-x,1/2-y,-z
1/2+x,1/2-y,1/2+z
loop_
_atom_site_type_symbol
_atom_site_label
_atom_site_fract_x
_atom_site_fract_y
_atom_site_fract_z
Si Si1 0.729172 0.946021 0.192744
Si Si2 0.016368 0.257059 0.922743
Si Si3 0.939475 0.065902 0.627012
Si Si4 0.194023 0.259629 0.366520
Si Si5 0.685361 0.116960 0.375087
O O1 0.835591 0.976141 0.195773
O O2 0.699424 0.860973 0.305725
O O3 0.667716 0.034739 0.263098
O O4 0.724465 0.925424 0.014634
O O5 0.075061 0.166059 0.934942
O O6 0.082399 0.337998 0.955247
O O7 0.000000 0.274525 0.750000
O O8 0.917855 0.243964 0.058242
O O9 0.000000 0.082195 0.750000
O O10 0.000000 0.000000 0.500000
O O11 0.250000 0.250000 0.500000
O O12 0.238518 0.189561 0.224378
#
# Coordination Sequence:
#
# PCOD8152589 Si02
#       5
#     8   8   8   8   8
#     4  12  26  45  73 105 146 194 239 299 371 430
#     4  11  24  44  73 103 144 191 239 296 362 434
#     4  11  22  43  69 103 135 180 241 293 354 420
#     4  12  23  46  73 102 146 189 234 303 362 426
#     4  12  26  48  71 108 148 187 249 297 362 442
#
# _framework density 22.133870999999999
#
# number of rings (size 3 to 8) (size 9 to 14) (size 15 to 20)
#    0.000    0.400    4.000    5.400    0.000    1.600 
#    0.000    0.000    0.000    0.000    0.000    0.000 
#    0.000    0.000    0.000    0.000    0.000    0.000 
#
# Total GULP energy -247997.960373 kJ/mol
# GULP energy per Si atom -12399.898019 kJ/mol
# Density = 2.208349 g / cm^3
# Si number density = 22.133871 Si / 1000 Ang^3
#
#
#
# Elastic Constant Matrix: (Units=GPa)
#
#
# Indices 1 2 3 4 5 6 
#
# 1 101.7150 29.2697 35.8809 0.0000 -7.4871 0.0000
# 2 29.2697 155.1727 40.5811 0.0000 -2.8711 0.0000
# 3 35.8809 40.5811 86.4327 0.0000 -6.8846 0.0000
# 4 0.0000 0.0000 0.0000 49.6897 0.0000 -8.1508
# 5 -7.4871 -2.8711 -6.8846 0.0000 29.7290 0.0000
# 6 0.0000 0.0000 0.0000 -8.1508 0.0000 31.2997
#
#
#
# Elastic Compliance Matrix: (Units=1/GPa)
#
#
# Indices 1 2 3 4 5 6 
#
# 1 0.011773 -0.001079 -0.004231 0.000000 0.001881 0.000000
# 2 -0.001079 0.007446 -0.003069 0.000000 -0.000263 0.000000
# 3 -0.004231 -0.003069 0.014934 0.000000 0.002096 0.000000
# 4 0.000000 0.000000 0.000000 0.021023 0.000000 0.005475
# 5 0.001881 -0.000263 0.002096 0.000000 0.034571 0.000000
# 6 0.000000 0.000000 0.000000 0.005475 0.000000 0.033375
#
#
# Mechanical properties :
#
#
# Convention : Reuss Voigt Hill
#
# Bulk Modulus (GPa) = 57.48876 61.64264 59.56570
# Shear Modulus (GPa) = 34.32251 37.98291 36.15271
#
# Velocity S-wave (km/s) = 3.94214 4.14702 4.04588
# Velocity P-wave (km/s) = 6.83741 7.13027 6.98538
#
# Compressibility (1/GPa) = 0.01739470
#
# Stress axis : x y z
#
# Youngs Moduli (GPa) = 84.94101 134.30551 66.96238
#
# Poissons Ratio (x) = 0.14498 0.28329
# Poissons Ratio (y) = 0.09169 0.20549
# Poissons Ratio (z) = 0.35936 0.41214
#
# Static dielectric constant tensor:
#      x y z
#    x 3.989320 0.000000 -0.181830 
#    y 0.000000 1.729080 0.000000 
#    z -0.181830 0.000000 4.042860 
# 
# 
# High freq. dielectric constant tensor:
#      x y z
#    x 1.871040 0.000000 -0.007060 
#    y 0.000000 1.893440 0.000000 
#    z -0.007060 0.000000 1.871370 
# 
# From -- ./inp_files/37791.got.cif
#   From: 2010.06.25/outbox.cif.g09.slc.cpg/sg15_19_cif.got.tgz:37791.got - 2010.06.28 07:06:18.
