data_PCOD8152396
_publ_section_title
;
Structure prediction by ZEFSAII (Michael W. Deem and Ramdas Pophale) SiO2 
 PCOD8152396
Probable space group: C 2/C
;
_chemical_formula_sum "Si O2"
_cell_formula_units_Z 60
_cell_length_a 20.195230
_cell_length_b 19.670294
_cell_length_c 8.989574
_cell_angle_alpha 90.000000
_cell_angle_beta 131.795316
_cell_angle_gamma 90.000000
_cell_volume 2662.344028
_symmetry_space_group_name_H-M "C 2/C"
_symmetry_group_IT_number 15
_symmetry_cell_setting 'monoclinic'
loop_
_space_group_symop_operation_xyz
x,y,z
-x,y,1/2-z
-x,-y,-z
x,-y,1/2+z
1/2+x,1/2+y,z
1/2-x,1/2+y,1/2-z
1/2-x,1/2-y,-z
1/2+x,1/2-y,1/2+z
loop_
_atom_site_type_symbol
_atom_site_label
_atom_site_fract_x
_atom_site_fract_y
_atom_site_fract_z
Si Si1 0.198818 0.205550 0.549115
Si Si2 0.809746 0.660027 0.990318
Si Si3 0.608385 0.806570 0.595300
Si Si4 0.659604 0.073115 0.974482
Si Si5 0.500000 0.975880 0.750000
Si Si6 0.192451 0.031956 0.841978
Si Si7 0.104156 0.931039 0.915736
Si Si8 0.556886 0.122731 0.546890
O O1 0.250000 0.250000 0.500000
O O2 0.260952 0.200730 0.787119
O O3 0.112852 0.244422 0.486072
O O4 0.163190 0.132332 0.436799
O O5 0.757295 0.594694 0.979105
O O6 0.902596 0.638521 0.054461
O O7 0.838560 0.708315 0.170927
O O8 0.660470 0.868468 0.597317
O O9 0.503214 0.819664 0.464620
O O10 0.639262 0.103426 0.778593
O O11 0.583921 0.021722 0.903826
O O12 0.751825 0.033630 0.125788
O O13 0.510518 0.936827 0.605845
O O14 0.125567 0.060741 0.620065
O O15 0.130698 0.003189 0.881661
O O16 0.000000 0.915652 0.750000
#
# Coordination Sequence:
#
# PCOD8152396 Si02
#       8
#     8   8   8   8   4   8   8   8
#     4  11  26  46  66  93 129 179 233 279 341 418
#     4  11  23  40  66  93 131 170 223 282 338 407
#     4  12  23  40  60  93 133 183 223 271 335 403
#     4  12  23  35  62  96 139 182 219 271 336 418
#     4  12  22  34  58 100 146 174 228 266 338 410
#     4  11  22  41  67  97 129 167 217 280 348 392
#     4  11  25  45  70  97 126 168 223 290 337 399
#     4  12  22  38  59  99 138 182 219 274 335 411
#
# _framework density 22.536531
#
# number of rings (size 3 to 8) (size 9 to 14) (size 15 to 20)
#    0.000    0.533    4.000    5.200    1.867    2.133 
#    0.000    0.000    0.000    6.400    0.000    0.000 
#    0.000    0.000    0.000    0.000    0.000    0.000 
#
# Total GULP energy -371760.841983 kJ/mol
# GULP energy per Si atom -12392.028066 kJ/mol
# Density = 2.248524 g / cm^3
# Si number density = 22.536531 Si / 1000 Ang^3
#
#
#
# Elastic Constant Matrix: (Units=GPa)
#
#
# Indices 1 2 3 4 5 6 
#
# 1 82.3696 34.1024 20.4113 0.0000 -5.6563 0.0000
# 2 34.1024 74.9881 19.8756 0.0000 -7.6307 0.0000
# 3 20.4113 19.8756 92.2281 0.0000 1.0022 0.0000
# 4 0.0000 0.0000 0.0000 40.7031 0.0000 -104.6833
# 5 -5.6563 -7.6307 1.0022 0.0000 35.9996 0.0000
# 6 0.0000 0.0000 0.0000 -104.6833 0.0000 1336.9264
#
#
#
# Elastic Compliance Matrix: (Units=1/GPa)
#
#
# Indices 1 2 3 4 5 6 
#
# 1 0.015341 -0.006320 -0.002046 0.000000 0.001128 0.000000
# 2 -0.006320 0.017097 -0.002315 0.000000 0.002696 0.000000
# 3 -0.002046 -0.002315 0.011807 0.000000 -0.001141 0.000000
# 4 0.000000 0.000000 0.000000 0.030763 0.000000 0.002409
# 5 0.001128 0.002696 -0.001141 0.000000 0.028558 0.000000
# 6 0.000000 0.000000 0.000000 0.002409 0.000000 0.000937
#
#
# Mechanical properties :
#
#
# Convention : Reuss Voigt Hill
#
# Bulk Modulus (GPa) = 43.69808 44.26271 43.98040
# Shear Modulus (GPa) = 37.45515 294.40559 165.93037
#
# Velocity S-wave (km/s) = 4.08116 11.44196 8.58994
# Velocity P-wave (km/s) = 6.45289 13.93704 10.86004
#
# Compressibility (1/GPa) = 0.02288430
#
# Stress axis : x y z
#
# Youngs Moduli (GPa) = 65.18378 58.48819 84.69749
#
# Poissons Ratio (x) = 0.36963 0.17325
# Poissons Ratio (y) = 0.41195 0.19609
# Poissons Ratio (z) = 0.13333 0.13541
#
# Static dielectric constant tensor:
#      x y z
#    x 4.100600 0.000000 -0.089200 
#    y 0.000000 4.357060 0.000000 
#    z -0.089200 0.000000 3.998930 
# 
# 
# High freq. dielectric constant tensor:
#      x y z
#    x 1.886340 0.000000 -0.005690 
#    y 0.000000 1.876850 0.000000 
#    z -0.005690 0.000000 1.896390 
# 
# From -- ./inp_files/58106.got.cif
#   From: 2010.06.25/outbox.cif.g09.slc.cpg/sg15_30_cif.got.tgz:58106.got - 2010.06.28 07:06:18.
