data_PCOD8152979
_publ_section_title
;
Structure prediction by ZEFSAII (Michael W. Deem and Ramdas Pophale) SiO2 
 PCOD8152979
Probable space group: C 2/C
;
_chemical_formula_sum "Si O2"
_cell_formula_units_Z 56
_cell_length_a 19.210160
_cell_length_b 5.825985
_cell_length_c 26.026140
_cell_angle_alpha 90.000000
_cell_angle_beta 122.104710
_cell_angle_gamma 90.000000
_cell_volume 2467.366301
_symmetry_space_group_name_H-M "C 2/C"
_symmetry_group_IT_number 15
_symmetry_cell_setting 'monoclinic'
loop_
_space_group_symop_operation_xyz
x,y,z
-x,y,1/2-z
-x,-y,-z
x,-y,1/2+z
1/2+x,1/2+y,z
1/2-x,1/2+y,1/2-z
1/2-x,1/2-y,-z
1/2+x,1/2-y,1/2+z
loop_
_atom_site_type_symbol
_atom_site_label
_atom_site_fract_x
_atom_site_fract_y
_atom_site_fract_z
Si Si1 0.958603 0.036307 0.344911
Si Si2 0.387037 0.821247 0.090152
Si Si3 0.632102 0.006830 0.521698
Si Si4 0.703931 0.485560 0.863042
Si Si5 0.715312 0.336143 0.756149
Si Si6 0.442944 0.790909 0.685413
Si Si7 0.018697 0.200338 0.545701
O O1 0.879668 0.179826 0.296797
O O2 0.027073 0.209424 0.392674
O O3 0.936836 0.871949 0.384081
O O4 0.995268 0.903499 0.310662
O O5 0.331534 0.670966 0.105566
O O6 0.410466 0.055312 0.127203
O O7 0.340038 0.862758 0.017777
O O8 0.713563 0.103507 0.581767
O O9 0.582282 0.872799 0.545439
O O10 0.571604 0.201384 0.476346
O O11 0.724799 0.332056 0.821519
O O12 0.638335 0.678887 0.820887
O O13 0.747029 0.591764 0.749063
O O14 0.500000 0.924347 0.750000
O O15 0.000000 0.000000 0.500000
#
# Coordination Sequence:
#
# PCOD8152979 Si02
#       7
#     8   8   8   8   8   8   8
#     4  11  24  45  69 101 138 181 241 286 359 426
#     4  11  25  42  72  97 135 184 233 298 353 431
#     4  11  24  44  67  99 138 179 239 289 362 429
#     4  11  27  44  68 105 136 185 233 301 360 427
#     4  12  30  48  75 109 147 191 240 303 363 428
#     4  11  24  44  70  96 135 183 235 293 354 427
#     4  11  23  41  69  96 132 183 225 290 350 428
#
# _framework density 22.696266000000001
#
# number of rings (size 3 to 8) (size 9 to 14) (size 15 to 20)
#    0.000    0.857    4.286    1.286    8.000    1.714 
#    0.000    0.000    0.000    0.000    0.000    0.000 
#    0.000    0.000    0.000    0.000    0.000    0.000 
#
# Total GULP energy -347039.827754 kJ/mol
# GULP energy per Si atom -12394.279563 kJ/mol
# Density = 2.264461 g / cm^3
# Si number density = 22.696266 Si / 1000 Ang^3
#
#
#
# Elastic Constant Matrix: (Units=GPa)
#
#
# Indices 1 2 3 4 5 6 
#
# 1 97.4913 23.1940 40.3359 -0.0002 0.2858 0.0002
# 2 23.1940 66.4377 -3.9076 -0.0007 5.0636 0.0004
# 3 40.3359 -3.9076 119.6307 -0.0002 10.5023 0.0002
# 4 -0.0002 -0.0007 -0.0002 29.7648 0.0000 -6.0019
# 5 0.2858 5.0636 10.5023 0.0000 38.0856 0.0000
# 6 0.0002 0.0004 0.0002 -6.0019 0.0000 14.5040
#
#
#
# Elastic Compliance Matrix: (Units=1/GPa)
#
#
# Indices 1 2 3 4 5 6 
#
# 1 0.013499 -0.005147 -0.004889 0.000000 0.001931 0.000000
# 2 -0.005147 0.017224 0.002558 0.000000 -0.002957 0.000000
# 3 -0.004889 0.002558 0.010369 0.000000 -0.003163 0.000000
# 4 0.000000 0.000000 0.000000 0.036655 0.000000 0.015168
# 5 0.001931 -0.002957 -0.003163 0.000000 0.027507 0.000000
# 6 0.000000 0.000000 0.000000 0.015168 0.000000 0.075223
#
#
# Mechanical properties :
#
#
# Convention : Reuss Voigt Hill
#
# Bulk Modulus (GPa) = 38.26340 44.75603 41.50971
# Shear Modulus (GPa) = 24.49206 31.40004 27.94605
#
# Velocity S-wave (km/s) = 3.28856 3.72356 3.51280
# Velocity P-wave (km/s) = 5.59598 6.18457 5.89763
#
# Compressibility (1/GPa) = 0.02613464
#
# Stress axis : x y z
#
# Youngs Moduli (GPa) = 74.07895 58.05690 96.44380
#
# Poissons Ratio (x) = 0.29884 0.47153
# Poissons Ratio (y) = 0.38131 -0.24668
# Poissons Ratio (z) = 0.36219 -0.14849
#
# Static dielectric constant tensor:
#      x y z
#    x 5.491330 -0.000010 -0.600040 
#    y -0.000010 4.031630 0.000010 
#    z -0.600040 0.000010 4.435090 
# 
# 
# High freq. dielectric constant tensor:
#      x y z
#    x 1.904620 0.000000 -0.004390 
#    y 0.000000 1.878290 0.000000 
#    z -0.004390 0.000000 1.916030 
# 
# From -- ./inp_files/299970.got.cif
#   From: 2010.06.25/outbox.cif.g09.slc.cpg/sg15_150_cif.got.tgz:299970.got - 2010.06.28 07:06:18.
