data_PCOD8152423
_publ_section_title
;
Structure prediction by ZEFSAII (Michael W. Deem and Ramdas Pophale) SiO2 
 PCOD8152423
Probable space group: C 2/C
;
_chemical_formula_sum "Si O2"
_cell_formula_units_Z 48
_cell_length_a 31.234073
_cell_length_b 14.608654
_cell_length_c 15.348779
_cell_angle_alpha 90.000000
_cell_angle_beta 161.236589
_cell_angle_gamma 90.000000
_cell_volume 2252.740676
_symmetry_space_group_name_H-M "C 2/C"
_symmetry_group_IT_number 15
_symmetry_cell_setting 'monoclinic'
loop_
_space_group_symop_operation_xyz
x,y,z
-x,y,1/2-z
-x,-y,-z
x,-y,1/2+z
1/2+x,1/2+y,z
1/2-x,1/2+y,1/2-z
1/2-x,1/2-y,-z
1/2+x,1/2-y,1/2+z
loop_
_atom_site_type_symbol
_atom_site_label
_atom_site_fract_x
_atom_site_fract_y
_atom_site_fract_z
Si Si1 0.460794 0.242754 0.937800
Si Si2 0.891386 0.438152 0.746423
Si Si3 0.897229 0.080038 0.815254
Si Si4 0.355163 0.958537 0.003600
Si Si5 0.299804 0.239890 0.456151
Si Si6 0.858329 0.092644 0.944469
O O1 0.419492 0.242488 0.756563
O O2 0.334772 0.228404 0.756800
O O3 0.567119 0.165912 0.164285
O O4 0.537661 0.335144 0.108936
O O5 0.742562 0.448009 0.500243
O O6 0.884265 0.468884 0.634199
O O7 0.000000 0.500000 0.000000
O O8 0.867368 0.105203 0.858029
O O9 0.000000 0.000000 0.000000
O O10 0.500000 0.929487 0.250000
O O11 0.282538 0.864442 0.890470
O O12 0.254214 0.016040 0.746481
O O13 0.328010 0.309394 0.431266
O O14 0.000000 0.054555 0.250000
#
# Coordination Sequence:
#
# PCOD8152423 Si02
#       6
#     8   8   8   8   8   8
#     4  11  22  41  68  97 134 173 229 280 338 406
#     4  11  23  41  66 101 133 173 224 280 335 402
#     4  11  25  43  69 100 139 177 230 280 339 408
#     4  11  24  42  64  96 134 172 225 277 342 401
#     4  11  23  41  69  96 130 182 223 278 345 403
#     4  11  23  44  66  96 136 180 225 280 339 403
#
# _framework density 21.307378
#
# number of rings (size 3 to 8) (size 9 to 14) (size 15 to 20)
#    0.000    1.000    3.333    4.000    2.333    1.333 
#    0.000    7.500    0.000    0.000    0.000    0.000 
#    0.000    0.000    0.000    0.000    0.000    0.000 
#
# Total GULP energy -297505.702506 kJ/mol
# GULP energy per Si atom -12396.070938 kJ/mol
# Density = 2.125888 g / cm^3
# Si number density = 21.307378 Si / 1000 Ang^3
#
#
#
# Elastic Constant Matrix: (Units=GPa)
#
#
# Indices 1 2 3 4 5 6 
#
# 1 76.8483 39.4596 27.6462 0.0000 5.2045 0.0000
# 2 39.4596 163.2508 75.0118 0.0000 3.2119 0.0000
# 3 27.6462 75.0118 164.5360 0.0000 12.4672 0.0000
# 4 0.0000 0.0000 0.0000 47.8717 0.0000 0.5283
# 5 5.2045 3.2119 12.4672 0.0000 26.5191 0.0000
# 6 0.0000 0.0000 0.0000 0.5283 0.0000 34.9767
#
#
#
# Elastic Compliance Matrix: (Units=1/GPa)
#
#
# Indices 1 2 3 4 5 6 
#
# 1 0.015129 -0.003189 -0.000925 0.000000 -0.002148 0.000000
# 2 -0.003189 0.008436 -0.003401 0.000000 0.001203 0.000000
# 3 -0.000925 -0.003401 0.008025 0.000000 -0.003179 0.000000
# 4 0.000000 0.000000 0.000000 0.020893 0.000000 -0.000316
# 5 -0.002148 0.001203 -0.003179 0.000000 0.039479 0.000000
# 6 0.000000 0.000000 0.000000 -0.000316 0.000000 0.028595
#
#
# Mechanical properties :
#
#
# Convention : Reuss Voigt Hill
#
# Bulk Modulus (GPa) = 60.39567 76.54116 68.46841
# Shear Modulus (GPa) = 35.43436 39.37466 37.40451
#
# Velocity S-wave (km/s) = 4.08242 4.30343 4.19438
# Velocity P-wave (km/s) = 7.11534 7.79057 7.46060
#
# Compressibility (1/GPa) = 0.01655748
#
# Stress axis : x y z
#
# Youngs Moduli (GPa) = 66.09992 118.54655 124.61755
#
# Poissons Ratio (x) = 0.37809 0.11530
# Poissons Ratio (y) = 0.21082 0.42382
# Poissons Ratio (z) = 0.06116 0.40318
#
# Static dielectric constant tensor:
#      x y z
#    x 3.772760 0.000000 0.240950 
#    y 0.000000 3.931240 0.000000 
#    z 0.240950 0.000000 4.684290 
# 
# 
# High freq. dielectric constant tensor:
#      x y z
#    x 1.819010 0.000000 0.015610 
#    y 0.000000 1.847580 0.000000 
#    z 0.015610 0.000000 1.856730 
# 
# From -- ./inp_files/182497.got.cif
#   From: 2010.06.25/outbox.cif.g09.slc.cpg/sg15_92_cif.got.tgz:182497.got - 2010.06.28 07:06:18.
