data_PCOD8153617
_publ_section_title
;
Structure prediction by ZEFSAII (Michael W. Deem and Ramdas Pophale) SiO2 
 PCOD8153617
Probable space group: C 2/C
;
_chemical_formula_sum "Si O2"
_cell_formula_units_Z 40
_cell_length_a 28.977299
_cell_length_b 6.641257
_cell_length_c 10.605190
_cell_angle_alpha 90.000000
_cell_angle_beta 63.721215
_cell_angle_gamma 90.000000
_cell_volume 1829.994571
_symmetry_space_group_name_H-M "C 2/C"
_symmetry_group_IT_number 15
_symmetry_cell_setting 'monoclinic'
loop_
_space_group_symop_operation_xyz
x,y,z
-x,y,1/2-z
-x,-y,-z
x,-y,1/2+z
1/2+x,1/2+y,z
1/2-x,1/2+y,1/2-z
1/2-x,1/2-y,-z
1/2+x,1/2-y,1/2+z
loop_
_atom_site_type_symbol
_atom_site_label
_atom_site_fract_x
_atom_site_fract_y
_atom_site_fract_z
Si Si1 0.874239 0.997725 0.310176
Si Si2 0.939314 0.648825 0.318072
Si Si3 0.201064 0.677112 0.215986
Si Si4 0.891307 0.606130 0.648529
Si Si5 0.280390 0.614328 0.556877
O O1 0.923205 0.880435 0.307737
O O2 0.833540 0.831975 0.316816
O O3 0.890318 0.154584 0.181650
O O4 0.841979 0.113542 0.456862
O O5 0.918105 0.576933 0.479859
O O6 0.921444 0.503582 0.226052
O O7 0.000000 0.640897 0.250000
O O8 0.165979 0.483363 0.295539
O O9 0.251673 0.601084 0.080635
O O10 0.226734 0.792322 0.299105
O O11 0.250000 0.750000 0.500000
#
# Coordination Sequence:
#
# PCOD8153617 Si02
#       5
#     8   8   8   8   8
#     4  11  24  43  66  98 136 179 228 281 339 410
#     4  11  26  45  73 102 136 181 233 291 351 410
#     4  11  25  39  62  97 133 176 224 277 334 408
#     4  11  24  46  70  99 139 178 230 290 346 414
#     4  12  23  40  65  94 135 182 221 275 336 401
#
# _framework density 21.857989
#
# number of rings (size 3 to 8) (size 9 to 14) (size 15 to 20)
#    0.000    0.800    2.000    4.800    5.600    3.200 
#    0.000    0.000    0.000    0.000    0.000    0.000 
#    0.000    0.000    0.000    0.000    0.000    0.000 
#
# Total GULP energy -247899.502592 kJ/mol
# GULP energy per Si atom -12394.975130 kJ/mol
# Density = 2.180824 g / cm^3
# Si number density = 21.857989 Si / 1000 Ang^3
#
#
#
# Elastic Constant Matrix: (Units=GPa)
#
#
# Indices 1 2 3 4 5 6 
#
# 1 90.3687 19.1042 15.6120 0.0000 -4.3449 0.0000
# 2 19.1042 93.2343 17.9375 0.0000 5.4967 0.0000
# 3 15.6120 17.9375 90.0070 0.0000 4.8183 0.0000
# 4 0.0000 0.0000 0.0000 35.6324 0.0000 7.2928
# 5 -4.3449 5.4967 4.8183 0.0000 34.2807 0.0000
# 6 0.0000 0.0000 0.0000 7.2928 0.0000 37.6614
#
#
#
# Elastic Compliance Matrix: (Units=1/GPa)
#
#
# Indices 1 2 3 4 5 6 
#
# 1 0.011941 -0.002237 -0.001739 0.000000 0.002116 0.000000
# 2 -0.002237 0.011648 -0.001832 0.000000 -0.001894 0.000000
# 3 -0.001739 -0.001832 0.011862 0.000000 -0.001594 0.000000
# 4 0.000000 0.000000 0.000000 0.029222 0.000000 -0.005659
# 5 0.002116 -0.001894 -0.001594 0.000000 0.029967 0.000000
# 6 0.000000 0.000000 0.000000 -0.005659 0.000000 0.027648
#
#
# Mechanical properties :
#
#
# Convention : Reuss Voigt Hill
#
# Bulk Modulus (GPa) = 41.95347 42.10193 42.02770
# Shear Modulus (GPa) = 35.24869 36.24533 35.74701
#
# Velocity S-wave (km/s) = 4.02010 4.07654 4.04842
# Velocity P-wave (km/s) = 6.38621 6.43902 6.41267
#
# Compressibility (1/GPa) = 0.02383593
#
# Stress axis : x y z
#
# Youngs Moduli (GPa) = 83.74640 85.85058 84.30112
#
# Poissons Ratio (x) = 0.19205 0.14657
# Poissons Ratio (y) = 0.18734 0.15444
# Poissons Ratio (z) = 0.14561 0.15728
#
# Static dielectric constant tensor:
#      x y z
#    x 3.945440 0.000000 -0.036740 
#    y 0.000000 4.492960 0.000000 
#    z -0.036740 0.000000 4.337600 
# 
# 
# High freq. dielectric constant tensor:
#      x y z
#    x 1.858590 0.000000 0.004270 
#    y 0.000000 1.871730 0.000000 
#    z 0.004270 0.000000 1.865060 
# 
# From -- ./inp_files/120713.got.cif
#   From: 2010.06.25/outbox.cif.g09.slc.cpg/sg15_61_cif.got.tgz:120713.got - 2010.06.28 07:06:18.
