data_PCOD8153259
_publ_section_title
;
Structure prediction by ZEFSAII (Michael W. Deem and Ramdas Pophale) SiO2 
 PCOD8153259
Probable space group: C 2/C
;
_chemical_formula_sum "Si O2"
_cell_formula_units_Z 56
_cell_length_a 18.909144
_cell_length_b 9.781680
_cell_length_c 14.193199
_cell_angle_alpha 90.000000
_cell_angle_beta 70.032395
_cell_angle_gamma 90.000000
_cell_volume 2467.406605
_symmetry_space_group_name_H-M "C 2/C"
_symmetry_group_IT_number 15
_symmetry_cell_setting 'monoclinic'
loop_
_space_group_symop_operation_xyz
x,y,z
-x,y,1/2-z
-x,-y,-z
x,-y,1/2+z
1/2+x,1/2+y,z
1/2-x,1/2+y,1/2-z
1/2-x,1/2-y,-z
1/2+x,1/2-y,1/2+z
loop_
_atom_site_type_symbol
_atom_site_label
_atom_site_fract_x
_atom_site_fract_y
_atom_site_fract_z
Si Si1 0.354263 0.324384 0.870580
Si Si2 0.500000 0.077632 0.250000
Si Si3 0.038351 0.795777 0.090813
Si Si4 0.775133 0.384318 0.701698
Si Si5 0.387772 0.332564 0.074414
Si Si6 0.000000 0.977121 0.750000
Si Si7 0.879853 0.388406 0.222289
Si Si8 0.140723 0.140138 0.388614
O O1 0.279518 0.399446 0.864577
O O2 0.425640 0.385079 0.782381
O O3 0.349570 0.165582 0.837927
O O4 0.358787 0.332764 0.980266
O O5 0.550343 0.172122 0.158515
O O6 0.450314 0.986207 0.204336
O O7 0.972362 0.770177 0.042881
O O8 0.007106 0.930682 0.154622
O O9 0.119881 0.823983 0.006676
O O10 0.834341 0.262362 0.661720
O O11 0.815200 0.529288 0.696927
O O12 0.728177 0.347837 0.818505
O O13 0.386108 0.485185 0.118178
O O14 0.904191 0.255818 0.150408
#
# Coordination Sequence:
#
# PCOD8153259 Si02
#       8
#     8   4   8   8   8   4   8   8
#     4  11  25  42  77 103 139 186 243 287 358 415
#     4  11  25  46  70 100 146 182 236 286 366 420
#     4  11  24  43  72 106 140 184 234 302 356 416
#     4  11  25  47  67 101 152 189 229 291 361 426
#     4  12  24  46  74 105 143 186 242 297 350 427
#     4  11  23  44  70 110 138 178 242 300 350 418
#     4  11  25  46  69 101 143 190 230 290 356 431
#     4  11  24  43  73 103 136 187 237 289 359 410
#
# _framework density 22.695896000000001
#
# number of rings (size 3 to 8) (size 9 to 14) (size 15 to 20)
#    0.000    0.857    2.857    4.714    6.000    1.714 
#    0.000    1.429    0.000    0.000    0.000    0.000 
#    0.000    0.000    0.000    0.000    0.000    0.000 
#
# Total GULP energy -346976.118139 kJ/mol
# GULP energy per Si atom -12392.004219 kJ/mol
# Density = 2.264424 g / cm^3
# Si number density = 22.695896 Si / 1000 Ang^3
#
#
#
# Elastic Constant Matrix: (Units=GPa)
#
#
# Indices 1 2 3 4 5 6 
#
# 1 83.0863 34.5199 25.7201 0.0000 5.2578 0.0000
# 2 34.5199 146.4837 52.7808 0.0000 4.1816 0.0000
# 3 25.7201 52.7808 141.2579 0.0000 -10.4023 0.0000
# 4 0.0000 0.0000 0.0000 24.8856 0.0000 -1.0087
# 5 5.2578 4.1816 -10.4023 0.0000 30.2973 0.0000
# 6 0.0000 0.0000 0.0000 -1.0087 0.0000 26.3282
#
#
#
# Elastic Compliance Matrix: (Units=1/GPa)
#
#
# Indices 1 2 3 4 5 6 
#
# 1 0.013804 -0.002544 -0.001758 0.000000 -0.002648 0.000000
# 2 -0.002544 0.008497 -0.002837 0.000000 -0.001705 0.000000
# 3 -0.001758 -0.002837 0.008732 0.000000 0.003695 0.000000
# 4 0.000000 0.000000 0.000000 0.040246 0.000000 0.001542
# 5 -0.002648 -0.001705 0.003695 0.000000 0.034970 0.000000
# 6 0.000000 0.000000 0.000000 0.001542 0.000000 0.038041
#
#
# Mechanical properties :
#
#
# Convention : Reuss Voigt Hill
#
# Bulk Modulus (GPa) = 59.68531 66.31884 63.00207
# Shear Modulus (GPa) = 30.45918 33.48935 31.97426
#
# Velocity S-wave (km/s) = 3.66738 3.84548 3.75749
# Velocity P-wave (km/s) = 6.65491 7.00007 6.82967
#
# Compressibility (1/GPa) = 0.01675454
#
# Stress axis : x y z
#
# Youngs Moduli (GPa) = 72.44053 117.68484 114.52687
#
# Poissons Ratio (x) = 0.29940 0.20133
# Poissons Ratio (y) = 0.18430 0.32495
# Poissons Ratio (z) = 0.12734 0.33391
#
# Static dielectric constant tensor:
#      x y z
#    x 4.077730 0.000000 -0.023750 
#    y 0.000000 4.285180 0.000000 
#    z -0.023750 0.000000 4.095790 
# 
# 
# High freq. dielectric constant tensor:
#      x y z
#    x 1.884900 0.000000 -0.000390 
#    y 0.000000 1.905970 0.000000 
#    z -0.000390 0.000000 1.893130 
# 
# From -- ./inp_files/172314.got.cif
#   From: 2010.06.25/outbox.cif.g09.slc.cpg/sg15_87_cif.got.tgz:172314.got - 2010.06.28 07:06:18.
