data_PCOD8153493
_publ_section_title
;
Structure prediction by ZEFSAII (Michael W. Deem and Ramdas Pophale) SiO2 
 PCOD8153493
Probable space group: C 2/C
;
_chemical_formula_sum "Si O2"
_cell_formula_units_Z 44
_cell_length_a 13.056923
_cell_length_b 8.159248
_cell_length_c 22.163556
_cell_angle_alpha 90.000000
_cell_angle_beta 51.719855
_cell_angle_gamma 90.000000
_cell_volume 1853.510925
_symmetry_space_group_name_H-M "C 2/C"
_symmetry_group_IT_number 15
_symmetry_cell_setting 'monoclinic'
loop_
_space_group_symop_operation_xyz
x,y,z
-x,y,1/2-z
-x,-y,-z
x,-y,1/2+z
1/2+x,1/2+y,z
1/2-x,1/2+y,1/2-z
1/2-x,1/2-y,-z
1/2+x,1/2-y,1/2+z
loop_
_atom_site_type_symbol
_atom_site_label
_atom_site_fract_x
_atom_site_fract_y
_atom_site_fract_z
Si Si1 0.600303 0.007907 0.308222
Si Si2 0.500000 0.239761 0.750000
Si Si3 0.086393 0.441324 0.023955
Si Si4 0.719980 0.275939 0.188520
Si Si5 0.371492 0.493735 0.376917
Si Si6 0.020485 0.092734 0.431052
O O1 0.587400 0.873435 0.260702
O O2 0.467713 0.026490 0.395325
O O3 0.716935 0.942932 0.308519
O O4 0.630868 0.186191 0.270348
O O5 0.599602 0.348429 0.674827
O O6 0.077127 0.246350 0.035134
O O7 0.234416 0.491764 0.960996
O O8 0.000000 0.500000 0.000000
O O9 0.630774 0.331420 0.164370
O O10 0.829999 0.147955 0.127491
O O11 0.483838 0.477684 0.387072
O O12 0.000000 0.000000 0.500000
#
# Coordination Sequence:
#
# PCOD8153493 Si02
#       6
#     8   4   8   8   8   8
#     4  11  25  46  72 109 144 198 244 307 378 437
#     4  12  26  46  76 106 144 194 254 306 380 440
#     4  11  23  48  75 103 144 195 244 303 372 443
#     4  11  25  48  72 106 150 194 250 309 373 451
#     4  12  25  49  75 105 148 196 249 310 374 444
#     4  11  26  45  73 109 145 192 245 309 378 440
#
# _framework density 23.738733
#
# number of rings (size 3 to 8) (size 9 to 14) (size 15 to 20)
#    0.000    0.727    7.273    1.636    2.545    1.455 
#    3.273    0.000    0.000    0.000    0.000    0.000 
#    0.000    0.000    0.000    0.000    0.000    0.000 
#
# Total GULP energy -272898.612367 kJ/mol
# GULP energy per Si atom -12404.482380 kJ/mol
# Density = 2.368470 g / cm^3
# Si number density = 23.738733 Si / 1000 Ang^3
#
#
#
# Elastic Constant Matrix: (Units=GPa)
#
#
# Indices 1 2 3 4 5 6 
#
# 1 105.6307 37.9106 23.9502 0.0000 30.8781 0.0000
# 2 37.9106 74.8605 54.8578 0.0000 5.2469 0.0001
# 3 23.9502 54.8578 140.3848 0.0000 14.3344 0.0000
# 4 0.0000 0.0000 0.0000 50.4542 0.0000 12.0362
# 5 30.8781 5.2469 14.3344 0.0000 41.4511 0.0000
# 6 0.0000 0.0001 0.0000 12.0362 0.0000 42.7415
#
#
#
# Elastic Compliance Matrix: (Units=1/GPa)
#
#
# Indices 1 2 3 4 5 6 
#
# 1 0.015198 -0.008195 0.001720 0.000000 -0.010879 0.000000
# 2 -0.008195 0.023138 -0.008259 0.000000 0.006032 0.000000
# 3 0.001720 -0.008259 0.010450 0.000000 -0.003850 0.000000
# 4 0.000000 0.000000 0.000000 0.021247 0.000000 -0.005983
# 5 -0.010879 0.006032 -0.003850 0.000000 0.032797 0.000000
# 6 0.000000 0.000000 0.000000 -0.005983 0.000000 0.025081
#
#
# Mechanical properties :
#
#
# Convention : Reuss Voigt Hill
#
# Bulk Modulus (GPa) = 51.76337 61.59038 56.67687
# Shear Modulus (GPa) = 30.52151 40.53985 35.53068
#
# Velocity S-wave (km/s) = 3.58959 4.13698 3.87297
# Velocity P-wave (km/s) = 6.24764 6.98719 6.62774
#
# Compressibility (1/GPa) = 0.01931868
#
# Stress axis : x y z
#
# Youngs Moduli (GPa) = 65.79759 43.21938 95.69022
#
# Poissons Ratio (x) = 0.35417 -0.16460
# Poissons Ratio (y) = 0.53919 0.79034
# Poissons Ratio (z) = -0.11318 0.35696
#
# Static dielectric constant tensor:
#      x y z
#    x 4.407270 0.000000 0.228510 
#    y 0.000000 4.217340 0.000000 
#    z 0.228510 0.000000 4.786190 
# 
# 
# High freq. dielectric constant tensor:
#      x y z
#    x 1.941450 0.000000 0.007740 
#    y 0.000000 1.930890 0.000000 
#    z 0.007740 0.000000 1.959480 
# 
# From -- ./inp_files/272562.got.cif
#   From: 2010.06.25/outbox.cif.g09.slc.cpg/sg15_137_cif.got.tgz:272562.got - 2010.06.28 07:06:18.
