data_PCOD8153684
_publ_section_title
;
Structure prediction by ZEFSAII (Michael W. Deem and Ramdas Pophale) SiO2 
 PCOD8153684
Probable space group: C 2/C
;
_chemical_formula_sum "Si O2"
_cell_formula_units_Z 60
_cell_length_a 21.914653
_cell_length_b 25.544673
_cell_length_c 15.261226
_cell_angle_alpha 90.000000
_cell_angle_beta 161.957789
_cell_angle_gamma 90.000000
_cell_volume 2646.002305
_symmetry_space_group_name_H-M "C 2/C"
_symmetry_group_IT_number 15
_symmetry_cell_setting 'monoclinic'
loop_
_space_group_symop_operation_xyz
x,y,z
-x,y,1/2-z
-x,-y,-z
x,-y,1/2+z
1/2+x,1/2+y,z
1/2-x,1/2+y,1/2-z
1/2-x,1/2-y,-z
1/2+x,1/2-y,1/2+z
loop_
_atom_site_type_symbol
_atom_site_label
_atom_site_fract_x
_atom_site_fract_y
_atom_site_fract_z
Si Si1 0.170845 0.215989 0.147763
Si Si2 0.019869 0.447606 0.081624
Si Si3 0.006477 0.678100 0.362100
Si Si4 0.000000 0.566726 0.750000
Si Si5 0.385166 0.788368 0.239426
Si Si6 0.695112 0.624205 0.055432
Si Si7 0.792720 0.864148 0.373210
Si Si8 0.208586 0.851138 0.865903
O O1 0.398618 0.232182 0.442379
O O2 0.110017 0.168376 0.003479
O O3 0.147903 0.197143 0.218521
O O4 0.025090 0.263342 0.927059
O O5 0.038298 0.464078 0.210512
O O6 0.215038 0.414811 0.320155
O O7 0.827785 0.413758 0.795066
O O8 0.000000 0.500000 0.000000
O O9 0.190471 0.640134 0.638147
O O10 0.000000 0.681639 0.250000
O O11 0.812691 0.651356 0.136822
O O12 0.799205 0.597509 0.445689
O O13 0.274657 0.808323 0.175734
O O14 0.250000 0.750000 0.000000
O O15 0.393792 0.837627 0.184207
O O16 0.500000 0.595416 0.750000
O O17 0.026873 0.865851 0.682007
#
# Coordination Sequence:
#
# PCOD8153684 Si02
#       8
#     8   8   8   4   8   8   8   8
#     4  12  23  42  62  98 141 193 236 282 348 425
#     4  11  25  53  77 107 143 177 237 304 369 432
#     4  11  26  42  61  95 135 192 247 286 341 409
#     4  12  22  48  78 102 138 190 218 300 374 432
#     4  12  22  40  61  99 144 187 228 285 356 421
#     4  11  25  48  70  95 143 192 239 299 355 422
#     4  11  24  44  67 100 141 179 233 304 343 422
#     4  12  22  39  68  99 139 179 224 280 365 420
#
# _framework density 22.675716000000001
#
# number of rings (size 3 to 8) (size 9 to 14) (size 15 to 20)
#    0.000    0.533    6.667    2.400    3.733    2.133 
#    7.200    0.667    0.000    0.000    0.000    0.000 
#    0.000    0.000    0.000    0.000    0.000    0.000 
#
# Total GULP energy -371766.772968 kJ/mol
# GULP energy per Si atom -12392.225766 kJ/mol
# Density = 2.262411 g / cm^3
# Si number density = 22.675716 Si / 1000 Ang^3
#
#
#
# Elastic Constant Matrix: (Units=GPa)
#
#
# Indices 1 2 3 4 5 6 
#
# 1 158.8047 43.9255 34.5685 0.0000 -20.4439 0.0000
# 2 43.9255 77.2172 21.8834 0.0000 -2.2416 0.0000
# 3 34.5685 21.8834 93.6653 -0.0001 -1.4567 0.0001
# 4 0.0000 0.0000 -0.0001 19.1021 0.0000 -9.7547
# 5 -20.4439 -2.2416 -1.4567 0.0000 40.0657 0.0000
# 6 0.0000 0.0000 0.0001 -9.7547 0.0000 30.2950
#
#
#
# Elastic Compliance Matrix: (Units=1/GPa)
#
#
# Indices 1 2 3 4 5 6 
#
# 1 0.008387 -0.004065 -0.002084 0.000000 0.003976 0.000000
# 2 -0.004065 0.015856 -0.002224 0.000000 -0.001268 0.000000
# 3 -0.002084 -0.002224 0.011953 0.000000 -0.000753 0.000000
# 4 0.000000 0.000000 0.000000 0.062652 0.000000 0.020173
# 5 0.003976 -0.001268 -0.000753 0.000000 0.026890 0.000000
# 6 0.000000 0.000000 0.000000 0.020173 0.000000 0.039504
#
#
# Mechanical properties :
#
#
# Convention : Reuss Voigt Hill
#
# Bulk Modulus (GPa) = 51.41142 58.93801 55.17471
# Shear Modulus (GPa) = 26.52915 33.17988 29.85452
#
# Velocity S-wave (km/s) = 3.42414 3.82937 3.63241
# Velocity P-wave (km/s) = 6.19312 6.75280 6.47900
#
# Compressibility (1/GPa) = 0.01945093
#
# Stress axis : x y z
#
# Youngs Moduli (GPa) = 119.23355 63.06614 83.65920
#
# Poissons Ratio (x) = 0.25636 0.17432
# Poissons Ratio (y) = 0.48468 0.18606
# Poissons Ratio (z) = 0.24845 0.14026
#
# Static dielectric constant tensor:
#      x y z
#    x 4.163620 0.000000 -0.338240 
#    y 0.000000 4.084570 0.000000 
#    z -0.338240 0.000000 4.178360 
# 
# 
# High freq. dielectric constant tensor:
#      x y z
#    x 1.918990 0.000000 -0.009130 
#    y 0.000000 1.849760 0.000000 
#    z -0.009130 0.000000 1.897460 
# 
# From -- ./inp_files/169969.got.cif
#   From: 2010.06.25/outbox.cif.g09.slc.cpg/sg15_85_cif.got.tgz:169969.got - 2010.06.28 07:06:18.
