data_PCOD8153947
_publ_section_title
;
Structure prediction by ZEFSAII (Michael W. Deem and Ramdas Pophale) SiO2 
 PCOD8153947
Probable space group: C 2/C
;
_chemical_formula_sum "Si O2"
_cell_formula_units_Z 52
_cell_length_a 14.282945
_cell_length_b 11.434879
_cell_length_c 14.912245
_cell_angle_alpha 90.000000
_cell_angle_beta 111.115331
_cell_angle_gamma 90.000000
_cell_volume 2271.995797
_symmetry_space_group_name_H-M "C 2/C"
_symmetry_group_IT_number 15
_symmetry_cell_setting 'monoclinic'
loop_
_space_group_symop_operation_xyz
x,y,z
-x,y,1/2-z
-x,-y,-z
x,-y,1/2+z
1/2+x,1/2+y,z
1/2-x,1/2+y,1/2-z
1/2-x,1/2-y,-z
1/2+x,1/2-y,1/2+z
loop_
_atom_site_type_symbol
_atom_site_label
_atom_site_fract_x
_atom_site_fract_y
_atom_site_fract_z
Si Si1 0.084653 0.044650 0.095877
Si Si2 0.039060 0.681270 0.171448
Si Si3 0.140668 0.735661 0.505667
Si Si4 0.000000 0.883992 0.750000
Si Si5 0.167932 0.492750 0.112495
Si Si6 0.206723 0.147478 0.704500
Si Si7 0.800939 0.811662 0.602332
O O1 0.128309 0.170136 0.081550
O O2 0.059826 0.042637 0.194964
O O3 0.168672 0.944319 0.116251
O O4 0.000000 0.000000 0.000000
O O5 0.084443 0.581763 0.121946
O O6 0.117862 0.783120 0.224474
O O7 0.000000 0.621638 0.250000
O O8 0.948010 0.753827 0.095612
O O9 0.250000 0.750000 0.500000
O O10 0.119454 0.603316 0.530972
O O11 0.077281 0.813672 0.844012
O O12 0.218584 0.419419 0.206918
O O13 0.255457 0.558183 0.087566
O O14 0.269951 0.248005 0.681122
O O15 0.750000 0.750000 0.500000
#
# Coordination Sequence:
#
# PCOD8153947 Si02
#       7
#     8   8   8   4   8   8   8
#     4  12  26  47  76 113 148 201 254 319 379 464
#     4  11  26  47  73 105 144 195 243 310 377 453
#     4  12  28  47  75 107 150 195 253 306 386 462
#     4  12  26  46  78 112 152 204 256 316 394 456
#     4  11  26  47  72 105 147 193 247 314 381 456
#     4  11  24  47  70 102 147 183 251 297 377 452
#     4  11  26  46  74 107 150 198 252 322 387 464
#
# _framework density 22.887367000000001
#
# number of rings (size 3 to 8) (size 9 to 14) (size 15 to 20)
#    0.000    0.615    3.077    3.231   11.846    0.000 
#    8.308    0.000    0.000    0.000    0.000    0.000 
#    0.000    0.000    0.000    0.000    0.000    0.000 
#
# Total GULP energy -322190.268971 kJ/mol
# GULP energy per Si atom -12391.933422 kJ/mol
# Density = 2.283527 g / cm^3
# Si number density = 22.887367 Si / 1000 Ang^3
#
#
#
# Elastic Constant Matrix: (Units=GPa)
#
#
# Indices 1 2 3 4 5 6 
#
# 1 102.4720 28.4865 21.5419 0.0000 6.2638 0.0000
# 2 28.4865 109.6472 10.5975 0.0000 -7.4161 0.0000
# 3 21.5419 10.5975 85.2664 0.0000 7.2666 0.0000
# 4 0.0000 0.0000 0.0000 35.1598 0.0000 12.5096
# 5 6.2638 -7.4161 7.2666 0.0000 42.2444 0.0000
# 6 0.0000 0.0000 0.0000 12.5096 0.0000 17.2841
#
#
#
# Elastic Compliance Matrix: (Units=1/GPa)
#
#
# Indices 1 2 3 4 5 6 
#
# 1 0.011126 -0.002784 -0.002317 0.000000 -0.001740 0.000000
# 2 -0.002784 0.010072 -0.000745 0.000000 0.002309 0.000000
# 3 -0.002317 -0.000745 0.012572 0.000000 -0.001950 0.000000
# 4 0.000000 0.000000 0.000000 0.038306 0.000000 -0.027724
# 5 -0.001740 0.002309 -0.001950 0.000000 0.024671 0.000000
# 6 0.000000 0.000000 0.000000 -0.027724 0.000000 0.077922
#
#
# Mechanical properties :
#
#
# Convention : Reuss Voigt Hill
#
# Bulk Modulus (GPa) = 45.29455 46.51529 45.90492
# Shear Modulus (GPa) = 25.81048 34.72165 30.26607
#
# Velocity S-wave (km/s) = 3.36179 3.89918 3.64042
# Velocity P-wave (km/s) = 5.90779 6.37488 6.14578
#
# Compressibility (1/GPa) = 0.02207771
#
# Stress axis : x y z
#
# Youngs Moduli (GPa) = 89.87824 99.28770 79.54189
#
# Poissons Ratio (x) = 0.27646 0.18427
# Poissons Ratio (y) = 0.25026 0.05927
# Poissons Ratio (z) = 0.20821 0.07398
#
# Static dielectric constant tensor:
#      x y z
#    x 4.319320 0.000000 0.067410 
#    y 0.000000 3.873320 0.000000 
#    z 0.067410 0.000000 4.433840 
# 
# 
# High freq. dielectric constant tensor:
#      x y z
#    x 1.906460 0.000000 0.013260 
#    y 0.000000 1.911750 0.000000 
#    z 0.013260 0.000000 1.912000 
# 
# From -- ./inp_files/152699.got.cif
#   From: 2010.06.25/outbox.cif.g09.slc.cpg/sg15_77_cif.got.tgz:152699.got - 2010.06.28 07:06:18.
