data_PCOD8153638
_publ_section_title
;
Structure prediction by ZEFSAII (Michael W. Deem and Ramdas Pophale) SiO2 
 PCOD8153638
Probable space group: C 2/C
;
_chemical_formula_sum "Si O2"
_cell_formula_units_Z 48
_cell_length_a 20.504999
_cell_length_b 6.913894
_cell_length_c 20.127778
_cell_angle_alpha 90.000000
_cell_angle_beta 126.983551
_cell_angle_gamma 90.000000
_cell_volume 2279.401583
_symmetry_space_group_name_H-M "C 2/C"
_symmetry_group_IT_number 15
_symmetry_cell_setting 'monoclinic'
loop_
_space_group_symop_operation_xyz
x,y,z
-x,y,1/2-z
-x,-y,-z
x,-y,1/2+z
1/2+x,1/2+y,z
1/2-x,1/2+y,1/2-z
1/2-x,1/2-y,-z
1/2+x,1/2-y,1/2+z
loop_
_atom_site_type_symbol
_atom_site_label
_atom_site_fract_x
_atom_site_fract_y
_atom_site_fract_z
Si Si1 0.271851 0.132990 0.358974
Si Si2 0.639771 0.109789 0.701876
Si Si3 0.577569 0.210304 0.251169
Si Si4 0.242902 0.240370 0.917376
Si Si5 0.622761 0.458437 0.035940
Si Si6 0.545111 0.481957 0.623711
O O1 0.315052 0.015622 0.326249
O O2 0.236160 0.979074 0.388365
O O3 0.205996 0.279962 0.287759
O O4 0.328480 0.259206 0.442920
O O5 0.577482 0.265391 0.635050
O O6 0.577436 0.969905 0.701757
O O7 0.500000 0.204256 0.250000
O O8 0.656868 0.170955 0.344130
O O9 0.578398 0.411441 0.210022
O O10 0.317196 0.355960 0.928030
O O11 0.250000 0.250000 0.000000
O O12 0.579831 0.414576 0.080031
O O13 0.553915 0.485167 0.936933
#
# Coordination Sequence:
#
# PCOD8153638 Si02
#       6
#     8   8   8   8   8   8
#     4  12  23  43  75 104 137 180 242 291 348 427
#     4  12  23  43  75 104 134 183 238 288 351 419
#     4  12  26  46  69 100 142 186 238 289 349 421
#     4  12  26  46  70  99 141 189 233 292 353 415
#     4  11  24  43  70 106 140 178 232 288 352 412
#     4  11  24  43  70 105 142 178 227 293 348 414
#
# _framework density 21.058159
#
# number of rings (size 3 to 8) (size 9 to 14) (size 15 to 20)
#    0.000    0.333    6.667    3.000    0.000    4.667 
#    3.000    0.000    0.000    0.000    0.000    0.000 
#    0.000    0.000    0.000    0.000    0.000    0.000 
#
# Total GULP energy -297519.346162 kJ/mol
# GULP energy per Si atom -12396.639423 kJ/mol
# Density = 2.101023 g / cm^3
# Si number density = 21.058159 Si / 1000 Ang^3
#
#
#
# Elastic Constant Matrix: (Units=GPa)
#
#
# Indices 1 2 3 4 5 6 
#
# 1 93.0893 26.7728 27.9096 0.0000 2.7778 0.0000
# 2 26.7728 104.3013 21.9137 0.0001 1.6943 -0.0001
# 3 27.9096 21.9137 116.5194 0.0000 13.4426 0.0000
# 4 0.0000 0.0001 0.0000 33.4307 0.0000 3.2735
# 5 2.7778 1.6943 13.4426 0.0000 41.4128 0.0000
# 6 0.0000 -0.0001 0.0000 3.2735 0.0000 28.0190
#
#
#
# Elastic Compliance Matrix: (Units=1/GPa)
#
#
# Indices 1 2 3 4 5 6 
#
# 1 0.012228 -0.002627 -0.002444 0.000000 0.000081 0.000000
# 2 -0.002627 0.010548 -0.001377 0.000000 0.000192 0.000000
# 3 -0.002444 -0.001377 0.009767 0.000000 -0.002950 0.000000
# 4 0.000000 0.000000 0.000000 0.030259 0.000000 -0.003535
# 5 0.000081 0.000192 -0.002950 0.000000 0.025091 0.000000
# 6 0.000000 0.000000 0.000000 -0.003535 0.000000 0.036103
#
#
# Mechanical properties :
#
#
# Convention : Reuss Voigt Hill
#
# Bulk Modulus (GPa) = 50.89586 51.90026 51.39806
# Shear Modulus (GPa) = 34.85751 36.39342 35.62546
#
# Velocity S-wave (km/s) = 4.07295 4.16171 4.11757
# Velocity P-wave (km/s) = 6.80736 6.91323 6.86050
#
# Compressibility (1/GPa) = 0.01964796
#
# Stress axis : x y z
#
# Youngs Moduli (GPa) = 81.77803 94.80513 102.38554
#
# Poissons Ratio (x) = 0.24901 0.25026
# Poissons Ratio (y) = 0.21480 0.14095
# Poissons Ratio (z) = 0.19989 0.13052
#
# Static dielectric constant tensor:
#      x y z
#    x 3.747270 0.000000 0.210900 
#    y 0.000000 4.138460 0.000000 
#    z 0.210900 0.000000 4.805430 
# 
# 
# High freq. dielectric constant tensor:
#      x y z
#    x 1.818990 0.000000 0.010530 
#    y 0.000000 1.838740 0.000000 
#    z 0.010530 0.000000 1.829470 
# 
# From -- ./inp_files/279040.got.cif
#   From: 2010.06.25/outbox.cif.g09.slc.cpg/sg15_140_cif.got.tgz:279040.got - 2010.06.28 07:06:18.
