data_PCOD8153056
_publ_section_title
;
Structure prediction by ZEFSAII (Michael W. Deem and Ramdas Pophale) SiO2 
 PCOD8153056
Probable space group: C 2/C
;
_chemical_formula_sum "Si O2"
_cell_formula_units_Z 56
_cell_length_a 21.217667
_cell_length_b 11.374493
_cell_length_c 24.327239
_cell_angle_alpha 90.000000
_cell_angle_beta 25.546098
_cell_angle_gamma 90.000000
_cell_volume 2531.854003
_symmetry_space_group_name_H-M "C 2/C"
_symmetry_group_IT_number 15
_symmetry_cell_setting 'monoclinic'
loop_
_space_group_symop_operation_xyz
x,y,z
-x,y,1/2-z
-x,-y,-z
x,-y,1/2+z
1/2+x,1/2+y,z
1/2-x,1/2+y,1/2-z
1/2-x,1/2-y,-z
1/2+x,1/2-y,1/2+z
loop_
_atom_site_type_symbol
_atom_site_label
_atom_site_fract_x
_atom_site_fract_y
_atom_site_fract_z
Si Si1 0.595150 0.685264 0.123308
Si Si2 0.417539 0.585254 0.022338
Si Si3 0.620638 0.424707 0.072822
Si Si4 0.089599 0.711122 0.826977
Si Si5 0.073268 0.317908 0.638447
Si Si6 0.605924 0.944476 0.807171
Si Si7 0.413682 0.200293 0.078672
O O1 0.500000 0.729229 0.250000
O O2 0.612073 0.543803 0.114847
O O3 0.514106 0.717629 0.131548
O O4 0.750000 0.750000 0.000000
O O5 0.258653 0.618305 0.171176
O O6 0.500000 0.500000 0.000000
O O7 0.396832 0.534868 0.977061
O O8 0.517649 0.699587 0.936704
O O9 0.512434 0.317463 0.175196
O O10 0.760064 0.346888 0.979115
O O11 0.123050 0.581023 0.779743
O O12 0.241420 0.780060 0.706975
O O13 0.004739 0.700465 0.951159
O O14 0.000000 0.369337 0.750000
O O15 0.028362 0.395830 0.621846
O O16 0.571317 0.921246 0.898961
#
# Coordination Sequence:
#
# PCOD8153056 Si02
#       7
#     8   8   8   8   8   8   8
#     4  12  28  49  71 104 139 186 240 296 360 427
#     4  12  23  42  71 102 141 188 232 288 355 428
#     4  11  25  43  69 101 144 182 233 295 357 420
#     4  12  27  45  73  99 144 186 234 295 359 430
#     4  11  23  42  69 103 137 186 236 292 355 425
#     4  12  25  43  70 103 141 183 239 294 353 426
#     4  12  25  46  66 109 138 187 236 287 362 422
#
# _framework density 22.118179000000001
#
# number of rings (size 3 to 8) (size 9 to 14) (size 15 to 20)
#    0.000    0.286    5.714    3.429    2.000    1.143 
#    0.000    0.000    0.000    0.000    0.000    0.000 
#    0.000    0.000    0.000    0.000    0.000    0.000 
#
# Total GULP energy -346992.152464 kJ/mol
# GULP energy per Si atom -12392.576874 kJ/mol
# Density = 2.206784 g / cm^3
# Si number density = 22.118179 Si / 1000 Ang^3
#
#
#
# Elastic Constant Matrix: (Units=GPa)
#
#
# Indices 1 2 3 4 5 6 
#
# 1 115.7701 32.3923 34.4113 -0.0004 -4.3715 0.0003
# 2 32.3923 101.2652 -1.5155 -0.0010 -10.4871 0.0005
# 3 34.4113 -1.5155 101.5849 -0.0042 3.0777 0.0011
# 4 -0.0004 -0.0010 -0.0042 37.2567 0.0020 7.2102
# 5 -4.3715 -10.4871 3.0777 0.0020 34.5098 -0.0002
# 6 0.0003 0.0005 0.0011 7.2102 -0.0002 38.1319
#
#
#
# Elastic Compliance Matrix: (Units=1/GPa)
#
#
# Indices 1 2 3 4 5 6 
#
# 1 0.010719 -0.003417 -0.003702 0.000000 0.000650 0.000000
# 2 -0.003417 0.011285 0.001238 0.000000 0.002886 0.000000
# 3 -0.003702 0.001238 0.011149 0.000001 -0.001087 -0.000001
# 4 0.000000 0.000000 0.000001 0.027860 -0.000002 -0.005268
# 5 0.000650 0.002886 -0.001087 -0.000002 0.030034 0.000000
# 6 0.000000 0.000000 -0.000001 -0.005268 0.000000 0.027221
#
#
# Mechanical properties :
#
#
# Convention : Reuss Voigt Hill
#
# Bulk Modulus (GPa) = 46.74338 49.91070 48.32704
# Shear Modulus (GPa) = 36.45407 38.86851 37.66129
#
# Velocity S-wave (km/s) = 4.06415 4.19658 4.13089
# Velocity P-wave (km/s) = 6.57285 6.78941 6.68201
#
# Compressibility (1/GPa) = 0.02139340
#
# Stress axis : x y z
#
# Youngs Moduli (GPa) = 93.29609 88.60984 89.69215
#
# Poissons Ratio (x) = 0.30276 0.33200
# Poissons Ratio (y) = 0.31877 -0.11107
# Poissons Ratio (z) = 0.34534 -0.10973
#
# Static dielectric constant tensor:
#      x y z
#    x 4.078730 0.000000 -0.092120 
#    y 0.000000 4.119090 0.000020 
#    z -0.092120 0.000020 3.882110 
# 
# 
# High freq. dielectric constant tensor:
#      x y z
#    x 1.884170 0.000000 -0.001070 
#    y 0.000000 1.875540 0.000000 
#    z -0.001070 0.000000 1.871230 
# 
# From -- ./inp_files/279987.got.cif
#   From: 2010.06.25/outbox.cif.g09.slc.cpg/sg15_140_cif.got.tgz:279987.got - 2010.06.28 07:06:18.
