data_PCOD8153471
_publ_section_title
;
Structure prediction by ZEFSAII (Michael W. Deem and Ramdas Pophale) SiO2 
 PCOD8153471
Probable space group: C 2/C
;
_chemical_formula_sum "Si O2"
_cell_formula_units_Z 40
_cell_length_a 10.302865
_cell_length_b 11.449617
_cell_length_c 14.074085
_cell_angle_alpha 90.000000
_cell_angle_beta 108.376294
_cell_angle_gamma 90.000000
_cell_volume 1575.572307
_symmetry_space_group_name_H-M "C 2/C"
_symmetry_group_IT_number 15
_symmetry_cell_setting 'monoclinic'
loop_
_space_group_symop_operation_xyz
x,y,z
-x,y,1/2-z
-x,-y,-z
x,-y,1/2+z
1/2+x,1/2+y,z
1/2-x,1/2+y,1/2-z
1/2-x,1/2-y,-z
1/2+x,1/2-y,1/2+z
loop_
_atom_site_type_symbol
_atom_site_label
_atom_site_fract_x
_atom_site_fract_y
_atom_site_fract_z
Si Si1 0.252465 0.728766 0.889279
Si Si2 0.098380 0.776299 0.678172
Si Si3 0.998378 0.363592 0.984528
Si Si4 0.110775 0.243406 0.846940
Si Si5 0.947865 0.033249 0.886474
O O1 0.109488 0.749809 0.796879
O O2 0.368651 0.824966 0.889394
O O3 0.305057 0.601717 0.869173
O O4 0.250000 0.750000 0.000000
O O5 0.245049 0.736900 0.671809
O O6 0.993714 0.701695 0.587116
O O7 0.077756 0.914095 0.674424
O O8 0.125378 0.320120 0.948118
O O9 0.000000 0.500000 0.000000
O O10 0.000000 0.300367 0.750000
O O11 0.061814 0.110806 0.859301
O O12 0.000000 0.000000 0.000000
#
# Coordination Sequence:
#
# PCOD8153471 Si02
#       5
#     8   8   8   8   8
#     4  11  27  47  66 106 145 186 244 302 366 436
#     4  12  25  48  76 102 143 199 234 303 375 422
#     4  11  26  46  68 108 140 183 247 296 370 442
#     4  11  23  47  74 103 142 187 246 296 364 446
#     4  11  24  46  72 105 141 185 249 292 358 447
#
# _framework density 25.387598000000001
#
# number of rings (size 3 to 8) (size 9 to 14) (size 15 to 20)
#    0.000    0.800    8.000    0.600    5.600    2.400 
#    0.000    0.000    0.000    0.000    0.000    0.000 
#    0.000    0.000    0.000    0.000    0.000    0.000 
#
# Total GULP energy -247860.902118 kJ/mol
# GULP energy per Si atom -12393.045106 kJ/mol
# Density = 2.532981 g / cm^3
# Si number density = 25.387598 Si / 1000 Ang^3
#
#
#
# Elastic Constant Matrix: (Units=GPa)
#
#
# Indices 1 2 3 4 5 6 
#
# 1 57.8868 34.6710 48.6235 0.0000 12.3078 0.0000
# 2 34.6710 217.1430 70.3647 0.0000 0.4706 0.0000
# 3 48.6235 70.3647 191.0184 0.0000 0.6813 0.0000
# 4 0.0000 0.0000 0.0000 39.2362 0.0000 1.7503
# 5 12.3078 0.4706 0.6813 0.0000 58.2911 0.0000
# 6 0.0000 0.0000 0.0000 1.7503 0.0000 31.9060
#
#
#
# Elastic Compliance Matrix: (Units=1/GPa)
#
#
# Indices 1 2 3 4 5 6 
#
# 1 0.024083 -0.002105 -0.005337 0.000000 -0.005006 0.000000
# 2 -0.002105 0.005414 -0.001460 0.000000 0.000418 0.000000
# 3 -0.005337 -0.001460 0.007128 0.000000 0.001055 0.000000
# 4 0.000000 0.000000 0.000000 0.025549 0.000000 -0.001402
# 5 -0.005006 0.000418 0.001055 0.000000 0.018196 0.000000
# 6 0.000000 0.000000 0.000000 -0.001402 0.000000 0.031419
#
#
# Mechanical properties :
#
#
# Convention : Reuss Voigt Hill
#
# Bulk Modulus (GPa) = 53.13358 85.92964 69.53161
# Shear Modulus (GPa) = 36.80090 46.71260 41.75675
#
# Velocity S-wave (km/s) = 3.81144 4.29415 4.05998
# Velocity P-wave (km/s) = 6.35168 7.64898 7.03032
#
# Compressibility (1/GPa) = 0.01882049
#
# Stress axis : x y z
#
# Youngs Moduli (GPa) = 41.52279 184.72305 140.29922
#
# Poissons Ratio (x) = 0.38885 0.74879
# Poissons Ratio (y) = 0.08741 0.20481
# Poissons Ratio (z) = 0.22161 0.26966
#
# Static dielectric constant tensor:
#      x y z
#    x 4.850250 0.000000 0.191260 
#    y 0.000000 3.266940 0.000000 
#    z 0.191260 0.000000 5.769350 
# 
# 
# High freq. dielectric constant tensor:
#      x y z
#    x 2.045370 0.000000 -0.013920 
#    y 0.000000 1.987800 0.000000 
#    z -0.013920 0.000000 2.054970 
# 
# From -- ./inp_files/151457.got.cif
#   From: 2010.06.25/outbox.cif.g09.slc.cpg/sg15_76_cif.got.tgz:151457.got - 2010.06.28 07:06:18.
