data_PCOD8153235
_publ_section_title
;
Structure prediction by ZEFSAII (Michael W. Deem and Ramdas Pophale) SiO2 
 PCOD8153235
Probable space group: C 2/C
;
_chemical_formula_sum "Si O2"
_cell_formula_units_Z 64
_cell_length_a 9.132591
_cell_length_b 18.484064
_cell_length_c 30.038197
_cell_angle_alpha 90.000000
_cell_angle_beta 38.501545
_cell_angle_gamma 90.000000
_cell_volume 3156.673195
_symmetry_space_group_name_H-M "C 2/C"
_symmetry_group_IT_number 15
_symmetry_cell_setting 'monoclinic'
loop_
_space_group_symop_operation_xyz
x,y,z
-x,y,1/2-z
-x,-y,-z
x,-y,1/2+z
1/2+x,1/2+y,z
1/2-x,1/2+y,1/2-z
1/2-x,1/2-y,-z
1/2+x,1/2-y,1/2+z
loop_
_atom_site_type_symbol
_atom_site_label
_atom_site_fract_x
_atom_site_fract_y
_atom_site_fract_z
Si Si1 0.744948 0.716910 0.573292
Si Si2 0.228628 0.955752 0.430946
Si Si3 0.957061 0.293302 0.713821
Si Si4 0.330654 0.550551 0.396980
Si Si5 0.953674 0.578773 0.560158
Si Si6 0.938324 0.195986 0.563962
Si Si7 0.174305 0.550370 0.172395
Si Si8 0.561972 0.685674 0.183876
O O1 0.533763 0.753392 0.650902
O O2 0.632892 0.681309 0.555837
O O3 0.861205 0.660827 0.580066
O O4 0.941161 0.773910 0.509893
O O5 0.400486 0.938504 0.430546
O O6 0.168251 0.881017 0.421695
O O7 0.363568 0.005287 0.363467
O O8 0.000000 0.000000 0.500000
O O9 0.680643 0.304026 0.783469
O O10 0.000000 0.250178 0.750000
O O11 0.101532 0.367796 0.680000
O O12 0.112922 0.571385 0.479160
O O13 0.561218 0.546172 0.372403
O O14 0.335844 0.608984 0.356200
O O15 0.274057 0.473364 0.387936
O O16 0.740254 0.250317 0.629074
O O17 0.000000 0.515126 0.250000
O O18 0.500000 0.683059 0.250000
#
# Coordination Sequence:
#
# PCOD8153235 Si02
#       8
#     8   8   8   8   8   8   8   8
#     4  11  24  45  66 101 133 175 226 275 339 405
#     4  12  26  43  68 100 132 176 228 279 332 402
#     4  11  24  43  70  98 135 179 225 281 339 408
#     4  11  23  45  67  99 136 176 225 276 336 398
#     4  11  26  41  71  98 134 177 225 287 328 400
#     4  11  26  43  70  96 135 179 221 281 339 401
#     4  11  23  44  67  97 134 180 218 279 342 400
#     4  12  24  44  69 101 135 182 228 276 343 409
#
# _framework density 20.274508999999998
#
# number of rings (size 3 to 8) (size 9 to 14) (size 15 to 20)
#    0.000    0.750    6.250    1.500    5.250    1.000 
#    2.250    0.625    0.000    0.000    0.000    0.000 
#    0.000    0.000    0.000    0.000    0.000    0.000 
#
# Total GULP energy -396772.275041 kJ/mol
# GULP energy per Si atom -12399.133595 kJ/mol
# Density = 2.022836 g / cm^3
# Si number density = 20.274509 Si / 1000 Ang^3
#
#
#
# Elastic Constant Matrix: (Units=GPa)
#
#
# Indices 1 2 3 4 5 6 
#
# 1 99.8172 26.6528 18.1763 0.0053 -2.7204 0.0002
# 2 26.6528 72.5606 32.9894 0.0112 6.7092 0.0008
# 3 18.1763 32.9894 106.6547 0.0363 9.9245 -0.0078
# 4 0.0053 0.0112 0.0363 36.0939 -0.0121 -0.1869
# 5 -2.7204 6.7092 9.9245 -0.0121 41.9208 0.0008
# 6 0.0002 0.0008 -0.0078 -0.1869 0.0008 31.4502
#
#
#
# Elastic Compliance Matrix: (Units=1/GPa)
#
#
# Indices 1 2 3 4 5 6 
#
# 1 0.011255 -0.003887 -0.000861 0.000001 0.001556 0.000000
# 2 -0.003887 0.017463 -0.004556 -0.000001 -0.001968 -0.000001
# 3 -0.000861 -0.004556 0.011114 -0.000010 -0.001958 0.000003
# 4 0.000001 -0.000001 -0.000010 0.027706 0.000011 0.000165
# 5 0.001556 -0.001968 -0.001958 0.000011 0.024734 -0.000001
# 6 0.000000 -0.000001 0.000003 0.000165 -0.000001 0.031797
#
#
# Mechanical properties :
#
#
# Convention : Reuss Voigt Hill
#
# Bulk Modulus (GPa) = 47.11366 48.29660 47.70513
# Shear Modulus (GPa) = 33.38867 35.30726 34.34797
#
# Velocity S-wave (km/s) = 4.06252 4.17761 4.12047
# Velocity P-wave (km/s) = 6.73006 6.86607 6.79841
#
# Compressibility (1/GPa) = 0.02122527
#
# Stress axis : x y z
#
# Youngs Moduli (GPa) = 88.84694 57.26538 89.97602
#
# Poissons Ratio (x) = 0.22258 0.07744
# Poissons Ratio (y) = 0.34533 0.40991
# Poissons Ratio (z) = 0.07647 0.26089
#
# Static dielectric constant tensor:
#      x y z
#    x 3.858350 0.000020 -0.020920 
#    y 0.000020 3.736450 0.000120 
#    z -0.020920 0.000120 4.072760 
# 
# 
# High freq. dielectric constant tensor:
#      x y z
#    x 1.805710 0.000000 0.001460 
#    y 0.000000 1.787900 0.000000 
#    z 0.001460 0.000000 1.803690 
# 
# From -- ./inp_files/308738.got.cif
#   From: 2010.06.25/outbox.cif.g09.slc.cpg/sg15_155_cif.got.tgz:308738.got - 2010.06.28 07:06:18.
