data_PCOD8153823
_publ_section_title
;
Structure prediction by ZEFSAII (Michael W. Deem and Ramdas Pophale) SiO2 
 PCOD8153823
Probable space group: C 2/C
;
_chemical_formula_sum "Si O2"
_cell_formula_units_Z 40
_cell_length_a 13.038404
_cell_length_b 18.974821
_cell_length_c 19.753729
_cell_angle_alpha 90.000000
_cell_angle_beta 158.980685
_cell_angle_gamma 90.000000
_cell_volume 1752.917921
_symmetry_space_group_name_H-M "C 2/C"
_symmetry_group_IT_number 15
_symmetry_cell_setting 'monoclinic'
loop_
_space_group_symop_operation_xyz
x,y,z
-x,y,1/2-z
-x,-y,-z
x,-y,1/2+z
1/2+x,1/2+y,z
1/2-x,1/2+y,1/2-z
1/2-x,1/2-y,-z
1/2+x,1/2-y,1/2+z
loop_
_atom_site_type_symbol
_atom_site_label
_atom_site_fract_x
_atom_site_fract_y
_atom_site_fract_z
Si Si1 0.716068 0.173087 0.320699
Si Si2 0.297305 0.675834 0.063411
Si Si3 0.828000 0.810997 0.292719
Si Si4 0.762101 0.075774 0.231623
Si Si5 0.683986 0.567686 0.800407
O O1 0.500000 0.176085 0.250000
O O2 0.658795 0.232348 0.228514
O O3 0.696064 0.098342 0.268819
O O4 0.026264 0.187980 0.543903
O O5 0.500000 0.691342 0.250000
O O6 0.449334 0.617733 0.110341
O O7 0.250000 0.750000 0.000000
O O8 0.981694 0.651770 0.890679
O O9 0.978534 0.864232 0.331730
O O10 0.812891 0.992176 0.255896
O O11 0.497261 0.092175 0.018709
O O12 0.500000 0.538509 0.750000
#
# Coordination Sequence:
#
# PCOD8153823 Si02
#       5
#     8   8   8   8   8
#     4  12  25  45  70 106 143 187 238 299 353 426
#     4  12  23  42  69 104 141 180 237 302 353 423
#     4  12  24  42  72 104 140 187 237 294 363 417
#     4  11  25  43  69 103 141 185 244 290 357 425
#     4  11  24  45  72 101 140 194 235 293 358 430
#
# _framework density 22.819094
#
# number of rings (size 3 to 8) (size 9 to 14) (size 15 to 20)
#    0.000    0.400    4.000    5.400    2.800    0.800 
#    0.000    0.000    0.000    0.000    0.000    0.000 
#    0.000    0.000    0.000    0.000    0.000    0.000 
#
# Total GULP energy -247948.328441 kJ/mol
# GULP energy per Si atom -12397.416422 kJ/mol
# Density = 2.276716 g / cm^3
# Si number density = 22.819094 Si / 1000 Ang^3
#
#
#
# Elastic Constant Matrix: (Units=GPa)
#
#
# Indices 1 2 3 4 5 6 
#
# 1 95.0490 42.2658 42.3622 -0.0897 1.8200 -0.0084
# 2 42.2658 109.1754 42.0343 -0.0236 -16.2340 0.0216
# 3 42.3622 42.0343 113.1372 -0.2064 -11.8687 -0.0196
# 4 -0.0897 -0.0236 -0.2064 38.6323 -0.0186 -11.8510
# 5 1.8200 -16.2340 -11.8687 -0.0186 45.1618 -0.0191
# 6 -0.0084 0.0216 -0.0196 -11.8510 -0.0191 51.1400
#
#
#
# Elastic Compliance Matrix: (Units=1/GPa)
#
#
# Indices 1 2 3 4 5 6 
#
# 1 0.014391 -0.004493 -0.004062 0.000008 -0.003262 0.000003
# 2 -0.004493 0.012468 -0.002531 -0.000017 0.003998 -0.000010
# 3 -0.004062 -0.002531 0.011540 0.000058 0.002287 0.000019
# 4 0.000008 -0.000017 0.000058 0.027866 0.000023 0.006458
# 5 -0.003262 0.003998 0.002287 0.000023 0.024312 0.000013
# 6 0.000003 -0.000010 0.000019 0.006458 0.000013 0.021051
#
#
# Mechanical properties :
#
#
# Convention : Reuss Voigt Hill
#
# Bulk Modulus (GPa) = 61.61817 63.40955 62.51386
# Shear Modulus (GPa) = 35.91763 39.70012 37.80888
#
# Velocity S-wave (km/s) = 3.97169 4.17559 4.07492
# Velocity P-wave (km/s) = 6.93498 7.14812 7.04236
#
# Compressibility (1/GPa) = 0.01622898
#
# Stress axis : x y z
#
# Youngs Moduli (GPa) = 69.48605 80.20773 86.65649
#
# Poissons Ratio (x) = 0.36035 0.35196
# Poissons Ratio (y) = 0.31218 0.21929
# Poissons Ratio (z) = 0.28222 0.20297
#
# Static dielectric constant tensor:
#      x y z
#    x 4.424880 -0.000840 0.176150 
#    y -0.000840 3.909690 -0.001200 
#    z 0.176150 -0.001200 4.432440 
# 
# 
# High freq. dielectric constant tensor:
#      x y z
#    x 1.907620 -0.000010 0.003450 
#    y -0.000010 1.897690 -0.000040 
#    z 0.003450 -0.000040 1.904330 
# 
# From -- ./inp_files/245237.got.cif
#   From: 2010.06.25/outbox.cif.g09.slc.cpg/sg15_123_cif.got.tgz:245237.got - 2010.06.28 07:06:18.
