data_PCOD8153804
_publ_section_title
;
Structure prediction by ZEFSAII (Michael W. Deem and Ramdas Pophale) SiO2 
 PCOD8153804
Probable space group: C 2/C
;
_chemical_formula_sum "Si O2"
_cell_formula_units_Z 40
_cell_length_a 12.787771
_cell_length_b 6.838844
_cell_length_c 22.924316
_cell_angle_alpha 90.000000
_cell_angle_beta 83.560754
_cell_angle_gamma 90.000000
_cell_volume 1992.165597
_symmetry_space_group_name_H-M "C 2/C"
_symmetry_group_IT_number 15
_symmetry_cell_setting 'monoclinic'
loop_
_space_group_symop_operation_xyz
x,y,z
-x,y,1/2-z
-x,-y,-z
x,-y,1/2+z
1/2+x,1/2+y,z
1/2-x,1/2+y,1/2-z
1/2-x,1/2-y,-z
1/2+x,1/2-y,1/2+z
loop_
_atom_site_type_symbol
_atom_site_label
_atom_site_fract_x
_atom_site_fract_y
_atom_site_fract_z
Si Si1 0.791162 0.951854 0.021035
Si Si2 0.272177 0.062143 0.672140
Si Si3 0.609210 0.597390 0.274790
Si Si4 0.860189 0.235216 0.921842
Si Si5 0.905321 0.792588 0.122008
O O1 0.865598 0.928188 0.072087
O O2 0.688851 0.077093 0.043831
O O3 0.750000 0.750000 0.000000
O O4 0.858730 0.053002 0.966036
O O5 0.358349 0.202413 0.695783
O O6 0.201915 0.189328 0.633266
O O7 0.199938 0.959964 0.724446
O O8 0.330828 0.894507 0.632398
O O9 0.500000 0.642571 0.250000
O O10 0.592658 0.419049 0.319720
O O11 0.978977 0.287737 0.898431
#
# Coordination Sequence:
#
# PCOD8153804 Si02
#       5
#     8   8   8   8   8
#     4  11  24  45  70 101 137 172 221 279 325 399
#     4  12  25  43  68 100 132 175 225 273 328 400
#     4  12  26  43  69  98 132 176 224 277 330 389
#     4  11  25  44  69 100 135 175 223 269 335 394
#     4  12  25  43  71  97 136 178 220 270 338 395
#
# _framework density 20.078652000000002
#
# number of rings (size 3 to 8) (size 9 to 14) (size 15 to 20)
#    0.000    0.400    8.000    0.600    0.000    6.400 
#    0.000    0.000    0.000    0.000    0.000    0.000 
#    0.000    0.000    0.000    0.000    0.000    0.000 
#
# Total GULP energy -248166.627180 kJ/mol
# GULP energy per Si atom -12408.331359 kJ/mol
# Density = 2.003295 g / cm^3
# Si number density = 20.078652 Si / 1000 Ang^3
#
#
#
# Elastic Constant Matrix: (Units=GPa)
#
#
# Indices 1 2 3 4 5 6 
#
# 1 114.2049 24.1088 31.0790 0.0000 -9.7020 0.0000
# 2 24.1088 86.7195 20.8835 0.0000 -1.6522 0.0000
# 3 31.0790 20.8835 90.2262 0.0000 -0.7914 0.0000
# 4 0.0000 0.0000 0.0000 36.0957 0.0000 10.5818
# 5 -9.7020 -1.6522 -0.7914 0.0000 34.4015 0.0000
# 6 0.0000 0.0000 0.0000 10.5818 0.0000 33.7812
#
#
#
# Elastic Compliance Matrix: (Units=1/GPa)
#
#
# Indices 1 2 3 4 5 6 
#
# 1 0.010248 -0.002068 -0.003027 0.000000 0.002721 0.000000
# 2 -0.002068 0.012639 -0.002213 0.000000 -0.000027 0.000000
# 3 -0.003027 -0.002213 0.012632 0.000000 -0.000669 0.000000
# 4 0.000000 0.000000 0.000000 0.030505 0.000000 -0.009556
# 5 0.002721 -0.000027 -0.000669 0.000000 0.029819 0.000000
# 6 0.000000 0.000000 0.000000 -0.009556 0.000000 0.032596
#
#
# Mechanical properties :
#
#
# Convention : Reuss Voigt Hill
#
# Bulk Modulus (GPa) = 47.84301 49.25482 48.54891
# Shear Modulus (GPa) = 33.32803 35.19431 34.26117
#
# Velocity S-wave (km/s) = 4.07857 4.19121 4.13528
# Velocity P-wave (km/s) = 6.78669 6.92863 6.85803
#
# Compressibility (1/GPa) = 0.02090170
#
# Stress axis : x y z
#
# Youngs Moduli (GPa) = 97.58208 79.12117 79.16124
#
# Poissons Ratio (x) = 0.16363 0.23965
# Poissons Ratio (y) = 0.20181 0.17520
# Poissons Ratio (z) = 0.29542 0.17511
#
# Static dielectric constant tensor:
#      x y z
#    x 3.610660 0.000000 0.018180 
#    y 0.000000 3.675440 0.000000 
#    z 0.018180 0.000000 4.036090 
# 
# 
# High freq. dielectric constant tensor:
#      x y z
#    x 1.790950 0.000000 0.002130 
#    y 0.000000 1.790850 0.000000 
#    z 0.002130 0.000000 1.805680 
# 
# From -- ./inp_files/271820.got.cif
#   From: 2010.06.25/outbox.cif.g09.slc.cpg/sg15_136_cif.got.tgz:271820.got - 2010.06.28 07:06:18.
