data_PCOD8153234
_publ_section_title
;
Structure prediction by ZEFSAII (Michael W. Deem and Ramdas Pophale) SiO2 
 PCOD8153234
Probable space group: C 2/C
;
_chemical_formula_sum "Si O2"
_cell_formula_units_Z 60
_cell_length_a 23.421978
_cell_length_b 11.427315
_cell_length_c 21.959204
_cell_angle_alpha 90.000000
_cell_angle_beta 28.184919
_cell_angle_gamma 90.000000
_cell_volume 2776.000712
_symmetry_space_group_name_H-M "C 2/C"
_symmetry_group_IT_number 15
_symmetry_cell_setting 'monoclinic'
loop_
_space_group_symop_operation_xyz
x,y,z
-x,y,1/2-z
-x,-y,-z
x,-y,1/2+z
1/2+x,1/2+y,z
1/2-x,1/2+y,1/2-z
1/2-x,1/2-y,-z
1/2+x,1/2-y,1/2+z
loop_
_atom_site_type_symbol
_atom_site_label
_atom_site_fract_x
_atom_site_fract_y
_atom_site_fract_z
Si Si1 0.895153 0.124237 0.892879
Si Si2 0.815252 0.177724 0.646062
Si Si3 0.000000 0.569640 0.750000
Si Si4 0.517858 0.545150 0.092747
Si Si5 0.937849 0.402866 0.517447
Si Si6 0.158083 0.377466 0.539609
Si Si7 0.733339 0.434979 0.188098
Si Si8 0.907534 0.291546 0.228215
O O1 0.761059 0.119264 0.993197
O O2 0.000000 0.078642 0.750000
O O3 0.894088 0.032421 0.948655
O O4 0.923109 0.259847 0.883008
O O5 0.902226 0.073385 0.541724
O O6 0.906411 0.281802 0.581052
O O7 0.737988 0.141423 0.778103
O O8 0.728171 0.215093 0.671520
O O9 0.074439 0.489563 0.632143
O O10 0.088046 0.653779 0.707635
O O11 0.408088 0.460943 0.178261
O O12 0.469557 0.663454 0.170736
O O13 0.806377 0.445376 0.620523
O O14 0.000000 0.500000 0.500000
O O15 0.019352 0.381417 0.382407
O O16 0.223492 0.369572 0.412839
#
# Coordination Sequence:
#
# PCOD8153234 Si02
#       8
#     8   8   4   8   8   8   8   8
#     4  11  23  45  68  95 138 178 223 285 328 396
#     4  11  25  44  68 101 136 176 226 278 333 403
#     4  12  24  42  70 102 136 180 224 274 336 402
#     4  11  25  45  68 101 135 176 228 275 335 396
#     4  11  23  44  67  94 135 175 220 273 335 396
#     4  11  25  43  67 100 134 177 228 275 336 398
#     4  12  23  43  70  97 134 176 221 277 338 397
#     4  11  24  43  68 100 137 177 223 277 328 403
#
# _framework density 21.613828000000002
#
# number of rings (size 3 to 8) (size 9 to 14) (size 15 to 20)
#    0.000    0.800    6.000    1.200    0.933    2.133 
#    4.800    2.667    0.000    0.000    0.000    0.000 
#    0.000    0.000    0.000    0.000    0.000    0.000 
#
# Total GULP energy -371904.358679 kJ/mol
# GULP energy per Si atom -12396.811956 kJ/mol
# Density = 2.156463 g / cm^3
# Si number density = 21.613828 Si / 1000 Ang^3
#
#
#
# Elastic Constant Matrix: (Units=GPa)
#
#
# Indices 1 2 3 4 5 6 
#
# 1 102.7080 54.1925 27.1671 0.0000 7.5046 0.0000
# 2 54.1925 104.9773 22.6917 0.0001 8.6031 0.0000
# 3 27.1671 22.6917 81.9178 0.0001 1.0030 -0.0001
# 4 0.0000 0.0001 0.0001 26.5898 -0.0001 -2.7222
# 5 7.5046 8.6031 1.0030 -0.0001 26.9223 0.0001
# 6 0.0000 0.0000 -0.0001 -2.7222 0.0001 36.0674
#
#
#
# Elastic Compliance Matrix: (Units=1/GPa)
#
#
# Indices 1 2 3 4 5 6 
#
# 1 0.014039 -0.006492 -0.002836 0.000000 -0.001733 0.000000
# 2 -0.006492 0.013406 -0.001531 0.000000 -0.002417 0.000000
# 3 -0.002836 -0.001531 0.013563 0.000000 0.000775 0.000000
# 4 0.000000 0.000000 0.000000 0.037901 0.000000 0.002861
# 5 -0.001733 -0.002417 0.000775 0.000000 0.038371 0.000000
# 6 0.000000 0.000000 0.000000 0.002861 0.000000 0.027942
#
#
# Mechanical properties :
#
#
# Convention : Reuss Voigt Hill
#
# Bulk Modulus (GPa) = 51.84312 55.30063 53.57188
# Shear Modulus (GPa) = 28.84017 30.28602 29.56309
#
# Velocity S-wave (km/s) = 3.65682 3.74737 3.70237
# Velocity P-wave (km/s) = 6.47055 6.66070 6.56631
#
# Compressibility (1/GPa) = 0.01928896
#
# Stress axis : x y z
#
# Youngs Moduli (GPa) = 71.23208 74.59176 73.73237
#
# Poissons Ratio (x) = 0.48425 0.20912
# Poissons Ratio (y) = 0.46244 0.11288
# Poissons Ratio (z) = 0.20203 0.11420
#
# Static dielectric constant tensor:
#      x y z
#    x 3.833170 0.000000 -0.052860 
#    y 0.000000 3.996740 0.000000 
#    z -0.052860 0.000000 3.832180 
# 
# 
# High freq. dielectric constant tensor:
#      x y z
#    x 1.843050 0.000000 -0.007960 
#    y 0.000000 1.856620 0.000000 
#    z -0.007960 0.000000 1.850400 
# 
# From -- ./inp_files/255537.got.cif
#   From: 2010.06.25/outbox.cif.g09.slc.cpg/sg15_128_cif.got.tgz:255537.got - 2010.06.28 07:06:18.
