data_PCOD8153999
_publ_section_title
;
Structure prediction by ZEFSAII (Michael W. Deem and Ramdas Pophale) SiO2 
 PCOD8153999
Probable space group: C 2/C
;
_chemical_formula_sum "Si O2"
_cell_formula_units_Z 64
_cell_length_a 8.696594
_cell_length_b 28.344458
_cell_length_c 16.629268
_cell_angle_alpha 90.000000
_cell_angle_beta 46.034635
_cell_angle_gamma 90.000000
_cell_volume 2950.379914
_symmetry_space_group_name_H-M "C 2/C"
_symmetry_group_IT_number 15
_symmetry_cell_setting 'monoclinic'
loop_
_space_group_symop_operation_xyz
x,y,z
-x,y,1/2-z
-x,-y,-z
x,-y,1/2+z
1/2+x,1/2+y,z
1/2-x,1/2+y,1/2-z
1/2-x,1/2-y,-z
1/2+x,1/2-y,1/2+z
loop_
_atom_site_type_symbol
_atom_site_label
_atom_site_fract_x
_atom_site_fract_y
_atom_site_fract_z
Si Si1 0.827724 0.310706 0.742872
Si Si2 0.759052 0.280271 0.310652
Si Si3 0.234706 0.901893 0.686796
Si Si4 0.876877 0.604607 0.964462
Si Si5 0.325411 0.371079 0.245078
Si Si6 0.248287 0.531468 0.172787
Si Si7 0.853260 0.800423 0.980769
Si Si8 0.075833 0.933639 0.438195
O O1 0.863368 0.267524 0.668639
O O2 0.862389 0.359827 0.684252
O O3 0.589578 0.305728 0.862314
O O4 0.000000 0.307587 0.750000
O O5 0.753742 0.317449 0.239694
O O6 0.631341 0.305252 0.428983
O O7 0.000000 0.268539 0.250000
O O8 0.355796 0.917726 0.561280
O O9 0.212922 0.946263 0.753867
O O10 0.000000 0.882941 0.750000
O O11 0.746063 0.574924 0.946954
O O12 0.121102 0.599678 0.848599
O O13 0.795666 0.658502 0.000751
O O14 0.500000 0.372082 0.250000
O O15 0.422405 0.392403 0.127997
O O16 0.372675 0.482099 0.126282
O O17 0.000000 0.523770 0.250000
O O18 0.344091 0.564360 0.066219
O O19 0.750000 0.750000 0.000000
#
# Coordination Sequence:
#
# PCOD8153999 Si02
#       8
#     8   8   8   8   8   8   8   8
#     4  12  26  42  63  99 139 176 226 288 342 399
#     4  12  22  41  68  93 134 181 232 274 336 409
#     4  12  24  43  70 101 134 177 230 280 343 414
#     4  12  23  44  71  97 134 186 227 277 342 416
#     4  12  26  42  67 102 137 175 228 282 341 402
#     4  11  25  45  73 102 137 176 227 285 346 399
#     4  12  22  38  69  95 129 180 229 274 333 407
#     4  11  24  48  71  99 138 184 224 278 345 414
#
# _framework density 21.692122000000001
#
# number of rings (size 3 to 8) (size 9 to 14) (size 15 to 20)
#    0.000    0.250    6.250    3.000    1.750    2.000 
#    0.000    1.250    0.000    0.000    0.000    0.000 
#    0.000    0.000    0.000    0.000    0.000    0.000 
#
# Total GULP energy -396924.501727 kJ/mol
# GULP energy per Si atom -12403.890679 kJ/mol
# Density = 2.164275 g / cm^3
# Si number density = 21.692122 Si / 1000 Ang^3
#
#
#
# Elastic Constant Matrix: (Units=GPa)
#
#
# Indices 1 2 3 4 5 6 
#
# 1 121.5766 36.1122 31.9161 0.0000 17.5325 0.0000
# 2 36.1122 96.4828 10.2871 0.0000 21.3812 0.0000
# 3 31.9161 10.2871 97.0176 0.0000 19.4758 0.0000
# 4 0.0000 0.0000 0.0000 31.7091 0.0000 9.4325
# 5 17.5325 21.3812 19.4758 0.0000 39.2552 0.0000
# 6 0.0000 0.0000 0.0000 9.4325 0.0000 34.4841
#
#
#
# Elastic Compliance Matrix: (Units=1/GPa)
#
#
# Indices 1 2 3 4 5 6 
#
# 1 0.010080 -0.003166 -0.002691 0.000000 -0.001442 0.000000
# 2 -0.003166 0.012782 0.000889 0.000000 -0.005989 0.000000
# 3 -0.002691 0.000889 0.012166 0.000000 -0.005318 0.000000
# 4 0.000000 0.000000 0.000000 0.034330 0.000000 -0.009390
# 5 -0.001442 -0.005989 -0.005318 0.000000 0.032019 0.000000
# 6 0.000000 0.000000 0.000000 -0.009390 0.000000 0.031567
#
#
# Mechanical properties :
#
#
# Convention : Reuss Voigt Hill
#
# Bulk Modulus (GPa) = 39.85493 52.41198 46.13345
# Shear Modulus (GPa) = 33.05883 36.87378 34.96631
#
# Velocity S-wave (km/s) = 3.90808 4.12742 4.01925
# Velocity P-wave (km/s) = 6.22712 6.85043 6.54620
#
# Compressibility (1/GPa) = 0.02509100
#
# Stress axis : x y z
#
# Youngs Moduli (GPa) = 99.20467 78.23474 82.19639
#
# Poissons Ratio (x) = 0.24772 0.22117
# Poissons Ratio (y) = 0.31411 -0.07303
# Poissons Ratio (z) = 0.26694 -0.06951
#
# Static dielectric constant tensor:
#      x y z
#    x 4.249510 0.000000 -0.052090 
#    y 0.000000 4.003560 0.000000 
#    z -0.052090 0.000000 4.786400 
# 
# 
# High freq. dielectric constant tensor:
#      x y z
#    x 1.845480 0.000000 0.012690 
#    y 0.000000 1.853940 0.000000 
#    z 0.012690 0.000000 1.865840 
# 
# From -- ./inp_files/194219.got.cif
#   From: 2010.06.25/outbox.cif.g09.slc.cpg/sg15_98_cif.got.tgz:194219.got - 2010.06.28 07:06:18.
