data_PCOD8153112
_publ_section_title
;
Structure prediction by ZEFSAII (Michael W. Deem and Ramdas Pophale) SiO2 
 PCOD8153112
Probable space group: C 2/C
;
_chemical_formula_sum "Si O2"
_cell_formula_units_Z 44
_cell_length_a 14.455667
_cell_length_b 7.820611
_cell_length_c 19.747226
_cell_angle_alpha 90.000000
_cell_angle_beta 118.350266
_cell_angle_gamma 90.000000
_cell_volume 1964.706754
_symmetry_space_group_name_H-M "C 2/C"
_symmetry_group_IT_number 15
_symmetry_cell_setting 'monoclinic'
loop_
_space_group_symop_operation_xyz
x,y,z
-x,y,1/2-z
-x,-y,-z
x,-y,1/2+z
1/2+x,1/2+y,z
1/2-x,1/2+y,1/2-z
1/2-x,1/2-y,-z
1/2+x,1/2-y,1/2+z
loop_
_atom_site_type_symbol
_atom_site_label
_atom_site_fract_x
_atom_site_fract_y
_atom_site_fract_z
Si Si1 0.233461 0.840162 0.839938
Si Si2 0.868066 0.912448 0.296145
Si Si3 0.109530 0.920046 0.562725
Si Si4 0.613303 0.040305 0.514403
Si Si5 0.000000 0.701063 0.250000
Si Si6 0.160368 0.467862 0.378275
O O1 0.293312 0.726185 0.805267
O O2 0.308131 0.908430 0.924657
O O3 0.142380 0.726967 0.845444
O O4 0.186374 0.006410 0.788131
O O5 0.972089 0.815692 0.305821
O O6 0.897946 0.065873 0.358188
O O7 0.135156 0.734113 0.543039
O O8 0.212418 0.023308 0.574936
O O9 0.000000 0.000000 0.500000
O O10 0.613084 0.009699 0.434351
O O11 0.500000 0.000000 0.500000
O O12 0.896581 0.590517 0.195845
#
# Coordination Sequence:
#
# PCOD8153112 Si02
#       6
#     8   8   8   8   4   8
#     4  11  23  43  65  93 131 176 222 273 327 394
#     4  11  24  42  65  95 129 173 221 271 332 394
#     4  11  24  44  68  95 132 177 222 272 328 393
#     4  12  24  40  67  99 133 173 219 275 332 394
#     4  12  24  42  66  98 134 174 218 276 334 394
#     4  11  25  44  66  95 133 175 220 272 329 394
#
# _framework density 22.395199999999999
#
# number of rings (size 3 to 8) (size 9 to 14) (size 15 to 20)
#    0.000    0.727    0.000    9.818    0.000    5.091 
#    0.000    0.000    0.000    0.000    0.000    0.000 
#    0.000    0.000    0.000    0.000    0.000    0.000 
#
# Total GULP energy -272734.862063 kJ/mol
# GULP energy per Si atom -12397.039185 kJ/mol
# Density = 2.234423 g / cm^3
# Si number density = 22.395200 Si / 1000 Ang^3
#
#
#
# Elastic Constant Matrix: (Units=GPa)
#
#
# Indices 1 2 3 4 5 6 
#
# 1 112.0790 31.8767 40.4868 0.0000 -11.3092 0.0000
# 2 31.8767 116.7586 31.0862 0.0000 -18.9943 0.0000
# 3 40.4868 31.0862 101.6560 0.0000 -16.0373 0.0000
# 4 0.0000 0.0000 0.0000 44.4724 0.0000 -6.2400
# 5 -11.3092 -18.9943 -16.0373 0.0000 34.7011 0.0000
# 6 0.0000 0.0000 0.0000 -6.2400 0.0000 42.8660
#
#
#
# Elastic Compliance Matrix: (Units=1/GPa)
#
#
# Indices 1 2 3 4 5 6 
#
# 1 0.010843 -0.001860 -0.003616 0.000000 0.000844 0.000000
# 2 -0.001860 0.010212 -0.001721 0.000000 0.004188 0.000000
# 3 -0.003616 -0.001721 0.012371 0.000000 0.003597 0.000000
# 4 0.000000 0.000000 0.000000 0.022955 0.000000 0.003342
# 5 0.000844 0.004188 0.003597 0.000000 0.033047 0.000000
# 6 0.000000 0.000000 0.000000 0.003342 0.000000 0.023815
#
#
# Mechanical properties :
#
#
# Convention : Reuss Voigt Hill
#
# Bulk Modulus (GPa) = 52.54706 59.71034 56.12870
# Shear Modulus (GPa) = 37.31838 39.54416 38.43127
#
# Velocity S-wave (km/s) = 4.08653 4.20663 4.14702
# Velocity P-wave (km/s) = 6.76615 7.09326 6.93164
#
# Compressibility (1/GPa) = 0.01903056
#
# Stress axis : x y z
#
# Youngs Moduli (GPa) = 92.22651 97.92306 80.83283
#
# Poissons Ratio (x) = 0.18214 0.29233
# Poissons Ratio (y) = 0.17155 0.13914
# Poissons Ratio (z) = 0.33353 0.16856
#
# Static dielectric constant tensor:
#      x y z
#    x 4.012610 0.000000 -0.045560 
#    y 0.000000 3.835040 0.000000 
#    z -0.045560 0.000000 3.580660 
# 
# 
# High freq. dielectric constant tensor:
#      x y z
#    x 1.882270 0.000000 -0.006050 
#    y 0.000000 1.897450 0.000000 
#    z -0.006050 0.000000 1.892730 
# 
# From -- ./inp_files/202785.got.cif
#   From: 2010.06.25/outbox.cif.g09.slc.cpg/sg15_102_cif.got.tgz:202785.got - 2010.06.28 07:06:18.
