data_PCOD8153053
_publ_section_title
;
Structure prediction by ZEFSAII (Michael W. Deem and Ramdas Pophale) SiO2 
 PCOD8153053
Probable space group: C 2/C
;
_chemical_formula_sum "Si O2"
_cell_formula_units_Z 48
_cell_length_a 23.245621
_cell_length_b 9.261821
_cell_length_c 14.157625
_cell_angle_alpha 90.000000
_cell_angle_beta 132.210673
_cell_angle_gamma 90.000000
_cell_volume 2257.658447
_symmetry_space_group_name_H-M "C 2/C"
_symmetry_group_IT_number 15
_symmetry_cell_setting 'monoclinic'
loop_
_space_group_symop_operation_xyz
x,y,z
-x,y,1/2-z
-x,-y,-z
x,-y,1/2+z
1/2+x,1/2+y,z
1/2-x,1/2+y,1/2-z
1/2-x,1/2-y,-z
1/2+x,1/2-y,1/2+z
loop_
_atom_site_type_symbol
_atom_site_label
_atom_site_fract_x
_atom_site_fract_y
_atom_site_fract_z
Si Si1 0.970031 0.456858 0.568834
Si Si2 0.000000 0.768484 0.250000
Si Si3 0.320920 0.114724 0.810281
Si Si4 0.334172 0.705457 0.138784
Si Si5 0.774907 0.682607 0.175345
Si Si6 0.000000 0.694619 0.750000
Si Si7 0.344120 0.389617 0.107262
O O1 0.884157 0.389941 0.463535
O O2 0.000000 0.500000 0.500000
O O3 0.015871 0.331566 0.675248
O O4 0.975540 0.602510 0.633085
O O5 0.930500 0.880209 0.163802
O O6 0.347105 0.208042 0.749409
O O7 0.246269 0.191160 0.773638
O O8 0.313352 0.947710 0.774093
O O9 0.416999 0.722139 0.174298
O O10 0.326635 0.534262 0.147550
O O11 0.250000 0.750000 0.000000
O O12 0.830604 0.750858 0.158316
O O13 0.703987 0.610539 0.042197
#
# Coordination Sequence:
#
# PCOD8153053 Si02
#       7
#     8   4   8   8   8   4   8
#     4  11  23  42  69 101 138 182 236 289 348 416
#     4  11  23  44  68  94 144 184 224 288 352 420
#     4  12  24  44  69 103 135 181 237 288 346 424
#     4  12  26  46  70 102 145 182 233 293 352 417
#     4  11  25  41  70  99 136 179 230 285 343 420
#     4  11  27  42  72 106 140 188 234 292 354 418
#     4  11  24  44  66  98 138 182 224 281 355 416
#
# _framework density 21.260966
#
# number of rings (size 3 to 8) (size 9 to 14) (size 15 to 20)
#    0.000    0.667    5.000    2.500    7.000    0.000 
#    0.000    0.833    0.000    0.000    0.000    0.000 
#    0.000    0.000    0.000    0.000    0.000    0.000 
#
# Total GULP energy -297318.990999 kJ/mol
# GULP energy per Si atom -12388.291292 kJ/mol
# Density = 2.121257 g / cm^3
# Si number density = 21.260966 Si / 1000 Ang^3
#
#
#
# Elastic Constant Matrix: (Units=GPa)
#
#
# Indices 1 2 3 4 5 6 
#
# 1 81.4469 13.3443 32.0082 0.0000 8.1083 0.0000
# 2 13.3443 110.4407 34.7946 0.0000 0.8411 0.0000
# 3 32.0082 34.7946 103.2422 0.0000 6.9367 0.0000
# 4 0.0000 0.0000 0.0000 27.4778 0.0000 -0.5100
# 5 8.1083 0.8411 6.9367 0.0000 45.4332 0.0000
# 6 0.0000 0.0000 0.0000 -0.5100 0.0000 34.5689
#
#
#
# Elastic Compliance Matrix: (Units=1/GPa)
#
#
# Indices 1 2 3 4 5 6 
#
# 1 0.014153 -0.000395 -0.004128 0.000000 -0.001888 0.000000
# 2 -0.000395 0.010146 -0.003323 0.000000 0.000390 0.000000
# 3 -0.004128 -0.003323 0.012157 0.000000 -0.001058 0.000000
# 4 0.000000 0.000000 0.000000 0.036403 0.000000 0.000537
# 5 -0.001888 0.000390 -0.001058 0.000000 0.022502 0.000000
# 6 0.000000 0.000000 0.000000 0.000537 0.000000 0.028936
#
#
# Mechanical properties :
#
#
# Convention : Reuss Voigt Hill
#
# Bulk Modulus (GPa) = 48.16108 50.60267 49.38187
# Shear Modulus (GPa) = 34.03447 35.82816 34.93132
#
# Velocity S-wave (km/s) = 4.00534 4.10953 4.05776
# Velocity P-wave (km/s) = 6.64017 6.80955 6.72539
#
# Compressibility (1/GPa) = 0.02076366
#
# Stress axis : x y z
#
# Youngs Moduli (GPa) = 70.65713 98.55715 82.25886
#
# Poissons Ratio (x) = 0.03895 0.33954
# Poissons Ratio (y) = 0.02792 0.27336
# Poissons Ratio (z) = 0.29165 0.32753
#
# Static dielectric constant tensor:
#      x y z
#    x 4.013080 0.000000 0.189010 
#    y 0.000000 4.076220 0.000000 
#    z 0.189010 0.000000 3.773840 
# 
# 
# High freq. dielectric constant tensor:
#      x y z
#    x 1.836060 0.000000 0.005200 
#    y 0.000000 1.839720 0.000000 
#    z 0.005200 0.000000 1.843000 
# 
# From -- ./inp_files/176919.got.cif
#   From: 2010.06.25/outbox.cif.g09.slc.cpg/sg15_89_cif.got.tgz:176919.got - 2010.06.28 07:06:18.
