data_PCOD8153324
_publ_section_title
;
Structure prediction by ZEFSAII (Michael W. Deem and Ramdas Pophale) SiO2 
 PCOD8153324
Probable space group: C 2/C
;
_chemical_formula_sum "Si O2"
_cell_formula_units_Z 48
_cell_length_a 29.191541
_cell_length_b 13.575916
_cell_length_c 9.703524
_cell_angle_alpha 90.000000
_cell_angle_beta 35.587578
_cell_angle_gamma 90.000000
_cell_volume 2237.890524
_symmetry_space_group_name_H-M "C 2/C"
_symmetry_group_IT_number 15
_symmetry_cell_setting 'monoclinic'
loop_
_space_group_symop_operation_xyz
x,y,z
-x,y,1/2-z
-x,-y,-z
x,-y,1/2+z
1/2+x,1/2+y,z
1/2-x,1/2+y,1/2-z
1/2-x,1/2-y,-z
1/2+x,1/2-y,1/2+z
loop_
_atom_site_type_symbol
_atom_site_label
_atom_site_fract_x
_atom_site_fract_y
_atom_site_fract_z
Si Si1 0.821387 0.584660 0.315150
Si Si2 0.646411 0.586007 0.632491
Si Si3 0.912629 0.224802 0.508320
Si Si4 0.408912 0.710377 0.975415
Si Si5 0.665895 0.092761 0.900030
Si Si6 0.339515 0.361516 0.919293
O O1 0.733619 0.604977 0.476627
O O2 0.873099 0.681787 0.175997
O O3 0.819215 0.554161 0.481172
O O4 0.862089 0.498758 0.125348
O O5 0.583804 0.637401 0.887676
O O6 0.640158 0.633749 0.497028
O O7 0.624919 0.471423 0.674348
O O8 0.860499 0.191396 0.508781
O O9 0.000000 0.252618 0.250000
O O10 0.500000 0.681485 0.750000
O O11 0.399463 0.821956 0.943740
O O12 0.375140 0.704108 0.211214
O O13 0.745546 0.135625 0.638457
#
# Coordination Sequence:
#
# PCOD8153324 Si02
#       6
#     8   8   8   8   8   8
#     4  11  25  45  72  96 128 174 223 281 322 385
#     4  11  23  45  67  94 136 172 221 269 324 386
#     4  12  24  42  67  98 134 175 215 267 337 393
#     4  12  26  43  66 100 140 174 214 272 330 391
#     4  11  25  46  70  97 129 172 228 276 323 384
#     4  11  25  40  70 100 127 178 221 267 325 392
#
# _framework density 21.448772000000002
#
# number of rings (size 3 to 8) (size 9 to 14) (size 15 to 20)
#    0.000    0.667    3.333    4.000    9.333    4.667 
#    0.000    1.667    0.000    0.000    0.000    0.000 
#    0.000    0.000    0.000    0.000    0.000    0.000 
#
# Total GULP energy -297798.766492 kJ/mol
# GULP energy per Si atom -12408.281937 kJ/mol
# Density = 2.139995 g / cm^3
# Si number density = 21.448772 Si / 1000 Ang^3
#
#
#
# Elastic Constant Matrix: (Units=GPa)
#
#
# Indices 1 2 3 4 5 6 
#
# 1 52.9928 40.2584 20.4901 0.0000 17.1605 0.0000
# 2 40.2584 90.9278 19.7237 0.0000 7.1746 0.0000
# 3 20.4901 19.7237 82.6588 0.0000 12.7585 0.0000
# 4 0.0000 0.0000 0.0000 32.7695 0.0000 14.5023
# 5 17.1605 7.1746 12.7585 0.0000 32.7659 0.0000
# 6 0.0000 0.0000 0.0000 14.5023 0.0000 25.1839
#
#
#
# Elastic Compliance Matrix: (Units=1/GPa)
#
#
# Indices 1 2 3 4 5 6 
#
# 1 0.035140 -0.013738 -0.003252 0.000000 -0.014130 0.000000
# 2 -0.013738 0.017044 -0.001272 0.000000 0.003958 0.000000
# 3 -0.003252 -0.001272 0.013727 0.000000 -0.003363 0.000000
# 4 0.000000 0.000000 0.000000 0.040953 0.000000 -0.023583
# 5 -0.014130 0.003958 -0.003363 0.000000 0.038362 0.000000
# 6 0.000000 0.000000 0.000000 -0.023583 0.000000 0.053288
#
#
# Mechanical properties :
#
#
# Convention : Reuss Voigt Hill
#
# Bulk Modulus (GPa) = 34.02955 43.05819 38.54387
# Shear Modulus (GPa) = 20.42192 27.88432 24.15312
#
# Velocity S-wave (km/s) = 3.08900 3.60952 3.35936
# Velocity P-wave (km/s) = 5.35000 6.12291 5.74946
#
# Compressibility (1/GPa) = 0.02938623
#
# Stress axis : x y z
#
# Youngs Moduli (GPa) = 28.45748 58.67175 72.85044
#
# Poissons Ratio (x) = 0.80604 0.23689
# Poissons Ratio (y) = 0.39095 0.09270
# Poissons Ratio (z) = 0.09254 0.07466
#
# Static dielectric constant tensor:
#      x y z
#    x 3.903630 0.000000 0.197310 
#    y 0.000000 3.962580 0.000000 
#    z 0.197310 0.000000 3.813500 
# 
# 
# High freq. dielectric constant tensor:
#      x y z
#    x 1.846430 0.000000 0.017820 
#    y 0.000000 1.846400 0.000000 
#    z 0.017820 0.000000 1.842480 
# 
# From -- ./inp_files/66413.got.cif
#   From: 2010.06.25/outbox.cif.g09.slc.cpg/sg15_34_cif.got.tgz:66413.got - 2010.06.28 07:06:18.
