data_PCOD8153038
_publ_section_title
;
Structure prediction by ZEFSAII (Michael W. Deem and Ramdas Pophale) SiO2 
 PCOD8153038
Probable space group: C 2/C
;
_chemical_formula_sum "Si O2"
_cell_formula_units_Z 56
_cell_length_a 16.984294
_cell_length_b 5.527355
_cell_length_c 26.882736
_cell_angle_alpha 90.000000
_cell_angle_beta 117.755642
_cell_angle_gamma 90.000000
_cell_volume 2233.330648
_symmetry_space_group_name_H-M "C 2/C"
_symmetry_group_IT_number 15
_symmetry_cell_setting 'monoclinic'
loop_
_space_group_symop_operation_xyz
x,y,z
-x,y,1/2-z
-x,-y,-z
x,-y,1/2+z
1/2+x,1/2+y,z
1/2-x,1/2+y,1/2-z
1/2-x,1/2-y,-z
1/2+x,1/2-y,1/2+z
loop_
_atom_site_type_symbol
_atom_site_label
_atom_site_fract_x
_atom_site_fract_y
_atom_site_fract_z
Si Si1 0.892668 0.035451 0.909102
Si Si2 0.943588 0.725560 0.838271
Si Si3 0.938873 0.299118 0.507086
Si Si4 0.941896 0.928811 0.188827
Si Si5 0.208106 0.292472 0.355541
Si Si6 0.393959 0.042376 0.092334
Si Si7 0.705398 0.022380 0.254376
O O1 0.880786 0.905206 0.851962
O O2 0.815830 0.243487 0.890179
O O3 0.878957 0.840736 0.949314
O O4 0.992514 0.130303 0.942515
O O5 0.889665 0.499650 0.800178
O O6 0.991403 0.857366 0.806750
O O7 0.019019 0.615810 0.895894
O O8 0.866555 0.379314 0.528208
O O9 0.000000 0.500000 0.500000
O O10 0.846268 0.051396 0.176658
O O11 0.000000 0.800020 0.250000
O O12 0.922570 0.756403 0.137282
O O13 0.179700 0.379812 0.402221
O O14 0.191310 0.507689 0.310135
O O15 0.757341 0.778674 0.252202
#
# Coordination Sequence:
#
# PCOD8153038 Si02
#       7
#     8   8   8   8   8   8   8
#     4  11  24  46  70 103 138 183 251 303 369 439
#     4  11  23  42  68 102 140 191 239 296 359 450
#     4  11  24  45  76  98 131 189 248 307 370 442
#     4  11  24  42  66  98 149 192 231 287 370 448
#     4  11  27  43  66 109 145 187 236 304 370 436
#     4  11  26  43  70 101 142 188 244 302 370 439
#     4  12  28  43  71 111 152 195 244 303 369 442
#
# _framework density 25.074656999999998
#
# number of rings (size 3 to 8) (size 9 to 14) (size 15 to 20)
#    0.000    0.857    5.714    0.000    8.000    1.714 
#    0.000    1.429    0.000    0.000    0.000    0.000 
#    0.000    0.000    0.000    0.000    0.000    0.000 
#
# Total GULP energy -347002.083374 kJ/mol
# GULP energy per Si atom -12392.931549 kJ/mol
# Density = 2.501759 g / cm^3
# Si number density = 25.074657 Si / 1000 Ang^3
#
#
#
# Elastic Constant Matrix: (Units=GPa)
#
#
# Indices 1 2 3 4 5 6 
#
# 1 97.9194 11.0319 17.2722 0.0000 -7.3879 0.0000
# 2 11.0319 62.4606 -6.8146 0.0002 -5.9335 0.0001
# 3 17.2722 -6.8146 66.0369 0.0001 -16.0421 0.0000
# 4 0.0000 0.0002 0.0001 35.5492 0.0000 -5.1421
# 5 -7.3879 -5.9335 -16.0421 0.0000 47.8920 0.0000
# 6 0.0000 0.0001 0.0000 -5.1421 0.0000 25.0813
#
#
#
# Elastic Compliance Matrix: (Units=1/GPa)
#
#
# Indices 1 2 3 4 5 6 
#
# 1 0.011028 -0.002237 -0.003015 0.000000 0.000414 0.000000
# 2 -0.002237 0.016997 0.003012 0.000000 0.002770 0.000000
# 3 -0.003015 0.003012 0.017657 0.000000 0.005823 0.000000
# 4 0.000000 0.000000 0.000000 0.028990 0.000000 0.005943
# 5 0.000414 0.002770 0.005823 0.000000 0.023238 0.000000
# 6 0.000000 0.000000 0.000000 0.005943 0.000000 0.041089
#
#
# Mechanical properties :
#
#
# Convention : Reuss Voigt Hill
#
# Bulk Modulus (GPa) = 24.27093 29.93288 27.10190
# Shear Modulus (GPa) = 31.80438 35.36633 33.58536
#
# Velocity S-wave (km/s) = 3.56531 3.75966 3.66377
# Velocity P-wave (km/s) = 5.16227 5.55069 5.36000
#
# Compressibility (1/GPa) = 0.04120156
#
# Stress axis : x y z
#
# Youngs Moduli (GPa) = 90.68213 58.83404 56.63549
#
# Poissons Ratio (x) = 0.13163 0.17073
# Poissons Ratio (y) = 0.20288 -0.17058
# Poissons Ratio (z) = 0.27337 -0.17721
#
# Static dielectric constant tensor:
#      x y z
#    x 4.577060 0.000000 -0.077960 
#    y 0.000000 4.432550 0.000000 
#    z -0.077960 0.000000 4.672870 
# 
# 
# High freq. dielectric constant tensor:
#      x y z
#    x 2.001480 0.000000 -0.014710 
#    y 0.000000 1.987830 0.000000 
#    z -0.014710 0.000000 2.000380 
# 
# From -- ./inp_files/315011.got.cif
#   From: 2010.06.25/outbox.cif.g09.slc.cpg/sg15_158_cif.got.tgz:315011.got - 2010.06.28 07:06:18.
