data_PCOD8153806
_publ_section_title
;
Structure prediction by ZEFSAII (Michael W. Deem and Ramdas Pophale) SiO2 
 PCOD8153806
Probable space group: C 2/C
;
_chemical_formula_sum "Si O2"
_cell_formula_units_Z 52
_cell_length_a 9.065990
_cell_length_b 15.060252
_cell_length_c 19.852596
_cell_angle_alpha 90.000000
_cell_angle_beta 115.774474
_cell_angle_gamma 90.000000
_cell_volume 2440.925728
_symmetry_space_group_name_H-M "C 2/C"
_symmetry_group_IT_number 15
_symmetry_cell_setting 'monoclinic'
loop_
_space_group_symop_operation_xyz
x,y,z
-x,y,1/2-z
-x,-y,-z
x,-y,1/2+z
1/2+x,1/2+y,z
1/2-x,1/2+y,1/2-z
1/2-x,1/2-y,-z
1/2+x,1/2-y,1/2+z
loop_
_atom_site_type_symbol
_atom_site_label
_atom_site_fract_x
_atom_site_fract_y
_atom_site_fract_z
Si Si1 0.093312 0.323366 0.637771
Si Si2 0.500000 0.288333 0.250000
Si Si3 0.595922 0.750952 0.016221
Si Si4 0.318759 0.891213 0.356740
Si Si5 0.418576 0.557948 0.426628
Si Si6 0.621224 0.441473 0.833226
Si Si7 0.941808 0.511799 0.164982
O O1 0.038755 0.268776 0.692049
O O2 0.284905 0.351753 0.672963
O O3 0.060334 0.267582 0.562995
O O4 0.986870 0.413495 0.618826
O O5 0.664933 0.345095 0.290239
O O6 0.750000 0.750000 0.000000
O O7 0.601311 0.829115 0.071538
O O8 0.601466 0.657242 0.052829
O O9 0.466016 0.918777 0.334525
O O10 0.250915 0.981455 0.375802
O O11 0.500000 0.500000 0.500000
O O12 0.526061 0.572554 0.382552
O O13 0.254177 0.504729 0.373944
O O14 0.500000 0.471536 0.750000
O O15 0.000000 0.543421 0.250000
#
# Coordination Sequence:
#
# PCOD8153806 Si02
#       7
#     8   4   8   8   8   8   8
#     4  11  25  43  77  94 140 179 238 284 354 419
#     4  12  22  44  70 106 132 190 230 308 346 414
#     4  12  24  45  67 103 132 186 232 283 349 420
#     4  11  25  42  73  98 137 177 238 282 348 418
#     4  12  27  46  72 101 147 184 234 294 357 422
#     4  11  26  46  69 105 138 184 231 291 357 418
#     4  11  24  45  70 102 135 187 231 285 354 428
#
# _framework density 21.303394000000001
#
# number of rings (size 3 to 8) (size 9 to 14) (size 15 to 20)
#    0.000    0.615    4.615    2.769    4.308    1.846 
#    2.769    0.000    0.000    0.000    0.000    0.000 
#    0.000    0.000    0.000    0.000    0.000    0.000 
#
# Total GULP energy -322300.122185 kJ/mol
# GULP energy per Si atom -12396.158546 kJ/mol
# Density = 2.125491 g / cm^3
# Si number density = 21.303394 Si / 1000 Ang^3
#
#
#
# Elastic Constant Matrix: (Units=GPa)
#
#
# Indices 1 2 3 4 5 6 
#
# 1 127.5735 56.4049 45.4007 0.0000 3.4826 0.0000
# 2 56.4049 115.2861 52.8722 0.0000 -2.9904 0.0000
# 3 45.4007 52.8722 132.9183 0.0000 5.6321 0.0000
# 4 0.0000 0.0000 0.0000 38.8325 0.0000 -0.7653
# 5 3.4826 -2.9904 5.6321 0.0000 35.8101 0.0000
# 6 0.0000 0.0000 0.0000 -0.7653 0.0000 31.2841
#
#
#
# Elastic Compliance Matrix: (Units=1/GPa)
#
#
# Indices 1 2 3 4 5 6 
#
# 1 0.010408 -0.004295 -0.001801 0.000000 -0.001088 0.000000
# 2 -0.004295 0.012469 -0.003579 0.000000 0.002022 0.000000
# 3 -0.001801 -0.003579 0.009631 0.000000 -0.001639 0.000000
# 4 0.000000 0.000000 0.000000 0.025764 0.000000 0.000630
# 5 -0.001088 0.002022 -0.001639 0.000000 0.028457 0.000000
# 6 0.000000 0.000000 0.000000 0.000630 0.000000 0.031981
#
#
# Mechanical properties :
#
#
# Convention : Reuss Voigt Hill
#
# Bulk Modulus (GPa) = 75.98501 76.12593 76.05547
# Shear Modulus (GPa) = 35.10132 35.92534 35.51333
#
# Velocity S-wave (km/s) = 4.06357 4.11099 4.08735
# Velocity P-wave (km/s) = 7.60015 7.63842 7.61931
#
# Compressibility (1/GPa) = 0.01316049
#
# Stress axis : x y z
#
# Youngs Moduli (GPa) = 96.08075 80.19939 103.82707
#
# Poissons Ratio (x) = 0.34442 0.18695
# Poissons Ratio (y) = 0.41263 0.37156
# Poissons Ratio (z) = 0.17301 0.28701
#
# Static dielectric constant tensor:
#      x y z
#    x 4.052510 0.000000 0.115930 
#    y 0.000000 3.945670 0.000000 
#    z 0.115930 0.000000 3.052740 
# 
# 
# High freq. dielectric constant tensor:
#      x y z
#    x 1.844710 0.000000 -0.002020 
#    y 0.000000 1.840110 0.000000 
#    z -0.002020 0.000000 1.840450 
# 
# From -- ./inp_files/190550.got.cif
#   From: 2010.06.25/outbox.cif.g09.slc.cpg/sg15_96_cif.got.tgz:190550.got - 2010.06.28 07:06:18.
