data_PCOD8153011
_publ_section_title
;
Structure prediction by ZEFSAII (Michael W. Deem and Ramdas Pophale) SiO2 
 PCOD8153011
Probable space group: C 2/C
;
_chemical_formula_sum "Si O2"
_cell_formula_units_Z 52
_cell_length_a 28.658192
_cell_length_b 11.821207
_cell_length_c 12.173068
_cell_angle_alpha 90.000000
_cell_angle_beta 141.787680
_cell_angle_gamma 90.000000
_cell_volume 2550.966050
_symmetry_space_group_name_H-M "C 2/C"
_symmetry_group_IT_number 15
_symmetry_cell_setting 'monoclinic'
loop_
_space_group_symop_operation_xyz
x,y,z
-x,y,1/2-z
-x,-y,-z
x,-y,1/2+z
1/2+x,1/2+y,z
1/2-x,1/2+y,1/2-z
1/2-x,1/2-y,-z
1/2+x,1/2-y,1/2+z
loop_
_atom_site_type_symbol
_atom_site_label
_atom_site_fract_x
_atom_site_fract_y
_atom_site_fract_z
Si Si1 0.632494 0.226735 0.347565
Si Si2 0.238066 0.857282 0.900461
Si Si3 0.869830 0.293301 0.418343
Si Si4 0.007409 0.365361 0.027605
Si Si5 0.834970 0.467836 0.899232
Si Si6 0.246276 0.916318 0.524173
Si Si7 0.000000 0.599852 0.750000
O O1 0.592547 0.231080 0.393472
O O2 0.698796 0.131460 0.470042
O O3 0.669204 0.346387 0.387164
O O4 0.569898 0.196954 0.143020
O O5 0.174883 0.820968 0.696177
O O6 0.309209 0.906531 0.963866
O O7 0.250000 0.750000 0.000000
O O8 0.215717 0.958916 0.940227
O O9 0.926809 0.317807 0.425810
O O10 0.813979 0.400826 0.335765
O O11 0.025208 0.330937 0.187813
O O12 0.000000 0.500000 0.000000
O O13 0.795826 0.401430 0.726623
O O14 0.927080 0.471449 0.072974
#
# Coordination Sequence:
#
# PCOD8153011 Si02
#       7
#     8   8   8   8   8   8   4
#     4  11  23  42  68  96 133 184 222 279 346 409
#     4  12  25  41  65 102 139 178 232 287 338 411
#     4  12  23  40  68  99 134 177 225 280 347 403
#     4  12  24  41  65 101 136 169 230 288 341 398
#     4  12  23  41  61 100 138 171 221 283 343 404
#     4  11  23  42  65  95 137 180 231 272 340 415
#     4  12  24  38  66  94 138 172 214 284 350 390
#
# _framework density 20.384435
#
# number of rings (size 3 to 8) (size 9 to 14) (size 15 to 20)
#    0.000    0.308    7.692    2.308    0.000    0.000 
#    0.000    0.769    0.000    0.000    0.000    0.000 
#    0.000    0.000    0.000    0.000    0.000    0.000 
#
# Total GULP energy -322114.707363 kJ/mol
# GULP energy per Si atom -12389.027206 kJ/mol
# Density = 2.033804 g / cm^3
# Si number density = 20.384435 Si / 1000 Ang^3
#
#
#
# Elastic Constant Matrix: (Units=GPa)
#
#
# Indices 1 2 3 4 5 6 
#
# 1 139.7551 48.6582 42.6282 0.0000 -19.8479 0.0000
# 2 48.6582 129.8089 49.5644 0.0000 2.2722 0.0000
# 3 42.6282 49.5644 117.9298 0.0000 -13.0223 0.0000
# 4 0.0000 0.0000 0.0000 28.9426 0.0000 -1.1839
# 5 -19.8479 2.2722 -13.0223 0.0000 36.9703 0.0000
# 6 0.0000 0.0000 0.0000 -1.1839 0.0000 23.2136
#
#
#
# Elastic Compliance Matrix: (Units=1/GPa)
#
#
# Indices 1 2 3 4 5 6 
#
# 1 0.009338 -0.002963 -0.001619 0.000000 0.004625 0.000000
# 2 -0.002963 0.010261 -0.003628 0.000000 -0.003499 0.000000
# 3 -0.001619 -0.003628 0.010944 0.000000 0.003208 0.000000
# 4 0.000000 0.000000 0.000000 0.034623 0.000000 0.001766
# 5 0.004625 -0.003499 0.003208 0.000000 0.030877 0.000000
# 6 0.000000 0.000000 0.000000 0.001766 0.000000 0.043168
#
#
# Mechanical properties :
#
#
# Convention : Reuss Voigt Hill
#
# Bulk Modulus (GPa) = 70.81011 74.35506 72.58259
# Shear Modulus (GPa) = 31.18407 34.26817 32.72612
#
# Velocity S-wave (km/s) = 3.91551 4.10456 4.01115
# Velocity P-wave (km/s) = 7.43333 7.68237 7.55887
#
# Compressibility (1/GPa) = 0.01412228
#
# Stress axis : x y z
#
# Youngs Moduli (GPa) = 107.09304 97.45947 91.37421
#
# Poissons Ratio (x) = 0.28875 0.14797
# Poissons Ratio (y) = 0.31730 0.33149
# Poissons Ratio (z) = 0.17343 0.35357
#
# Static dielectric constant tensor:
#      x y z
#    x 3.959360 0.000000 -0.314210 
#    y 0.000000 3.717760 0.000000 
#    z -0.314210 0.000000 3.859920 
# 
# 
# High freq. dielectric constant tensor:
#      x y z
#    x 1.810740 0.000000 -0.027010 
#    y 0.000000 1.771050 0.000000 
#    z -0.027010 0.000000 1.795270 
# 
# From -- ./inp_files/126479.got.cif
#   From: 2010.06.25/outbox.cif.g09.slc.cpg/sg15_64_cif.got.tgz:126479.got - 2010.06.28 07:06:18.
