data_PCOD8153473
_publ_section_title
;
Structure prediction by ZEFSAII (Michael W. Deem and Ramdas Pophale) SiO2 
 PCOD8153473
Probable space group: C 2/C
;
_chemical_formula_sum "Si O2"
_cell_formula_units_Z 40
_cell_length_a 9.255413
_cell_length_b 14.329918
_cell_length_c 13.814913
_cell_angle_alpha 90.000000
_cell_angle_beta 68.670464
_cell_angle_gamma 90.000000
_cell_volume 1706.759447
_symmetry_space_group_name_H-M "C 2/C"
_symmetry_group_IT_number 15
_symmetry_cell_setting 'monoclinic'
loop_
_space_group_symop_operation_xyz
x,y,z
-x,y,1/2-z
-x,-y,-z
x,-y,1/2+z
1/2+x,1/2+y,z
1/2-x,1/2+y,1/2-z
1/2-x,1/2-y,-z
1/2+x,1/2-y,1/2+z
loop_
_atom_site_type_symbol
_atom_site_label
_atom_site_fract_x
_atom_site_fract_y
_atom_site_fract_z
Si Si1 0.820665 0.198730 0.269326
Si Si2 0.166690 0.134071 0.911607
Si Si3 0.329860 0.009310 0.498816
Si Si4 0.814154 0.825533 0.555272
Si Si5 0.324314 0.507505 0.776880
O O1 0.725077 0.263737 0.366634
O O2 0.805094 0.225847 0.160617
O O3 0.745930 0.095138 0.292897
O O4 0.000000 0.206919 0.250000
O O5 0.265104 0.091448 0.977666
O O6 0.202047 0.068374 0.811325
O O7 0.988001 0.138902 0.987234
O O8 0.236393 0.055950 0.611105
O O9 0.500000 0.000000 0.500000
O O10 0.301198 0.084319 0.419999
O O11 0.750000 0.750000 0.500000
O O12 0.500000 0.484750 0.750000
#
# Coordination Sequence:
#
# PCOD8153473 Si02
#       5
#     8   8   8   8   8
#     4  11  27  45  75 111 150 198 257 307 377 461
#     4  12  26  50  79 106 161 202 248 323 382 451
#     4  12  28  47  77 110 151 200 255 318 386 453
#     4  12  27  50  77 113 151 205 261 309 389 468
#     4  11  23  47  75 104 144 204 251 302 386 453
#
# _framework density 23.436226999999999
#
# number of rings (size 3 to 8) (size 9 to 14) (size 15 to 20)
#    0.000    0.400    4.000    4.200    8.400    1.600 
#    0.000    0.000    0.000    0.000    0.000    0.000 
#    0.000    0.000    0.000    0.000    0.000    0.000 
#
# Total GULP energy -247851.384395 kJ/mol
# GULP energy per Si atom -12392.569220 kJ/mol
# Density = 2.338289 g / cm^3
# Si number density = 23.436227 Si / 1000 Ang^3
#
#
#
# Elastic Constant Matrix: (Units=GPa)
#
#
# Indices 1 2 3 4 5 6 
#
# 1 138.6376 34.3226 29.2128 0.0000 8.1904 0.0000
# 2 34.3226 80.1502 -13.4105 0.0000 -5.1938 0.0000
# 3 29.2128 -13.4105 88.6858 0.0000 9.7039 0.0000
# 4 0.0000 0.0000 0.0000 49.6972 0.0000 5.7146
# 5 8.1904 -5.1938 9.7039 0.0000 33.5821 0.0000
# 6 0.0000 0.0000 0.0000 5.7146 0.0000 38.6122
#
#
#
# Elastic Compliance Matrix: (Units=1/GPa)
#
#
# Indices 1 2 3 4 5 6 
#
# 1 0.009229 -0.004670 -0.003532 0.000000 -0.001952 0.000000
# 2 -0.004670 0.015233 0.003572 0.000000 0.002463 0.000000
# 3 -0.003532 0.003572 0.013244 0.000000 -0.002413 0.000000
# 4 0.000000 0.000000 0.000000 0.020470 0.000000 -0.003030
# 5 -0.001952 0.002463 -0.002413 0.000000 0.031332 0.000000
# 6 0.000000 0.000000 0.000000 -0.003030 0.000000 0.026347
#
#
# Mechanical properties :
#
#
# Convention : Reuss Voigt Hill
#
# Bulk Modulus (GPa) = 35.15407 45.30258 40.22833
# Shear Modulus (GPa) = 37.14807 41.53489 39.34148
#
# Velocity S-wave (km/s) = 3.98561 4.21438 4.10159
# Velocity P-wave (km/s) = 6.01769 6.56151 6.29548
#
# Compressibility (1/GPa) = 0.02844620
#
# Stress axis : x y z
#
# Youngs Moduli (GPa) = 108.35697 65.64485 75.50874
#
# Poissons Ratio (x) = 0.30653 0.26673
# Poissons Ratio (y) = 0.50598 -0.26973
# Poissons Ratio (z) = 0.38276 -0.23450
#
# Static dielectric constant tensor:
#      x y z
#    x 4.150220 0.000000 0.217180 
#    y 0.000000 4.587840 0.000000 
#    z 0.217180 0.000000 4.563840 
# 
# 
# High freq. dielectric constant tensor:
#      x y z
#    x 1.924500 0.000000 0.020530 
#    y 0.000000 1.936300 0.000000 
#    z 0.020530 0.000000 1.940740 
# 
# From -- ./inp_files/133057.got.cif
#   From: 2010.06.25/outbox.cif.g09.slc.cpg/sg15_67_cif.got.tgz:133057.got - 2010.06.28 07:06:18.
