data_PCOD8153922
_publ_section_title
;
Structure prediction by ZEFSAII (Michael W. Deem and Ramdas Pophale) SiO2 
 PCOD8153922
Probable space group: C 2/C
;
_chemical_formula_sum "Si O2"
_cell_formula_units_Z 48
_cell_length_a 25.620005
_cell_length_b 4.840193
_cell_length_c 20.841470
_cell_angle_alpha 90.000000
_cell_angle_beta 133.688549
_cell_angle_gamma 90.000000
_cell_volume 1868.838306
_symmetry_space_group_name_H-M "C 2/C"
_symmetry_group_IT_number 15
_symmetry_cell_setting 'monoclinic'
loop_
_space_group_symop_operation_xyz
x,y,z
-x,y,1/2-z
-x,-y,-z
x,-y,1/2+z
1/2+x,1/2+y,z
1/2-x,1/2+y,1/2-z
1/2-x,1/2-y,-z
1/2+x,1/2-y,1/2+z
loop_
_atom_site_type_symbol
_atom_site_label
_atom_site_fract_x
_atom_site_fract_y
_atom_site_fract_z
Si Si1 0.537306 0.304224 0.084156
Si Si2 0.422970 0.526662 0.162214
Si Si3 0.648193 0.951637 0.110586
Si Si4 0.342698 0.476365 0.722511
Si Si5 0.259338 0.961536 0.696292
Si Si6 0.584811 0.952504 0.930277
O O1 0.572677 0.027943 0.081233
O O2 0.593939 0.496605 0.170795
O O3 0.481138 0.185597 0.087369
O O4 0.500000 0.500000 0.000000
O O5 0.500000 0.405869 0.250000
O O6 0.374103 0.612105 0.180650
O O7 0.382944 0.284687 0.088586
O O8 0.439772 0.789388 0.132259
O O9 0.710122 0.106442 0.205164
O O10 0.673213 0.622308 0.128244
O O11 0.644180 0.052483 0.033145
O O12 0.299103 0.760598 0.679729
O O13 0.281300 0.260397 0.690871
#
# Coordination Sequence:
#
# PCOD8153922 Si02
#       6
#     8   8   8   8   8   8
#     4  11  24  46  75 118 151 187 242 324 388 444
#     4  12  26  45  72 106 151 195 244 304 379 444
#     4  11  26  45  73 109 149 193 246 304 372 445
#     4  11  25  45  72 102 143 197 247 296 366 444
#     4  11  25  47  72 103 145 195 246 297 365 439
#     4  12  26  45  74 112 147 188 246 311 379 445
#
# _framework density 25.684403
#
# number of rings (size 3 to 8) (size 9 to 14) (size 15 to 20)
#    0.000    0.667    1.667    5.000    4.667    8.000 
#    0.000    5.000    0.000    0.000    0.000    0.000 
#    0.000    0.000    0.000    0.000    0.000    0.000 
#
# Total GULP energy -297372.079570 kJ/mol
# GULP energy per Si atom -12390.503315 kJ/mol
# Density = 2.562594 g / cm^3
# Si number density = 25.684403 Si / 1000 Ang^3
#
#
#
# Elastic Constant Matrix: (Units=GPa)
#
#
# Indices 1 2 3 4 5 6 
#
# 1 122.5032 30.9444 48.2440 -0.0152 -17.4305 -0.0445
# 2 30.9444 93.9439 30.7105 -0.0031 -11.0954 -0.1757
# 3 48.2440 30.7105 101.3424 0.0055 -21.2671 0.0111
# 4 -0.0152 -0.0031 0.0055 40.9599 0.0105 -4.7971
# 5 -17.4305 -11.0954 -21.2671 0.0105 41.8603 0.0037
# 6 -0.0445 -0.1757 0.0111 -4.7971 0.0037 51.4607
#
#
#
# Elastic Compliance Matrix: (Units=1/GPa)
#
#
# Indices 1 2 3 4 5 6 
#
# 1 0.010495 -0.001925 -0.004033 0.000004 0.001811 0.000004
# 2 -0.001925 0.012249 -0.002555 0.000005 0.001147 0.000041
# 3 -0.004033 -0.002555 0.013507 -0.000007 0.004506 -0.000016
# 4 0.000004 0.000005 -0.000007 0.024684 -0.000007 0.002301
# 5 0.001811 0.001147 0.004506 -0.000007 0.027236 0.000002
# 6 0.000004 0.000041 -0.000016 0.002301 0.000002 0.019647
#
#
# Mechanical properties :
#
#
# Convention : Reuss Voigt Hill
#
# Bulk Modulus (GPa) = 52.01141 59.73193 55.87167
# Shear Modulus (GPa) = 38.09437 40.71554 39.40495
#
# Velocity S-wave (km/s) = 3.85537 3.98581 3.92113
# Velocity P-wave (km/s) = 6.33346 6.66999 6.50390
#
# Compressibility (1/GPa) = 0.01922655
#
# Stress axis : x y z
#
# Youngs Moduli (GPa) = 95.28197 81.63622 74.03447
#
# Poissons Ratio (x) = 0.15713 0.29857
# Poissons Ratio (y) = 0.18339 0.18916
# Poissons Ratio (z) = 0.38426 0.20858
#
# Static dielectric constant tensor:
#      x y z
#    x 4.822890 -0.000170 -0.103000 
#    y -0.000170 4.725780 0.000090 
#    z -0.103000 0.000090 5.223070 
# 
# 
# High freq. dielectric constant tensor:
#      x y z
#    x 2.037700 -0.000010 -0.006310 
#    y -0.000010 2.039260 0.000000 
#    z -0.006310 0.000000 2.023880 
# 
# From -- ./inp_files/256634.got.cif
#   From: 2010.06.25/outbox.cif.g09.slc.cpg/sg15_129_cif.got.tgz:256634.got - 2010.06.28 07:06:18.
