data_PCOD8153422
_publ_section_title
;
Structure prediction by ZEFSAII (Michael W. Deem and Ramdas Pophale) SiO2 
 PCOD8153422
Probable space group: C 2/C
;
_chemical_formula_sum "Si O2"
_cell_formula_units_Z 36
_cell_length_a 13.835517
_cell_length_b 11.000359
_cell_length_c 9.901598
_cell_angle_alpha 90.000000
_cell_angle_beta 118.508963
_cell_angle_gamma 90.000000
_cell_volume 1324.247470
_symmetry_space_group_name_H-M "C 2/C"
_symmetry_group_IT_number 15
_symmetry_cell_setting 'monoclinic'
loop_
_space_group_symop_operation_xyz
x,y,z
-x,y,1/2-z
-x,-y,-z
x,-y,1/2+z
1/2+x,1/2+y,z
1/2-x,1/2+y,1/2-z
1/2-x,1/2-y,-z
1/2+x,1/2-y,1/2+z
loop_
_atom_site_type_symbol
_atom_site_label
_atom_site_fract_x
_atom_site_fract_y
_atom_site_fract_z
Si Si1 0.585591 0.268097 0.185089
Si Si2 0.395139 0.239098 0.870543
Si Si3 0.125348 0.981952 0.789458
Si Si4 0.184294 0.596827 0.442148
Si Si5 0.000000 0.437537 0.250000
O O1 0.500000 0.283290 0.250000
O O2 0.643153 0.399914 0.205585
O O3 0.669612 0.158225 0.282165
O O4 0.522445 0.249188 0.002751
O O5 0.343222 0.361402 0.772607
O O6 0.404077 0.137429 0.761469
O O7 0.315314 0.203800 0.942795
O O8 0.000000 0.964444 0.750000
O O9 0.207495 0.010790 0.971863
O O10 0.072206 0.521402 0.399036
#
# Coordination Sequence:
#
# PCOD8153422 Si02
#       5
#     8   8   8   8   4
#     4   9  20  43  71 100 143 187 241 291 369 435
#     4  11  23  46  71 109 143 191 241 308 362 438
#     4  11  24  46  73 111 150 182 243 311 370 428
#     4  11  24  45  75 104 144 200 242 298 366 449
#     4  12  24  46  72 104 146 190 258 296 364 440
#
# _framework density 27.185252999999999
#
# number of rings (size 3 to 8) (size 9 to 14) (size 15 to 20)
#    0.000    1.333    4.444    2.000    0.000    2.667 
#   16.000    0.000    0.000    0.000    0.000    0.000 
#    0.000    0.000    0.000    0.000    0.000    0.000 
#
# Total GULP energy -222998.374199 kJ/mol
# GULP energy per Si atom -12388.798567 kJ/mol
# Density = 2.712338 g / cm^3
# Si number density = 27.185253 Si / 1000 Ang^3
#
#
#
# Elastic Constant Matrix: (Units=GPa)
#
#
# Indices 1 2 3 4 5 6 
#
# 1 53.2015 7.8448 21.5130 0.0000 30.0179 0.0000
# 2 7.8448 158.1908 61.4021 0.0000 13.8129 0.0000
# 3 21.5130 61.4021 133.2774 0.0000 37.5245 0.0000
# 4 0.0000 0.0000 0.0000 47.1144 0.0000 -4.9755
# 5 30.0179 13.8129 37.5245 0.0000 44.3930 0.0000
# 6 0.0000 0.0000 0.0000 -4.9755 0.0000 -28.9523
#
#
#
# Elastic Compliance Matrix: (Units=1/GPa)
#
#
# Indices 1 2 3 4 5 6 
#
# 1 0.030529 -0.000093 0.001206 0.000000 -0.021634 0.000000
# 2 -0.000093 0.007720 -0.003783 0.000000 0.000859 0.000000
# 3 0.001206 -0.003783 0.011745 0.000000 -0.009566 0.000000
# 4 0.000000 0.000000 0.000000 0.020847 0.000000 -0.003583
# 5 -0.021634 0.000859 -0.009566 0.000000 0.044973 0.000000
# 6 0.000000 0.000000 0.000000 -0.003583 0.000000 -0.033924
#
#
# Mechanical properties :
#
#
# Convention : Reuss Voigt Hill
#
# Bulk Modulus (GPa) = 22.39514 58.46550 40.43032
# Shear Modulus (GPa) = 48.96503 29.43834 39.20168
#
# Velocity S-wave (km/s) = 4.24861 3.29428 3.80151
# Velocity P-wave (km/s) = 5.68537 6.00190 5.84578
#
# Compressibility (1/GPa) = 0.04465254
#
# Stress axis : x y z
#
# Youngs Moduli (GPa) = 32.75596 129.54057 85.14412
#
# Poissons Ratio (x) = 0.01206 -0.10269
# Poissons Ratio (y) = 0.00305 0.32213
# Poissons Ratio (z) = -0.03951 0.49009
#
# Static dielectric constant tensor:
#      x y z
#    x 4.218410 0.000000 0.527740 
#    y 0.000000 5.378260 0.000000 
#    z 0.527740 0.000000 5.104770 
# 
# 
# High freq. dielectric constant tensor:
#      x y z
#    x 2.066150 0.000000 0.037520 
#    y 0.000000 2.111780 0.000000 
#    z 0.037520 0.000000 2.090310 
# 
# From -- ./inp_files/103992.got.cif
#   From: 2010.06.25/outbox.cif.g09.slc.cpg/sg15_52_cif.got.tgz:103992.got - 2010.06.28 07:06:18.
