data_PCOD8153013
_publ_section_title
;
Structure prediction by ZEFSAII (Michael W. Deem and Ramdas Pophale) SiO2 
 PCOD8153013
Probable space group: C 2/C
;
_chemical_formula_sum "Si O2"
_cell_formula_units_Z 48
_cell_length_a 17.525017
_cell_length_b 8.530941
_cell_length_c 31.023103
_cell_angle_alpha 90.000000
_cell_angle_beta 30.790073
_cell_angle_gamma 90.000000
_cell_volume 2374.218527
_symmetry_space_group_name_H-M "C 2/C"
_symmetry_group_IT_number 15
_symmetry_cell_setting 'monoclinic'
loop_
_space_group_symop_operation_xyz
x,y,z
-x,y,1/2-z
-x,-y,-z
x,-y,1/2+z
1/2+x,1/2+y,z
1/2-x,1/2+y,1/2-z
1/2-x,1/2-y,-z
1/2+x,1/2-y,1/2+z
loop_
_atom_site_type_symbol
_atom_site_label
_atom_site_fract_x
_atom_site_fract_y
_atom_site_fract_z
Si Si1 0.411329 0.542765 0.836936
Si Si2 0.406468 0.917549 0.508476
Si Si3 0.563335 0.968983 0.346273
Si Si4 0.113024 0.898313 0.813530
Si Si5 0.048353 0.944685 0.522954
Si Si6 0.812732 0.657502 0.428029
O O1 0.500000 0.532423 0.750000
O O2 0.268571 0.434932 0.900535
O O3 0.508333 0.485665 0.830257
O O4 0.352610 0.718536 0.871846
O O5 0.464194 0.993238 0.436659
O O6 0.423753 0.734883 0.498082
O O7 0.500000 0.000000 0.500000
O O8 0.589750 0.788331 0.320786
O O9 0.717469 0.059273 0.278805
O O10 0.465040 0.059093 0.358940
O O11 0.077048 0.961726 0.879034
O O12 0.192583 0.036309 0.468727
O O13 0.000000 0.000000 0.500000
O O14 0.750000 0.750000 0.500000
#
# Coordination Sequence:
#
# PCOD8153013 Si02
#       6
#     8   8   8   8   8   8
#     4  12  25  42  67  98 133 174 227 277 345 409
#     4  11  23  42  65  96 134 176 226 276 342 411
#     4  11  24  41  68  94 131 178 224 273 345 403
#     4  11  24  43  65 100 133 173 228 285 333 412
#     4  11  25  42  68  99 132 178 229 276 340 418
#     4  12  23  44  70  94 136 183 222 282 349 403
#
# _framework density 20.217179000000002
#
# number of rings (size 3 to 8) (size 9 to 14) (size 15 to 20)
#    0.000    0.667    3.333    4.000    0.000    8.000 
#    0.000    1.667    0.000    0.000    0.000    0.000 
#    0.000    0.000    0.000    0.000    0.000    0.000 
#
# Total GULP energy -297591.663057 kJ/mol
# GULP energy per Si atom -12399.652627 kJ/mol
# Density = 2.017116 g / cm^3
# Si number density = 20.217179 Si / 1000 Ang^3
#
#
#
# Elastic Constant Matrix: (Units=GPa)
#
#
# Indices 1 2 3 4 5 6 
#
# 1 105.9422 23.9268 43.0596 -0.0047 -2.9062 0.0380
# 2 23.9268 52.5831 32.4158 -0.0082 9.5964 0.0127
# 3 43.0596 32.4158 144.9099 -0.0007 1.8636 -0.0036
# 4 -0.0047 -0.0082 -0.0007 35.4813 -0.0010 -4.1575
# 5 -2.9062 9.5964 1.8636 -0.0010 44.2663 0.0011
# 6 0.0380 0.0127 -0.0036 -4.1575 0.0011 40.7344
#
#
#
# Elastic Compliance Matrix: (Units=1/GPa)
#
#
# Indices 1 2 3 4 5 6 
#
# 1 0.011404 -0.003942 -0.002529 -0.000001 0.001710 -0.000010
# 2 -0.003942 0.024390 -0.004215 0.000004 -0.005369 -0.000004
# 3 -0.002529 -0.004215 0.008590 -0.000001 0.000386 0.000004
# 4 -0.000001 0.000004 -0.000001 0.028525 0.000000 0.002911
# 5 0.001710 -0.005369 0.000386 0.000000 0.023850 -0.000001
# 6 -0.000010 -0.000004 0.000004 0.002911 -0.000001 0.024846
#
#
# Mechanical properties :
#
#
# Convention : Reuss Voigt Hill
#
# Bulk Modulus (GPa) = 43.45716 55.80439 49.63077
# Shear Modulus (GPa) = 33.18956 37.69860 35.44408
#
# Velocity S-wave (km/s) = 4.05613 4.32288 4.19163
# Velocity P-wave (km/s) = 6.59379 7.25112 6.93025
#
# Compressibility (1/GPa) = 0.02301117
#
# Stress axis : x y z
#
# Youngs Moduli (GPa) = 87.68687 41.00067 116.41052
#
# Poissons Ratio (x) = 0.16164 0.29438
# Poissons Ratio (y) = 0.34569 0.49072
# Poissons Ratio (z) = 0.22175 0.17284
#
# Static dielectric constant tensor:
#      x y z
#    x 3.730680 -0.000070 -0.005370 
#    y -0.000070 4.144170 -0.000070 
#    z -0.005370 -0.000070 4.062440 
# 
# 
# High freq. dielectric constant tensor:
#      x y z
#    x 1.796860 0.000000 -0.006020 
#    y 0.000000 1.811350 0.000000 
#    z -0.006020 0.000000 1.801890 
# 
# From -- ./inp_files/176855.got.cif
#   From: 2010.06.25/outbox.cif.g09.slc.cpg/sg15_89_cif.got.tgz:176855.got - 2010.06.28 07:06:18.
