data_PCOD8153942
_publ_section_title
;
Structure prediction by ZEFSAII (Michael W. Deem and Ramdas Pophale) SiO2 
 PCOD8153942
Probable space group: C 2/C
;
_chemical_formula_sum "Si O2"
_cell_formula_units_Z 40
_cell_length_a 10.962284
_cell_length_b 7.756801
_cell_length_c 20.657418
_cell_angle_alpha 90.000000
_cell_angle_beta 79.254789
_cell_angle_gamma 90.000000
_cell_volume 1725.747526
_symmetry_space_group_name_H-M "C 2/C"
_symmetry_group_IT_number 15
_symmetry_cell_setting 'monoclinic'
loop_
_space_group_symop_operation_xyz
x,y,z
-x,y,1/2-z
-x,-y,-z
x,-y,1/2+z
1/2+x,1/2+y,z
1/2-x,1/2+y,1/2-z
1/2-x,1/2-y,-z
1/2+x,1/2-y,1/2+z
loop_
_atom_site_type_symbol
_atom_site_label
_atom_site_fract_x
_atom_site_fract_y
_atom_site_fract_z
Si Si1 0.096611 0.442530 0.149592
Si Si2 0.798134 0.086124 0.034516
Si Si3 0.887424 0.058333 0.798457
Si Si4 0.149413 0.418095 0.771569
Si Si5 0.948135 0.907854 0.916270
O O1 0.181970 0.532024 0.088110
O O2 0.160259 0.435244 0.214324
O O3 0.076583 0.250881 0.127892
O O4 0.969006 0.551862 0.170334
O O5 0.914898 0.124870 0.069350
O O6 0.750000 0.250000 0.000000
O O7 0.845611 0.932250 0.982697
O O8 0.768611 0.932828 0.805366
O O9 0.930867 0.073259 0.869707
O O10 0.000000 0.965887 0.750000
O O11 0.860177 0.242012 0.768402
#
# Coordination Sequence:
#
# PCOD8153942 Si02
#       5
#     8   8   8   8   8
#     4  11  24  47  69 108 140 181 234 291 352 421
#     4  11  26  50  71 101 143 188 242 293 351 417
#     4  12  25  45  71 102 144 184 230 290 357 420
#     4  11  26  44  73 107 143 183 234 292 357 428
#     4  11  27  44  75 101 141 193 234 288 360 420
#
# _framework density 23.178360999999999
#
# number of rings (size 3 to 8) (size 9 to 14) (size 15 to 20)
#    0.000    0.800    2.000    4.200   11.200    0.800 
#    3.600    0.000    0.000    0.000    0.000    0.000 
#    0.000    0.000    0.000    0.000    0.000    0.000 
#
# Total GULP energy -247826.231701 kJ/mol
# GULP energy per Si atom -12391.311585 kJ/mol
# Density = 2.312561 g / cm^3
# Si number density = 23.178361 Si / 1000 Ang^3
#
#
#
# Elastic Constant Matrix: (Units=GPa)
#
#
# Indices 1 2 3 4 5 6 
#
# 1 145.8849 51.0172 81.2830 0.0000 11.4090 0.0000
# 2 51.0172 94.7056 48.9300 0.0000 1.7827 0.0000
# 3 81.2830 48.9300 157.5515 0.0000 -9.5357 0.0000
# 4 0.0000 0.0000 0.0000 42.4599 0.0000 4.5537
# 5 11.4090 1.7827 -9.5357 0.0000 53.6731 0.0000
# 6 0.0000 0.0000 0.0000 4.5537 0.0000 24.8848
#
#
#
# Elastic Compliance Matrix: (Units=1/GPa)
#
#
# Indices 1 2 3 4 5 6 
#
# 1 0.010935 -0.003362 -0.004783 0.000000 -0.003062 0.000000
# 2 -0.003362 0.013678 -0.002525 0.000000 -0.000188 0.000000
# 3 -0.004783 -0.002525 0.009770 0.000000 0.002836 0.000000
# 4 0.000000 0.000000 0.000000 0.024023 0.000000 -0.004396
# 5 -0.003062 -0.000188 0.002836 0.000000 0.019792 0.000000
# 6 0.000000 0.000000 0.000000 -0.004396 0.000000 0.040990
#
#
# Mechanical properties :
#
#
# Convention : Reuss Voigt Hill
#
# Bulk Modulus (GPa) = 76.66139 84.51138 80.58639
# Shear Modulus (GPa) = 34.51255 38.66436 36.58846
#
# Velocity S-wave (km/s) = 3.86294 4.08870 3.97742
# Velocity P-wave (km/s) = 7.28305 7.67010 7.47908
#
# Compressibility (1/GPa) = 0.01304438
#
# Stress axis : x y z
#
# Youngs Moduli (GPa) = 91.45294 73.10972 102.35043
#
# Poissons Ratio (x) = 0.24578 0.48950
# Poissons Ratio (y) = 0.30745 0.25843
# Poissons Ratio (z) = 0.43738 0.18460
#
# Static dielectric constant tensor:
#      x y z
#    x 4.509040 0.000000 0.043830 
#    y 0.000000 4.054380 0.000000 
#    z 0.043830 0.000000 4.528830 
# 
# 
# High freq. dielectric constant tensor:
#      x y z
#    x 1.929820 0.000000 -0.002300 
#    y 0.000000 1.911330 0.000000 
#    z -0.002300 0.000000 1.930760 
# 
# From -- ./inp_files/195114.got.cif
#   From: 2010.06.25/outbox.cif.g09.slc.cpg/sg15_98_cif.got.tgz:195114.got - 2010.06.28 07:06:18.
