data_PCOD8153036
_publ_section_title
;
Structure prediction by ZEFSAII (Michael W. Deem and Ramdas Pophale) SiO2 
 PCOD8153036
Probable space group: C 2/C
;
_chemical_formula_sum "Si O2"
_cell_formula_units_Z 48
_cell_length_a 14.996134
_cell_length_b 17.658286
_cell_length_c 15.964013
_cell_angle_alpha 90.000000
_cell_angle_beta 145.472767
_cell_angle_gamma 90.000000
_cell_volume 2396.062557
_symmetry_space_group_name_H-M "C 2/C"
_symmetry_group_IT_number 15
_symmetry_cell_setting 'monoclinic'
loop_
_space_group_symop_operation_xyz
x,y,z
-x,y,1/2-z
-x,-y,-z
x,-y,1/2+z
1/2+x,1/2+y,z
1/2-x,1/2+y,1/2-z
1/2-x,1/2-y,-z
1/2+x,1/2-y,1/2+z
loop_
_atom_site_type_symbol
_atom_site_label
_atom_site_fract_x
_atom_site_fract_y
_atom_site_fract_z
Si Si1 0.746703 0.162343 0.073927
Si Si2 0.138484 0.880293 0.593942
Si Si3 0.840591 0.737797 0.155792
Si Si4 0.428300 0.403510 0.280038
Si Si5 0.319895 0.976873 0.867767
Si Si6 0.455691 0.697678 0.090699
O O1 0.700074 0.079947 0.069945
O O2 0.813148 0.156039 0.030437
O O3 0.882909 0.201219 0.233481
O O4 0.594039 0.215680 0.964606
O O5 0.247949 0.810647 0.651824
O O6 0.248112 0.939893 0.727909
O O7 0.061715 0.918638 0.453293
O O8 0.991171 0.849149 0.534010
O O9 0.885913 0.815591 0.237198
O O10 0.000000 0.695225 0.250000
O O11 0.750000 0.750000 0.000000
O O12 0.500000 0.437123 0.250000
O O13 0.270732 0.446593 0.181924
O O14 0.500000 0.000000 0.000000
#
# Coordination Sequence:
#
# PCOD8153036 Si02
#       6
#     8   8   8   8   8   8
#     4   9  20  40  60  91 125 164 200 269 321 375
#     4  11  24  41  69  96 126 173 226 271 323 413
#     4  11  23  42  68 101 128 172 226 281 333 390
#     4  11  25  44  67  92 136 179 212 271 345 404
#     4  11  27  41  65  97 135 172 217 275 336 396
#     4   9  20  36  64  90 119 157 215 261 311 373
#
# _framework density 20.032865000000001
#
# number of rings (size 3 to 8) (size 9 to 14) (size 15 to 20)
#    0.000    1.667    3.333    0.500   14.000    0.000 
#    0.000    0.000    0.000    0.000    0.000    0.000 
#    0.000    0.000    0.000    0.000    0.000    0.000 
#
# Total GULP energy -297581.092049 kJ/mol
# GULP energy per Si atom -12399.212169 kJ/mol
# Density = 1.998727 g / cm^3
# Si number density = 20.032865 Si / 1000 Ang^3
#
#
#
# Elastic Constant Matrix: (Units=GPa)
#
#
# Indices 1 2 3 4 5 6 
#
# 1 133.5339 48.6131 66.8349 -0.0063 0.9380 0.0001
# 2 48.6131 79.8915 43.8681 -0.0101 12.9036 0.0009
# 3 66.8349 43.8681 110.8167 -0.0161 16.7381 -0.0010
# 4 -0.0063 -0.0101 -0.0161 37.5743 -0.0083 10.5432
# 5 0.9380 12.9036 16.7381 -0.0083 34.8176 -0.0008
# 6 0.0001 0.0009 -0.0010 10.5432 -0.0008 26.0706
#
#
#
# Elastic Compliance Matrix: (Units=1/GPa)
#
#
# Indices 1 2 3 4 5 6 
#
# 1 0.012303 -0.004803 -0.006186 -0.000001 0.004423 0.000000
# 2 -0.004803 0.018187 -0.003563 0.000002 -0.004898 -0.000002
# 3 -0.006186 -0.003563 0.015032 0.000003 -0.005740 -0.000001
# 4 -0.000001 0.000002 0.000003 0.030021 0.000005 -0.012141
# 5 0.004423 -0.004898 -0.005740 0.000005 0.033176 -0.000001
# 6 0.000000 -0.000002 -0.000001 -0.012141 -0.000001 0.043267
#
#
# Mechanical properties :
#
#
# Convention : Reuss Voigt Hill
#
# Bulk Modulus (GPa) = 60.91281 71.43048 66.17165
# Shear Modulus (GPa) = 26.80042 30.68757 28.74399
#
# Velocity S-wave (km/s) = 3.66159 3.91815 3.79204
# Velocity P-wave (km/s) = 6.95333 7.49688 7.23021
#
# Compressibility (1/GPa) = 0.01641691
#
# Stress axis : x y z
#
# Youngs Moduli (GPa) = 81.28260 54.98355 66.52322
#
# Poissons Ratio (x) = 0.26411 0.41154
# Poissons Ratio (y) = 0.39044 0.23701
# Poissons Ratio (z) = 0.50285 0.19589
#
# Static dielectric constant tensor:
#      x y z
#    x 4.205770 0.000040 0.105490 
#    y 0.000040 3.540810 0.000040 
#    z 0.105490 0.000040 3.793060 
# 
# 
# High freq. dielectric constant tensor:
#      x y z
#    x 1.797370 0.000000 0.001880 
#    y 0.000000 1.766740 0.000000 
#    z 0.001880 0.000000 1.787340 
# 
# From -- ./inp_files/206504.got.cif
#   From: 2010.06.25/outbox.cif.g09.slc.cpg/sg15_104_cif.got.tgz:206504.got - 2010.06.28 07:06:18.
