data_PCOD8153294
_publ_section_title
;
Structure prediction by ZEFSAII (Michael W. Deem and Ramdas Pophale) SiO2 
 PCOD8153294
Probable space group: C 2/C
;
_chemical_formula_sum "Si O2"
_cell_formula_units_Z 48
_cell_length_a 8.586596
_cell_length_b 25.008853
_cell_length_c 10.356270
_cell_angle_alpha 90.000000
_cell_angle_beta 80.772328
_cell_angle_gamma 90.000000
_cell_volume 2195.135085
_symmetry_space_group_name_H-M "C 2/C"
_symmetry_group_IT_number 15
_symmetry_cell_setting 'monoclinic'
loop_
_space_group_symop_operation_xyz
x,y,z
-x,y,1/2-z
-x,-y,-z
x,-y,1/2+z
1/2+x,1/2+y,z
1/2-x,1/2+y,1/2-z
1/2-x,1/2-y,-z
1/2+x,1/2-y,1/2+z
loop_
_atom_site_type_symbol
_atom_site_label
_atom_site_fract_x
_atom_site_fract_y
_atom_site_fract_z
Si Si1 0.500000 0.376326 0.250000
Si Si2 0.500000 0.619311 0.250000
Si Si3 0.673797 0.178820 0.276596
Si Si4 0.084387 0.944537 0.484338
Si Si5 0.558491 0.163930 0.565284
Si Si6 0.446693 0.042279 0.900028
Si Si7 0.264522 0.203133 0.707127
O O1 0.528950 0.411313 0.370460
O O2 0.362969 0.338827 0.321101
O O3 0.342499 0.650935 0.218312
O O4 0.440211 0.584516 0.376883
O O5 0.500000 0.155660 0.250000
O O6 0.669609 0.175354 0.430506
O O7 0.687546 0.239052 0.226227
O O8 0.262364 0.957544 0.433522
O O9 0.000000 0.000000 0.500000
O O10 0.493934 0.102805 0.580553
O O11 0.404687 0.202449 0.581912
O O12 0.666856 0.179982 0.669645
O O13 0.500000 0.023352 0.750000
O O14 0.500000 0.000000 0.000000
#
# Coordination Sequence:
#
# PCOD8153294 Si02
#       7
#     4   4   8   8   8   8   8
#     4  12  23  46  74 104 146 196 245 308 366 456
#     4  12  27  54  72 114 160 192 243 330 376 442
#     4  12  27  45  75 114 147 197 248 305 378 449
#     4  12  29  47  76 107 148 196 249 312 388 445
#     4  11  23  47  71 100 150 194 240 306 378 441
#     4  12  27  49  76 107 144 197 254 306 377 453
#     4  11  23  44  73 104 143 192 248 300 366 449
#
# _framework density 21.866537999999998
#
# number of rings (size 3 to 8) (size 9 to 14) (size 15 to 20)
#    0.000    0.333    5.833    2.000    9.333    2.667 
#    0.000    0.000    0.000    0.000    0.000    0.000 
#    0.000    0.000    0.000    0.000    0.000    0.000 
#
# Total GULP energy -297388.879036 kJ/mol
# GULP energy per Si atom -12391.203293 kJ/mol
# Density = 2.181677 g / cm^3
# Si number density = 21.866538 Si / 1000 Ang^3
#
#
#
# Elastic Constant Matrix: (Units=GPa)
#
#
# Indices 1 2 3 4 5 6 
#
# 1 169.1943 53.7454 48.1746 0.0000 -11.8856 0.0000
# 2 53.7454 112.6273 44.8584 0.0000 0.4592 0.0000
# 3 48.1746 44.8584 122.6300 0.0000 -20.5892 0.0000
# 4 0.0000 0.0000 0.0000 116.3841 0.0000 -41.8089
# 5 -11.8856 0.4592 -20.5892 0.0000 35.4884 0.0000
# 6 0.0000 0.0000 0.0000 -41.8089 0.0000 15.5077
#
#
#
# Elastic Compliance Matrix: (Units=1/GPa)
#
#
# Indices 1 2 3 4 5 6 
#
# 1 0.007395 -0.002909 -0.001572 0.000000 0.001602 0.000000
# 2 -0.002909 0.011757 -0.003708 0.000000 -0.003278 0.000000
# 3 -0.001572 -0.003708 0.011133 0.000000 0.005980 0.000000
# 4 0.000000 0.000000 0.000000 0.272677 0.000000 0.735137
# 5 0.001602 -0.003278 0.005980 0.000000 0.032227 0.000000
# 6 0.000000 0.000000 0.000000 0.735137 0.000000 2.046413
#
#
# Mechanical properties :
#
#
# Convention : Reuss Voigt Hill
#
# Bulk Modulus (GPa) = 71.91084 77.55648 74.73366
# Shear Modulus (GPa) = 2.08107 50.65427 26.36767
#
# Velocity S-wave (km/s) = 0.97662 4.81825 3.47630
# Velocity P-wave (km/s) = 5.85058 8.15470 7.09678
#
# Compressibility (1/GPa) = 0.01390611
#
# Stress axis : x y z
#
# Youngs Moduli (GPa) = 135.23462 85.05214 89.82559
#
# Poissons Ratio (x) = 0.24743 0.14118
# Poissons Ratio (y) = 0.39343 0.33311
# Poissons Ratio (z) = 0.21255 0.31541
#
# Static dielectric constant tensor:
#      x y z
#    x 4.419180 0.000000 -0.289640 
#    y 0.000000 4.092070 0.000000 
#    z -0.289640 0.000000 4.163300 
# 
# 
# High freq. dielectric constant tensor:
#      x y z
#    x 1.883640 0.000000 -0.013480 
#    y 0.000000 1.862450 0.000000 
#    z -0.013480 0.000000 1.869380 
# 
# From -- ./inp_files/79195.got.cif
#   From: 2010.06.25/outbox.cif.g09.slc.cpg/sg15_40_cif.got.tgz:79195.got - 2010.06.28 07:06:18.
