data_PCOD8153614
_publ_section_title
;
Structure prediction by ZEFSAII (Michael W. Deem and Ramdas Pophale) SiO2 
 PCOD8153614
Probable space group: C 2/C
;
_chemical_formula_sum "Si O2"
_cell_formula_units_Z 56
_cell_length_a 11.603289
_cell_length_b 11.327437
_cell_length_c 28.044003
_cell_angle_alpha 90.000000
_cell_angle_beta 51.637838
_cell_angle_gamma 90.000000
_cell_volume 2890.188422
_symmetry_space_group_name_H-M "C 2/C"
_symmetry_group_IT_number 15
_symmetry_cell_setting 'monoclinic'
loop_
_space_group_symop_operation_xyz
x,y,z
-x,y,1/2-z
-x,-y,-z
x,-y,1/2+z
1/2+x,1/2+y,z
1/2-x,1/2+y,1/2-z
1/2-x,1/2-y,-z
1/2+x,1/2-y,1/2+z
loop_
_atom_site_type_symbol
_atom_site_label
_atom_site_fract_x
_atom_site_fract_y
_atom_site_fract_z
Si Si1 0.923976 0.764604 0.317680
Si Si2 0.435335 0.375000 0.126443
Si Si3 0.872983 0.514603 0.817681
Si Si4 0.602471 0.804643 0.424048
Si Si5 0.945469 0.063428 0.466576
Si Si6 0.624615 0.054643 0.575952
Si Si7 0.404804 0.186572 0.466576
O O1 0.891778 0.625000 0.322148
O O2 0.769293 0.827554 0.365958
O O3 0.000000 0.810156 0.250000
O O4 0.030464 0.811207 0.332280
O O5 0.277305 0.438793 0.167720
O O6 0.548639 0.478461 0.081391
O O7 0.457189 0.271539 0.081391
O O8 0.882833 0.577553 0.865958
O O9 0.000000 0.560155 0.750000
O O10 0.559837 0.668440 0.430193
O O11 0.508177 0.874998 0.411215
O O12 0.575279 0.854723 0.484184
O O13 0.777833 0.104723 0.515816
O O14 0.000000 0.000000 0.500000
O O15 0.600413 0.918441 0.569807
O O16 0.250000 0.250000 0.500000
#
# Coordination Sequence:
#
# PCOD8153614 Si02
#       7
#     8   8   8   8   8   8   8
#     4  11  24  43  66  92 125 177 224 258 314 387
#     4  12  22  40  72  90 125 162 224 264 312 380
#     4  11  24  43  66  92 125 177 224 258 314 387
#     4  12  23  38  61  99 135 165 207 272 327 382
#     4  12  20  38  65  93 126 166 210 258 321 389
#     4  12  23  38  61  99 135 165 207 272 327 382
#     4  12  20  38  65  93 126 166 210 258 321 389
#
# _framework density 19.375900000000001
#
# number of rings (size 3 to 8) (size 9 to 14) (size 15 to 20)
#    0.000    0.286    8.571    0.857    2.000    0.000 
#    0.000    0.000    0.000    1.714    0.000    0.000 
#    0.000    0.000    0.000    0.000    0.000    0.000 
#
# Total GULP energy -347077.451353 kJ/mol
# GULP energy per Si atom -12395.623263 kJ/mol
# Density = 1.933180 g / cm^3
# Si number density = 19.375900 Si / 1000 Ang^3
#
#
#
# Elastic Constant Matrix: (Units=GPa)
#
#
# Indices 1 2 3 4 5 6 
#
# 1 127.1665 43.3716 64.3479 0.0000 0.1869 0.0000
# 2 43.3716 70.6978 28.8498 0.0000 0.2157 0.0000
# 3 64.3479 28.8498 157.1363 0.0000 -0.6315 0.0000
# 4 0.0000 0.0000 0.0000 16.2590 0.0000 0.3253
# 5 0.1869 0.2157 -0.6315 0.0000 25.1324 0.0000
# 6 0.0000 0.0000 0.0000 0.3253 0.0000 38.1653
#
#
#
# Elastic Compliance Matrix: (Units=1/GPa)
#
#
# Indices 1 2 3 4 5 6 
#
# 1 0.011684 -0.005637 -0.003750 0.000000 -0.000133 0.000000
# 2 -0.005637 0.018011 -0.000999 0.000000 -0.000138 0.000000
# 3 -0.003750 -0.000999 0.008084 0.000000 0.000240 0.000000
# 4 0.000000 0.000000 0.000000 0.061515 0.000000 -0.000524
# 5 -0.000133 -0.000138 0.000240 0.000000 0.039797 0.000000
# 6 0.000000 0.000000 0.000000 -0.000524 0.000000 0.026206
#
#
# Mechanical properties :
#
#
# Convention : Reuss Voigt Hill
#
# Bulk Modulus (GPa) = 58.80096 69.79326 64.29711
# Shear Modulus (GPa) = 26.07702 30.47342 28.27522
#
# Velocity S-wave (km/s) = 3.67256 3.97009 3.82422
# Velocity P-wave (km/s) = 6.95679 7.55740 7.26331
#
# Compressibility (1/GPa) = 0.01700652
#
# Stress axis : x y z
#
# Youngs Moduli (GPa) = 85.58535 55.52137 123.70092
#
# Poissons Ratio (x) = 0.31299 0.46391
# Poissons Ratio (y) = 0.48247 0.12356
# Poissons Ratio (z) = 0.32097 0.05546
#
# Static dielectric constant tensor:
#      x y z
#    x 3.616160 0.000000 -0.004720 
#    y 0.000000 3.235230 0.000000 
#    z -0.004720 0.000000 3.933230 
# 
# 
# High freq. dielectric constant tensor:
#      x y z
#    x 1.754940 0.000000 -0.000110 
#    y 0.000000 1.743380 0.000000 
#    z -0.000110 0.000000 1.762160 
# 
# From -- ./inp_files/236941.got.cif
#   From: 2010.06.25/outbox.cif.g09.slc.cpg/sg15_119_cif.got.tgz:236941.got - 2010.06.28 07:06:18.
