data_PCOD8153601
_publ_section_title
;
Structure prediction by ZEFSAII (Michael W. Deem and Ramdas Pophale) SiO2 
 PCOD8153601
Probable space group: C 2/C
;
_chemical_formula_sum "Si O2"
_cell_formula_units_Z 40
_cell_length_a 8.172947
_cell_length_b 7.201489
_cell_length_c 30.623770
_cell_angle_alpha 90.000000
_cell_angle_beta 62.001988
_cell_angle_gamma 90.000000
_cell_volume 1591.485102
_symmetry_space_group_name_H-M "C 2/C"
_symmetry_group_IT_number 15
_symmetry_cell_setting 'monoclinic'
loop_
_space_group_symop_operation_xyz
x,y,z
-x,y,1/2-z
-x,-y,-z
x,-y,1/2+z
1/2+x,1/2+y,z
1/2-x,1/2+y,1/2-z
1/2-x,1/2-y,-z
1/2+x,1/2-y,1/2+z
loop_
_atom_site_type_symbol
_atom_site_label
_atom_site_fract_x
_atom_site_fract_y
_atom_site_fract_z
Si Si1 0.954584 0.392469 0.598481
Si Si2 0.956008 0.724575 0.192370
Si Si3 0.141658 0.779075 0.867186
Si Si4 0.624516 0.462567 0.442983
Si Si5 0.594656 0.638933 0.280502
O O1 0.837401 0.582917 0.610320
O O2 0.895652 0.257856 0.565781
O O3 0.890303 0.286468 0.650371
O O4 0.169340 0.461778 0.572046
O O5 0.158481 0.631719 0.169502
O O6 0.814873 0.624267 0.243062
O O7 0.982908 0.934540 0.204163
O O8 0.043150 0.751007 0.832001
O O9 0.039743 0.923090 0.912403
O O10 0.500000 0.500000 0.500000
O O11 0.500000 0.735920 0.250000
#
# Coordination Sequence:
#
# PCOD8153601 Si02
#       5
#     8   8   8   8   8
#     4  11  25  45  77 105 148 193 244 312 383 451
#     4  11  24  43  64 103 144 187 243 300 364 452
#     4  11  26  46  70 103 148 188 247 303 374 456
#     4  11  26  48  76 111 147 191 252 315 386 456
#     4  12  24  40  68 100 144 187 246 297 371 444
#
# _framework density 25.133755000000001
#
# number of rings (size 3 to 8) (size 9 to 14) (size 15 to 20)
#    0.000    0.800    2.000    4.800    5.600    3.200 
#    0.000    1.000    0.000    0.000    0.000    0.000 
#    0.000    0.000    0.000    0.000    0.000    0.000 
#
# Total GULP energy -247870.172886 kJ/mol
# GULP energy per Si atom -12393.508644 kJ/mol
# Density = 2.507655 g / cm^3
# Si number density = 25.133755 Si / 1000 Ang^3
#
#
#
# Elastic Constant Matrix: (Units=GPa)
#
#
# Indices 1 2 3 4 5 6 
#
# 1 60.8869 36.3796 45.5364 0.0000 5.3577 0.0000
# 2 36.3796 106.4739 57.9338 0.0000 3.9804 0.0000
# 3 45.5364 57.9338 193.1416 0.0000 3.5758 0.0000
# 4 0.0000 0.0000 0.0000 38.4758 0.0000 0.9556
# 5 5.3577 3.9804 3.5758 0.0000 29.3138 0.0000
# 6 0.0000 0.0000 0.0000 0.9556 0.0000 36.3926
#
#
#
# Elastic Compliance Matrix: (Units=1/GPa)
#
#
# Indices 1 2 3 4 5 6 
#
# 1 0.022795 -0.005717 -0.003605 0.000000 -0.002950 0.000000
# 2 -0.005717 0.012694 -0.002453 0.000000 -0.000380 0.000000
# 3 -0.003605 -0.002453 0.006760 0.000000 0.000167 0.000000
# 4 0.000000 0.000000 0.000000 0.026007 0.000000 -0.000683
# 5 -0.002950 -0.000380 0.000167 0.000000 0.034684 0.000000
# 6 0.000000 0.000000 0.000000 -0.000683 0.000000 0.027496
#
#
# Mechanical properties :
#
#
# Convention : Reuss Voigt Hill
#
# Bulk Modulus (GPa) = 53.47487 71.13356 62.30422
# Shear Modulus (GPa) = 31.20716 35.54660 33.37688
#
# Velocity S-wave (km/s) = 3.52752 3.76479 3.64809
# Velocity P-wave (km/s) = 6.15739 6.87471 6.52592
#
# Compressibility (1/GPa) = 0.01870037
#
# Stress axis : x y z
#
# Youngs Moduli (GPa) = 43.86850 78.77701 147.92656
#
# Poissons Ratio (x) = 0.45035 0.53327
# Poissons Ratio (y) = 0.25079 0.36283
# Poissons Ratio (z) = 0.15815 0.19322
#
# Static dielectric constant tensor:
#      x y z
#    x 4.409850 0.000000 -0.010830 
#    y 0.000000 4.383980 0.000000 
#    z -0.010830 0.000000 4.886070 
# 
# 
# High freq. dielectric constant tensor:
#      x y z
#    x 1.989550 0.000000 -0.003650 
#    y 0.000000 1.997650 0.000000 
#    z -0.003650 0.000000 2.009590 
# 
# From -- ./inp_files/306431.got.cif
#   From: 2010.06.25/outbox.cif.g09.slc.cpg/sg15_154_cif.got.tgz:306431.got - 2010.06.28 07:06:18.
