data_PCOD8153136
_publ_section_title
;
Structure prediction by ZEFSAII (Michael W. Deem and Ramdas Pophale) SiO2 
 PCOD8153136
Probable space group: C 2/C
;
_chemical_formula_sum "Si O2"
_cell_formula_units_Z 64
_cell_length_a 11.272222
_cell_length_b 15.002625
_cell_length_c 25.902336
_cell_angle_alpha 90.000000
_cell_angle_beta 42.819673
_cell_angle_gamma 90.000000
_cell_volume 2977.341445
_symmetry_space_group_name_H-M "C 2/C"
_symmetry_group_IT_number 15
_symmetry_cell_setting 'monoclinic'
loop_
_space_group_symop_operation_xyz
x,y,z
-x,y,1/2-z
-x,-y,-z
x,-y,1/2+z
1/2+x,1/2+y,z
1/2-x,1/2+y,1/2-z
1/2-x,1/2-y,-z
1/2+x,1/2-y,1/2+z
loop_
_atom_site_type_symbol
_atom_site_label
_atom_site_fract_x
_atom_site_fract_y
_atom_site_fract_z
Si Si1 0.207391 0.277146 0.679038
Si Si2 0.892407 0.176668 0.334108
Si Si3 0.239467 0.943861 0.436203
Si Si4 0.689650 0.597672 0.834249
Si Si5 0.233451 0.845950 0.946741
Si Si6 0.463778 0.763400 0.591265
Si Si7 0.931676 0.651187 0.674836
Si Si8 0.013061 0.079917 0.390862
O O1 0.241241 0.276618 0.607571
O O2 0.291021 0.189021 0.678308
O O3 0.304233 0.366008 0.669643
O O4 0.000000 0.284162 0.750000
O O5 0.686361 0.182292 0.389414
O O6 0.000000 0.140592 0.250000
O O7 0.974293 0.269711 0.324684
O O8 0.894956 0.108541 0.380776
O O9 0.242297 0.903511 0.377693
O O10 0.423155 0.908938 0.401506
O O11 0.084903 0.906394 0.522576
O O12 0.222494 0.050338 0.435587
O O13 0.626334 0.698182 0.837540
O O14 0.848191 0.583660 0.743693
O O15 0.543159 0.524057 0.871377
O O16 0.398208 0.834413 0.932150
O O17 0.053256 0.814549 0.028759
#
# Coordination Sequence:
#
# PCOD8153136 Si02
#       8
#     8   8   8   8   8   8   8   8
#     4  11  25  43  64 100 137 171 224 274 333 402
#     4  11  23  43  67  95 132 180 223 271 336 407
#     4  12  23  42  69 107 131 167 229 286 333 391
#     4  12  21  43  67  98 132 172 221 279 333 387
#     4  11  25  42  67  99 133 178 217 277 333 405
#     4  11  23  43  69  91 136 178 220 264 344 402
#     4  11  25  40  69 100 135 172 222 280 339 394
#     4  11  26  40  70 102 134 169 226 287 332 392
#
# _framework density 21.495685999999999
#
# number of rings (size 3 to 8) (size 9 to 14) (size 15 to 20)
#    0.000    0.750    5.000    2.250    5.250    1.000 
#    0.000    5.000    0.000    0.000    0.000    0.000 
#    0.000    0.000    0.000    0.000    0.000    0.000 
#
# Total GULP energy -396591.578334 kJ/mol
# GULP energy per Si atom -12393.486823 kJ/mol
# Density = 2.144676 g / cm^3
# Si number density = 21.495686 Si / 1000 Ang^3
#
#
#
# Elastic Constant Matrix: (Units=GPa)
#
#
# Indices 1 2 3 4 5 6 
#
# 1 122.5198 40.0074 59.8007 -0.0001 -16.3609 0.0001
# 2 40.0074 67.8821 35.1432 -0.0001 0.3319 0.0001
# 3 59.8007 35.1432 102.5355 -0.0006 -12.8010 0.0002
# 4 -0.0001 -0.0001 -0.0006 1.6490 0.0001 5.0536
# 5 -16.3609 0.3319 -12.8010 0.0001 38.6410 -0.0001
# 6 0.0001 0.0001 0.0002 5.0536 -0.0001 32.5983
#
#
#
# Elastic Compliance Matrix: (Units=1/GPa)
#
#
# Indices 1 2 3 4 5 6 
#
# 1 0.012855 -0.004805 -0.005389 -0.000004 0.003699 0.000001
# 2 -0.004805 0.019900 -0.004479 0.000001 -0.003689 0.000000
# 3 -0.005389 -0.004479 0.014761 0.000009 0.002647 -0.000001
# 4 -0.000004 0.000001 0.000009 1.155288 -0.000004 -0.179098
# 5 0.003699 -0.003689 0.002647 -0.000004 0.028354 0.000001
# 6 0.000001 0.000000 -0.000001 -0.179098 0.000001 0.058441
#
#
# Mechanical properties :
#
#
# Convention : Reuss Voigt Hill
#
# Bulk Modulus (GPa) = 55.03140 62.53779 58.78460
# Shear Modulus (GPa) = 3.77358 25.11007 14.44183
#
# Velocity S-wave (km/s) = 1.32639 3.42152 2.59481
# Velocity P-wave (km/s) = 5.29174 6.69070 6.03191
#
# Compressibility (1/GPa) = 0.01817144
#
# Stress axis : x y z
#
# Youngs Moduli (GPa) = 77.79105 50.25143 67.74556
#
# Poissons Ratio (x) = 0.24144 0.36506
# Poissons Ratio (y) = 0.37375 0.30343
# Poissons Ratio (z) = 0.41920 0.22508
#
# Static dielectric constant tensor:
#      x y z
#    x 4.029180 0.000000 -0.197510 
#    y 0.000000 3.745140 0.000000 
#    z -0.197510 0.000000 4.263610 
# 
# 
# High freq. dielectric constant tensor:
#      x y z
#    x 1.840520 0.000000 -0.012840 
#    y 0.000000 1.827890 0.000000 
#    z -0.012840 0.000000 1.859600 
# 
# From -- ./inp_files/293058.got.cif
#   From: 2010.06.25/outbox.cif.g09.slc.cpg/sg15_147_cif.got.tgz:293058.got - 2010.06.28 07:06:18.
