data_PCOD8153076
_publ_section_title
;
Structure prediction by ZEFSAII (Michael W. Deem and Ramdas Pophale) SiO2 
 PCOD8153076
Probable space group: C 2/C
;
_chemical_formula_sum "Si O2"
_cell_formula_units_Z 56
_cell_length_a 8.627805
_cell_length_b 14.830324
_cell_length_c 21.268474
_cell_angle_alpha 90.000000
_cell_angle_beta 112.499555
_cell_angle_gamma 90.000000
_cell_volume 2514.224383
_symmetry_space_group_name_H-M "C 2/C"
_symmetry_group_IT_number 15
_symmetry_cell_setting 'monoclinic'
loop_
_space_group_symop_operation_xyz
x,y,z
-x,y,1/2-z
-x,-y,-z
x,-y,1/2+z
1/2+x,1/2+y,z
1/2-x,1/2+y,1/2-z
1/2-x,1/2-y,-z
1/2+x,1/2-y,1/2+z
loop_
_atom_site_type_symbol
_atom_site_label
_atom_site_fract_x
_atom_site_fract_y
_atom_site_fract_z
Si Si1 0.976107 0.697414 0.918621
Si Si2 0.308181 0.037318 0.573821
Si Si3 0.500000 0.130252 0.250000
Si Si4 0.015924 0.645439 0.441805
Si Si5 0.654430 0.376885 0.928055
Si Si6 0.000000 0.918962 0.250000
Si Si7 0.163156 0.974920 0.675009
Si Si8 0.110641 0.768984 0.356041
O O1 0.805338 0.741195 0.865397
O O2 0.052106 0.614462 0.890106
O O3 0.111600 0.776636 0.945963
O O4 0.929475 0.650675 0.977447
O O5 0.196527 0.062244 0.495535
O O6 0.390709 0.938642 0.577011
O O7 0.190331 0.036334 0.617221
O O8 0.667075 0.075965 0.285064
O O9 0.484383 0.195445 0.307160
O O10 0.815389 0.629772 0.407262
O O11 0.076826 0.743435 0.423567
O O12 0.501536 0.415056 0.863332
O O13 0.937057 0.866272 0.177991
O O14 0.855200 0.976318 0.260460
#
# Coordination Sequence:
#
# PCOD8153076 Si02
#       8
#     8   8   4   8   8   4   8   8
#     4  11  23  42  70 109 137 177 220 281 348 415
#     4  11  24  43  74 104 139 178 226 290 351 411
#     4  11  24  50  64  95 132 188 229 276 342 404
#     4  11  23  42  73 102 142 176 219 289 345 416
#     4  11  24  43  71 109 134 178 225 289 355 404
#     4  11  32  42  68 101 126 192 235 288 328 420
#     4  12  27  46  71  95 140 179 242 285 342 415
#     4  11  25  46  67  95 141 180 230 275 345 405
#
# _framework density 22.273268999999999
#
# number of rings (size 3 to 8) (size 9 to 14) (size 15 to 20)
#    0.000    0.857    2.857    4.286   12.000    0.000 
#    0.000    0.000    0.000    0.000    0.000    0.000 
#    0.000    0.000    0.000    0.000    0.000    0.000 
#
# Total GULP energy -346882.499639 kJ/mol
# GULP energy per Si atom -12388.660701 kJ/mol
# Density = 2.222257 g / cm^3
# Si number density = 22.273269 Si / 1000 Ang^3
#
#
#
# Elastic Constant Matrix: (Units=GPa)
#
#
# Indices 1 2 3 4 5 6 
#
# 1 100.7652 31.4462 38.7802 0.0000 -4.1685 0.0000
# 2 31.4462 81.6651 29.2620 0.0000 -10.5841 0.0000
# 3 38.7802 29.2620 61.2302 0.0000 4.4207 0.0000
# 4 0.0000 0.0000 0.0000 -46.6637 0.0000 94.4459
# 5 -4.1685 -10.5841 4.4207 0.0000 50.7448 0.0000
# 6 0.0000 0.0000 0.0000 94.4459 0.0000 -80.1836
#
#
#
# Elastic Compliance Matrix: (Units=1/GPa)
#
#
# Indices 1 2 3 4 5 6 
#
# 1 0.013641 -0.002360 -0.007604 0.000000 0.001291 0.000000
# 2 -0.002360 0.015916 -0.006377 0.000000 0.003681 0.000000
# 3 -0.007604 -0.006377 0.024491 0.000000 -0.004088 0.000000
# 4 0.000000 0.000000 0.000000 0.015484 0.000000 0.018239
# 5 0.001291 0.003681 -0.004088 0.000000 0.020936 0.000000
# 6 0.000000 0.000000 0.000000 0.018239 0.000000 0.009011
#
#
# Mechanical properties :
#
#
# Convention : Reuss Voigt Hill
#
# Bulk Modulus (GPa) = 46.80845 49.18193 47.99519
# Shear Modulus (GPa) = 35.89748 -5.60903 15.14422
#
# Velocity S-wave (km/s) = 4.01893 -1.58863 2.61037
# Velocity P-wave (km/s) = 6.52663 4.33175 5.53900
#
# Compressibility (1/GPa) = 0.02136367
#
# Stress axis : x y z
#
# Youngs Moduli (GPa) = 73.30983 62.82891 40.83136
#
# Poissons Ratio (x) = 0.14830 0.31050
# Poissons Ratio (y) = 0.17304 0.26039
# Poissons Ratio (z) = 0.55748 0.40067
#
# Static dielectric constant tensor:
#      x y z
#    x 5.041040 0.000000 -0.600780 
#    y 0.000000 4.106220 0.000000 
#    z -0.600780 0.000000 4.587230 
# 
# 
# High freq. dielectric constant tensor:
#      x y z
#    x 1.886120 0.000000 0.003830 
#    y 0.000000 1.882650 0.000000 
#    z 0.003830 0.000000 1.871040 
# 
# From -- ./inp_files/264426.got.cif
#   From: 2010.06.25/outbox.cif.g09.slc.cpg/sg15_133_cif.got.tgz:264426.got - 2010.06.28 07:06:18.
