data_PCOD8153678
_publ_section_title
;
Structure prediction by ZEFSAII (Michael W. Deem and Ramdas Pophale) SiO2 
 PCOD8153678
Probable space group: C 2/C
;
_chemical_formula_sum "Si O2"
_cell_formula_units_Z 40
_cell_length_a 5.197760
_cell_length_b 12.454167
_cell_length_c 28.643237
_cell_angle_alpha 90.000000
_cell_angle_beta 97.724804
_cell_angle_gamma 90.000000
_cell_volume 1837.358210
_symmetry_space_group_name_H-M "C 2/C"
_symmetry_group_IT_number 15
_symmetry_cell_setting 'monoclinic'
loop_
_space_group_symop_operation_xyz
x,y,z
-x,y,1/2-z
-x,-y,-z
x,-y,1/2+z
1/2+x,1/2+y,z
1/2-x,1/2+y,1/2-z
1/2-x,1/2-y,-z
1/2+x,1/2-y,1/2+z
loop_
_atom_site_type_symbol
_atom_site_label
_atom_site_fract_x
_atom_site_fract_y
_atom_site_fract_z
Si Si1 0.628326 0.067542 0.887606
Si Si2 0.981857 0.289899 0.036248
Si Si3 0.500000 0.261390 0.250000
Si Si4 0.236151 0.072830 0.024514
Si Si5 0.585210 0.559372 0.826768
Si Si6 0.500000 0.617290 0.250000
O O1 0.600277 0.182945 0.912681
O O2 0.385203 0.045824 0.848156
O O3 0.899431 0.068434 0.866868
O O4 0.629219 0.977612 0.927394
O O5 0.181865 0.192961 0.042131
O O6 0.750000 0.250000 0.000000
O O7 0.079220 0.403520 0.015637
O O8 0.437382 0.333101 0.203728
O O9 0.254228 0.189510 0.256225
O O10 0.000000 0.000000 0.000000
O O11 0.497126 0.455675 0.795884
#
# Coordination Sequence:
#
# PCOD8153678 Si02
#       6
#     8   8   4   8   8   4
#     4  12  25  44  69 101 143 174 233 290 330 405
#     4  11  25  42  66  94 136 191 236 275 347 393
#     4  11  24  49  76  98 142 175 214 279 356 418
#     4  11  24  44  65  93 137 191 233 285 337 398
#     4  11  27  45  68 109 135 171 227 285 338 416
#     4  11  24  49  76  96 136 181 214 269 364 418
#
# _framework density 21.770389999999999
#
# number of rings (size 3 to 8) (size 9 to 14) (size 15 to 20)
#    0.000    0.800    2.000    4.200    5.600    8.000 
#    0.000    0.000    0.000    0.000    0.000    0.000 
#    0.000    0.000    0.000    0.000    0.000    0.000 
#
# Total GULP energy -248001.817429 kJ/mol
# GULP energy per Si atom -12400.090871 kJ/mol
# Density = 2.172084 g / cm^3
# Si number density = 21.770390 Si / 1000 Ang^3
#
#
#
# Elastic Constant Matrix: (Units=GPa)
#
#
# Indices 1 2 3 4 5 6 
#
# 1 106.5127 18.8066 30.6740 0.0000 -3.7148 0.0000
# 2 18.8066 97.6721 54.4996 0.0000 -6.1813 0.0000
# 3 30.6740 54.4996 106.8399 0.0000 0.3179 0.0000
# 4 0.0000 0.0000 0.0000 29.4717 0.0000 14.3267
# 5 -3.7148 -6.1813 0.3179 0.0000 51.6466 0.0000
# 6 0.0000 0.0000 0.0000 14.3267 0.0000 31.1796
#
#
#
# Elastic Compliance Matrix: (Units=1/GPa)
#
#
# Indices 1 2 3 4 5 6 
#
# 1 0.010275 -0.000400 -0.002748 0.000000 0.000708 0.000000
# 2 -0.000400 0.014489 -0.007281 0.000000 0.001750 0.000000
# 3 -0.002748 -0.007281 0.013866 0.000000 -0.001154 0.000000
# 4 0.000000 0.000000 0.000000 0.043690 0.000000 -0.020075
# 5 0.000708 0.001750 -0.001154 0.000000 0.019630 0.000000
# 6 0.000000 0.000000 0.000000 -0.020075 0.000000 0.041297
#
#
# Mechanical properties :
#
#
# Convention : Reuss Voigt Hill
#
# Bulk Modulus (GPa) = 56.26936 57.66501 56.96718
# Shear Modulus (GPa) = 29.40667 36.26254 32.83460
#
# Velocity S-wave (km/s) = 3.67926 4.08570 3.88780
# Velocity P-wave (km/s) = 6.62964 6.98589 6.81009
#
# Compressibility (1/GPa) = 0.01777166
#
# Stress axis : x y z
#
# Youngs Moduli (GPa) = 97.32069 69.01802 72.11712
#
# Poissons Ratio (x) = 0.02763 0.19817
# Poissons Ratio (y) = 0.03896 0.52510
# Poissons Ratio (z) = 0.26743 0.50253
#
# Static dielectric constant tensor:
#      x y z
#    x 3.907590 0.000000 -0.117060 
#    y 0.000000 3.327480 0.000000 
#    z -0.117060 0.000000 4.075290 
# 
# 
# High freq. dielectric constant tensor:
#      x y z
#    x 1.868730 0.000000 -0.004370 
#    y 0.000000 1.876420 0.000000 
#    z -0.004370 0.000000 1.861910 
# 
# From -- ./inp_files/285268.got.cif
#   From: 2010.06.25/outbox.cif.g09.slc.cpg/sg15_143_cif.got.tgz:285268.got - 2010.06.28 07:06:18.
