data_PCOD8153829
_publ_section_title
;
Structure prediction by ZEFSAII (Michael W. Deem and Ramdas Pophale) SiO2 
 PCOD8153829
Probable space group: C 2/C
;
_chemical_formula_sum "Si O2"
_cell_formula_units_Z 32
_cell_length_a 5.286844
_cell_length_b 21.093557
_cell_length_c 10.471765
_cell_angle_alpha 90.000000
_cell_angle_beta 89.905418
_cell_angle_gamma 90.000000
_cell_volume 1167.792314
_symmetry_space_group_name_H-M "C 2/C"
_symmetry_group_IT_number 15
_symmetry_cell_setting 'monoclinic'
loop_
_space_group_symop_operation_xyz
x,y,z
-x,y,1/2-z
-x,-y,-z
x,-y,1/2+z
1/2+x,1/2+y,z
1/2-x,1/2+y,1/2-z
1/2-x,1/2-y,-z
1/2+x,1/2-y,1/2+z
loop_
_atom_site_type_symbol
_atom_site_label
_atom_site_fract_x
_atom_site_fract_y
_atom_site_fract_z
Si Si1 0.749854 0.280502 0.681963
Si Si2 0.263036 0.565916 0.917234
Si Si3 0.250165 0.956287 0.793247
Si Si4 0.237471 0.350969 0.082214
O O1 0.500000 0.306450 0.750000
O O2 0.745248 0.311293 0.545086
O O3 0.749294 0.203578 0.688992
O O4 0.000000 0.306032 0.750000
O O5 0.245247 0.518783 0.797502
O O6 0.253514 0.528663 0.054984
O O7 0.527589 0.601779 0.903999
O O8 0.028049 0.612842 0.907956
O O9 0.500000 0.916953 0.750000
O O10 0.000000 0.917366 0.750000
#
# Coordination Sequence:
#
# PCOD8153829 Si02
#       4
#     8   8   8   8
#     4  11  24  45  72 108 142 175 234 299 358 449
#     4  12  26  46  72 103 146 196 238 295 360 422
#     4  12  26  46  68 100 142 190 250 296 344 420
#     4  11  26  45  72 105 140 187 234 292 374 430
#
# _framework density 27.402134
#
# number of rings (size 3 to 8) (size 9 to 14) (size 15 to 20)
#    0.000    0.500    0.000    7.500    0.000   16.000 
#    0.000    0.000    0.000    0.000    0.000    0.000 
#    0.000    0.000    0.000    0.000    0.000    0.000 
#
# Total GULP energy -198259.053415 kJ/mol
# GULP energy per Si atom -12391.190838 kJ/mol
# Density = 2.733977 g / cm^3
# Si number density = 27.402134 Si / 1000 Ang^3
#
#
#
# Elastic Constant Matrix: (Units=GPa)
#
#
# Indices 1 2 3 4 5 6 
#
# 1 220.9461 5.0014 7.6880 0.0000 -5.6053 0.0000
# 2 5.0014 111.9503 42.7117 0.0000 5.7865 0.0000
# 3 7.6880 42.7117 116.8972 0.0000 9.9844 0.0000
# 4 0.0000 0.0000 0.0000 43.1499 0.0000 5.6971
# 5 -5.6053 5.7865 9.9844 0.0000 44.1968 0.0000
# 6 0.0000 0.0000 0.0000 5.6971 0.0000 -9.1421
#
#
#
# Elastic Compliance Matrix: (Units=1/GPa)
#
#
# Indices 1 2 3 4 5 6 
#
# 1 0.004556 -0.000118 -0.000313 0.000000 0.000664 0.000000
# 2 -0.000118 0.010394 -0.003745 0.000000 -0.000530 0.000000
# 3 -0.000313 -0.003745 0.010100 0.000000 -0.001831 0.000000
# 4 0.000000 0.000000 0.000000 0.021413 0.000000 0.013344
# 5 0.000664 -0.000530 -0.001831 0.000000 0.023193 0.000000
# 6 0.000000 0.000000 0.000000 0.013344 0.000000 -0.101069
#
#
# Mechanical properties :
#
#
# Convention : Reuss Voigt Hill
#
# Bulk Modulus (GPa) = 59.88868 62.28842 61.08855
# Shear Modulus (GPa) = -285.81230 41.93375 -121.93927
#
# Velocity S-wave (km/s) = -10.22396 3.91616 -6.67806
# Velocity P-wave (km/s) = 10.83834 6.57488 6.09264
#
# Compressibility (1/GPa) = 0.01669765
#
# Stress axis : x y z
#
# Youngs Moduli (GPa) = 219.47084 96.21043 99.01256
#
# Poissons Ratio (x) = 0.01139 0.03100
# Poissons Ratio (y) = 0.02599 0.37077
# Poissons Ratio (z) = 0.06872 0.36027
#
# Static dielectric constant tensor:
#      x y z
#    x 8.211100 0.000000 -0.588840 
#    y 0.000000 5.226810 0.000000 
#    z -0.588840 0.000000 5.588100 
# 
# 
# High freq. dielectric constant tensor:
#      x y z
#    x 2.142060 0.000000 -0.004380 
#    y 0.000000 2.115010 0.000000 
#    z -0.004380 0.000000 2.120820 
# 
# From -- ./inp_files/72188.got.cif
#   From: 2010.06.25/outbox.cif.g09.slc.cpg/sg15_37_cif.got.tgz:72188.got - 2010.06.28 07:06:18.
