data_PCOD8153522
_publ_section_title
;
Structure prediction by ZEFSAII (Michael W. Deem and Ramdas Pophale) SiO2 
 PCOD8153522
Probable space group: C 2/C
;
_chemical_formula_sum "Si O2"
_cell_formula_units_Z 56
_cell_length_a 23.892026
_cell_length_b 14.184338
_cell_length_c 9.268400
_cell_angle_alpha 90.000000
_cell_angle_beta 120.590152
_cell_angle_gamma 90.000000
_cell_volume 2703.858528
_symmetry_space_group_name_H-M "C 2/C"
_symmetry_group_IT_number 15
_symmetry_cell_setting 'monoclinic'
loop_
_space_group_symop_operation_xyz
x,y,z
-x,y,1/2-z
-x,-y,-z
x,-y,1/2+z
1/2+x,1/2+y,z
1/2-x,1/2+y,1/2-z
1/2-x,1/2-y,-z
1/2+x,1/2-y,1/2+z
loop_
_atom_site_type_symbol
_atom_site_label
_atom_site_fract_x
_atom_site_fract_y
_atom_site_fract_z
Si Si1 0.250644 0.965079 0.946962
Si Si2 0.030710 0.579955 0.445693
Si Si3 0.524381 0.250373 0.634702
Si Si4 0.132220 0.058589 0.921719
Si Si5 0.443575 0.569105 0.967428
Si Si6 0.659996 0.302303 0.702189
Si Si7 0.179455 0.591431 0.691392
O O1 0.213037 0.871751 0.842101
O O2 0.205533 0.026865 0.991557
O O3 0.271757 0.031320 0.842959
O O4 0.311194 0.934693 0.127078
O O5 0.013167 0.681286 0.486989
O O6 0.107874 0.565415 0.544535
O O7 0.000000 0.574044 0.250000
O O8 0.000000 0.500000 0.500000
O O9 0.500000 0.199126 0.750000
O O10 0.473742 0.334137 0.556056
O O11 0.600158 0.283492 0.734959
O O12 0.101980 0.085695 0.729213
O O13 0.129542 0.149885 0.020021
O O14 0.095388 0.971810 0.948177
O O15 0.500000 0.500000 0.000000
O O16 0.693197 0.203916 0.697202
#
# Coordination Sequence:
#
# PCOD8153522 Si02
#       7
#     8   8   8   8   8   8   8
#     4  12  22  47  65  96 133 177 219 277 329 391
#     4  11  25  47  70  97 133 168 222 281 329 392
#     4  11  24  40  67 101 134 178 219 264 336 396
#     4  12  23  40  64  96 139 175 217 274 326 400
#     4  12  22  36  64  96 138 175 214 259 334 392
#     4  11  24  43  67  98 137 171 230 272 329 399
#     4  11  26  43  72  94 128 176 221 271 338 394
#
# _framework density 20.711141999999999
#
# number of rings (size 3 to 8) (size 9 to 14) (size 15 to 20)
#    0.000    0.571    4.286    3.857    4.000    1.714 
#    0.000    1.429    0.000    0.000    0.000    0.000 
#    0.000    0.000    0.000    0.000    0.000    0.000 
#
# Total GULP energy -347223.151350 kJ/mol
# GULP energy per Si atom -12400.826834 kJ/mol
# Density = 2.066400 g / cm^3
# Si number density = 20.711142 Si / 1000 Ang^3
#
#
#
# Elastic Constant Matrix: (Units=GPa)
#
#
# Indices 1 2 3 4 5 6 
#
# 1 115.1617 60.0405 46.4315 0.0000 -7.1607 0.0000
# 2 60.0405 122.0314 40.2864 0.0000 -4.5363 0.0000
# 3 46.4315 40.2864 121.9498 0.0000 6.8221 0.0000
# 4 0.0000 0.0000 0.0000 34.6441 0.0000 0.7133
# 5 -7.1607 -4.5363 6.8221 0.0000 31.1751 0.0000
# 6 0.0000 0.0000 0.0000 0.7133 0.0000 34.3284
#
#
#
# Elastic Compliance Matrix: (Units=1/GPa)
#
#
# Indices 1 2 3 4 5 6 
#
# 1 0.012902 -0.005120 -0.003387 0.000000 0.002960 0.000000
# 2 -0.005120 0.011358 -0.001852 0.000000 0.000882 0.000000
# 3 -0.003387 -0.001852 0.010286 0.000000 -0.003298 0.000000
# 4 0.000000 0.000000 0.000000 0.028877 0.000000 -0.000600
# 5 0.002960 0.000882 -0.003298 0.000000 0.033607 0.000000
# 6 0.000000 0.000000 0.000000 -0.000600 0.000000 0.029143
#
#
# Mechanical properties :
#
#
# Convention : Reuss Voigt Hill
#
# Bulk Modulus (GPa) = 72.31323 72.51776 72.41550
# Shear Modulus (GPa) = 33.00336 34.18850 33.59593
#
# Velocity S-wave (km/s) = 3.99621 4.06733 4.03192
# Velocity P-wave (km/s) = 7.50225 7.55959 7.53098
#
# Compressibility (1/GPa) = 0.01382873
#
# Stress axis : x y z
#
# Youngs Moduli (GPa) = 77.50589 88.04455 97.22085
#
# Poissons Ratio (x) = 0.45079 0.32925
# Poissons Ratio (y) = 0.39683 0.18006
# Poissons Ratio (z) = 0.26248 0.16306
#
# Static dielectric constant tensor:
#      x y z
#    x 3.831800 0.000000 0.018840 
#    y 0.000000 3.482720 0.000000 
#    z 0.018840 0.000000 4.295300 
# 
# 
# High freq. dielectric constant tensor:
#      x y z
#    x 1.813640 0.000000 -0.002550 
#    y 0.000000 1.816140 0.000000 
#    z -0.002550 0.000000 1.824560 
# 
# From -- ./inp_files/61978.got.cif
#   From: 2010.06.25/outbox.cif.g09.slc.cpg/sg15_31_cif.got.tgz:61978.got - 2010.06.28 07:06:18.
