data_PCOD8153408
_publ_section_title
;
Structure prediction by ZEFSAII (Michael W. Deem and Ramdas Pophale) SiO2 
 PCOD8153408
Probable space group: C 2/C
;
_chemical_formula_sum "Si O2"
_cell_formula_units_Z 56
_cell_length_a 7.724840
_cell_length_b 12.270007
_cell_length_c 29.285784
_cell_angle_alpha 90.000000
_cell_angle_beta 64.377638
_cell_angle_gamma 90.000000
_cell_volume 2502.855641
_symmetry_space_group_name_H-M "C 2/C"
_symmetry_group_IT_number 15
_symmetry_cell_setting 'monoclinic'
loop_
_space_group_symop_operation_xyz
x,y,z
-x,y,1/2-z
-x,-y,-z
x,-y,1/2+z
1/2+x,1/2+y,z
1/2-x,1/2+y,1/2-z
1/2-x,1/2-y,-z
1/2+x,1/2-y,1/2+z
loop_
_atom_site_type_symbol
_atom_site_label
_atom_site_fract_x
_atom_site_fract_y
_atom_site_fract_z
Si Si1 0.200227 0.935623 0.156267
Si Si2 0.566936 0.957964 0.942962
Si Si3 0.365882 0.299101 0.945626
Si Si4 0.751686 0.078367 0.097550
Si Si5 0.417556 0.859969 0.364708
Si Si6 0.529640 0.787745 0.692538
Si Si7 0.143433 0.165316 0.194669
O O1 0.308676 0.946300 0.095110
O O2 0.088238 0.048345 0.179540
O O3 0.373417 0.909992 0.172859
O O4 0.043431 0.839969 0.177601
O O5 0.711233 0.857549 0.930972
O O6 0.394613 0.915393 0.929263
O O7 0.500000 0.000000 0.000000
O O8 0.535798 0.382664 0.942198
O O9 0.450025 0.194148 0.910564
O O10 0.250000 0.250000 0.000000
O O11 0.708200 0.151322 0.147983
O O12 0.748222 0.952615 0.114754
O O13 0.353429 0.765681 0.339166
O O14 0.500000 0.803399 0.750000
O O15 0.354552 0.848444 0.689445
O O16 0.000000 0.199426 0.250000
#
# Coordination Sequence:
#
# PCOD8153408 Si02
#       7
#     8   8   8   8   8   8   8
#     4  11  23  48  69 102 146 183 241 307 357 431
#     4  11  25  47  73 108 148 193 244 306 369 437
#     4  12  25  45  74 106 145 192 247 304 363 442
#     4  11  26  48  74 106 149 193 247 306 370 448
#     4  11  23  46  69 103 142 183 246 300 359 444
#     4  12  25  46  71 102 142 194 239 304 375 432
#     4  12  26  44  71 104 140 190 245 296 372 436
#
# _framework density 22.374442999999999
#
# number of rings (size 3 to 8) (size 9 to 14) (size 15 to 20)
#    0.000    0.571    5.714    3.000    2.000    3.429 
#    2.571    0.000    0.000    0.000    0.000    0.000 
#    0.000    0.000    0.000    0.000    0.000    0.000 
#
# Total GULP energy -346946.355551 kJ/mol
# GULP energy per Si atom -12390.941270 kJ/mol
# Density = 2.232352 g / cm^3
# Si number density = 22.374443 Si / 1000 Ang^3
#
#
#
# Elastic Constant Matrix: (Units=GPa)
#
#
# Indices 1 2 3 4 5 6 
#
# 1 66.2740 42.4941 42.0881 0.0000 -4.0152 0.0000
# 2 42.4941 159.5220 46.1839 0.0000 5.1944 0.0000
# 3 42.0881 46.1839 126.8889 0.0000 9.0888 0.0000
# 4 0.0000 0.0000 0.0000 38.5644 0.0000 0.7759
# 5 -4.0152 5.1944 9.0888 0.0000 31.7324 0.0000
# 6 0.0000 0.0000 0.0000 0.7759 0.0000 44.3574
#
#
#
# Elastic Compliance Matrix: (Units=1/GPa)
#
#
# Indices 1 2 3 4 5 6 
#
# 1 0.022036 -0.004265 -0.006132 0.000000 0.005243 0.000000
# 2 -0.004265 0.007838 -0.001335 0.000000 -0.001440 0.000000
# 3 -0.006132 -0.001335 0.010659 0.000000 -0.003610 0.000000
# 4 0.000000 0.000000 0.000000 0.025940 0.000000 -0.000454
# 5 0.005243 -0.001440 -0.003610 0.000000 0.033447 0.000000
# 6 0.000000 0.000000 0.000000 -0.000454 0.000000 0.022552
#
#
# Mechanical properties :
#
#
# Convention : Reuss Voigt Hill
#
# Bulk Modulus (GPa) = 58.58737 68.24633 63.41685
# Shear Modulus (GPa) = 32.97573 37.72539 35.35056
#
# Velocity S-wave (km/s) = 3.84319 4.11066 3.97917
# Velocity P-wave (km/s) = 6.77756 7.28685 7.03681
#
# Compressibility (1/GPa) = 0.01706853
#
# Stress axis : x y z
#
# Youngs Moduli (GPa) = 45.38091 127.57794 93.81390
#
# Poissons Ratio (x) = 0.54416 0.57528
# Poissons Ratio (y) = 0.19356 0.12524
# Poissons Ratio (z) = 0.27828 0.17031
#
# Static dielectric constant tensor:
#      x y z
#    x 3.998050 0.000000 0.557780 
#    y 0.000000 5.001840 0.000000 
#    z 0.557780 0.000000 4.074380 
# 
# 
# High freq. dielectric constant tensor:
#      x y z
#    x 1.870730 0.000000 -0.007330 
#    y 0.000000 1.900580 0.000000 
#    z -0.007330 0.000000 1.884500 
# 
# From -- ./inp_files/307406.got.cif
#   From: 2010.06.25/outbox.cif.g09.slc.cpg/sg15_154_cif.got.tgz:307406.got - 2010.06.28 07:06:18.
