data_PCOD8153349
_publ_section_title
;
Structure prediction by ZEFSAII (Michael W. Deem and Ramdas Pophale) SiO2 
 PCOD8153349
Probable space group: C 2/C
;
_chemical_formula_sum "Si O2"
_cell_formula_units_Z 48
_cell_length_a 8.926038
_cell_length_b 26.664599
_cell_length_c 13.982236
_cell_angle_alpha 90.000000
_cell_angle_beta 42.555813
_cell_angle_gamma 90.000000
_cell_volume 2250.686443
_symmetry_space_group_name_H-M "C 2/C"
_symmetry_group_IT_number 15
_symmetry_cell_setting 'monoclinic'
loop_
_space_group_symop_operation_xyz
x,y,z
-x,y,1/2-z
-x,-y,-z
x,-y,1/2+z
1/2+x,1/2+y,z
1/2-x,1/2+y,1/2-z
1/2-x,1/2-y,-z
1/2+x,1/2-y,1/2+z
loop_
_atom_site_type_symbol
_atom_site_label
_atom_site_fract_x
_atom_site_fract_y
_atom_site_fract_z
Si Si1 0.480020 0.545632 0.647795
Si Si2 0.368150 0.721071 0.029630
Si Si3 0.461106 0.896042 0.161696
Si Si4 0.145611 0.711455 0.775672
Si Si5 0.746369 0.111542 0.114686
Si Si6 0.432364 0.434657 0.889986
O O1 0.500000 0.545072 0.750000
O O2 0.662872 0.583423 0.521494
O O3 0.525512 0.489891 0.585661
O O4 0.232085 0.562900 0.741961
O O5 0.376148 0.747902 0.129474
O O6 0.228778 0.670427 0.106462
O O7 0.250000 0.750000 0.000000
O O8 0.610384 0.707586 0.880585
O O9 0.500000 0.878606 0.250000
O O10 0.404837 0.841343 0.144271
O O11 0.674085 0.920938 0.013715
O O12 0.000000 0.725505 0.750000
O O13 0.500000 0.090396 0.250000
O O14 0.916484 0.103290 0.121806
O O15 0.500000 0.431058 0.750000
#
# Coordination Sequence:
#
# PCOD8153349 Si02
#       6
#     8   8   8   8   8   8
#     4  11  26  43  70  99 133 184 226 279 347 406
#     4  12  26  45  68 104 136 181 233 283 345 410
#     4  11  23  45  71  96 137 182 228 276 340 415
#     4  11  24  45  70  99 136 184 230 282 344 408
#     4  12  26  44  66 102 139 178 225 287 345 399
#     4  11  27  44  68 104 136 178 233 282 338 411
#
# _framework density 21.326827999999999
#
# number of rings (size 3 to 8) (size 9 to 14) (size 15 to 20)
#    0.000    0.667    3.333    3.500    7.000    3.333 
#    0.000    0.000    0.000    0.000    0.000    0.000 
#    0.000    0.000    0.000    0.000    0.000    0.000 
#
# Total GULP energy -297555.207385 kJ/mol
# GULP energy per Si atom -12398.133641 kJ/mol
# Density = 2.127829 g / cm^3
# Si number density = 21.326828 Si / 1000 Ang^3
#
#
#
# Elastic Constant Matrix: (Units=GPa)
#
#
# Indices 1 2 3 4 5 6 
#
# 1 79.7099 24.6250 31.8665 0.0000 -5.5462 0.0000
# 2 24.6250 124.8415 48.6401 0.0000 2.2834 0.0000
# 3 31.8665 48.6401 153.9408 0.0000 -26.4412 0.0000
# 4 0.0000 0.0000 0.0000 37.6949 0.0000 1.5116
# 5 -5.5462 2.2834 -26.4412 0.0000 47.9630 0.0000
# 6 0.0000 0.0000 0.0000 1.5116 0.0000 48.3269
#
#
#
# Elastic Compliance Matrix: (Units=1/GPa)
#
#
# Indices 1 2 3 4 5 6 
#
# 1 0.014060 -0.001917 -0.002220 0.000000 0.000493 0.000000
# 2 -0.001917 0.009619 -0.003048 0.000000 -0.002360 0.000000
# 3 -0.002220 -0.003048 0.008726 0.000000 0.004699 0.000000
# 4 0.000000 0.000000 0.000000 0.026562 0.000000 -0.000831
# 5 0.000493 -0.002360 0.004699 0.000000 0.023609 0.000000
# 6 0.000000 0.000000 0.000000 -0.000831 0.000000 0.020718
#
#
# Mechanical properties :
#
#
# Convention : Reuss Voigt Hill
#
# Bulk Modulus (GPa) = 55.45002 63.19506 59.32254
# Shear Modulus (GPa) = 40.42857 43.68767 42.05812
#
# Velocity S-wave (km/s) = 4.35865 4.53093 4.44562
# Velocity P-wave (km/s) = 7.16847 7.55437 7.36395
#
# Compressibility (1/GPa) = 0.01803426
#
# Stress axis : x y z
#
# Youngs Moduli (GPa) = 71.12567 103.96147 114.60617
#
# Poissons Ratio (x) = 0.19934 0.25441
# Poissons Ratio (y) = 0.13638 0.34928
# Poissons Ratio (z) = 0.15789 0.31684
#
# Static dielectric constant tensor:
#      x y z
#    x 3.165360 0.000000 0.193360 
#    y 0.000000 4.165330 0.000000 
#    z 0.193360 0.000000 3.907390 
# 
# 
# High freq. dielectric constant tensor:
#      x y z
#    x 1.842990 0.000000 -0.002090 
#    y 0.000000 1.850080 0.000000 
#    z -0.002090 0.000000 1.853590 
# 
# From -- ./inp_files/138922.got.cif
#   From: 2010.06.25/outbox.cif.g09.slc.cpg/sg15_70_cif.got.tgz:138922.got - 2010.06.28 07:06:18.
