data_PCOD8153243
_publ_section_title
;
Structure prediction by ZEFSAII (Michael W. Deem and Ramdas Pophale) SiO2 
 PCOD8153243
Probable space group: C 2/C
;
_chemical_formula_sum "Si O2"
_cell_formula_units_Z 40
_cell_length_a 19.618069
_cell_length_b 7.632161
_cell_length_c 25.663599
_cell_angle_alpha 90.000000
_cell_angle_beta 152.124566
_cell_angle_gamma 90.000000
_cell_volume 1796.595024
_symmetry_space_group_name_H-M "C 2/C"
_symmetry_group_IT_number 15
_symmetry_cell_setting 'monoclinic'
loop_
_space_group_symop_operation_xyz
x,y,z
-x,y,1/2-z
-x,-y,-z
x,-y,1/2+z
1/2+x,1/2+y,z
1/2-x,1/2+y,1/2-z
1/2-x,1/2-y,-z
1/2+x,1/2-y,1/2+z
loop_
_atom_site_type_symbol
_atom_site_label
_atom_site_fract_x
_atom_site_fract_y
_atom_site_fract_z
Si Si1 0.696040 0.556520 0.021665
Si Si2 0.573152 0.449146 0.603852
Si Si3 0.146416 0.248391 0.318278
Si Si4 0.309938 0.044239 0.985598
Si Si5 0.612938 0.114738 0.685657
O O1 0.787366 0.437926 0.123104
O O2 0.736056 0.494974 0.990628
O O3 0.524499 0.529615 0.915609
O O4 0.736738 0.758535 0.060301
O O5 0.500000 0.500000 0.500000
O O6 0.577750 0.237742 0.612051
O O7 0.736035 0.517253 0.720277
O O8 0.118827 0.251291 0.238235
O O9 0.000000 0.211298 0.250000
O O10 0.256068 0.090424 0.405396
O O11 0.485210 0.027935 0.107722
#
# Coordination Sequence:
#
# PCOD8153243 Si02
#       5
#     8   8   8   8   8
#     4  11  23  44  68  97 140 174 228 290 335 414
#     4  12  25  44  69 101 142 183 233 288 344 417
#     4  12  23  43  71 101 136 180 232 289 349 411
#     4  11  24  44  70 102 136 180 231 288 348 412
#     4  12  24  44  70  98 141 189 229 289 352 410
#
# _framework density 22.264340000000001
#
# number of rings (size 3 to 8) (size 9 to 14) (size 15 to 20)
#    0.000    0.400    6.000    3.000    0.000    2.400 
#    3.600    4.000    0.000    0.000    0.000    0.000 
#    0.000    0.000    0.000    0.000    0.000    0.000 
#
# Total GULP energy -248083.972481 kJ/mol
# GULP energy per Si atom -12404.198624 kJ/mol
# Density = 2.221367 g / cm^3
# Si number density = 22.264340 Si / 1000 Ang^3
#
#
#
# Elastic Constant Matrix: (Units=GPa)
#
#
# Indices 1 2 3 4 5 6 
#
# 1 77.4065 17.7265 35.2506 0.0015 32.8122 0.0005
# 2 17.7265 120.8896 40.2645 -0.0006 -7.6186 -0.0019
# 3 35.2506 40.2645 101.2098 -0.0038 22.0293 -0.0010
# 4 0.0015 -0.0006 -0.0038 38.6988 -0.0008 4.4989
# 5 32.8122 -7.6186 22.0293 -0.0008 49.3583 -0.0001
# 6 0.0005 -0.0019 -0.0010 4.4989 -0.0001 27.0354
#
#
#
# Elastic Compliance Matrix: (Units=1/GPa)
#
#
# Indices 1 2 3 4 5 6 
#
# 1 0.020304 -0.002659 -0.003308 -0.000001 -0.012431 0.000000
# 2 -0.002659 0.010465 -0.004401 0.000000 0.005347 0.000001
# 3 -0.003308 -0.004401 0.013793 0.000001 -0.004636 0.000000
# 4 -0.000001 0.000000 0.000001 0.026350 0.000001 -0.004385
# 5 -0.012431 0.005347 -0.004636 0.000001 0.031419 0.000000
# 6 0.000000 0.000001 0.000000 -0.004385 0.000000 0.037718
#
#
# Mechanical properties :
#
#
# Convention : Reuss Voigt Hill
#
# Bulk Modulus (GPa) = 41.97216 53.99877 47.98547
# Shear Modulus (GPa) = 29.63388 36.76945 33.20167
#
# Velocity S-wave (km/s) = 3.65225 4.06827 3.86586
# Velocity P-wave (km/s) = 6.05623 6.80984 6.44406
#
# Compressibility (1/GPa) = 0.02382531
#
# Stress axis : x y z
#
# Youngs Moduli (GPa) = 49.25181 95.55946 72.50285
#
# Poissons Ratio (x) = 0.25408 0.23984
# Poissons Ratio (y) = 0.13095 0.31908
# Poissons Ratio (z) = 0.16293 0.42055
#
# Static dielectric constant tensor:
#      x y z
#    x 4.245380 0.000000 0.211010 
#    y 0.000000 3.963300 0.000000 
#    z 0.211010 0.000000 4.070770 
# 
# 
# High freq. dielectric constant tensor:
#      x y z
#    x 1.886420 0.000000 0.018560 
#    y 0.000000 1.879170 0.000000 
#    z 0.018560 0.000000 1.877810 
# 
# From -- ./inp_files/121679.got.cif
#   From: 2010.06.25/outbox.cif.g09.slc.cpg/sg15_61_cif.got.tgz:121679.got - 2010.06.28 07:06:18.
