data_PCOD8153516
_publ_section_title
;
Structure prediction by ZEFSAII (Michael W. Deem and Ramdas Pophale) SiO2 
 PCOD8153516
Probable space group: C 2/C
;
_chemical_formula_sum "Si O2"
_cell_formula_units_Z 60
_cell_length_a 6.397545
_cell_length_b 17.650393
_cell_length_c 26.543459
_cell_angle_alpha 90.000000
_cell_angle_beta 84.190108
_cell_angle_gamma 90.000000
_cell_volume 2981.869503
_symmetry_space_group_name_H-M "C 2/C"
_symmetry_group_IT_number 15
_symmetry_cell_setting 'monoclinic'
loop_
_space_group_symop_operation_xyz
x,y,z
-x,y,1/2-z
-x,-y,-z
x,-y,1/2+z
1/2+x,1/2+y,z
1/2-x,1/2+y,1/2-z
1/2-x,1/2-y,-z
1/2+x,1/2-y,1/2+z
loop_
_atom_site_type_symbol
_atom_site_label
_atom_site_fract_x
_atom_site_fract_y
_atom_site_fract_z
Si Si1 0.215088 0.488647 0.969150
Si Si2 0.171470 0.286485 0.103589
Si Si3 0.329779 0.710931 0.048562
Si Si4 0.361764 0.888779 0.300239
Si Si5 0.902147 0.462922 0.700317
Si Si6 0.968836 0.891984 0.030515
Si Si7 0.418215 0.863660 0.605535
Si Si8 0.000000 0.038467 0.750000
O O1 0.325499 0.568192 0.948312
O O2 0.185694 0.430353 0.924517
O O3 0.326825 0.460813 0.017313
O O4 0.000000 0.500000 0.000000
O O5 0.133066 0.324373 0.158109
O O6 0.348635 0.334797 0.070309
O O7 0.252561 0.203049 0.111297
O O8 0.951714 0.274921 0.078603
O O9 0.142527 0.668942 0.082443
O O10 0.250000 0.750000 0.000000
O O11 0.488020 0.647924 0.024303
O O12 0.500000 0.859344 0.250000
O O13 0.127355 0.908425 0.286259
O O14 0.468043 0.963564 0.321586
O O15 0.938999 0.395131 0.661081
O O16 0.657904 0.485293 0.714122
O O17 0.000000 0.433555 0.750000
#
# Coordination Sequence:
#
# PCOD8153516 Si02
#       8
#     8   8   8   8   8   8   8   4
#     4  11  24  40  63  95 127 171 220 276 312 389
#     4  12  26  41  66  97 130 178 218 267 335 394
#     4  12  24  43  63  89 140 175 212 266 323 387
#     4   9  22  44  67  96 125 166 220 271 320 400
#     4   9  22  43  67  97 126 164 217 272 326 394
#     4  11  24  41  62  92 129 171 221 267 318 389
#     4  12  25  41  66  99 130 175 217 270 338 389
#     4   8  18  44  72  88 128 162 214 282 328 378
#
# _framework density 20.121606
#
# number of rings (size 3 to 8) (size 9 to 14) (size 15 to 20)
#    0.000    1.600    4.000    1.200    3.733    4.267 
#    4.800    0.000    0.000    0.000    0.000    0.000 
#    0.000    0.000    0.000    0.000    0.000    0.000 
#
# Total GULP energy -371734.871601 kJ/mol
# GULP energy per Si atom -12391.162387 kJ/mol
# Density = 2.007581 g / cm^3
# Si number density = 20.121606 Si / 1000 Ang^3
#
#
#
# Elastic Constant Matrix: (Units=GPa)
#
#
# Indices 1 2 3 4 5 6 
#
# 1 132.5912 52.8061 60.8170 0.0000 2.4970 0.0000
# 2 52.8061 109.1004 70.7519 0.0000 3.8141 0.0000
# 3 60.8170 70.7519 133.5088 0.0000 -0.5571 0.0000
# 4 0.0000 0.0000 0.0000 58.9710 0.0000 0.7583
# 5 2.4970 3.8141 -0.5571 0.0000 22.7955 0.0000
# 6 0.0000 0.0000 0.0000 0.7583 0.0000 38.3461
#
#
#
# Elastic Compliance Matrix: (Units=1/GPa)
#
#
# Indices 1 2 3 4 5 6 
#
# 1 0.010115 -0.002866 -0.003092 0.000000 -0.000704 0.000000
# 2 -0.002866 0.014923 -0.006613 0.000000 -0.002345 0.000000
# 3 -0.003092 -0.006613 0.012410 0.000000 0.001748 0.000000
# 4 0.000000 0.000000 0.000000 0.016962 0.000000 -0.000335
# 5 -0.000704 -0.002345 0.001748 0.000000 0.044381 0.000000
# 6 0.000000 0.000000 0.000000 -0.000335 0.000000 0.026085
#
#
# Mechanical properties :
#
#
# Convention : Reuss Voigt Hill
#
# Bulk Modulus (GPa) = 81.25222 82.66117 81.95669
# Shear Modulus (GPa) = 32.44245 36.74420 34.59332
#
# Velocity S-wave (km/s) = 4.01973 4.27793 4.15084
# Velocity P-wave (km/s) = 7.87480 8.09759 7.98697
#
# Compressibility (1/GPa) = 0.01230736
#
# Stress axis : x y z
#
# Youngs Moduli (GPa) = 98.86518 67.00846 80.57943
#
# Poissons Ratio (x) = 0.19206 0.24912
# Poissons Ratio (y) = 0.28336 0.53285
# Poissons Ratio (z) = 0.30565 0.44311
#
# Static dielectric constant tensor:
#      x y z
#    x 3.737400 0.000000 0.024450 
#    y 0.000000 3.813310 0.000000 
#    z 0.024450 0.000000 3.539160 
# 
# 
# High freq. dielectric constant tensor:
#      x y z
#    x 1.804720 0.000000 0.001890 
#    y 0.000000 1.788350 0.000000 
#    z 0.001890 0.000000 1.775060 
# 
# From -- ./inp_files/305665.got.cif
#   From: 2010.06.25/outbox.cif.g09.slc.cpg/sg15_153_cif.got.tgz:305665.got - 2010.06.28 07:06:18.
