data_PCOD8153553
_publ_section_title
;
Structure prediction by ZEFSAII (Michael W. Deem and Ramdas Pophale) SiO2 
 PCOD8153553
Probable space group: C 2/C
;
_chemical_formula_sum "Si O2"
_cell_formula_units_Z 56
_cell_length_a 19.219370
_cell_length_b 11.374722
_cell_length_c 13.792234
_cell_angle_alpha 90.000000
_cell_angle_beta 55.995208
_cell_angle_gamma 90.000000
_cell_volume 2499.564034
_symmetry_space_group_name_H-M "C 2/C"
_symmetry_group_IT_number 15
_symmetry_cell_setting 'monoclinic'
loop_
_space_group_symop_operation_xyz
x,y,z
-x,y,1/2-z
-x,-y,-z
x,-y,1/2+z
1/2+x,1/2+y,z
1/2-x,1/2+y,1/2-z
1/2-x,1/2-y,-z
1/2+x,1/2-y,1/2+z
loop_
_atom_site_type_symbol
_atom_site_label
_atom_site_fract_x
_atom_site_fract_y
_atom_site_fract_z
Si Si1 0.043635 0.431263 0.054981
Si Si2 0.341365 0.211344 0.325157
Si Si3 0.804821 0.923829 0.475546
Si Si4 0.318835 0.758540 0.629900
Si Si5 0.600520 0.498078 0.417728
Si Si6 0.500000 0.763230 0.250000
Si Si7 0.500000 0.093948 0.250000
Si Si8 0.839082 0.131687 0.321378
O O1 0.060332 0.524578 0.127845
O O2 0.987616 0.335340 0.158194
O O3 0.126698 0.366837 0.953800
O O4 0.000000 0.500000 0.000000
O O5 0.288456 0.123056 0.432736
O O6 0.350606 0.339172 0.364067
O O7 0.295987 0.215322 0.258117
O O8 0.436613 0.169315 0.234583
O O9 0.862956 0.922106 0.525285
O O10 0.793967 0.050312 0.435672
O O11 0.365097 0.633544 0.589296
O O12 0.227478 0.764101 0.650079
O O13 0.500000 0.500000 0.500000
O O14 0.632097 0.553973 0.292723
O O15 0.417165 0.684471 0.319545
#
# Coordination Sequence:
#
# PCOD8153553 Si02
#       8
#     8   8   8   8   8   4   4   8
#     4  11  24  45  69 103 142 180 238 298 355 427
#     4  11  24  43  69 107 137 182 240 287 361 426
#     4  11  25  46  68 103 143 184 236 295 354 431
#     4  12  25  46  73 105 141 191 238 294 361 425
#     4  12  27  45  73 105 143 190 236 294 362 424
#     4  11  28  47  72 110 138 193 244 289 366 426
#     4  11  24  41  72 100 140 185 228 297 362 424
#     4  12  25  47  73 101 146 187 237 298 354 436
#
# _framework density 22.403905999999999
#
# number of rings (size 3 to 8) (size 9 to 14) (size 15 to 20)
#    0.000    0.571    4.286    3.429    2.000    7.429 
#    0.000    0.000    0.000    0.000    0.000    0.000 
#    0.000    0.000    0.000    0.000    0.000    0.000 
#
# Total GULP energy -347037.529067 kJ/mol
# GULP energy per Si atom -12394.197467 kJ/mol
# Density = 2.235291 g / cm^3
# Si number density = 22.403906 Si / 1000 Ang^3
#
#
#
# Elastic Constant Matrix: (Units=GPa)
#
#
# Indices 1 2 3 4 5 6 
#
# 1 135.5500 59.2861 31.7398 0.0000 -5.7798 0.0000
# 2 59.2861 110.7639 40.6816 0.0000 -7.9115 0.0000
# 3 31.7398 40.6816 96.5840 0.0000 12.7493 0.0000
# 4 0.0000 0.0000 0.0000 42.5700 0.0000 7.4735
# 5 -5.7798 -7.9115 12.7493 0.0000 44.2781 0.0000
# 6 0.0000 0.0000 0.0000 7.4735 0.0000 31.3757
#
#
#
# Elastic Compliance Matrix: (Units=1/GPa)
#
#
# Indices 1 2 3 4 5 6 
#
# 1 0.009774 -0.004676 -0.001352 0.000000 0.000830 0.000000
# 2 -0.004676 0.013412 -0.004520 0.000000 0.003087 0.000000
# 3 -0.001352 -0.004520 0.013339 0.000000 -0.004825 0.000000
# 4 0.000000 0.000000 0.000000 0.024516 0.000000 -0.005840
# 5 0.000830 0.003087 -0.004825 0.000000 0.024634 0.000000
# 6 0.000000 0.000000 0.000000 -0.005840 0.000000 0.033263
#
#
# Mechanical properties :
#
#
# Convention : Reuss Voigt Hill
#
# Bulk Modulus (GPa) = 64.81378 67.36810 66.09094
# Shear Modulus (GPa) = 34.44092 37.72411 36.08251
#
# Velocity S-wave (km/s) = 3.92506 4.10789 4.01751
# Velocity P-wave (km/s) = 7.03804 7.25498 7.14733
#
# Compressibility (1/GPa) = 0.01542882
#
# Stress axis : x y z
#
# Youngs Moduli (GPa) = 102.30749 74.56233 74.96953
#
# Poissons Ratio (x) = 0.34864 0.10137
# Poissons Ratio (y) = 0.47838 0.33886
# Poissons Ratio (z) = 0.13834 0.33702
#
# Static dielectric constant tensor:
#      x y z
#    x 3.948500 0.000000 0.222770 
#    y 0.000000 4.163690 0.000000 
#    z 0.222770 0.000000 4.170450 
# 
# 
# High freq. dielectric constant tensor:
#      x y z
#    x 1.880780 0.000000 0.012410 
#    y 0.000000 1.888160 0.000000 
#    z 0.012410 0.000000 1.899810 
# 
# From -- ./inp_files/161281.got.cif
#   From: 2010.06.25/outbox.cif.g09.slc.cpg/sg15_81_cif.got.tgz:161281.got - 2010.06.28 07:06:18.
