data_PCOD8153434
_publ_section_title
;
Structure prediction by ZEFSAII (Michael W. Deem and Ramdas Pophale) SiO2 
 PCOD8153434
Probable space group: C 2/C
;
_chemical_formula_sum "Si O2"
_cell_formula_units_Z 52
_cell_length_a 18.604563
_cell_length_b 20.360429
_cell_length_c 10.656909
_cell_angle_alpha 90.000000
_cell_angle_beta 34.344653
_cell_angle_gamma 90.000000
_cell_volume 2277.442421
_symmetry_space_group_name_H-M "C 2/C"
_symmetry_group_IT_number 15
_symmetry_cell_setting 'monoclinic'
loop_
_space_group_symop_operation_xyz
x,y,z
-x,y,1/2-z
-x,-y,-z
x,-y,1/2+z
1/2+x,1/2+y,z
1/2-x,1/2+y,1/2-z
1/2-x,1/2-y,-z
1/2+x,1/2-y,1/2+z
loop_
_atom_site_type_symbol
_atom_site_label
_atom_site_fract_x
_atom_site_fract_y
_atom_site_fract_z
Si Si1 0.805557 0.334629 0.678221
Si Si2 0.639403 0.691391 0.923307
Si Si3 0.119853 0.523195 0.407134
Si Si4 0.362191 0.362732 0.811641
Si Si5 0.759167 0.367652 0.014598
Si Si6 0.500000 0.928435 0.750000
Si Si7 0.361189 0.507400 0.889644
O O1 0.889819 0.269281 0.537021
O O2 0.892515 0.399886 0.538096
O O3 0.700257 0.332293 0.721256
O O4 0.734640 0.331626 0.916626
O O5 0.737774 0.676438 0.668447
O O6 0.697224 0.668374 0.974476
O O7 0.510754 0.652083 0.088284
O O8 0.000000 0.500000 0.500000
O O9 0.112474 0.475106 0.535773
O O10 0.255711 0.510265 0.150080
O O11 0.343580 0.441183 0.835480
O O12 0.663673 0.429964 0.163653
O O13 0.911896 0.385078 0.784293
O O14 0.500000 0.511119 0.750000
#
# Coordination Sequence:
#
# PCOD8153434 Si02
#       7
#     8   8   8   8   8   4   8
#     4  11  25  46  71 101 142 192 236 293 356 426
#     4  11  25  47  68 104 145 188 238 284 367 433
#     4  11  24  46  69 109 143 184 247 295 364 422
#     4  11  25  46  69 106 141 188 236 297 355 423
#     4  11  26  43  73 105 142 188 238 295 361 422
#     4  12  22  44  68 106 144 184 234 308 360 420
#     4  11  23  46  74 107 142 187 241 305 359 417
#
# _framework density 22.832630000000002
#
# number of rings (size 3 to 8) (size 9 to 14) (size 15 to 20)
#    0.000    0.923    4.615    2.769    4.308    4.308 
#    2.769    0.000    0.000    0.000    0.000    0.000 
#    0.000    0.000    0.000    0.000    0.000    0.000 
#
# Total GULP energy -322280.679893 kJ/mol
# GULP energy per Si atom -12395.410765 kJ/mol
# Density = 2.278066 g / cm^3
# Si number density = 22.832630 Si / 1000 Ang^3
#
#
#
# Elastic Constant Matrix: (Units=GPa)
#
#
# Indices 1 2 3 4 5 6 
#
# 1 125.0723 33.1862 44.3377 -0.0001 23.0320 0.0001
# 2 33.1862 132.3166 29.3847 -0.0001 -0.8311 0.0001
# 3 44.3377 29.3847 99.6067 0.0000 3.6234 -0.0001
# 4 -0.0001 -0.0001 0.0000 19.6131 0.0001 4.2201
# 5 23.0320 -0.8311 3.6234 0.0001 36.8106 0.0000
# 6 0.0001 0.0001 -0.0001 4.2201 0.0000 12.9961
#
#
#
# Elastic Compliance Matrix: (Units=1/GPa)
#
#
# Indices 1 2 3 4 5 6 
#
# 1 0.011213 -0.001925 -0.004181 0.000000 -0.006648 0.000000
# 2 -0.001925 0.008425 -0.001685 0.000000 0.001561 0.000000
# 3 -0.004181 -0.001685 0.012348 0.000000 0.001363 0.000000
# 4 0.000000 0.000000 0.000000 0.054816 0.000000 -0.017800
# 5 -0.006648 0.001561 0.001363 0.000000 0.031226 0.000000
# 6 0.000000 0.000000 0.000000 -0.017800 0.000000 0.082726
#
#
# Mechanical properties :
#
#
# Convention : Reuss Voigt Hill
#
# Bulk Modulus (GPa) = 60.96803 63.42364 62.19583
# Shear Modulus (GPa) = 22.54231 30.55642 26.54937
#
# Velocity S-wave (km/s) = 3.14552 3.66222 3.41366
# Velocity P-wave (km/s) = 6.32080 6.76169 6.54496
#
# Compressibility (1/GPa) = 0.01640204
#
# Stress axis : x y z
#
# Youngs Moduli (GPa) = 89.18525 118.70062 80.98349
#
# Poissons Ratio (x) = 0.22855 0.33861
# Poissons Ratio (y) = 0.17172 0.13646
# Poissons Ratio (z) = 0.37290 0.20001
#
# Static dielectric constant tensor:
#      x y z
#    x 4.902010 0.000000 1.270280 
#    y 0.000000 4.544660 0.000000 
#    z 1.270280 0.000000 5.577480 
# 
# 
# High freq. dielectric constant tensor:
#      x y z
#    x 1.915050 0.000000 0.010030 
#    y 0.000000 1.907770 0.000000 
#    z 0.010030 0.000000 1.883640 
# 
# From -- ./inp_files/114361.got.cif
#   From: 2010.06.25/outbox.cif.g09.slc.cpg/sg15_58_cif.got.tgz:114361.got - 2010.06.28 07:06:18.
