data_PCOD8153319
_publ_section_title
;
Structure prediction by ZEFSAII (Michael W. Deem and Ramdas Pophale) SiO2 
 PCOD8153319
Probable space group: C 2/C
;
_chemical_formula_sum "Si O2"
_cell_formula_units_Z 36
_cell_length_a 12.786649
_cell_length_b 12.673006
_cell_length_c 10.173375
_cell_angle_alpha 90.000000
_cell_angle_beta 90.476203
_cell_angle_gamma 90.000000
_cell_volume 1648.490457
_symmetry_space_group_name_H-M "C 2/C"
_symmetry_group_IT_number 15
_symmetry_cell_setting 'monoclinic'
loop_
_space_group_symop_operation_xyz
x,y,z
-x,y,1/2-z
-x,-y,-z
x,-y,1/2+z
1/2+x,1/2+y,z
1/2-x,1/2+y,1/2-z
1/2-x,1/2-y,-z
1/2+x,1/2-y,1/2+z
loop_
_atom_site_type_symbol
_atom_site_label
_atom_site_fract_x
_atom_site_fract_y
_atom_site_fract_z
Si Si1 0.771191 0.557766 0.045112
Si Si2 0.545764 0.612117 0.030096
Si Si3 0.213214 0.378224 0.246515
Si Si4 0.000000 0.743660 0.750000
Si Si5 0.602033 0.765649 0.818458
O O1 0.660559 0.601368 0.095048
O O2 0.791025 0.447333 0.119875
O O3 0.856774 0.644352 0.084269
O O4 0.768784 0.548858 0.884814
O O5 0.474613 0.680430 0.126808
O O6 0.500000 0.500000 0.000000
O O7 0.549755 0.668938 0.892075
O O8 0.302647 0.287116 0.264585
O O9 0.100434 0.327406 0.225219
O O10 0.500000 0.818150 0.750000
#
# Coordination Sequence:
#
# PCOD8153319 Si02
#       5
#     8   8   8   4   8
#     4  11  24  46  67 102 136 186 226 284 342 411
#     4  11  24  42  71 100 133 175 232 287 345 399
#     4  11  25  44  70  99 141 180 230 279 347 403
#     4  12  24  44  68  98 138 174 222 286 338 406
#     4  11  23  45  66 100 136 179 225 287 340 410
#
# _framework density 21.838162000000001
#
# number of rings (size 3 to 8) (size 9 to 14) (size 15 to 20)
#    0.000    0.889    4.444    2.667    9.333    2.667 
#    0.000    3.333    0.000    0.000    0.000    0.000 
#    0.000    0.000    0.000    0.000    0.000    0.000 
#
# Total GULP energy -223084.139398 kJ/mol
# GULP energy per Si atom -12393.563300 kJ/mol
# Density = 2.178846 g / cm^3
# Si number density = 21.838162 Si / 1000 Ang^3
#
#
#
# Elastic Constant Matrix: (Units=GPa)
#
#
# Indices 1 2 3 4 5 6 
#
# 1 109.7193 13.7977 35.9849 0.0000 6.7116 0.0000
# 2 13.7977 53.0329 22.8192 0.0000 -4.5586 0.0000
# 3 35.9849 22.8192 71.6024 0.0000 2.9191 0.0000
# 4 0.0000 0.0000 0.0000 36.4502 0.0000 2.3315
# 5 6.7116 -4.5586 2.9191 0.0000 37.8484 0.0000
# 6 0.0000 0.0000 0.0000 2.3315 0.0000 36.0097
#
#
#
# Elastic Compliance Matrix: (Units=1/GPa)
#
#
# Indices 1 2 3 4 5 6 
#
# 1 0.011026 -0.000758 -0.005233 0.000000 -0.001643 0.000000
# 2 -0.000758 0.022293 -0.006860 0.000000 0.003349 0.000000
# 3 -0.005233 -0.006860 0.018837 0.000000 -0.001351 0.000000
# 4 0.000000 0.000000 0.000000 0.027549 0.000000 -0.001784
# 5 -0.001643 0.003349 -0.001351 0.000000 0.027220 0.000000
# 6 0.000000 0.000000 0.000000 -0.001784 0.000000 0.027886
#
#
# Mechanical properties :
#
#
# Convention : Reuss Voigt Hill
#
# Bulk Modulus (GPa) = 37.80122 42.17314 39.98718
# Shear Modulus (GPa) = 29.52786 32.84518 31.18652
#
# Velocity S-wave (km/s) = 3.68111 3.88239 3.78309
# Velocity P-wave (km/s) = 5.95103 6.28099 6.11823
#
# Compressibility (1/GPa) = 0.02645417
#
# Stress axis : x y z
#
# Youngs Moduli (GPa) = 90.69274 44.85680 53.08661
#
# Poissons Ratio (x) = 0.03402 0.27779
# Poissons Ratio (y) = 0.06878 0.36418
# Poissons Ratio (z) = 0.47457 0.30772
#
# Static dielectric constant tensor:
#      x y z
#    x 4.330230 0.000000 0.060250 
#    y 0.000000 4.690370 0.000000 
#    z 0.060250 0.000000 3.915050 
# 
# 
# High freq. dielectric constant tensor:
#      x y z
#    x 1.872080 0.000000 0.002490 
#    y 0.000000 1.855420 0.000000 
#    z 0.002490 0.000000 1.849440 
# 
# From -- ./inp_files/55593.got.cif
#   From: 2010.06.25/outbox.cif.g09.slc.cpg/sg15_28_cif.got.tgz:55593.got - 2010.06.28 07:06:18.
