data_PCOD8153300
_publ_section_title
;
Structure prediction by ZEFSAII (Michael W. Deem and Ramdas Pophale) SiO2 
 PCOD8153300
Probable space group: C 2/C
;
_chemical_formula_sum "Si O2"
_cell_formula_units_Z 52
_cell_length_a 17.019821
_cell_length_b 16.966748
_cell_length_c 8.587844
_cell_angle_alpha 90.000000
_cell_angle_beta 106.321300
_cell_angle_gamma 90.000000
_cell_volume 2379.981824
_symmetry_space_group_name_H-M "C 2/C"
_symmetry_group_IT_number 15
_symmetry_cell_setting 'monoclinic'
loop_
_space_group_symop_operation_xyz
x,y,z
-x,y,1/2-z
-x,-y,-z
x,-y,1/2+z
1/2+x,1/2+y,z
1/2-x,1/2+y,1/2-z
1/2-x,1/2-y,-z
1/2+x,1/2-y,1/2+z
loop_
_atom_site_type_symbol
_atom_site_label
_atom_site_fract_x
_atom_site_fract_y
_atom_site_fract_z
Si Si1 0.940354 0.565285 0.894035
Si Si2 0.822679 0.943007 0.927923
Si Si3 0.000000 0.293619 0.250000
Si Si4 0.366428 0.294628 0.481956
Si Si5 0.735787 0.152570 0.144368
Si Si6 0.337891 0.988088 0.056828
Si Si7 0.914256 0.068707 0.787257
O O1 0.974709 0.653482 0.887048
O O2 0.912556 0.539204 0.706538
O O3 0.864524 0.566684 0.974650
O O4 0.000000 0.500000 0.000000
O O5 0.796491 0.863553 0.823165
O O6 0.743669 0.999045 0.889861
O O7 0.894021 0.990335 0.876210
O O8 0.847473 0.919373 0.115419
O O9 0.073910 0.239083 0.351038
O O10 0.323583 0.226385 0.355103
O O11 0.291601 0.338903 0.522598
O O12 0.415666 0.354354 0.397876
O O13 0.675956 0.079192 0.080598
O O14 0.000000 0.056015 0.750000
#
# Coordination Sequence:
#
# PCOD8153300 Si02
#       7
#     8   8   4   8   8   8   8
#     4  12  22  40  68 104 134 177 223 279 336 397
#     4  12  24  45  74 104 127 172 239 292 336 390
#     4  12  26  44  66  94 148 188 214 268 356 410
#     4  11  26  46  66  95 143 186 222 264 350 424
#     4  11  23  44  73  98 133 182 229 275 340 402
#     4  12  21  40  71 104 135 166 233 284 331 394
#     4  12  26  46  70 102 138 174 230 289 347 402
#
# _framework density 21.848907000000001
#
# number of rings (size 3 to 8) (size 9 to 14) (size 15 to 20)
#    0.000    0.308    7.692    0.462    2.154    0.615 
#    4.154    0.000    0.000    0.000    0.000    0.000 
#    0.000    0.000    0.000    0.000    0.000    0.000 
#
# Total GULP energy -322356.816970 kJ/mol
# GULP energy per Si atom -12398.339114 kJ/mol
# Density = 2.179918 g / cm^3
# Si number density = 21.848907 Si / 1000 Ang^3
#
#
#
# Elastic Constant Matrix: (Units=GPa)
#
#
# Indices 1 2 3 4 5 6 
#
# 1 86.5180 28.2428 10.4073 0.0000 -0.5362 0.0000
# 2 28.2428 81.5349 30.5892 0.0000 8.2705 0.0000
# 3 10.4073 30.5892 98.4212 0.0000 14.4458 0.0000
# 4 0.0000 0.0000 0.0000 42.3016 0.0000 -1.2849
# 5 -0.5362 8.2705 14.4458 0.0000 34.2321 0.0000
# 6 0.0000 0.0000 0.0000 -1.2849 0.0000 25.5621
#
#
#
# Elastic Compliance Matrix: (Units=1/GPa)
#
#
# Indices 1 2 3 4 5 6 
#
# 1 0.013093 -0.004619 -0.000152 0.000000 0.001385 0.000000
# 2 -0.004619 0.015599 -0.004047 0.000000 -0.002133 0.000000
# 3 -0.000152 -0.004047 0.012037 0.000000 -0.004104 0.000000
# 4 0.000000 0.000000 0.000000 0.023676 0.000000 0.001190
# 5 0.001385 -0.002133 -0.004104 0.000000 0.031481 0.000000
# 6 0.000000 0.000000 0.000000 0.001190 0.000000 0.039180
#
#
# Mechanical properties :
#
#
# Convention : Reuss Voigt Hill
#
# Bulk Modulus (GPa) = 43.30242 44.99473 44.14857
# Shear Modulus (GPa) = 31.17225 33.56816 32.37020
#
# Velocity S-wave (km/s) = 3.78129 3.92392 3.85326
# Velocity P-wave (km/s) = 6.23909 6.41621 6.32827
#
# Compressibility (1/GPa) = 0.02309340
#
# Stress axis : x y z
#
# Youngs Moduli (GPa) = 76.37741 64.10627 83.07994
#
# Poissons Ratio (x) = 0.29608 0.01266
# Poissons Ratio (y) = 0.35276 0.33620
# Poissons Ratio (z) = 0.01163 0.25942
#
# Static dielectric constant tensor:
#      x y z
#    x 4.143440 0.000000 0.049950 
#    y 0.000000 3.880820 0.000000 
#    z 0.049950 0.000000 4.051080 
# 
# 
# High freq. dielectric constant tensor:
#      x y z
#    x 1.874010 0.000000 0.007860 
#    y 0.000000 1.839350 0.000000 
#    z 0.007860 0.000000 1.863920 
# 
# From -- ./inp_files/48666.got.cif
#   From: 2010.06.25/outbox.cif.g09.slc.cpg/sg15_25_cif.got.tgz:48666.got - 2010.06.28 07:06:18.
