data_PCOD8153514
_publ_section_title
;
Structure prediction by ZEFSAII (Michael W. Deem and Ramdas Pophale) SiO2 
 PCOD8153514
Probable space group: C 2/C
;
_chemical_formula_sum "Si O2"
_cell_formula_units_Z 64
_cell_length_a 32.890065
_cell_length_b 13.672792
_cell_length_c 9.363232
_cell_angle_alpha 90.000000
_cell_angle_beta 55.607075
_cell_angle_gamma 90.000000
_cell_volume 3474.546513
_symmetry_space_group_name_H-M "C 2/C"
_symmetry_group_IT_number 15
_symmetry_cell_setting 'monoclinic'
loop_
_space_group_symop_operation_xyz
x,y,z
-x,y,1/2-z
-x,-y,-z
x,-y,1/2+z
1/2+x,1/2+y,z
1/2-x,1/2+y,1/2-z
1/2-x,1/2-y,-z
1/2+x,1/2-y,1/2+z
loop_
_atom_site_type_symbol
_atom_site_label
_atom_site_fract_x
_atom_site_fract_y
_atom_site_fract_z
Si Si1 0.307499 0.225574 0.904190
Si Si2 0.793924 0.998621 0.642916
Si Si3 0.950579 0.110074 0.774521
Si Si4 0.451162 0.593367 0.428328
Si Si5 0.149021 0.813360 0.404866
Si Si6 0.274019 0.022099 0.970932
Si Si7 0.148578 0.194388 0.450647
Si Si8 0.698491 0.196681 0.076989
O O1 0.343620 0.289595 0.732890
O O2 0.313522 0.108595 0.867360
O O3 0.250000 0.250000 0.000000
O O4 0.326591 0.248816 0.022174
O O5 0.823795 0.082683 0.665330
O O6 0.774023 0.038940 0.532341
O O7 0.828427 0.907208 0.541860
O O8 0.745930 0.968626 0.828589
O O9 0.956988 0.088821 0.590837
O O10 0.000000 0.152701 0.750000
O O11 0.937210 0.012018 0.889755
O O12 0.908476 0.190754 0.889054
O O13 0.500000 0.630959 0.250000
O O14 0.409116 0.669373 0.465051
O O15 0.156101 0.749990 0.249833
O O16 0.299174 0.917705 0.892495
O O17 0.179499 0.285806 0.453863
O O18 0.750000 0.250000 0.000000
#
# Coordination Sequence:
#
# PCOD8153514 Si02
#       8
#     8   8   8   8   8   8   8   8
#     4  12  24  38  55  89 119 165 205 247 292 355
#     4  12  20  34  57  82 120 164 191 244 284 358
#     4  11  24  40  63  92 122 157 198 251 305 365
#     4  11  24  40  63  92 122 157 198 251 305 365
#     4  12  23  37  60  87 122 162 204 234 303 365
#     4  12  24  36  56  80 122 160 208 244 288 332
#     4  12  23  37  60  87 122 162 204 234 303 365
#     4  12  22  38  57  83 117 163 203 247 288 359
#
# _framework density 18.41967
#
# number of rings (size 3 to 8) (size 9 to 14) (size 15 to 20)
#    0.000    0.250    7.500    3.750    3.500    0.000 
#    0.000    0.000    0.000    0.000    0.000    5.250 
#    0.000    0.000    0.000    0.000    0.000    0.000 
#
# Total GULP energy -396751.578233 kJ/mol
# GULP energy per Si atom -12398.486820 kJ/mol
# Density = 1.837775 g / cm^3
# Si number density = 18.419670 Si / 1000 Ang^3
#
#
#
# Elastic Constant Matrix: (Units=GPa)
#
#
# Indices 1 2 3 4 5 6 
#
# 1 90.1694 37.2082 30.6255 0.0000 -8.0200 0.0000
# 2 37.2082 88.8892 24.3787 0.0000 -9.1389 0.0000
# 3 30.6255 24.3787 93.8747 0.0000 -7.7630 0.0000
# 4 0.0000 0.0000 0.0000 28.2830 0.0000 2.0804
# 5 -8.0200 -9.1389 -7.7630 0.0000 34.3082 0.0000
# 6 0.0000 0.0000 0.0000 2.0804 0.0000 29.9804
#
#
#
# Elastic Compliance Matrix: (Units=1/GPa)
#
#
# Indices 1 2 3 4 5 6 
#
# 1 0.014379 -0.004984 -0.003290 0.000000 0.001289 0.000000
# 2 -0.004984 0.014065 -0.001848 0.000000 0.002164 0.000000
# 3 -0.003290 -0.001848 0.012332 0.000000 0.001529 0.000000
# 4 0.000000 0.000000 0.000000 0.035538 0.000000 -0.002466
# 5 0.001289 0.002164 0.001529 0.000000 0.030371 0.000000
# 6 0.000000 0.000000 0.000000 -0.002466 0.000000 0.033526
#
#
# Mechanical properties :
#
#
# Convention : Reuss Voigt Hill
#
# Bulk Modulus (GPa) = 48.70255 50.81757 49.76006
# Shear Modulus (GPa) = 29.88635 30.56238 30.22436
#
# Velocity S-wave (km/s) = 4.03243 4.07778 4.05517
# Velocity P-wave (km/s) = 6.94108 7.05831 6.99994
#
# Compressibility (1/GPa) = 0.02053280
#
# Stress axis : x y z
#
# Youngs Moduli (GPa) = 69.54588 71.09615 81.08891
#
# Poissons Ratio (x) = 0.35435 0.26679
# Poissons Ratio (y) = 0.34662 0.14984
# Poissons Ratio (z) = 0.22881 0.13137
#
# Static dielectric constant tensor:
#      x y z
#    x 3.465480 0.000000 0.163060 
#    y 0.000000 3.358170 0.000000 
#    z 0.163060 0.000000 3.494610 
# 
# 
# High freq. dielectric constant tensor:
#      x y z
#    x 1.706700 0.000000 0.022340 
#    y 0.000000 1.697260 0.000000 
#    z 0.022340 0.000000 1.722780 
# 
# From -- ./inp_files/69942.got.cif
#   From: 2010.06.25/outbox.cif.g09.slc.cpg/sg15_35_cif.got.tgz:69942.got - 2010.06.28 07:06:18.
