data_PCOD8153268
_publ_section_title
;
Structure prediction by ZEFSAII (Michael W. Deem and Ramdas Pophale) SiO2 
 PCOD8153268
Probable space group: C 2/C
;
_chemical_formula_sum "Si O2"
_cell_formula_units_Z 40
_cell_length_a 10.685940
_cell_length_b 14.722368
_cell_length_c 11.559584
_cell_angle_alpha 90.000000
_cell_angle_beta 101.342459
_cell_angle_gamma 90.000000
_cell_volume 1783.062449
_symmetry_space_group_name_H-M "C 2/C"
_symmetry_group_IT_number 15
_symmetry_cell_setting 'monoclinic'
loop_
_space_group_symop_operation_xyz
x,y,z
-x,y,1/2-z
-x,-y,-z
x,-y,1/2+z
1/2+x,1/2+y,z
1/2-x,1/2+y,1/2-z
1/2-x,1/2-y,-z
1/2+x,1/2-y,1/2+z
loop_
_atom_site_type_symbol
_atom_site_label
_atom_site_fract_x
_atom_site_fract_y
_atom_site_fract_z
Si Si1 0.538665 0.247538 0.457621
Si Si2 0.998199 0.077054 0.088497
Si Si3 0.218250 0.049036 0.297692
Si Si4 0.394655 0.126570 0.826639
Si Si5 0.186962 0.266655 0.754898
O O1 0.555544 0.329028 0.551537
O O2 0.543515 0.155578 0.537566
O O3 0.409818 0.263972 0.362493
O O4 0.649526 0.251090 0.381618
O O5 0.093215 0.033965 0.199077
O O6 0.848617 0.087512 0.097560
O O7 0.000000 0.000000 0.000000
O O8 0.306996 0.125265 0.258046
O O9 0.300117 0.957980 0.331618
O O10 0.500000 0.099610 0.750000
O O11 0.317373 0.211681 0.758390
#
# Coordination Sequence:
#
# PCOD8153268 Si02
#       5
#     8   8   8   8   8
#     4  11  25  45  76  99 142 190 231 291 354 416
#     4  11  23  44  71 101 136 189 240 285 345 416
#     4  11  26  42  69 105 141 177 239 292 344 420
#     4  12  26  45  71 104 144 187 232 287 358 415
#     4  11  25  47  69 106 142 182 238 288 350 423
#
# _framework density 22.433312999999998
#
# number of rings (size 3 to 8) (size 9 to 14) (size 15 to 20)
#    0.000    0.800    2.000    4.200    5.600    8.800 
#    0.000    0.000    0.000    0.000    0.000    0.000 
#    0.000    0.000    0.000    0.000    0.000    0.000 
#
# Total GULP energy -247830.317102 kJ/mol
# GULP energy per Si atom -12391.515855 kJ/mol
# Density = 2.238225 g / cm^3
# Si number density = 22.433313 Si / 1000 Ang^3
#
#
#
# Elastic Constant Matrix: (Units=GPa)
#
#
# Indices 1 2 3 4 5 6 
#
# 1 103.1933 37.9117 44.6798 0.0000 -22.3085 0.0000
# 2 37.9117 132.3994 40.1686 0.0000 -11.8419 0.0000
# 3 44.6798 40.1686 107.5045 0.0000 -17.1457 0.0000
# 4 0.0000 0.0000 0.0000 38.1640 0.0000 5.5664
# 5 -22.3085 -11.8419 -17.1457 0.0000 30.2774 0.0000
# 6 0.0000 0.0000 0.0000 5.5664 0.0000 41.9372
#
#
#
# Elastic Compliance Matrix: (Units=1/GPa)
#
#
# Indices 1 2 3 4 5 6 
#
# 1 0.013624 -0.002134 -0.003734 0.000000 0.007089 0.000000
# 2 -0.002134 0.008931 -0.002357 0.000000 0.000586 0.000000
# 3 -0.003734 -0.002357 0.012256 0.000000 0.003267 0.000000
# 4 0.000000 0.000000 0.000000 0.026720 0.000000 -0.003547
# 5 0.007089 0.000586 0.003267 0.000000 0.040330 0.000000
# 6 0.000000 0.000000 0.000000 -0.003547 0.000000 0.024316
#
#
# Mechanical properties :
#
#
# Convention : Reuss Voigt Hill
#
# Bulk Modulus (GPa) = 54.46426 65.40190 59.93308
# Shear Modulus (GPa) = 33.61404 36.76488 35.18946
#
# Velocity S-wave (km/s) = 3.87511 4.05267 3.96488
# Velocity P-wave (km/s) = 6.65981 7.14955 6.90902
#
# Compressibility (1/GPa) = 0.01836066
#
# Stress axis : x y z
#
# Youngs Moduli (GPa) = 73.40057 111.96399 81.59575
#
# Poissons Ratio (x) = 0.23895 0.30469
# Poissons Ratio (y) = 0.15665 0.19230
# Poissons Ratio (z) = 0.27409 0.26387
#
# Static dielectric constant tensor:
#      x y z
#    x 4.118410 0.000000 0.003210 
#    y 0.000000 3.702960 0.000000 
#    z 0.003210 0.000000 3.741250 
# 
# 
# High freq. dielectric constant tensor:
#      x y z
#    x 1.893180 0.000000 -0.001620 
#    y 0.000000 1.881540 0.000000 
#    z -0.001620 0.000000 1.896060 
# 
# From -- ./inp_files/85725.got.cif
#   From: 2010.06.25/outbox.cif.g09.slc.cpg/sg15_43_cif.got.tgz:85725.got - 2010.06.28 07:06:18.
