data_PCOD8153449
_publ_section_title
;
Structure prediction by ZEFSAII (Michael W. Deem and Ramdas Pophale) SiO2 
 PCOD8153449
Probable space group: C 2/C
;
_chemical_formula_sum "Si O2"
_cell_formula_units_Z 36
_cell_length_a 8.133932
_cell_length_b 24.850804
_cell_length_c 8.506128
_cell_angle_alpha 90.000000
_cell_angle_beta 70.957596
_cell_angle_gamma 90.000000
_cell_volume 1625.294833
_symmetry_space_group_name_H-M "C 2/C"
_symmetry_group_IT_number 15
_symmetry_cell_setting 'monoclinic'
loop_
_space_group_symop_operation_xyz
x,y,z
-x,y,1/2-z
-x,-y,-z
x,-y,1/2+z
1/2+x,1/2+y,z
1/2-x,1/2+y,1/2-z
1/2-x,1/2-y,-z
1/2+x,1/2-y,1/2+z
loop_
_atom_site_type_symbol
_atom_site_label
_atom_site_fract_x
_atom_site_fract_y
_atom_site_fract_z
Si Si1 0.000000 0.334964 0.750000
Si Si2 0.724263 0.920653 0.544932
Si Si3 0.575155 0.405760 0.561846
Si Si4 0.189413 0.474480 0.225231
Si Si5 0.302737 0.703494 0.366979
O O1 0.920681 0.373740 0.911054
O O2 0.843867 0.298840 0.725321
O O3 0.733048 0.956877 0.387240
O O4 0.908145 0.890250 0.508125
O O5 0.691581 0.960685 0.704620
O O6 0.500000 0.427997 0.750000
O O7 0.677599 0.452602 0.444572
O O8 0.697401 0.353784 0.544692
O O9 0.000000 0.450895 0.250000
O O10 0.500000 0.715135 0.250000
O O11 0.250000 0.750000 0.500000
#
# Coordination Sequence:
#
# PCOD8153449 Si02
#       5
#     4   8   8   8   8
#     4  12  24  48  78 102 142 194 230 300 360 420
#     4  12  24  42  70 103 149 193 238 286 354 419
#     4  11  23  47  68 100 146 187 238 295 351 420
#     4  12  25  39  67 108 144 195 242 284 345 428
#     4  11  26  49  75 105 137 181 241 303 362 423
#
# _framework density 22.149825
#
# number of rings (size 3 to 8) (size 9 to 14) (size 15 to 20)
#    0.000    0.444    5.556    4.667    0.000    3.556 
#    4.000    0.000    0.000    0.000    0.000    0.000 
#    0.000    0.000    0.000    0.000    0.000    0.000 
#
# Total GULP energy -223122.531272 kJ/mol
# GULP energy per Si atom -12395.696182 kJ/mol
# Density = 2.209941 g / cm^3
# Si number density = 22.149825 Si / 1000 Ang^3
#
#
#
# Elastic Constant Matrix: (Units=GPa)
#
#
# Indices 1 2 3 4 5 6 
#
# 1 174.5522 40.2511 45.9732 0.0000 2.0414 0.0000
# 2 40.2511 61.1189 46.8666 0.0000 -3.1880 0.0000
# 3 45.9732 46.8666 103.9190 0.0000 2.4986 0.0000
# 4 0.0000 0.0000 0.0000 22.0558 0.0000 0.1369
# 5 2.0414 -3.1880 2.4986 0.0000 41.1239 0.0000
# 6 0.0000 0.0000 0.0000 0.1369 0.0000 27.5459
#
#
#
# Elastic Compliance Matrix: (Units=1/GPa)
#
#
# Indices 1 2 3 4 5 6 
#
# 1 0.006922 -0.003435 -0.001501 0.000000 -0.000519 0.000000
# 2 -0.003435 0.027002 -0.010728 0.000000 0.002916 0.000000
# 3 -0.001501 -0.010728 0.015166 0.000000 -0.001679 0.000000
# 4 0.000000 0.000000 0.000000 0.045341 0.000000 -0.000225
# 5 -0.000519 0.002916 -0.001679 0.000000 0.024670 0.000000
# 6 0.000000 0.000000 0.000000 -0.000225 0.000000 0.036304
#
#
# Mechanical properties :
#
#
# Convention : Reuss Voigt Hill
#
# Bulk Modulus (GPa) = 56.29987 67.30797 61.80392
# Shear Modulus (GPa) = 25.95312 31.91175 28.93243
#
# Velocity S-wave (km/s) = 3.42673 3.79980 3.61808
# Velocity P-wave (km/s) = 6.41324 7.05017 6.73923
#
# Compressibility (1/GPa) = 0.01776203
#
# Stress axis : x y z
#
# Youngs Moduli (GPa) = 144.45840 37.03365 65.93911
#
# Poissons Ratio (x) = 0.12722 0.09896
# Poissons Ratio (y) = 0.49624 0.70741
# Poissons Ratio (z) = 0.21679 0.39731
#
# Static dielectric constant tensor:
#      x y z
#    x 4.454550 0.000000 0.193420 
#    y 0.000000 3.725170 0.000000 
#    z 0.193420 0.000000 2.249330 
# 
# 
# High freq. dielectric constant tensor:
#      x y z
#    x 1.904840 0.000000 -0.007920 
#    y 0.000000 1.849330 0.000000 
#    z -0.007920 0.000000 1.858470 
# 
# From -- ./inp_files/23281.got.cif
#   From: 2010.06.25/outbox.cif.g09.slc.cpg/sg15_12_cif.got.tgz:23281.got - 2010.06.28 07:06:18.
