data_PCOD8153410
_publ_section_title
;
Structure prediction by ZEFSAII (Michael W. Deem and Ramdas Pophale) SiO2 
 PCOD8153410
Probable space group: C 2/C
;
_chemical_formula_sum "Si O2"
_cell_formula_units_Z 44
_cell_length_a 23.280915
_cell_length_b 7.382466
_cell_length_c 11.191303
_cell_angle_alpha 90.000000
_cell_angle_beta 88.144413
_cell_angle_gamma 90.000000
_cell_volume 1922.446923
_symmetry_space_group_name_H-M "C 2/C"
_symmetry_group_IT_number 15
_symmetry_cell_setting 'monoclinic'
loop_
_space_group_symop_operation_xyz
x,y,z
-x,y,1/2-z
-x,-y,-z
x,-y,1/2+z
1/2+x,1/2+y,z
1/2-x,1/2+y,1/2-z
1/2-x,1/2-y,-z
1/2+x,1/2-y,1/2+z
loop_
_atom_site_type_symbol
_atom_site_label
_atom_site_fract_x
_atom_site_fract_y
_atom_site_fract_z
Si Si1 0.320741 0.128996 0.232469
Si Si2 0.000000 0.147361 0.750000
Si Si3 0.628191 0.235398 0.517595
Si Si4 0.592171 0.441014 0.895530
Si Si5 0.809515 0.224574 0.250361
Si Si6 0.584859 0.144489 0.080967
O O1 0.256107 0.179379 0.270298
O O2 0.357605 0.184657 0.346370
O O3 0.324650 0.919350 0.194965
O O4 0.344333 0.228695 0.115343
O O5 0.970003 0.288965 0.841456
O O6 0.957676 0.008094 0.687984
O O7 0.593300 0.423368 0.509848
O O8 0.679002 0.262017 0.608742
O O9 0.584640 0.071897 0.553557
O O10 0.650905 0.428020 0.813901
O O11 0.582472 0.243458 0.953138
#
# Coordination Sequence:
#
# PCOD8153410 Si02
#       6
#     8   4   8   8   8   8
#     4  11  23  46  69 109 149 186 239 295 357 433
#     4  12  26  48  78 104 142 192 248 302 352 430
#     4  11  24  46  71 103 146 190 237 294 363 425
#     4  12  25  48  74 106 143 189 242 298 363 422
#     4  11  25  42  74 107 146 190 237 295 359 434
#     4  11  26  48  69 107 143 188 244 295 360 421
#
# _framework density 22.887498000000001
#
# number of rings (size 3 to 8) (size 9 to 14) (size 15 to 20)
#    0.000    0.727    3.636    3.273    2.545    2.909 
#    0.000    9.091    0.000    0.000    0.000    0.000 
#    0.000    0.000    0.000    0.000    0.000    0.000 
#
# Total GULP energy -272762.043171 kJ/mol
# GULP energy per Si atom -12398.274690 kJ/mol
# Density = 2.283541 g / cm^3
# Si number density = 22.887498 Si / 1000 Ang^3
#
#
#
# Elastic Constant Matrix: (Units=GPa)
#
#
# Indices 1 2 3 4 5 6 
#
# 1 63.7156 7.4274 3.0063 0.0000 -21.9864 0.0000
# 2 7.4274 92.4676 18.3701 0.0000 -2.1548 0.0000
# 3 3.0063 18.3701 65.0651 0.0000 -12.8499 0.0000
# 4 0.0000 0.0000 0.0000 29.8149 0.0000 5.2175
# 5 -21.9864 -2.1548 -12.8499 0.0000 26.7759 0.0000
# 6 0.0000 0.0000 0.0000 5.2175 0.0000 23.2238
#
#
#
# Elastic Compliance Matrix: (Units=1/GPa)
#
#
# Indices 1 2 3 4 5 6 
#
# 1 0.022736 -0.002054 0.003517 0.000000 0.020192 0.000000
# 2 -0.002054 0.011655 -0.003694 0.000000 -0.002522 0.000000
# 3 0.003517 -0.003694 0.018516 0.000000 0.011477 0.000000
# 4 0.000000 0.000000 0.000000 0.034913 0.000000 -0.007844
# 5 0.020192 -0.002522 0.011477 0.000000 0.059232 0.000000
# 6 0.000000 0.000000 0.000000 -0.007844 0.000000 0.044821
#
#
# Mechanical properties :
#
#
# Convention : Reuss Voigt Hill
#
# Bulk Modulus (GPa) = 20.64196 30.98399 25.81297
# Shear Modulus (GPa) = 23.53135 28.79257 26.16196
#
# Velocity S-wave (km/s) = 3.20993 3.55068 3.38460
# Velocity P-wave (km/s) = 4.77249 5.51151 5.15526
#
# Compressibility (1/GPa) = 0.04844501
#
# Stress axis : x y z
#
# Youngs Moduli (GPa) = 43.98342 85.80272 54.00700
#
# Poissons Ratio (x) = 0.17628 -0.18996
# Poissons Ratio (y) = 0.09036 0.19948
# Poissons Ratio (z) = -0.15470 0.31692
#
# Static dielectric constant tensor:
#      x y z
#    x 3.950860 0.000000 0.109500 
#    y 0.000000 4.512210 0.000000 
#    z 0.109500 0.000000 4.079120 
# 
# 
# High freq. dielectric constant tensor:
#      x y z
#    x 1.893550 0.000000 0.006390 
#    y 0.000000 1.925060 0.000000 
#    z 0.006390 0.000000 1.909920 
# 
# From -- ./inp_files/110032.got.cif
#   From: 2010.06.25/outbox.cif.g09.slc.cpg/sg15_56_cif.got.tgz:110032.got - 2010.06.28 07:06:18.
