data_PCOD8153861
_publ_section_title
;
Structure prediction by ZEFSAII (Michael W. Deem and Ramdas Pophale) SiO2 
 PCOD8153861
Probable space group: C 2/C
;
_chemical_formula_sum "Si O2"
_cell_formula_units_Z 40
_cell_length_a 12.096064
_cell_length_b 28.183422
_cell_length_c 5.221729
_cell_angle_alpha 90.000000
_cell_angle_beta 82.557910
_cell_angle_gamma 90.000000
_cell_volume 1765.136347
_symmetry_space_group_name_H-M "C 2/C"
_symmetry_group_IT_number 15
_symmetry_cell_setting 'monoclinic'
loop_
_space_group_symop_operation_xyz
x,y,z
-x,y,1/2-z
-x,-y,-z
x,-y,1/2+z
1/2+x,1/2+y,z
1/2-x,1/2+y,1/2-z
1/2-x,1/2-y,-z
1/2+x,1/2-y,1/2+z
loop_
_atom_site_type_symbol
_atom_site_label
_atom_site_fract_x
_atom_site_fract_y
_atom_site_fract_z
Si Si1 0.500000 0.766609 0.750000
Si Si2 0.000000 0.895859 0.250000
Si Si3 0.625276 0.899012 0.304095
Si Si4 0.332888 0.840576 0.686964
Si Si5 0.185514 0.969590 0.256021
Si Si6 0.904870 0.811390 0.588019
O O1 0.428488 0.802027 0.591096
O O2 0.595391 0.732497 0.607303
O O3 0.096555 0.928259 0.340882
O O4 0.939344 0.862992 0.475155
O O5 0.500000 0.909034 0.250000
O O6 0.632128 0.872397 0.576145
O O7 0.689190 0.949083 0.293180
O O8 0.686859 0.869831 0.064097
O O9 0.217138 0.813838 0.760987
O O10 0.166001 0.007537 0.484533
O O11 0.000000 0.794311 0.750000
#
# Coordination Sequence:
#
# PCOD8153861 Si02
#       6
#     4   4   8   8   8   8
#     4  11  26  44  68 112 138 192 242 286 342 411
#     4  11  24  46  68 104 148 188 226 286 368 415
#     4  12  25  48  76 102 138 191 235 292 359 419
#     4  12  25  47  73 101 148 187 239 285 351 424
#     4  12  27  45  74 107 138 181 239 294 352 428
#     4  11  26  43  72 105 147 189 236 293 342 422
#
# _framework density 22.661137
#
# number of rings (size 3 to 8) (size 9 to 14) (size 15 to 20)
#    0.000    0.400    4.000    3.600    8.400    1.600 
#    0.000    0.000    0.000    0.000    0.000    0.000 
#    0.000    0.000    0.000    0.000    0.000    0.000 
#
# Total GULP energy -247922.734115 kJ/mol
# GULP energy per Si atom -12396.136706 kJ/mol
# Density = 2.260956 g / cm^3
# Si number density = 22.661137 Si / 1000 Ang^3
#
#
#
# Elastic Constant Matrix: (Units=GPa)
#
#
# Indices 1 2 3 4 5 6 
#
# 1 103.1755 23.6283 -6.1199 0.0000 -12.4709 0.0000
# 2 23.6283 102.9309 26.2993 0.0000 -3.9273 0.0000
# 3 -6.1199 26.2993 87.7084 0.0000 -2.9124 0.0000
# 4 0.0000 0.0000 0.0000 3.7552 0.0000 6.5592
# 5 -12.4709 -3.9273 -2.9124 0.0000 37.0802 0.0000
# 6 0.0000 0.0000 0.0000 6.5592 0.0000 38.3136
#
#
#
# Elastic Compliance Matrix: (Units=1/GPa)
#
#
# Indices 1 2 3 4 5 6 
#
# 1 0.010856 -0.002796 0.001712 0.000000 0.003489 0.000000
# 2 -0.002796 0.011270 -0.003575 0.000000 -0.000028 0.000000
# 3 0.001712 -0.003575 0.012632 0.000000 0.001189 0.000000
# 4 0.000000 0.000000 0.000000 0.379899 0.000000 -0.065037
# 5 0.003489 -0.000028 0.001189 0.000000 0.028233 0.000000
# 6 0.000000 0.000000 0.000000 -0.065037 0.000000 0.037235
#
#
# Mechanical properties :
#
#
# Convention : Reuss Voigt Hill
#
# Bulk Modulus (GPa) = 39.31050 42.38116 40.84583
# Shear Modulus (GPa) = 10.04172 32.49695 21.26933
#
# Velocity S-wave (km/s) = 2.10734 3.79098 3.06695
# Velocity P-wave (km/s) = 4.82762 6.15668 5.53221
#
# Compressibility (1/GPa) = 0.02543850
#
# Stress axis : x y z
#
# Youngs Moduli (GPa) = 92.11590 88.73454 79.16174
#
# Poissons Ratio (x) = 0.24812 -0.13551
# Poissons Ratio (y) = 0.25758 0.28302
# Poissons Ratio (z) = -0.15768 0.31724
#
# Static dielectric constant tensor:
#      x y z
#    x 4.277950 0.000000 -0.048910 
#    y 0.000000 4.169580 0.000000 
#    z -0.048910 0.000000 4.121570 
# 
# 
# High freq. dielectric constant tensor:
#      x y z
#    x 1.913650 0.000000 -0.003660 
#    y 0.000000 1.903470 0.000000 
#    z -0.003660 0.000000 1.887040 
# 
# From -- ./inp_files/4946.got.cif
#   From: 2010.06.25/outbox.cif.g09.slc.cpg/sg15_3_cif.got.tgz:4946.got - 2010.06.28 07:06:18.
