data_PCOD8153730
_publ_section_title
;
Structure prediction by ZEFSAII (Michael W. Deem and Ramdas Pophale) SiO2 
 PCOD8153730
Probable space group: C 2/C
;
_chemical_formula_sum "Si O2"
_cell_formula_units_Z 40
_cell_length_a 15.117115
_cell_length_b 10.342696
_cell_length_c 11.249127
_cell_angle_alpha 90.000000
_cell_angle_beta 100.920742
_cell_angle_gamma 90.000000
_cell_volume 1726.968511
_symmetry_space_group_name_H-M "C 2/C"
_symmetry_group_IT_number 15
_symmetry_cell_setting 'monoclinic'
loop_
_space_group_symop_operation_xyz
x,y,z
-x,y,1/2-z
-x,-y,-z
x,-y,1/2+z
1/2+x,1/2+y,z
1/2-x,1/2+y,1/2-z
1/2-x,1/2-y,-z
1/2+x,1/2-y,1/2+z
loop_
_atom_site_type_symbol
_atom_site_label
_atom_site_fract_x
_atom_site_fract_y
_atom_site_fract_z
Si Si1 0.971418 0.204516 0.013302
Si Si2 0.576734 0.549281 0.869186
Si Si3 0.286616 0.260307 0.378116
Si Si4 0.461559 0.053570 0.866459
Si Si5 0.744195 0.011838 0.712150
O O1 0.005997 0.297849 0.126027
O O2 0.923232 0.083778 0.060514
O O3 0.894503 0.264902 0.906935
O O4 0.056313 0.166403 0.953644
O O5 0.500000 0.544503 0.750000
O O6 0.677689 0.572669 0.850109
O O7 0.250000 0.250000 0.500000
O O8 0.259064 0.407439 0.336902
O O9 0.245690 0.145808 0.281696
O O10 0.500000 0.993469 0.750000
O O11 0.355148 0.045711 0.856210
O O12 0.500000 0.000000 0.000000
#
# Coordination Sequence:
#
# PCOD8153730 Si02
#       5
#     8   8   8   8   8
#     4  11  24  45  74 102 156 190 258 321 387 452
#     4  11  24  44  71 111 144 200 251 324 382 465
#     4  12  25  49  73 109 150 202 255 320 385 465
#     4  12  28  49  75 111 151 203 252 319 387 458
#     4  12  28  46  80 106 153 203 261 314 396 458
#
# _framework density 23.161974000000001
#
# number of rings (size 3 to 8) (size 9 to 14) (size 15 to 20)
#    0.000    0.400    6.000    1.800    2.800    3.200 
#    0.000    0.000    0.000    0.000    0.000    0.000 
#    0.000    0.000    0.000    0.000    0.000    0.000 
#
# Total GULP energy -247789.788733 kJ/mol
# GULP energy per Si atom -12389.489437 kJ/mol
# Density = 2.310926 g / cm^3
# Si number density = 23.161974 Si / 1000 Ang^3
#
#
#
# Elastic Constant Matrix: (Units=GPa)
#
#
# Indices 1 2 3 4 5 6 
#
# 1 185.8318 25.0356 54.8148 0.0000 -5.0740 0.0000
# 2 25.0356 103.9053 45.0448 0.0000 -10.1408 0.0000
# 3 54.8148 45.0448 124.8599 0.0000 -15.6014 0.0000
# 4 0.0000 0.0000 0.0000 52.4329 0.0000 7.8005
# 5 -5.0740 -10.1408 -15.6014 0.0000 36.5457 0.0000
# 6 0.0000 0.0000 0.0000 7.8005 0.0000 18.7533
#
#
#
# Elastic Compliance Matrix: (Units=1/GPa)
#
#
# Indices 1 2 3 4 5 6 
#
# 1 0.006198 -0.000391 -0.002626 0.000000 -0.000369 0.000000
# 2 -0.000391 0.011510 -0.003791 0.000000 0.001521 0.000000
# 3 -0.002626 -0.003791 0.010936 0.000000 0.003252 0.000000
# 4 0.000000 0.000000 0.000000 0.020330 0.000000 -0.008456
# 5 -0.000369 0.001521 0.003252 0.000000 0.029122 0.000000
# 6 0.000000 0.000000 0.000000 -0.008456 0.000000 0.056841
#
#
# Mechanical properties :
#
#
# Convention : Reuss Voigt Hill
#
# Bulk Modulus (GPa) = 66.53991 73.82082 70.18037
# Shear Modulus (GPa) = 32.55983 40.85985 36.70984
#
# Velocity S-wave (km/s) = 3.75339 4.20467 3.98542
# Velocity P-wave (km/s) = 6.89742 7.45071 7.17940
#
# Compressibility (1/GPa) = 0.01502857
#
# Stress axis : x y z
#
# Youngs Moduli (GPa) = 161.33008 86.87968 91.44270
#
# Poissons Ratio (x) = 0.03397 0.24015
# Poissons Ratio (y) = 0.06308 0.34663
# Poissons Ratio (z) = 0.42369 0.32933
#
# Static dielectric constant tensor:
#      x y z
#    x 4.493230 0.000000 0.050880 
#    y 0.000000 4.678590 0.000000 
#    z 0.050880 0.000000 4.431170 
# 
# 
# High freq. dielectric constant tensor:
#      x y z
#    x 1.933160 0.000000 -0.001380 
#    y 0.000000 1.919610 0.000000 
#    z -0.001380 0.000000 1.905610 
# 
# From -- ./inp_files/94610.got.cif
#   From: 2010.06.25/outbox.cif.g09.slc.cpg/sg15_48_cif.got.tgz:94610.got - 2010.06.28 07:06:18.
