data_PCOD8153589
_publ_section_title
;
Structure prediction by ZEFSAII (Michael W. Deem and Ramdas Pophale) SiO2 
 PCOD8153589
Probable space group: C 2/C
;
_chemical_formula_sum "Si O2"
_cell_formula_units_Z 36
_cell_length_a 15.676990
_cell_length_b 23.181763
_cell_length_c 7.863039
_cell_angle_alpha 90.000000
_cell_angle_beta 146.258658
_cell_angle_gamma 90.000000
_cell_volume 1587.231625
_symmetry_space_group_name_H-M "C 2/C"
_symmetry_group_IT_number 15
_symmetry_cell_setting 'monoclinic'
loop_
_space_group_symop_operation_xyz
x,y,z
-x,y,1/2-z
-x,-y,-z
x,-y,1/2+z
1/2+x,1/2+y,z
1/2-x,1/2+y,1/2-z
1/2-x,1/2-y,-z
1/2+x,1/2-y,1/2+z
loop_
_atom_site_type_symbol
_atom_site_label
_atom_site_fract_x
_atom_site_fract_y
_atom_site_fract_z
Si Si1 0.726659 0.848248 0.721940
Si Si2 0.327461 0.933495 0.420169
Si Si3 0.500000 0.271271 0.250000
Si Si4 0.912771 0.673041 0.857837
Si Si5 0.826014 0.036731 0.492811
O O1 0.689158 0.817243 0.480149
O O2 0.573941 0.857085 0.580396
O O3 0.788309 0.913118 0.792221
O O4 0.851240 0.811335 0.035157
O O5 0.321715 0.868333 0.336738
O O6 0.207791 0.936714 0.377616
O O7 0.500000 0.950960 0.750000
O O8 0.276108 0.979766 0.194606
O O9 0.542614 0.233934 0.485726
O O10 0.000000 0.018078 0.750000
#
# Coordination Sequence:
#
# PCOD8153589 Si02
#       5
#     8   8   4   8   8
#     4  11  24  42  70 100 139 180 226 283 338 407
#     4  12  24  43  71 100 136 181 230 281 333 414
#     4  12  22  46  68  98 142 176 228 284 342 400
#     4  11  24  43  69 103 132 181 234 275 338 406
#     4  12  25  44  67 103 144 177 223 285 349 399
#
# _framework density 22.680999
#
# number of rings (size 3 to 8) (size 9 to 14) (size 15 to 20)
#    0.000    0.444    4.444    4.000    3.111    0.000 
#    0.000    0.000    4.889    0.000    0.000    0.000 
#    0.000    0.000    0.000    0.000    0.000    0.000 
#
# Total GULP energy -223234.900164 kJ/mol
# GULP energy per Si atom -12401.938898 kJ/mol
# Density = 2.262938 g / cm^3
# Si number density = 22.680999 Si / 1000 Ang^3
#
#
#
# Elastic Constant Matrix: (Units=GPa)
#
#
# Indices 1 2 3 4 5 6 
#
# 1 111.3862 16.4176 35.3774 0.0000 3.2438 0.0000
# 2 16.4176 107.1744 54.6612 0.0000 2.2100 0.0000
# 3 35.3774 54.6612 98.7097 0.0000 6.7011 0.0000
# 4 0.0000 0.0000 0.0000 36.5411 0.0000 2.8592
# 5 3.2438 2.2100 6.7011 0.0000 32.1985 0.0000
# 6 0.0000 0.0000 0.0000 2.8592 0.0000 28.7285
#
#
#
# Elastic Compliance Matrix: (Units=1/GPa)
#
#
# Indices 1 2 3 4 5 6 
#
# 1 0.010146 0.000414 -0.003849 0.000000 -0.000250 0.000000
# 2 0.000414 0.013032 -0.007406 0.000000 0.000605 0.000000
# 3 -0.003849 -0.007406 0.015773 0.000000 -0.002387 0.000000
# 4 0.000000 0.000000 0.000000 0.027581 0.000000 -0.002745
# 5 -0.000250 0.000605 -0.002387 0.000000 0.031538 0.000000
# 6 0.000000 0.000000 0.000000 -0.002745 0.000000 0.035082
#
#
# Mechanical properties :
#
#
# Convention : Reuss Voigt Hill
#
# Bulk Modulus (GPa) = 57.90409 58.90918 58.40663
# Shear Modulus (GPa) = 31.13513 33.54789 32.34151
#
# Velocity S-wave (km/s) = 3.70907 3.85010 3.78025
# Velocity P-wave (km/s) = 6.62783 6.76710 6.69783
#
# Compressibility (1/GPa) = 0.01726994
#
# Stress axis : x y z
#
# Youngs Moduli (GPa) = 98.55687 76.73496 63.39896
#
# Poissons Ratio (x) = -0.03175 0.24400
# Poissons Ratio (y) = -0.04078 0.46952
# Poissons Ratio (z) = 0.37931 0.56829
#
# Static dielectric constant tensor:
#      x y z
#    x 3.891530 0.000000 -0.034820 
#    y 0.000000 4.035660 0.000000 
#    z -0.034820 0.000000 4.201120 
# 
# 
# High freq. dielectric constant tensor:
#      x y z
#    x 1.885330 0.000000 0.001210 
#    y 0.000000 1.900330 0.000000 
#    z 0.001210 0.000000 1.901250 
# 
# From -- ./inp_files/23328.got.cif
#   From: 2010.06.25/outbox.cif.g09.slc.cpg/sg15_12_cif.got.tgz:23328.got - 2010.06.28 07:06:18.
