data_PCOD8153641
_publ_section_title
;
Structure prediction by ZEFSAII (Michael W. Deem and Ramdas Pophale) SiO2 
 PCOD8153641
Probable space group: C 2/C
;
_chemical_formula_sum "Si O2"
_cell_formula_units_Z 56
_cell_length_a 23.671878
_cell_length_b 13.919459
_cell_length_c 9.845079
_cell_angle_alpha 90.000000
_cell_angle_beta 127.470782
_cell_angle_gamma 90.000000
_cell_volume 2574.606013
_symmetry_space_group_name_H-M "C 2/C"
_symmetry_group_IT_number 15
_symmetry_cell_setting 'monoclinic'
loop_
_space_group_symop_operation_xyz
x,y,z
-x,y,1/2-z
-x,-y,-z
x,-y,1/2+z
1/2+x,1/2+y,z
1/2-x,1/2+y,1/2-z
1/2-x,1/2-y,-z
1/2+x,1/2-y,1/2+z
loop_
_atom_site_type_symbol
_atom_site_label
_atom_site_fract_x
_atom_site_fract_y
_atom_site_fract_z
Si Si1 0.918154 0.932491 0.123181
Si Si2 0.082488 0.300971 0.221678
Si Si3 0.736152 0.986812 0.117111
Si Si4 0.182759 0.192303 0.846587
Si Si5 0.356813 0.004660 0.767990
Si Si6 0.131126 0.910118 0.745927
Si Si7 0.077874 0.324938 0.528363
O O1 0.867113 0.848146 0.105534
O O2 0.000000 0.899151 0.250000
O O3 0.907065 0.032558 0.187596
O O4 0.900528 0.950806 0.940587
O O5 0.114318 0.386972 0.177664
O O6 0.122427 0.203074 0.248761
O O7 0.093816 0.333000 0.392608
O O8 0.000504 0.283207 0.062327
O O9 0.786856 0.894297 0.198423
O O10 0.710362 0.008845 0.230806
O O11 0.783709 0.074702 0.130408
O O12 0.668795 0.974203 0.919380
O O13 0.136251 0.257328 0.680312
O O14 0.250000 0.250000 0.000000
O O15 0.418891 0.931293 0.902364
#
# Coordination Sequence:
#
# PCOD8153641 Si02
#       7
#     8   8   8   8   8   8   8
#     4  11  25  44  71 104 145 186 230 290 355 425
#     4  11  27  44  73 102 143 186 238 290 358 422
#     4  11  25  42  69 101 141 183 232 289 356 416
#     4  11  24  43  70  99 140 184 234 292 347 422
#     4  12  24  47  68 101 140 187 235 294 347 417
#     4  11  26  44  70 107 144 184 234 287 357 428
#     4  11  25  46  70 104 139 186 237 295 353 415
#
# _framework density 21.750900000000001
#
# number of rings (size 3 to 8) (size 9 to 14) (size 15 to 20)
#    0.000    0.857    2.857    3.429   10.000    0.571 
#    0.000    0.000    0.000    0.000    0.000    0.000 
#    0.000    0.000    0.000    0.000    0.000    0.000 
#
# Total GULP energy -347351.069671 kJ/mol
# GULP energy per Si atom -12405.395345 kJ/mol
# Density = 2.170139 g / cm^3
# Si number density = 21.750900 Si / 1000 Ang^3
#
#
#
# Elastic Constant Matrix: (Units=GPa)
#
#
# Indices 1 2 3 4 5 6 
#
# 1 77.7092 39.5247 17.1792 0.0000 5.7376 0.0000
# 2 39.5247 156.0377 39.6056 0.0000 6.2965 0.0000
# 3 17.1792 39.6056 117.7689 0.0000 8.1635 0.0000
# 4 0.0000 0.0000 0.0000 34.3272 0.0000 4.5544
# 5 5.7376 6.2965 8.1635 0.0000 31.3339 0.0000
# 6 0.0000 0.0000 0.0000 4.5544 0.0000 30.9709
#
#
#
# Elastic Compliance Matrix: (Units=1/GPa)
#
#
# Indices 1 2 3 4 5 6 
#
# 1 0.014976 -0.003496 -0.000883 0.000000 -0.001810 0.000000
# 2 -0.003496 0.007843 -0.002101 0.000000 -0.000389 0.000000
# 3 -0.000883 -0.002101 0.009457 0.000000 -0.001880 0.000000
# 4 0.000000 0.000000 0.000000 0.029711 0.000000 -0.004369
# 5 -0.001810 -0.000389 -0.001880 0.000000 0.032814 0.000000
# 6 0.000000 0.000000 0.000000 -0.004369 0.000000 0.032931
#
#
# Mechanical properties :
#
#
# Convention : Reuss Voigt Hill
#
# Bulk Modulus (GPa) = 51.77266 60.45942 56.11604
# Shear Modulus (GPa) = 33.98355 36.34013 35.16184
#
# Velocity S-wave (km/s) = 3.95701 4.09190 4.02502
# Velocity P-wave (km/s) = 6.68815 7.08389 6.88887
#
# Compressibility (1/GPa) = 0.01931521
#
# Stress axis : x y z
#
# Youngs Moduli (GPa) = 66.77535 127.49941 105.74341
#
# Poissons Ratio (x) = 0.44575 0.09341
# Poissons Ratio (y) = 0.23345 0.22214
# Poissons Ratio (z) = 0.05899 0.26784
#
# Static dielectric constant tensor:
#      x y z
#    x 4.001310 0.000000 0.107240 
#    y 0.000000 3.963280 0.000000 
#    z 0.107240 0.000000 4.019720 
# 
# 
# High freq. dielectric constant tensor:
#      x y z
#    x 1.858600 0.000000 0.005500 
#    y 0.000000 1.859530 0.000000 
#    z 0.005500 0.000000 1.864970 
# 
# From -- ./inp_files/62012.got.cif
#   From: 2010.06.25/outbox.cif.g09.slc.cpg/sg15_32_cif.got.tgz:62012.got - 2010.06.28 07:06:18.
