data_PCOD8153424
_publ_section_title
;
Structure prediction by ZEFSAII (Michael W. Deem and Ramdas Pophale) SiO2 
 PCOD8153424
Probable space group: C 2/C
;
_chemical_formula_sum "Si O2"
_cell_formula_units_Z 48
_cell_length_a 18.495663
_cell_length_b 19.030971
_cell_length_c 9.846343
_cell_angle_alpha 90.000000
_cell_angle_beta 40.049705
_cell_angle_gamma 90.000000
_cell_volume 2230.087560
_symmetry_space_group_name_H-M "C 2/C"
_symmetry_group_IT_number 15
_symmetry_cell_setting 'monoclinic'
loop_
_space_group_symop_operation_xyz
x,y,z
-x,y,1/2-z
-x,-y,-z
x,-y,1/2+z
1/2+x,1/2+y,z
1/2-x,1/2+y,1/2-z
1/2-x,1/2-y,-z
1/2+x,1/2-y,1/2+z
loop_
_atom_site_type_symbol
_atom_site_label
_atom_site_fract_x
_atom_site_fract_y
_atom_site_fract_z
Si Si1 0.090252 0.792621 0.923106
Si Si2 0.643536 0.699157 0.653302
Si Si3 0.428697 0.930024 0.628823
Si Si4 0.760740 0.571865 0.598562
Si Si5 0.855235 0.643963 0.722105
Si Si6 0.245378 0.415277 0.864123
O O1 0.160215 0.728394 0.755017
O O2 0.146019 0.864951 0.792456
O O3 0.094963 0.790676 0.076234
O O4 0.954743 0.786796 0.091693
O O5 0.750000 0.750000 0.500000
O O6 0.679203 0.618864 0.625065
O O7 0.380015 0.934745 0.850586
O O8 0.513758 0.865196 0.502315
O O9 0.329674 0.914945 0.663730
O O10 0.500000 0.000000 0.500000
O O11 0.776515 0.606814 0.723531
O O12 0.707783 0.494224 0.685552
O O13 0.831923 0.609036 0.900095
#
# Coordination Sequence:
#
# PCOD8153424 Si02
#       6
#     8   8   8   8   8   8
#     4  11  26  44  68  99 139 179 227 282 350 414
#     4  11  23  46  71  99 129 182 232 280 334 419
#     4  12  23  41  67 107 136 181 227 285 345 401
#     4  12  23  42  71  97 135 177 240 279 335 410
#     4  12  25  39  68 102 141 178 225 288 341 411
#     4  12  25  44  65 103 145 175 224 288 353 405
#
# _framework density 21.523817999999999
#
# number of rings (size 3 to 8) (size 9 to 14) (size 15 to 20)
#    0.000    0.333    6.667    2.500    2.333    0.667 
#    0.000    0.833    0.000    0.000    0.000    0.000 
#    0.000    0.000    0.000    0.000    0.000    0.000 
#
# Total GULP energy -297487.637021 kJ/mol
# GULP energy per Si atom -12395.318209 kJ/mol
# Density = 2.147483 g / cm^3
# Si number density = 21.523818 Si / 1000 Ang^3
#
#
#
# Elastic Constant Matrix: (Units=GPa)
#
#
# Indices 1 2 3 4 5 6 
#
# 1 54.2102 25.7033 13.9620 0.0000 -4.3804 0.0000
# 2 25.7033 180.7184 40.3216 0.0000 -16.8114 0.0000
# 3 13.9620 40.3216 85.5664 0.0000 -10.5481 0.0000
# 4 0.0000 0.0000 0.0000 33.5938 0.0000 -0.8406
# 5 -4.3804 -16.8114 -10.5481 0.0000 30.2833 0.0000
# 6 0.0000 0.0000 0.0000 -0.8406 0.0000 33.5635
#
#
#
# Elastic Compliance Matrix: (Units=1/GPa)
#
#
# Indices 1 2 3 4 5 6 
#
# 1 0.020156 -0.002317 -0.002086 0.000000 0.000903 0.000000
# 2 -0.002317 0.006641 -0.002443 0.000000 0.002500 0.000000
# 3 -0.002086 -0.002443 0.013556 0.000000 0.003064 0.000000
# 4 0.000000 0.000000 0.000000 0.029786 0.000000 0.000746
# 5 0.000903 0.002500 0.003064 0.000000 0.035607 0.000000
# 6 0.000000 0.000000 0.000000 0.000746 0.000000 0.029813
#
#
# Mechanical properties :
#
#
# Convention : Reuss Voigt Hill
#
# Bulk Modulus (GPa) = 37.50863 53.38544 45.44703
# Shear Modulus (GPa) = 31.61809 35.52198 33.57003
#
# Velocity S-wave (km/s) = 3.83689 4.06687 3.95355
# Velocity P-wave (km/s) = 6.09043 6.84904 6.48084
#
# Compressibility (1/GPa) = 0.02666053
#
# Stress axis : x y z
#
# Youngs Moduli (GPa) = 49.61412 150.58552 73.76790
#
# Poissons Ratio (x) = 0.34897 0.15384
# Poissons Ratio (y) = 0.11498 0.18021
# Poissons Ratio (z) = 0.10347 0.36787
#
# Static dielectric constant tensor:
#      x y z
#    x 3.656690 0.000000 0.066700 
#    y 0.000000 4.006210 0.000000 
#    z 0.066700 0.000000 3.981240 
# 
# 
# High freq. dielectric constant tensor:
#      x y z
#    x 1.831310 0.000000 0.004460 
#    y 0.000000 1.861920 0.000000 
#    z 0.004460 0.000000 1.843210 
# 
# From -- ./inp_files/119361.got.cif
#   From: 2010.06.25/outbox.cif.g09.slc.cpg/sg15_60_cif.got.tgz:119361.got - 2010.06.28 07:06:18.
