data_PCOD8153369
_publ_section_title
;
Structure prediction by ZEFSAII (Michael W. Deem and Ramdas Pophale) SiO2 
 PCOD8153369
Probable space group: C 2/C
;
_chemical_formula_sum "Si O2"
_cell_formula_units_Z 64
_cell_length_a 30.218250
_cell_length_b 9.009776
_cell_length_c 17.615861
_cell_angle_alpha 90.000000
_cell_angle_beta 143.296271
_cell_angle_gamma 90.000000
_cell_volume 2866.513294
_symmetry_space_group_name_H-M "C 2/C"
_symmetry_group_IT_number 15
_symmetry_cell_setting 'monoclinic'
loop_
_space_group_symop_operation_xyz
x,y,z
-x,y,1/2-z
-x,-y,-z
x,-y,1/2+z
1/2+x,1/2+y,z
1/2-x,1/2+y,1/2-z
1/2-x,1/2-y,-z
1/2+x,1/2-y,1/2+z
loop_
_atom_site_type_symbol
_atom_site_label
_atom_site_fract_x
_atom_site_fract_y
_atom_site_fract_z
Si Si1 0.340500 0.098681 0.901146
Si Si2 0.584764 0.919368 0.843659
Si Si3 0.702797 0.779815 0.693844
Si Si4 0.439082 0.704514 0.432941
Si Si5 0.706706 0.363464 0.036768
Si Si6 0.322981 0.656898 0.581115
Si Si7 0.366939 0.819203 0.191866
Si Si8 0.603279 0.607312 0.664712
O O1 0.281895 0.229412 0.835312
O O2 0.407004 0.167130 0.942980
O O3 0.299061 0.958734 0.806295
O O4 0.369168 0.032274 0.019356
O O5 0.500000 0.924619 0.750000
O O6 0.608577 0.754470 0.853684
O O7 0.604716 0.023843 0.800499
O O8 0.687936 0.700159 0.593183
O O9 0.639153 0.732905 0.663216
O O10 0.432131 0.756559 0.335498
O O11 0.522669 0.672740 0.572869
O O12 0.396406 0.547416 0.381119
O O13 0.792747 0.330257 0.139775
O O14 0.694825 0.539226 0.009756
O O15 0.648965 0.286650 0.900556
O O16 0.250000 0.750000 0.500000
O O17 0.349716 0.575676 0.694632
#
# Coordination Sequence:
#
# PCOD8153369 Si02
#       8
#     8   8   8   8   8   8   8   8
#     4  12  27  46  70 105 142 187 235 300 351 425
#     4  12  28  46  69 105 150 187 236 296 356 427
#     4  12  27  43  70 109 138 181 241 295 357 411
#     4  11  25  48  73  98 146 185 232 288 364 429
#     4  11  24  45  71 103 137 184 241 291 351 416
#     4  12  25  46  73 105 141 186 241 293 355 428
#     4  11  23  45  73  99 139 190 234 291 346 428
#     4  11  27  46  70 107 139 186 233 292 358 432
#
# _framework density 22.326775000000001
#
# number of rings (size 3 to 8) (size 9 to 14) (size 15 to 20)
#    0.000    0.500    5.000    2.250    8.750    0.500 
#    0.000    0.625    0.000    0.000    0.000    0.000 
#    0.000    0.000    0.000    0.000    0.000    0.000 
#
# Total GULP energy -396895.704333 kJ/mol
# GULP energy per Si atom -12402.990760 kJ/mol
# Density = 2.227596 g / cm^3
# Si number density = 22.326775 Si / 1000 Ang^3
#
#
#
# Elastic Constant Matrix: (Units=GPa)
#
#
# Indices 1 2 3 4 5 6 
#
# 1 69.5307 19.7616 13.7313 0.0000 6.4800 0.0000
# 2 19.7616 108.1959 13.5420 0.0000 10.9943 0.0000
# 3 13.7313 13.5420 96.7406 0.0000 1.3523 0.0000
# 4 0.0000 0.0000 0.0000 34.5671 0.0000 -1.5974
# 5 6.4800 10.9943 1.3523 0.0000 20.3395 0.0000
# 6 0.0000 0.0000 0.0000 -1.5974 0.0000 33.5570
#
#
#
# Elastic Compliance Matrix: (Units=1/GPa)
#
#
# Indices 1 2 3 4 5 6 
#
# 1 0.015737 -0.002269 -0.001865 0.000000 -0.003663 0.000000
# 2 -0.002269 0.010272 -0.001049 0.000000 -0.004760 0.000000
# 3 -0.001865 -0.001049 0.010742 0.000000 0.000447 0.000000
# 4 0.000000 0.000000 0.000000 0.028993 0.000000 0.001380
# 5 -0.003663 -0.004760 0.000447 0.000000 0.052876 0.000000
# 6 0.000000 0.000000 0.000000 0.001380 0.000000 0.029866
#
#
# Mechanical properties :
#
#
# Convention : Reuss Voigt Hill
#
# Bulk Modulus (GPa) = 37.90015 40.94854 39.42435
# Shear Modulus (GPa) = 29.82481 32.85489 31.33985
#
# Velocity S-wave (km/s) = 3.65887 3.84024 3.75065
# Velocity P-wave (km/s) = 5.90439 6.16795 6.03761
#
# Compressibility (1/GPa) = 0.02638512
#
# Stress axis : x y z
#
# Youngs Moduli (GPa) = 63.54614 97.35346 93.09027
#
# Poissons Ratio (x) = 0.22085 0.17360
# Poissons Ratio (y) = 0.14416 0.09768
# Poissons Ratio (z) = 0.11851 0.10216
#
# Static dielectric constant tensor:
#      x y z
#    x 3.878710 0.000000 -0.166030 
#    y 0.000000 4.103180 0.000000 
#    z -0.166030 0.000000 4.161930 
# 
# 
# High freq. dielectric constant tensor:
#      x y z
#    x 1.870360 0.000000 -0.009900 
#    y 0.000000 1.892650 0.000000 
#    z -0.009900 0.000000 1.891680 
# 
# From -- ./inp_files/224656.got.cif
#   From: 2010.06.25/outbox.cif.g09.slc.cpg/sg15_113_cif.got.tgz:224656.got - 2010.06.28 07:06:18.
