data_PCOD8153315
_publ_section_title
;
Structure prediction by ZEFSAII (Michael W. Deem and Ramdas Pophale) SiO2 
 PCOD8153315
Probable space group: C 2/C
;
_chemical_formula_sum "Si O2"
_cell_formula_units_Z 40
_cell_length_a 10.273804
_cell_length_b 18.942424
_cell_length_c 8.713471
_cell_angle_alpha 90.000000
_cell_angle_beta 97.349392
_cell_angle_gamma 90.000000
_cell_volume 1681.803891
_symmetry_space_group_name_H-M "C 2/C"
_symmetry_group_IT_number 15
_symmetry_cell_setting 'monoclinic'
loop_
_space_group_symop_operation_xyz
x,y,z
-x,y,1/2-z
-x,-y,-z
x,-y,1/2+z
1/2+x,1/2+y,z
1/2-x,1/2+y,1/2-z
1/2-x,1/2-y,-z
1/2+x,1/2-y,1/2+z
loop_
_atom_site_type_symbol
_atom_site_label
_atom_site_fract_x
_atom_site_fract_y
_atom_site_fract_z
Si Si1 0.873372 0.548611 0.436714
Si Si2 0.400779 0.180136 0.874149
Si Si3 0.288291 0.925752 0.581305
Si Si4 0.034449 0.833211 0.578598
Si Si5 0.239905 0.173704 0.576500
O O1 0.757212 0.498560 0.486958
O O2 0.854463 0.624691 0.516631
O O3 0.000000 0.500000 0.500000
O O4 0.143546 0.558301 0.246567
O O5 0.500000 0.164777 0.750000
O O6 0.424524 0.254097 0.963862
O O7 0.260587 0.180693 0.763035
O O8 0.398757 0.119953 0.004737
O O9 0.152063 0.886033 0.568859
O O10 0.000000 0.831892 0.750000
O O11 0.905475 0.858067 0.467227
O O12 0.250000 0.250000 0.500000
#
# Coordination Sequence:
#
# PCOD8153315 Si02
#       5
#     8   8   8   8   8
#     4  12  27  46  73 111 151 202 256 319 383 466
#     4  11  23  44  77 111 155 203 258 319 387 464
#     4  12  26  49  72 109 155 200 260 314 392 456
#     4  11  23  46  77 112 153 204 253 318 383 473
#     4  12  23  46  77 110 157 204 253 318 389 459
#
# _framework density 23.783987
#
# number of rings (size 3 to 8) (size 9 to 14) (size 15 to 20)
#    0.000    0.400    6.000    3.600    0.000    1.600 
#    3.600    0.000    0.000    0.000    0.000    0.000 
#    0.000    0.000    0.000    0.000    0.000    0.000 
#
# Total GULP energy -247905.317252 kJ/mol
# GULP energy per Si atom -12395.265863 kJ/mol
# Density = 2.372985 g / cm^3
# Si number density = 23.783987 Si / 1000 Ang^3
#
#
#
# Elastic Constant Matrix: (Units=GPa)
#
#
# Indices 1 2 3 4 5 6 
#
# 1 121.7080 51.1642 31.3024 0.0000 19.4205 0.0000
# 2 51.1642 167.4404 56.3204 0.0000 -15.3677 0.0000
# 3 31.3024 56.3204 150.0250 0.0000 13.7123 0.0000
# 4 0.0000 0.0000 0.0000 58.1644 0.0000 2.6399
# 5 19.4205 -15.3677 13.7123 0.0000 35.7421 0.0000
# 6 0.0000 0.0000 0.0000 2.6399 0.0000 60.3599
#
#
#
# Elastic Compliance Matrix: (Units=1/GPa)
#
#
# Indices 1 2 3 4 5 6 
#
# 1 0.011220 -0.004122 -0.000077 0.000000 -0.007839 0.000000
# 2 -0.004122 0.008972 -0.003177 0.000000 0.007316 0.000000
# 3 -0.000077 -0.003177 0.008286 0.000000 -0.004503 0.000000
# 4 0.000000 0.000000 0.000000 0.017227 0.000000 -0.000753
# 5 -0.007839 0.007316 -0.004503 0.000000 0.037111 0.000000
# 6 0.000000 0.000000 0.000000 -0.000753 0.000000 0.016600
#
#
# Mechanical properties :
#
#
# Convention : Reuss Voigt Hill
#
# Bulk Modulus (GPa) = 72.85511 79.63861 76.24686
# Shear Modulus (GPa) = 42.10815 50.87904 46.49359
#
# Velocity S-wave (km/s) = 4.21223 4.63018 4.42614
# Velocity P-wave (km/s) = 7.37263 7.88299 7.63208
#
# Compressibility (1/GPa) = 0.01372587
#
# Stress axis : x y z
#
# Youngs Moduli (GPa) = 89.12769 111.46064 120.68909
#
# Poissons Ratio (x) = 0.45943 0.00931
# Poissons Ratio (y) = 0.36738 0.38339
# Poissons Ratio (z) = 0.00687 0.35408
#
# Static dielectric constant tensor:
#      x y z
#    x 4.749320 0.000000 0.210210 
#    y 0.000000 4.978020 0.000000 
#    z 0.210210 0.000000 4.557160 
# 
# 
# High freq. dielectric constant tensor:
#      x y z
#    x 1.949170 0.000000 0.010110 
#    y 0.000000 1.957480 0.000000 
#    z 0.010110 0.000000 1.945190 
# 
# From -- ./inp_files/76789.got.cif
#   From: 2010.06.25/outbox.cif.g09.slc.cpg/sg15_39_cif.got.tgz:76789.got - 2010.06.28 07:06:18.
