data_PCOD8153791
_publ_section_title
;
Structure prediction by ZEFSAII (Michael W. Deem and Ramdas Pophale) SiO2 
 PCOD8153791
Probable space group: C 2/C
;
_chemical_formula_sum "Si O2"
_cell_formula_units_Z 56
_cell_length_a 28.123523
_cell_length_b 16.662368
_cell_length_c 18.825430
_cell_angle_alpha 90.000000
_cell_angle_beta 162.882890
_cell_angle_gamma 90.000000
_cell_volume 2596.447764
_symmetry_space_group_name_H-M "C 2/C"
_symmetry_group_IT_number 15
_symmetry_cell_setting 'monoclinic'
loop_
_space_group_symop_operation_xyz
x,y,z
-x,y,1/2-z
-x,-y,-z
x,-y,1/2+z
1/2+x,1/2+y,z
1/2-x,1/2+y,1/2-z
1/2-x,1/2-y,-z
1/2+x,1/2-y,1/2+z
loop_
_atom_site_type_symbol
_atom_site_label
_atom_site_fract_x
_atom_site_fract_y
_atom_site_fract_z
Si Si1 0.825131 0.891412 0.035526
Si Si2 0.342377 0.669736 0.320407
Si Si3 0.281123 0.768662 0.722062
Si Si4 0.639081 0.782488 0.277012
Si Si5 0.618029 0.972537 0.475823
Si Si6 0.898743 0.472046 0.289085
Si Si7 0.190309 0.881938 0.319123
O O1 0.808847 0.869629 0.095180
O O2 0.000000 0.879210 0.250000
O O3 0.699697 0.837472 0.810759
O O4 0.774362 0.984194 0.955792
O O5 0.359033 0.710743 0.421512
O O6 0.286991 0.738356 0.186348
O O7 0.505512 0.625417 0.529516
O O8 0.212804 0.600226 0.145502
O O9 0.218457 0.690189 0.590866
O O10 0.448602 0.758452 0.006022
O O11 0.750000 0.750000 0.500000
O O12 0.646615 0.878552 0.281733
O O13 0.500000 0.933144 0.250000
O O14 0.504606 0.008278 0.375232
O O15 0.732475 0.036521 0.599837
O O16 0.000000 0.500000 0.500000
#
# Coordination Sequence:
#
# PCOD8153791 Si02
#       7
#     8   8   8   8   8   8   8
#     4  12  24  47  71 103 147 187 236 303 365 429
#     4  11  24  46  70  99 148 182 233 294 358 427
#     4  11  24  45  69 102 138 187 233 300 354 423
#     4  11  25  45  69 100 138 188 240 294 357 433
#     4  12  24  44  72 102 141 185 234 294 355 431
#     4  12  25  47  73 104 145 186 243 298 364 430
#     4  11  26  42  71 109 137 187 238 288 361 432
#
# _framework density 21.567927999999998
#
# number of rings (size 3 to 8) (size 9 to 14) (size 15 to 20)
#    0.000    0.571    5.714    1.714    2.000    0.571 
#    2.571    0.000    0.000    0.000    0.000    0.000 
#    0.000    0.000    0.000    0.000    0.000    0.000 
#
# Total GULP energy -346958.942288 kJ/mol
# GULP energy per Si atom -12391.390796 kJ/mol
# Density = 2.151884 g / cm^3
# Si number density = 21.567928 Si / 1000 Ang^3
#
#
#
# Elastic Constant Matrix: (Units=GPa)
#
#
# Indices 1 2 3 4 5 6 
#
# 1 152.6957 53.8545 37.9356 0.0025 -14.4006 0.0015
# 2 53.8545 124.4674 39.7906 0.0013 -7.1031 0.0008
# 3 37.9356 39.7906 86.1638 0.0034 -13.6302 0.0025
# 4 0.0025 0.0013 0.0034 23.7469 0.0026 -5.5532
# 5 -14.4006 -7.1031 -13.6302 0.0026 36.2901 0.0018
# 6 0.0015 0.0008 0.0025 -5.5532 0.0018 33.7610
#
#
#
# Elastic Compliance Matrix: (Units=1/GPa)
#
#
# Indices 1 2 3 4 5 6 
#
# 1 0.008223 -0.002801 -0.002017 -0.000001 0.001957 0.000000
# 2 -0.002801 0.010382 -0.003631 0.000000 -0.000443 0.000000
# 3 -0.002017 -0.003631 0.014812 -0.000003 0.004052 -0.000002
# 4 -0.000001 0.000000 -0.000003 0.043795 -0.000005 0.007204
# 5 0.001957 -0.000443 0.004052 -0.000005 0.029767 -0.000003
# 6 0.000000 0.000000 -0.000002 0.007204 -0.000003 0.030805
#
#
# Mechanical properties :
#
#
# Convention : Reuss Voigt Hill
#
# Bulk Modulus (GPa) = 60.54256 69.60981 65.07619
# Shear Modulus (GPa) = 31.21324 34.20934 32.71129
#
# Velocity S-wave (km/s) = 3.80834 3.98693 3.89866
# Velocity P-wave (km/s) = 6.88982 7.31703 7.10663
#
# Compressibility (1/GPa) = 0.01651731
#
# Stress axis : x y z
#
# Youngs Moduli (GPa) = 121.61571 96.32222 67.51419
#
# Poissons Ratio (x) = 0.26982 0.13617
# Poissons Ratio (y) = 0.34068 0.24516
# Poissons Ratio (z) = 0.24530 0.34976
#
# Static dielectric constant tensor:
#      x y z
#    x 3.928840 0.000000 -0.136480 
#    y 0.000000 4.018240 0.000000 
#    z -0.136480 0.000000 3.916650 
# 
# 
# High freq. dielectric constant tensor:
#      x y z
#    x 1.862560 0.000000 -0.008340 
#    y 0.000000 1.848090 0.000000 
#    z -0.008340 0.000000 1.847580 
# 
# From -- ./inp_files/206283.got.cif
#   From: 2010.06.25/outbox.cif.g09.slc.cpg/sg15_104_cif.got.tgz:206283.got - 2010.06.28 07:06:18.
