data_PCOD8153702
_publ_section_title
;
Structure prediction by ZEFSAII (Michael W. Deem and Ramdas Pophale) SiO2 
 PCOD8153702
Probable space group: C 2/C
;
_chemical_formula_sum "Si O2"
_cell_formula_units_Z 56
_cell_length_a 8.246590
_cell_length_b 17.060218
_cell_length_c 17.000211
_cell_angle_alpha 90.000000
_cell_angle_beta 104.430431
_cell_angle_gamma 90.000000
_cell_volume 2316.279248
_symmetry_space_group_name_H-M "C 2/C"
_symmetry_group_IT_number 15
_symmetry_cell_setting 'monoclinic'
loop_
_space_group_symop_operation_xyz
x,y,z
-x,y,1/2-z
-x,-y,-z
x,-y,1/2+z
1/2+x,1/2+y,z
1/2-x,1/2+y,1/2-z
1/2-x,1/2-y,-z
1/2+x,1/2-y,1/2+z
loop_
_atom_site_type_symbol
_atom_site_label
_atom_site_fract_x
_atom_site_fract_y
_atom_site_fract_z
Si Si1 0.191239 0.014947 0.282599
Si Si2 0.728667 0.242422 0.405671
Si Si3 0.317325 0.092370 0.592850
Si Si4 0.652104 0.852204 0.201165
Si Si5 0.306880 0.075852 0.140495
Si Si6 0.845724 0.770406 0.357357
Si Si7 0.364362 0.894126 0.920898
O O1 0.217067 0.922567 0.274929
O O2 0.000000 0.036315 0.250000
O O3 0.308011 0.064436 0.235371
O O4 0.232368 0.040595 0.376675
O O5 0.750000 0.250000 0.500000
O O6 0.844801 0.309132 0.382558
O O7 0.795649 0.155602 0.389301
O O8 0.538131 0.259768 0.353804
O O9 0.458820 0.113542 0.678549
O O10 0.170074 0.156275 0.583700
O O11 0.402487 0.093340 0.517380
O O12 0.235237 0.006992 0.598731
O O13 0.715368 0.784941 0.269788
O O14 0.479517 0.089684 0.116498
O O15 0.789960 0.692320 0.396858
#
# Coordination Sequence:
#
# PCOD8153702 Si02
#       7
#     8   8   8   8   8   8   8
#     4  12  26  42  69 104 142 185 246 305 360 436
#     4  11  26  46  73 102 149 193 241 298 375 440
#     4  12  25  45  76 106 142 189 245 302 362 437
#     4  12  24  44  69 102 142 188 245 300 368 432
#     4  11  24  47  71 103 137 196 240 291 371 444
#     4  11  24  44  69 105 141 190 240 296 357 439
#     4  11  25  44  72 102 145 184 241 296 363 443
#
# _framework density 24.176705999999999
#
# number of rings (size 3 to 8) (size 9 to 14) (size 15 to 20)
#    0.000    0.571    2.857    5.571    2.000    5.714 
#    0.000    1.429    0.000    0.000    0.000    0.000 
#    0.000    0.000    0.000    0.000    0.000    0.000 
#
# Total GULP energy -346978.206313 kJ/mol
# GULP energy per Si atom -12392.078797 kJ/mol
# Density = 2.412168 g / cm^3
# Si number density = 24.176706 Si / 1000 Ang^3
#
#
#
# Elastic Constant Matrix: (Units=GPa)
#
#
# Indices 1 2 3 4 5 6 
#
# 1 57.0525 18.2073 -0.8010 0.0000 -2.3325 0.0000
# 2 18.2073 155.2309 31.7697 0.0000 -10.6361 0.0000
# 3 -0.8010 31.7697 101.9587 0.0000 -4.9600 0.0000
# 4 0.0000 0.0000 0.0000 33.3743 0.0000 -9.8611
# 5 -2.3325 -10.6361 -4.9600 0.0000 29.1689 0.0000
# 6 0.0000 0.0000 0.0000 -9.8611 0.0000 38.9812
#
#
#
# Elastic Compliance Matrix: (Units=1/GPa)
#
#
# Indices 1 2 3 4 5 6 
#
# 1 0.018298 -0.002275 0.000891 0.000000 0.000785 0.000000
# 2 -0.002275 0.007302 -0.002190 0.000000 0.002108 0.000000
# 3 0.000891 -0.002190 0.010549 0.000000 0.001066 0.000000
# 4 0.000000 0.000000 0.000000 0.032384 0.000000 0.008192
# 5 0.000785 0.002108 0.001066 0.000000 0.035296 0.000000
# 6 0.000000 0.000000 0.000000 0.008192 0.000000 0.027726
#
#
# Mechanical properties :
#
#
# Convention : Reuss Voigt Hill
#
# Bulk Modulus (GPa) = 34.48244 45.84379 40.16312
# Shear Modulus (GPa) = 33.69950 37.97593 35.83771
#
# Velocity S-wave (km/s) = 3.73752 3.96759 3.85427
# Velocity P-wave (km/s) = 5.73752 6.32393 6.03785
#
# Compressibility (1/GPa) = 0.02900027
#
# Stress axis : x y z
#
# Youngs Moduli (GPa) = 54.64998 136.95695 94.79304
#
# Poissons Ratio (x) = 0.31154 -0.08444
# Poissons Ratio (y) = 0.12431 0.20764
# Poissons Ratio (z) = -0.04868 0.30000
#
# Static dielectric constant tensor:
#      x y z
#    x 4.287740 0.000000 -0.242300 
#    y 0.000000 5.148930 0.000000 
#    z -0.242300 0.000000 4.447540 
# 
# 
# High freq. dielectric constant tensor:
#      x y z
#    x 1.934710 0.000000 -0.021050 
#    y 0.000000 1.983430 0.000000 
#    z -0.021050 0.000000 1.964530 
# 
# From -- ./inp_files/191069.got.cif
#   From: 2010.06.25/outbox.cif.g09.slc.cpg/sg15_96_cif.got.tgz:191069.got - 2010.06.28 07:06:18.
