data_PCOD8153096
_publ_section_title
;
Structure prediction by ZEFSAII (Michael W. Deem and Ramdas Pophale) SiO2 
 PCOD8153096
Probable space group: C 2/C
;
_chemical_formula_sum "Si O2"
_cell_formula_units_Z 44
_cell_length_a 16.392703
_cell_length_b 9.530412
_cell_length_c 13.392320
_cell_angle_alpha 90.000000
_cell_angle_beta 83.923243
_cell_angle_gamma 90.000000
_cell_volume 2080.515082
_symmetry_space_group_name_H-M "C 2/C"
_symmetry_group_IT_number 15
_symmetry_cell_setting 'monoclinic'
loop_
_space_group_symop_operation_xyz
x,y,z
-x,y,1/2-z
-x,-y,-z
x,-y,1/2+z
1/2+x,1/2+y,z
1/2-x,1/2+y,1/2-z
1/2-x,1/2-y,-z
1/2+x,1/2-y,1/2+z
loop_
_atom_site_type_symbol
_atom_site_label
_atom_site_fract_x
_atom_site_fract_y
_atom_site_fract_z
Si Si1 0.286613 0.859009 0.293035
Si Si2 0.708835 0.691230 0.603685
Si Si3 0.903392 0.618185 0.263131
Si Si4 0.385043 0.651042 0.621119
Si Si5 0.500000 0.485849 0.750000
Si Si6 0.137977 0.115373 0.100516
O O1 0.275468 0.794217 0.183921
O O2 0.200016 0.929197 0.338958
O O3 0.302063 0.739028 0.373237
O O4 0.359113 0.970524 0.283477
O O5 0.750000 0.750000 0.500000
O O6 0.625936 0.776725 0.643767
O O7 0.686505 0.529857 0.589732
O O8 0.877510 0.687886 0.160755
O O9 0.000000 0.591222 0.250000
O O10 0.460830 0.582512 0.669484
O O11 0.401488 0.649192 0.501670
O O12 0.434301 0.385311 0.809454
#
# Coordination Sequence:
#
# PCOD8153096 Si02
#       6
#     8   8   8   8   4   8
#     4  11  25  44  69  98 142 177 232 282 342 417
#     4  11  23  42  73 100 133 182 235 282 346 412
#     4  11  23  45  66  98 142 180 220 290 351 407
#     4  11  23  45  71  96 135 184 232 280 350 406
#     4  12  24  44  68 102 140 178 228 296 334 418
#     4  12  25  43  72 103 134 183 235 285 341 417
#
# _framework density 21.148609
#
# number of rings (size 3 to 8) (size 9 to 14) (size 15 to 20)
#    0.000    0.727    4.545    4.364    3.818    1.455 
#    0.000    1.818    0.000    0.000    0.000    0.000 
#    0.000    0.000    0.000    0.000    0.000    0.000 
#
# Total GULP energy -272837.466457 kJ/mol
# GULP energy per Si atom -12401.703021 kJ/mol
# Density = 2.110047 g / cm^3
# Si number density = 21.148609 Si / 1000 Ang^3
#
#
#
# Elastic Constant Matrix: (Units=GPa)
#
#
# Indices 1 2 3 4 5 6 
#
# 1 115.0482 40.8992 26.3820 0.0000 4.9720 0.0000
# 2 40.8992 101.9078 31.8262 0.0000 0.5117 0.0000
# 3 26.3820 31.8262 136.2294 0.0000 21.5017 0.0000
# 4 0.0000 0.0000 0.0000 27.2296 0.0000 -1.0773
# 5 4.9720 0.5117 21.5017 0.0000 36.2890 0.0000
# 6 0.0000 0.0000 0.0000 -1.0773 0.0000 30.7446
#
#
#
# Elastic Compliance Matrix: (Units=1/GPa)
#
#
# Indices 1 2 3 4 5 6 
#
# 1 0.010311 -0.003828 -0.000980 0.000000 -0.000778 0.000000
# 2 -0.003828 0.012076 -0.002356 0.000000 0.001750 0.000000
# 3 -0.000980 -0.002356 0.008885 0.000000 -0.005097 0.000000
# 4 0.000000 0.000000 0.000000 0.036776 0.000000 0.001289
# 5 -0.000778 0.001750 -0.005097 0.000000 0.030659 0.000000
# 6 0.000000 0.000000 0.000000 0.001289 0.000000 0.032571
#
#
# Mechanical properties :
#
#
# Convention : Reuss Voigt Hill
#
# Bulk Modulus (GPa) = 59.01638 61.26668 60.14153
# Shear Modulus (GPa) = 33.05677 35.79117 34.42397
#
# Velocity S-wave (km/s) = 3.95786 4.11830 4.03888
# Velocity P-wave (km/s) = 6.98944 7.18654 7.08868
#
# Compressibility (1/GPa) = 0.01694445
#
# Stress axis : x y z
#
# Youngs Moduli (GPa) = 96.98122 82.80673 112.54647
#
# Poissons Ratio (x) = 0.31702 0.11025
# Poissons Ratio (y) = 0.37129 0.26518
# Poissons Ratio (z) = 0.09500 0.19510
#
# Static dielectric constant tensor:
#      x y z
#    x 3.889910 0.000000 -0.015010 
#    y 0.000000 3.728560 0.000000 
#    z -0.015010 0.000000 3.952180 
# 
# 
# High freq. dielectric constant tensor:
#      x y z
#    x 1.836130 0.000000 -0.002070 
#    y 0.000000 1.821580 0.000000 
#    z -0.002070 0.000000 1.833250 
# 
# From -- ./inp_files/159262.got.cif
#   From: 2010.06.25/outbox.cif.g09.slc.cpg/sg15_80_cif.got.tgz:159262.got - 2010.06.28 07:06:18.
