data_PCOD8153186
_publ_section_title
;
Structure prediction by ZEFSAII (Michael W. Deem and Ramdas Pophale) SiO2 
 PCOD8153186
Probable space group: C 2/C
;
_chemical_formula_sum "Si O2"
_cell_formula_units_Z 52
_cell_length_a 11.712959
_cell_length_b 13.546584
_cell_length_c 18.811671
_cell_angle_alpha 90.000000
_cell_angle_beta 129.600298
_cell_angle_gamma 90.000000
_cell_volume 2299.863341
_symmetry_space_group_name_H-M "C 2/C"
_symmetry_group_IT_number 15
_symmetry_cell_setting 'monoclinic'
loop_
_space_group_symop_operation_xyz
x,y,z
-x,y,1/2-z
-x,-y,-z
x,-y,1/2+z
1/2+x,1/2+y,z
1/2-x,1/2+y,1/2-z
1/2-x,1/2-y,-z
1/2+x,1/2-y,1/2+z
loop_
_atom_site_type_symbol
_atom_site_label
_atom_site_fract_x
_atom_site_fract_y
_atom_site_fract_z
Si Si1 0.351637 0.065747 0.599272
Si Si2 0.370315 0.351615 0.141509
Si Si3 0.328020 0.376801 0.768897
Si Si4 0.383128 0.022893 0.893521
Si Si5 0.156828 0.362197 0.837476
Si Si6 0.063383 0.005353 0.444689
Si Si7 0.500000 0.217854 0.750000
O O1 0.204147 0.083946 0.492742
O O2 0.369085 0.149860 0.665141
O O3 0.514788 0.060074 0.630702
O O4 0.283769 0.959441 0.599622
O O5 0.500000 0.369721 0.250000
O O6 0.221214 0.391450 0.118904
O O7 0.353893 0.234871 0.117763
O O8 0.396368 0.399120 0.074135
O O9 0.212557 0.427304 0.668063
O O10 0.248417 0.330312 0.805090
O O11 0.441480 0.458715 0.840550
O O12 0.414979 0.285473 0.771393
O O13 0.500000 0.000000 0.000000
O O14 0.000000 0.402146 0.750000
O O15 0.000000 0.000000 0.500000
#
# Coordination Sequence:
#
# PCOD8153186 Si02
#       7
#     8   8   8   8   8   8   4
#     4  12  25  48  69 103 145 191 241 304 365 426
#     4  11  24  45  75 106 141 189 244 296 364 437
#     4  12  25  48  70 105 146 193 242 299 373 443
#     4  12  24  46  77 104 143 190 245 306 368 435
#     4  11  23  43  72 101 137 188 242 290 358 431
#     4  12  26  46  75 109 150 190 240 307 374 439
#     4  12  28  46  74 100 152 198 246 304 368 442
#
# _framework density 22.610040000000001
#
# number of rings (size 3 to 8) (size 9 to 14) (size 15 to 20)
#    0.000    0.308    6.923    1.846    0.000    3.692 
#    2.769    0.000    0.000    0.000    0.000    0.000 
#    0.000    0.000    0.000    0.000    0.000    0.000 
#
# Total GULP energy -322199.784103 kJ/mol
# GULP energy per Si atom -12392.299389 kJ/mol
# Density = 2.255858 g / cm^3
# Si number density = 22.610040 Si / 1000 Ang^3
#
#
#
# Elastic Constant Matrix: (Units=GPa)
#
#
# Indices 1 2 3 4 5 6 
#
# 1 142.0175 46.4396 32.7645 0.0000 -5.2579 0.0000
# 2 46.4396 106.7377 50.2505 0.0000 -10.2254 0.0000
# 3 32.7645 50.2505 114.8784 0.0000 12.5604 0.0000
# 4 0.0000 0.0000 0.0000 -20.8606 0.0000 -38.9630
# 5 -5.2579 -10.2254 12.5604 0.0000 48.6710 0.0000
# 6 0.0000 0.0000 0.0000 -38.9630 0.0000 9.2079
#
#
#
# Elastic Compliance Matrix: (Units=1/GPa)
#
#
# Indices 1 2 3 4 5 6 
#
# 1 0.008311 -0.003048 -0.001096 0.000000 0.000540 0.000000
# 2 -0.003048 0.013691 -0.005555 0.000000 0.003981 0.000000
# 3 -0.001096 -0.005555 0.011924 0.000000 -0.004363 0.000000
# 4 0.000000 0.000000 0.000000 -0.005384 0.000000 -0.022783
# 5 0.000540 0.003981 -0.004363 0.000000 0.022567 0.000000
# 6 0.000000 0.000000 0.000000 -0.022783 0.000000 0.012198
#
#
# Mechanical properties :
#
#
# Convention : Reuss Voigt Hill
#
# Bulk Modulus (GPa) = 68.83010 69.17140 69.00075
# Shear Modulus (GPa) = 57.11144 23.01559 40.06352
#
# Velocity S-wave (km/s) = 5.03132 3.19397 4.21400
# Velocity P-wave (km/s) = 8.01627 6.65294 7.36621
#
# Compressibility (1/GPa) = 0.01452853
#
# Stress axis : x y z
#
# Youngs Moduli (GPa) = 120.32213 73.03839 83.86245
#
# Poissons Ratio (x) = 0.22263 0.09192
# Poissons Ratio (y) = 0.36676 0.46584
# Poissons Ratio (z) = 0.13189 0.40571
#
# Static dielectric constant tensor:
#      x y z
#    x 3.367740 0.000000 0.263620 
#    y 0.000000 3.946250 0.000000 
#    z 0.263620 0.000000 4.078550 
# 
# 
# High freq. dielectric constant tensor:
#      x y z
#    x 1.909390 0.000000 0.014620 
#    y 0.000000 1.880450 0.000000 
#    z 0.014620 0.000000 1.906800 
# 
# From -- ./inp_files/198002.got.cif
#   From: 2010.06.25/outbox.cif.g09.slc.cpg/sg15_100_cif.got.tgz:198002.got - 2010.06.28 07:06:18.
